MODEL 1
REMARK VINA RESULT:      -6.5      0.000      0.000
REMARK  8 active torsions:
REMARK  status: ('A' for Active; 'I' for Inactive)
REMARK    1  A    between atoms: C_1  and  O_2 
REMARK    2  A    between atoms: O_2  and  C_3 
REMARK    3  A    between atoms: C_8  and  C_9 
REMARK       I    between atoms: C_9  and  N_11 
REMARK    4  A    between atoms: N_16  and  C_17 
REMARK    5  A    between atoms: C_17  and  C_18 
REMARK    6  A    between atoms: C_26  and  C_28 
REMARK    7  A    between atoms: C_28  and  O_30 
REMARK    8  A    between atoms: O_30  and  C_31 
ROOT
ATOM      1  C   LIG d   1       7.374  -0.206  -4.763  0.00  0.00     0.251 C 
ATOM      2  O   LIG d   1       8.538  -0.147  -4.414  0.00  0.00    -0.270 OA
ATOM      3  N   LIG d   1       7.064  -0.251  -6.073  0.00  0.00    -0.278 N 
ATOM      4  C   LIG d   1       5.673  -0.460  -6.515  0.00  0.00     0.062 C 
ATOM      5  C   LIG d   1       5.414   0.518  -7.638  0.00  0.00     0.108 A 
ATOM      6  C   LIG d   1       6.374   1.238  -8.255  0.00  0.00     0.207 A 
ATOM      7  C   LIG d   1       4.501   1.750  -9.188  0.00  0.00     0.247 A 
ATOM      8  N   LIG d   1       4.229   0.841  -8.223  0.00  0.00    -0.287 N 
ATOM      9  C   LIG d   1       7.840   1.180  -7.903  0.00  0.00     0.063 C 
ATOM     10  C   LIG d   1       8.106  -0.100  -7.100  0.00  0.00     0.133 C 
ATOM     11  H   LIG d   1       8.086  -0.960  -7.769  0.00  0.00     0.062 H 
ATOM     12  H   LIG d   1       5.548  -1.483  -6.872  0.00  0.00     0.053 H 
ATOM     13  H   LIG d   1       4.989  -0.268  -5.688  0.00  0.00     0.053 H 
ATOM     14  H   LIG d   1       3.774   2.211  -9.842  0.00  0.00     0.160 H 
ATOM     15  H   LIG d   1       8.107   2.050  -7.304  0.00  0.00     0.040 H 
ATOM     16  H   LIG d   1       8.436   1.169  -8.816  0.00  0.00     0.040 H 
ATOM     17  N   LIG d   1       5.786   1.980  -9.197  0.00  0.00    -0.198 N 
ATOM     18  H   LIG d   1       6.270   2.628  -9.830  0.00  0.00     0.454 HD
ENDROOT
BRANCH   1  19
ATOM     19  C   LIG d   1       6.302  -0.234  -3.750  0.00  0.00     0.079 A 
ATOM     20  C   LIG d   1       5.750  -1.455  -3.341  0.00  0.00     0.132 A 
ATOM     21  C   LIG d   1       4.743  -1.470  -2.388  0.00  0.00    -0.019 A 
ATOM     22  C   LIG d   1       4.287  -0.285  -1.844  0.00  0.00    -0.058 A 
ATOM     23  H   LIG d   1       4.314  -2.408  -2.070  0.00  0.00     0.065 H 
ATOM     24  C   LIG d   1       4.830   0.925  -2.246  0.00  0.00    -0.061 A 
ATOM     25  H   LIG d   1       3.503  -0.301  -1.102  0.00  0.00     0.062 H 
ATOM     26  C   LIG d   1       5.836   0.957  -3.188  0.00  0.00    -0.046 A 
ATOM     27  H   LIG d   1       4.468   1.846  -1.814  0.00  0.00     0.062 H 
ATOM     28  H   LIG d   1       6.259   1.901  -3.494  0.00  0.00     0.063 H 
BRANCH  20  29
ATOM     29  O   LIG d   1       6.198  -2.619  -3.876  0.00  0.00    -0.494 OA
BRANCH  29  30
ATOM     30  C   LIG d   1       5.235  -3.444  -4.535  0.00  0.00     0.079 C 
ATOM     31  H   LIG d   1       4.509  -2.815  -5.050  0.00  0.00     0.066 H 
ATOM     32  H   LIG d   1       5.740  -4.084  -5.259  0.00  0.00     0.066 H 
ATOM     33  H   LIG d   1       4.722  -4.062  -3.799  0.00  0.00     0.066 H 
ENDBRANCH  29  30
ENDBRANCH  20  29
ENDBRANCH   1  19
BRANCH  10  34
ATOM     34  C   LIG d   1       9.456  -0.007  -6.438  0.00  0.00     0.328 C 
ATOM     35  O   LIG d   1       9.914   1.073  -6.148  0.00  0.00    -0.249 OA
BRANCH  34  36
ATOM     36  O   LIG d   1      10.151  -1.124  -6.171  0.00  0.00    -0.467 OA
BRANCH  36  37
ATOM     37  C   LIG d   1       9.944  -2.257  -7.056  0.00  0.00     0.082 C 
ATOM     38  H   LIG d   1       9.001  -2.133  -7.590  0.00  0.00     0.066 H 
ATOM     39  H   LIG d   1      10.763  -2.312  -7.773  0.00  0.00     0.066 H 
ATOM     40  H   LIG d   1       9.912  -3.175  -6.469  0.00  0.00     0.066 H 
ENDBRANCH  36  37
ENDBRANCH  34  36
ENDBRANCH  10  34
BRANCH   8  41
ATOM     41  C   LIG d   1       2.910   0.306  -7.876  0.00  0.00     0.053 C 
ATOM     42  H   LIG d   1       2.951  -0.148  -6.887  0.00  0.00     0.054 H 
ATOM     43  H   LIG d   1       2.178   1.115  -7.874  0.00  0.00     0.054 H 
BRANCH  41  44
ATOM     44  C   LIG d   1       2.506  -0.733  -8.890  0.00  0.00    -0.028 A 
ATOM     45  C   LIG d   1       1.600  -0.414  -9.884  0.00  0.00    -0.056 A 
ATOM     46  C   LIG d   1       1.230  -1.366 -10.815  0.00  0.00    -0.043 A 
ATOM     47  H   LIG d   1       1.181   0.581  -9.933  0.00  0.00     0.062 H 
ATOM     48  C   LIG d   1       1.766  -2.639 -10.752  0.00  0.00     0.041 A 
ATOM     49  H   LIG d   1       0.522  -1.116 -11.591  0.00  0.00     0.063 H 
ATOM     50  C   LIG d   1       2.673  -2.959  -9.756  0.00  0.00    -0.043 A 
ATOM     51 CL   LIG d   1       1.302  -3.837 -11.920  0.00  0.00    -0.084 Cl
ATOM     52  C   LIG d   1       3.047  -2.004  -8.830  0.00  0.00    -0.056 A 
ATOM     53  H   LIG d   1       3.092  -3.953  -9.707  0.00  0.00     0.063 H 
ATOM     54  H   LIG d   1       3.759  -2.251  -8.056  0.00  0.00     0.062 H 
ENDBRANCH  41  44
ENDBRANCH   8  41
TORSDOF 8
ENDMDL
MODEL 2
REMARK VINA RESULT:      -6.4      1.756      2.826
REMARK  8 active torsions:
REMARK  status: ('A' for Active; 'I' for Inactive)
REMARK    1  A    between atoms: C_1  and  O_2 
REMARK    2  A    between atoms: O_2  and  C_3 
REMARK    3  A    between atoms: C_8  and  C_9 
REMARK       I    between atoms: C_9  and  N_11 
REMARK    4  A    between atoms: N_16  and  C_17 
REMARK    5  A    between atoms: C_17  and  C_18 
REMARK    6  A    between atoms: C_26  and  C_28 
REMARK    7  A    between atoms: C_28  and  O_30 
REMARK    8  A    between atoms: O_30  and  C_31 
ROOT
ATOM      1  C   LIG d   1       6.196  -1.860  -4.321  0.00  0.00     0.251 C 
ATOM      2  O   LIG d   1       6.874  -2.632  -3.671  0.00  0.00    -0.270 OA
ATOM      3  N   LIG d   1       6.251  -1.885  -5.667  0.00  0.00    -0.278 N 
ATOM      4  C   LIG d   1       5.340  -1.054  -6.476  0.00  0.00     0.062 C 
ATOM      5  C   LIG d   1       6.170  -0.428  -7.574  0.00  0.00     0.108 A 
ATOM      6  C   LIG d   1       7.435  -0.792  -7.872  0.00  0.00     0.207 A 
ATOM      7  C   LIG d   1       6.888   0.776  -9.245  0.00  0.00     0.247 A 
ATOM      8  N   LIG d   1       5.822   0.564  -8.439  0.00  0.00    -0.287 N 
ATOM      9  C   LIG d   1       8.206  -1.865  -7.144  0.00  0.00     0.063 C 
ATOM     10  C   LIG d   1       7.217  -2.745  -6.367  0.00  0.00     0.133 C 
ATOM     11  H   LIG d   1       6.687  -3.396  -7.062  0.00  0.00     0.062 H 
ATOM     12  H   LIG d   1       4.557  -1.677  -6.908  0.00  0.00     0.053 H 
ATOM     13  H   LIG d   1       4.897  -0.276  -5.855  0.00  0.00     0.053 H 
ATOM     14  H   LIG d   1       6.938   1.501 -10.044  0.00  0.00     0.160 H 
ATOM     15  H   LIG d   1       8.907  -1.404  -6.449  0.00  0.00     0.040 H 
ATOM     16  H   LIG d   1       8.752  -2.477  -7.862  0.00  0.00     0.040 H 
ATOM     17  N   LIG d   1       7.846  -0.041  -8.897  0.00  0.00    -0.198 N 
ATOM     18  H   LIG d   1       8.770  -0.097  -9.342  0.00  0.00     0.454 HD
ENDROOT
BRANCH   1  19
ATOM     19  C   LIG d   1       5.310  -0.900  -3.636  0.00  0.00     0.079 A 
ATOM     20  C   LIG d   1       5.824   0.307  -3.145  0.00  0.00     0.132 A 
ATOM     21  C   LIG d   1       4.981   1.202  -2.503  0.00  0.00    -0.019 A 
ATOM     22  C   LIG d   1       3.642   0.904  -2.350  0.00  0.00    -0.058 A 
ATOM     23  H   LIG d   1       5.373   2.133  -2.122  0.00  0.00     0.065 H 
ATOM     24  C   LIG d   1       3.130  -0.289  -2.834  0.00  0.00    -0.061 A 
ATOM     25  H   LIG d   1       2.989   1.604  -1.849  0.00  0.00     0.062 H 
ATOM     26  C   LIG d   1       3.952  -1.188  -3.479  0.00  0.00    -0.046 A 
ATOM     27  H   LIG d   1       2.081  -0.513  -2.710  0.00  0.00     0.062 H 
ATOM     28  H   LIG d   1       3.548  -2.114  -3.859  0.00  0.00     0.063 H 
BRANCH  20  29
ATOM     29  O   LIG d   1       7.140   0.599  -3.296  0.00  0.00    -0.494 OA
BRANCH  29  30
ATOM     30  C   LIG d   1       7.481   1.551  -4.306  0.00  0.00     0.079 C 
ATOM     31  H   LIG d   1       8.429   2.026  -4.052  0.00  0.00     0.066 H 
ATOM     32  H   LIG d   1       7.575   1.044  -5.266  0.00  0.00     0.066 H 
ATOM     33  H   LIG d   1       6.701   2.309  -4.370  0.00  0.00     0.066 H 
ENDBRANCH  29  30
ENDBRANCH  20  29
ENDBRANCH   1  19
BRANCH  10  34
ATOM     34  C   LIG d   1       7.967  -3.581  -5.363  0.00  0.00     0.328 C 
ATOM     35  O   LIG d   1       9.015  -3.184  -4.910  0.00  0.00    -0.249 OA
BRANCH  34  36
ATOM     36  O   LIG d   1       7.472  -4.765  -4.972  0.00  0.00    -0.467 OA
BRANCH  36  37
ATOM     37  C   LIG d   1       6.665  -5.493  -5.936  0.00  0.00     0.082 C 
ATOM     38  H   LIG d   1       7.214  -5.586  -6.874  0.00  0.00     0.066 H 
ATOM     39  H   LIG d   1       6.442  -6.486  -5.546  0.00  0.00     0.066 H 
ATOM     40  H   LIG d   1       5.734  -4.953  -6.111  0.00  0.00     0.066 H 
ENDBRANCH  36  37
ENDBRANCH  34  36
ENDBRANCH  10  34
BRANCH   8  41
ATOM     41  C   LIG d   1       4.538   1.268  -8.487  0.00  0.00     0.053 C 
ATOM     42  H   LIG d   1       4.113   1.317  -7.485  0.00  0.00     0.054 H 
ATOM     43  H   LIG d   1       4.692   2.279  -8.866  0.00  0.00     0.054 H 
BRANCH  41  44
ATOM     44  C   LIG d   1       3.594   0.528  -9.399  0.00  0.00    -0.028 A 
ATOM     45  C   LIG d   1       3.882   0.415 -10.746  0.00  0.00    -0.056 A 
ATOM     46  C   LIG d   1       3.017  -0.263 -11.584  0.00  0.00    -0.043 A 
ATOM     47  H   LIG d   1       4.784   0.857 -11.145  0.00  0.00     0.062 H 
ATOM     48  C   LIG d   1       1.862  -0.829 -11.074  0.00  0.00     0.041 A 
ATOM     49  H   LIG d   1       3.242  -0.351 -12.636  0.00  0.00     0.063 H 
ATOM     50  C   LIG d   1       1.573  -0.715  -9.725  0.00  0.00    -0.043 A 
ATOM     51 CL   LIG d   1       0.774  -1.681 -12.124  0.00  0.00    -0.084 Cl
ATOM     52  C   LIG d   1       2.443  -0.041  -8.888  0.00  0.00    -0.056 A 
ATOM     53  H   LIG d   1       0.673  -1.156  -9.326  0.00  0.00     0.063 H 
ATOM     54  H   LIG d   1       2.221   0.044  -7.834  0.00  0.00     0.062 H 
ENDBRANCH  41  44
ENDBRANCH   8  41
TORSDOF 8
ENDMDL
MODEL 3
REMARK VINA RESULT:      -6.4      3.696      6.443
REMARK  8 active torsions:
REMARK  status: ('A' for Active; 'I' for Inactive)
REMARK    1  A    between atoms: C_1  and  O_2 
REMARK    2  A    between atoms: O_2  and  C_3 
REMARK    3  A    between atoms: C_8  and  C_9 
REMARK       I    between atoms: C_9  and  N_11 
REMARK    4  A    between atoms: N_16  and  C_17 
REMARK    5  A    between atoms: C_17  and  C_18 
REMARK    6  A    between atoms: C_26  and  C_28 
REMARK    7  A    between atoms: C_28  and  O_30 
REMARK    8  A    between atoms: O_30  and  C_31 
ROOT
ATOM      1  C   LIG d   1       3.825  -0.209  -5.752  0.00  0.00     0.251 C 
ATOM      2  O   LIG d   1       2.699  -0.130  -6.202  0.00  0.00    -0.270 OA
ATOM      3  N   LIG d   1       4.887  -0.170  -6.580  0.00  0.00    -0.278 N 
ATOM      4  C   LIG d   1       6.261  -0.127  -6.047  0.00  0.00     0.062 C 
ATOM      5  C   LIG d   1       7.083  -1.101  -6.860  0.00  0.00     0.108 A 
ATOM      6  C   LIG d   1       6.661  -1.679  -8.005  0.00  0.00     0.207 A 
ATOM      7  C   LIG d   1       8.657  -2.399  -7.629  0.00  0.00     0.247 A 
ATOM      8  N   LIG d   1       8.342  -1.556  -6.619  0.00  0.00    -0.287 N 
ATOM      9  C   LIG d   1       5.308  -1.445  -8.628  0.00  0.00     0.063 C 
ATOM     10  C   LIG d   1       4.705  -0.163  -8.039  0.00  0.00     0.133 C 
ATOM     11  H   LIG d   1       5.210   0.704  -8.465  0.00  0.00     0.062 H 
ATOM     12  H   LIG d   1       6.666   0.881  -6.148  0.00  0.00     0.053 H 
ATOM     13  H   LIG d   1       6.262  -0.424  -4.998  0.00  0.00     0.053 H 
ATOM     14  H   LIG d   1       9.591  -2.930  -7.738  0.00  0.00     0.160 H 
ATOM     15  H   LIG d   1       4.654  -2.289  -8.410  0.00  0.00     0.040 H 
ATOM     16  H   LIG d   1       5.414  -1.336  -9.708  0.00  0.00     0.040 H 
ATOM     17  N   LIG d   1       7.645  -2.464  -8.452  0.00  0.00    -0.198 N 
ATOM     18  H   LIG d   1       7.610  -3.030  -9.308  0.00  0.00     0.454 HD
ENDROOT
BRANCH   1  19
ATOM     19  C   LIG d   1       4.029  -0.342  -4.296  0.00  0.00     0.079 A 
ATOM     20  C   LIG d   1       4.116  -1.611  -3.710  0.00  0.00     0.132 A 
ATOM     21  C   LIG d   1       4.309  -1.725  -2.341  0.00  0.00    -0.019 A 
ATOM     22  C   LIG d   1       4.414  -0.590  -1.561  0.00  0.00    -0.058 A 
ATOM     23  H   LIG d   1       4.377  -2.701  -1.885  0.00  0.00     0.065 H 
ATOM     24  C   LIG d   1       4.328   0.667  -2.137  0.00  0.00    -0.061 A 
ATOM     25  H   LIG d   1       4.564  -0.683  -0.495  0.00  0.00     0.062 H 
ATOM     26  C   LIG d   1       4.142   0.798  -3.497  0.00  0.00    -0.046 A 
ATOM     27  H   LIG d   1       4.412   1.548  -1.519  0.00  0.00     0.062 H 
ATOM     28  H   LIG d   1       4.080   1.779  -3.942  0.00  0.00     0.063 H 
BRANCH  20  29
ATOM     29  O   LIG d   1       4.014  -2.725  -4.477  0.00  0.00    -0.494 OA
BRANCH  29  30
ATOM     30  C   LIG d   1       5.201  -3.500  -4.659  0.00  0.00     0.079 C 
ATOM     31  H   LIG d   1       5.566  -3.838  -3.689  0.00  0.00     0.066 H 
ATOM     32  H   LIG d   1       4.978  -4.364  -5.285  0.00  0.00     0.066 H 
ATOM     33  H   LIG d   1       5.964  -2.889  -5.140  0.00  0.00     0.066 H 
ENDBRANCH  29  30
ENDBRANCH  20  29
ENDBRANCH   1  19
BRANCH  10  34
ATOM     34  C   LIG d   1       3.235  -0.102  -8.363  0.00  0.00     0.328 C 
ATOM     35  O   LIG d   1       2.616  -1.122  -8.552  0.00  0.00    -0.249 OA
BRANCH  34  36
ATOM     36  O   LIG d   1       2.614   1.085  -8.443  0.00  0.00    -0.467 OA
BRANCH  36  37
ATOM     37  C   LIG d   1       3.380   2.195  -8.983  0.00  0.00     0.082 C 
ATOM     38  H   LIG d   1       3.953   2.665  -8.183  0.00  0.00     0.066 H 
ATOM     39  H   LIG d   1       4.061   1.826  -9.751  0.00  0.00     0.066 H 
ATOM     40  H   LIG d   1       2.700   2.926  -9.421  0.00  0.00     0.066 H 
ENDBRANCH  36  37
ENDBRANCH  34  36
ENDBRANCH  10  34
BRANCH   8  41
ATOM     41  C   LIG d   1       9.195  -1.200  -5.482  0.00  0.00     0.053 C 
ATOM     42  H   LIG d   1      10.080  -0.675  -5.843  0.00  0.00     0.054 H 
ATOM     43  H   LIG d   1       8.642  -0.553  -4.802  0.00  0.00     0.054 H 
BRANCH  41  44
ATOM     44  C   LIG d   1       9.614  -2.452  -4.756  0.00  0.00    -0.028 A 
ATOM     45  C   LIG d   1      10.942  -2.832  -4.744  0.00  0.00    -0.056 A 
ATOM     46  C   LIG d   1      11.328  -3.981  -4.079  0.00  0.00    -0.043 A 
ATOM     47  H   LIG d   1      11.681  -2.231  -5.255  0.00  0.00     0.062 H 
ATOM     48  C   LIG d   1      10.382  -4.750  -3.425  0.00  0.00     0.041 A 
ATOM     49  H   LIG d   1      12.366  -4.277  -4.069  0.00  0.00     0.063 H 
ATOM     50  C   LIG d   1       9.052  -4.370  -3.437  0.00  0.00    -0.043 A 
ATOM     51 CL   LIG d   1      10.864  -6.193  -2.589  0.00  0.00    -0.084 Cl
ATOM     52  C   LIG d   1       8.670  -3.218  -4.099  0.00  0.00    -0.056 A 
ATOM     53  H   LIG d   1       8.314  -4.970  -2.927  0.00  0.00     0.063 H 
ATOM     54  H   LIG d   1       7.632  -2.918  -4.105  0.00  0.00     0.062 H 
ENDBRANCH  41  44
ENDBRANCH   8  41
TORSDOF 8
ENDMDL
MODEL 4
REMARK VINA RESULT:      -6.3      4.128      6.196
REMARK  8 active torsions:
REMARK  status: ('A' for Active; 'I' for Inactive)
REMARK    1  A    between atoms: C_1  and  O_2 
REMARK    2  A    between atoms: O_2  and  C_3 
REMARK    3  A    between atoms: C_8  and  C_9 
REMARK       I    between atoms: C_9  and  N_11 
REMARK    4  A    between atoms: N_16  and  C_17 
REMARK    5  A    between atoms: C_17  and  C_18 
REMARK    6  A    between atoms: C_26  and  C_28 
REMARK    7  A    between atoms: C_28  and  O_30 
REMARK    8  A    between atoms: O_30  and  C_31 
ROOT
ATOM      1  C   LIG d   1       3.990  -0.274  -6.065  0.00  0.00     0.251 C 
ATOM      2  O   LIG d   1       3.528   0.752  -6.525  0.00  0.00    -0.270 OA
ATOM      3  N   LIG d   1       4.400  -1.257  -6.891  0.00  0.00    -0.278 N 
ATOM      4  C   LIG d   1       5.087  -2.450  -6.363  0.00  0.00     0.062 C 
ATOM      5  C   LIG d   1       4.486  -3.651  -7.058  0.00  0.00     0.108 A 
ATOM      6  C   LIG d   1       3.669  -3.577  -8.130  0.00  0.00     0.207 A 
ATOM      7  C   LIG d   1       3.925  -5.667  -7.671  0.00  0.00     0.247 A 
ATOM      8  N   LIG d   1       4.647  -4.969  -6.764  0.00  0.00    -0.287 N 
ATOM      9  C   LIG d   1       3.229  -2.289  -8.779  0.00  0.00     0.063 C 
ATOM     10  C   LIG d   1       4.178  -1.165  -8.342  0.00  0.00     0.133 C 
ATOM     11  H   LIG d   1       5.130  -1.269  -8.862  0.00  0.00     0.062 H 
ATOM     12  H   LIG d   1       6.154  -2.388  -6.578  0.00  0.00     0.053 H 
ATOM     13  H   LIG d   1       4.928  -2.524  -5.287  0.00  0.00     0.053 H 
ATOM     14  H   LIG d   1       3.842  -6.743  -7.716  0.00  0.00     0.160 H 
ATOM     15  H   LIG d   1       2.213  -2.050  -8.467  0.00  0.00     0.040 H 
ATOM     16  H   LIG d   1       3.263  -2.393  -9.864  0.00  0.00     0.040 H 
ATOM     17  N   LIG d   1       3.345  -4.824  -8.482  0.00  0.00    -0.198 N 
ATOM     18  H   LIG d   1       2.736  -5.080  -9.268  0.00  0.00     0.454 HD
ENDROOT
BRANCH   1  19
ATOM     19  C   LIG d   1       4.108  -0.440  -4.604  0.00  0.00     0.079 A 
ATOM     20  C   LIG d   1       5.238   0.040  -3.929  0.00  0.00     0.132 A 
ATOM     21  C   LIG d   1       5.338  -0.122  -2.555  0.00  0.00    -0.019 A 
ATOM     22  C   LIG d   1       4.327  -0.753  -1.857  0.00  0.00    -0.058 A 
ATOM     23  H   LIG d   1       6.207   0.246  -2.030  0.00  0.00     0.065 H 
ATOM     24  C   LIG d   1       3.208  -1.229  -2.521  0.00  0.00    -0.061 A 
ATOM     25  H   LIG d   1       4.409  -0.876  -0.787  0.00  0.00     0.062 H 
ATOM     26  C   LIG d   1       3.091  -1.072  -3.886  0.00  0.00    -0.046 A 
ATOM     27  H   LIG d   1       2.423  -1.720  -1.967  0.00  0.00     0.062 H 
ATOM     28  H   LIG d   1       2.215  -1.441  -4.398  0.00  0.00     0.063 H 
BRANCH  20  29
ATOM     29  O   LIG d   1       6.230   0.660  -4.615  0.00  0.00    -0.494 OA
BRANCH  29  30
ATOM     30  C   LIG d   1       7.307   1.204  -3.850  0.00  0.00     0.079 C 
ATOM     31  H   LIG d   1       7.348   2.283  -3.996  0.00  0.00     0.066 H 
ATOM     32  H   LIG d   1       7.148   0.987  -2.793  0.00  0.00     0.066 H 
ATOM     33  H   LIG d   1       8.246   0.758  -4.175  0.00  0.00     0.066 H 
ENDBRANCH  29  30
ENDBRANCH  20  29
ENDBRANCH   1  19
BRANCH  10  34
ATOM     34  C   LIG d   1       3.564   0.171  -8.673  0.00  0.00     0.328 C 
ATOM     35  O   LIG d   1       2.362   0.286  -8.727  0.00  0.00    -0.249 OA
BRANCH  34  36
ATOM     36  O   LIG d   1       4.352   1.231  -8.910  0.00  0.00    -0.467 OA
BRANCH  36  37
ATOM     37  C   LIG d   1       3.798   2.293  -9.732  0.00  0.00     0.082 C 
ATOM     38  H   LIG d   1       3.919   2.039 -10.785  0.00  0.00     0.066 H 
ATOM     39  H   LIG d   1       2.738   2.412  -9.506  0.00  0.00     0.066 H 
ATOM     40  H   LIG d   1       4.321   3.226  -9.520  0.00  0.00     0.066 H 
ENDBRANCH  36  37
ENDBRANCH  34  36
ENDBRANCH  10  34
BRANCH   8  41
ATOM     41  C   LIG d   1       5.451  -5.528  -5.674  0.00  0.00     0.053 C 
ATOM     42  H   LIG d   1       6.400  -4.995  -5.613  0.00  0.00     0.054 H 
ATOM     43  H   LIG d   1       4.913  -5.418  -4.732  0.00  0.00     0.054 H 
BRANCH  41  44
ATOM     44  C   LIG d   1       5.710  -6.989  -5.937  0.00  0.00    -0.028 A 
ATOM     45  C   LIG d   1       4.925  -7.950  -5.329  0.00  0.00    -0.056 A 
ATOM     46  C   LIG d   1       5.161  -9.290  -5.570  0.00  0.00    -0.043 A 
ATOM     47  H   LIG d   1       4.125  -7.653  -4.665  0.00  0.00     0.062 H 
ATOM     48  C   LIG d   1       6.184  -9.669  -6.420  0.00  0.00     0.041 A 
ATOM     49  H   LIG d   1       4.547 -10.041  -5.095  0.00  0.00     0.063 H 
ATOM     50  C   LIG d   1       6.971  -8.707  -7.029  0.00  0.00    -0.043 A 
ATOM     51 CL   LIG d   1       6.482 -11.353  -6.724  0.00  0.00    -0.084 Cl
ATOM     52  C   LIG d   1       6.729  -7.367  -6.790  0.00  0.00    -0.056 A 
ATOM     53  H   LIG d   1       7.769  -9.002  -7.692  0.00  0.00     0.063 H 
ATOM     54  H   LIG d   1       7.339  -6.615  -7.269  0.00  0.00     0.062 H 
ENDBRANCH  41  44
ENDBRANCH   8  41
TORSDOF 8
ENDMDL
MODEL 5
REMARK VINA RESULT:      -6.3      4.360      7.750
REMARK  8 active torsions:
REMARK  status: ('A' for Active; 'I' for Inactive)
REMARK    1  A    between atoms: C_1  and  O_2 
REMARK    2  A    between atoms: O_2  and  C_3 
REMARK    3  A    between atoms: C_8  and  C_9 
REMARK       I    between atoms: C_9  and  N_11 
REMARK    4  A    between atoms: N_16  and  C_17 
REMARK    5  A    between atoms: C_17  and  C_18 
REMARK    6  A    between atoms: C_26  and  C_28 
REMARK    7  A    between atoms: C_28  and  O_30 
REMARK    8  A    between atoms: O_30  and  C_31 
ROOT
ATOM      1  C   LIG d   1       2.722  -1.685 -10.369  0.00  0.00     0.251 C 
ATOM      2  O   LIG d   1       1.847  -1.875 -11.191  0.00  0.00    -0.270 OA
ATOM      3  N   LIG d   1       3.452  -2.720  -9.909  0.00  0.00    -0.278 N 
ATOM      4  C   LIG d   1       4.604  -2.496  -9.018  0.00  0.00     0.062 C 
ATOM      5  C   LIG d   1       4.516  -3.524  -7.913  0.00  0.00     0.108 A 
ATOM      6  C   LIG d   1       3.678  -4.582  -7.925  0.00  0.00     0.207 A 
ATOM      7  C   LIG d   1       4.809  -4.692  -6.094  0.00  0.00     0.247 A 
ATOM      8  N   LIG d   1       5.230  -3.589  -6.756  0.00  0.00    -0.287 N 
ATOM      9  C   LIG d   1       2.702  -4.882  -9.036  0.00  0.00     0.063 C 
ATOM     10  C   LIG d   1       3.122  -4.103 -10.288  0.00  0.00     0.133 C 
ATOM     11  H   LIG d   1       3.996  -4.575 -10.735  0.00  0.00     0.062 H 
ATOM     12  H   LIG d   1       5.533  -2.624  -9.574  0.00  0.00     0.053 H 
ATOM     13  H   LIG d   1       4.558  -1.492  -8.597  0.00  0.00     0.053 H 
ATOM     14  H   LIG d   1       5.179  -5.031  -5.138  0.00  0.00     0.160 H 
ATOM     15  H   LIG d   1       1.700  -4.577  -8.734  0.00  0.00     0.040 H 
ATOM     16  H   LIG d   1       2.709  -5.951  -9.252  0.00  0.00     0.040 H 
ATOM     17  N   LIG d   1       3.881  -5.277  -6.803  0.00  0.00    -0.198 N 
ATOM     18  H   LIG d   1       3.386  -6.137  -6.539  0.00  0.00     0.454 HD
ENDROOT
BRANCH   1  19
ATOM     19  C   LIG d   1       2.989  -0.319  -9.879  0.00  0.00     0.079 A 
ATOM     20  C   LIG d   1       3.709   0.585 -10.671  0.00  0.00     0.132 A 
ATOM     21  C   LIG d   1       3.954   1.867 -10.201  0.00  0.00    -0.019 A 
ATOM     22  C   LIG d   1       3.489   2.249  -8.958  0.00  0.00    -0.058 A 
ATOM     23  H   LIG d   1       4.509   2.567 -10.807  0.00  0.00     0.065 H 
ATOM     24  C   LIG d   1       2.777   1.357  -8.172  0.00  0.00    -0.061 A 
ATOM     25  H   LIG d   1       3.682   3.248  -8.596  0.00  0.00     0.062 H 
ATOM     26  C   LIG d   1       2.521   0.081  -8.626  0.00  0.00    -0.046 A 
ATOM     27  H   LIG d   1       2.417   1.665  -7.202  0.00  0.00     0.062 H 
ATOM     28  H   LIG d   1       1.961  -0.608  -8.012  0.00  0.00     0.063 H 
BRANCH  20  29
ATOM     29  O   LIG d   1       4.165   0.210 -11.892  0.00  0.00    -0.494 OA
BRANCH  29  30
ATOM     30  C   LIG d   1       5.469  -0.373 -11.947  0.00  0.00     0.079 C 
ATOM     31  H   LIG d   1       5.494  -1.135 -12.726  0.00  0.00     0.066 H 
ATOM     32  H   LIG d   1       6.203   0.401 -12.173  0.00  0.00     0.066 H 
ATOM     33  H   LIG d   1       5.705  -0.828 -10.986  0.00  0.00     0.066 H 
ENDBRANCH  29  30
ENDBRANCH  20  29
ENDBRANCH   1  19
BRANCH  10  34
ATOM     34  C   LIG d   1       1.988  -4.095 -11.281  0.00  0.00     0.328 C 
ATOM     35  O   LIG d   1       2.223  -4.036 -12.465  0.00  0.00    -0.249 OA
BRANCH  34  36
ATOM     36  O   LIG d   1       0.719  -4.154 -10.850  0.00  0.00    -0.467 OA
BRANCH  36  37
ATOM     37  C   LIG d   1      -0.263  -4.712 -11.764  0.00  0.00     0.082 C 
ATOM     38  H   LIG d   1       0.174  -5.559 -12.294  0.00  0.00     0.066 H 
ATOM     39  H   LIG d   1      -1.134  -5.047 -11.200  0.00  0.00     0.066 H 
ATOM     40  H   LIG d   1      -0.565  -3.950 -12.482  0.00  0.00     0.066 H 
ENDBRANCH  36  37
ENDBRANCH  34  36
ENDBRANCH  10  34
BRANCH   8  41
ATOM     41  C   LIG d   1       6.259  -2.646  -6.312  0.00  0.00     0.053 C 
ATOM     42  H   LIG d   1       7.123  -3.198  -5.943  0.00  0.00     0.054 H 
ATOM     43  H   LIG d   1       6.562  -2.017  -7.151  0.00  0.00     0.054 H 
BRANCH  41  44
ATOM     44  C   LIG d   1       5.706  -1.781  -5.210  0.00  0.00    -0.028 A 
ATOM     45  C   LIG d   1       4.704  -0.869  -5.483  0.00  0.00    -0.056 A 
ATOM     46  C   LIG d   1       4.196  -0.075  -4.472  0.00  0.00    -0.043 A 
ATOM     47  H   LIG d   1       4.318  -0.777  -6.488  0.00  0.00     0.062 H 
ATOM     48  C   LIG d   1       4.691  -0.193  -3.186  0.00  0.00     0.041 A 
ATOM     49  H   LIG d   1       3.413   0.637  -4.687  0.00  0.00     0.063 H 
ATOM     50  C   LIG d   1       5.695  -1.106  -2.912  0.00  0.00    -0.043 A 
ATOM     51 CL   LIG d   1       4.055   0.804  -1.915  0.00  0.00    -0.084 Cl
ATOM     52  C   LIG d   1       6.198  -1.902  -3.923  0.00  0.00    -0.056 A 
ATOM     53  H   LIG d   1       6.082  -1.198  -1.909  0.00  0.00     0.063 H 
ATOM     54  H   LIG d   1       6.978  -2.619  -3.709  0.00  0.00     0.062 H 
ENDBRANCH  41  44
ENDBRANCH   8  41
TORSDOF 8
ENDMDL
MODEL 6
REMARK VINA RESULT:      -6.3      3.754      6.113
REMARK  8 active torsions:
REMARK  status: ('A' for Active; 'I' for Inactive)
REMARK    1  A    between atoms: C_1  and  O_2 
REMARK    2  A    between atoms: O_2  and  C_3 
REMARK    3  A    between atoms: C_8  and  C_9 
REMARK       I    between atoms: C_9  and  N_11 
REMARK    4  A    between atoms: N_16  and  C_17 
REMARK    5  A    between atoms: C_17  and  C_18 
REMARK    6  A    between atoms: C_26  and  C_28 
REMARK    7  A    between atoms: C_28  and  O_30 
REMARK    8  A    between atoms: O_30  and  C_31 
ROOT
ATOM      1  C   LIG d   1       4.000  -0.291  -6.069  0.00  0.00     0.251 C 
ATOM      2  O   LIG d   1       3.556   0.744  -6.529  0.00  0.00    -0.270 OA
ATOM      3  N   LIG d   1       4.402  -1.277  -6.894  0.00  0.00    -0.278 N 
ATOM      4  C   LIG d   1       5.067  -2.482  -6.365  0.00  0.00     0.062 C 
ATOM      5  C   LIG d   1       4.455  -3.671  -7.069  0.00  0.00     0.108 A 
ATOM      6  C   LIG d   1       3.649  -3.583  -8.148  0.00  0.00     0.207 A 
ATOM      7  C   LIG d   1       3.870  -5.677  -7.693  0.00  0.00     0.247 A 
ATOM      8  N   LIG d   1       4.595  -4.993  -6.778  0.00  0.00    -0.287 N 
ATOM      9  C   LIG d   1       3.233  -2.286  -8.796  0.00  0.00     0.063 C 
ATOM     10  C   LIG d   1       4.194  -1.177  -8.347  0.00  0.00     0.133 C 
ATOM     11  H   LIG d   1       5.149  -1.293  -8.860  0.00  0.00     0.062 H 
ATOM     12  H   LIG d   1       6.137  -2.435  -6.571  0.00  0.00     0.053 H 
ATOM     13  H   LIG d   1       4.898  -2.557  -5.291  0.00  0.00     0.053 H 
ATOM     14  H   LIG d   1       3.772  -6.752  -7.742  0.00  0.00     0.160 H 
ATOM     15  H   LIG d   1       2.217  -2.034  -8.491  0.00  0.00     0.040 H 
ATOM     16  H   LIG d   1       3.274  -2.387  -9.880  0.00  0.00     0.040 H 
ATOM     17  N   LIG d   1       3.309  -4.823  -8.506  0.00  0.00    -0.198 N 
ATOM     18  H   LIG d   1       2.703  -5.068  -9.298  0.00  0.00     0.454 HD
ENDROOT
BRANCH   1  19
ATOM     19  C   LIG d   1       4.103  -0.463  -4.607  0.00  0.00     0.079 A 
ATOM     20  C   LIG d   1       5.229   0.007  -3.920  0.00  0.00     0.132 A 
ATOM     21  C   LIG d   1       5.316  -0.160  -2.546  0.00  0.00    -0.019 A 
ATOM     22  C   LIG d   1       4.294  -0.788  -1.860  0.00  0.00    -0.058 A 
ATOM     23  H   LIG d   1       6.181   0.201  -2.011  0.00  0.00     0.065 H 
ATOM     24  C   LIG d   1       3.180  -1.255  -2.536  0.00  0.00    -0.061 A 
ATOM     25  H   LIG d   1       4.366  -0.915  -0.789  0.00  0.00     0.062 H 
ATOM     26  C   LIG d   1       3.075  -1.093  -3.901  0.00  0.00    -0.046 A 
ATOM     27  H   LIG d   1       2.386  -1.744  -1.991  0.00  0.00     0.062 H 
ATOM     28  H   LIG d   1       2.203  -1.454  -4.423  0.00  0.00     0.063 H 
BRANCH  20  29
ATOM     29  O   LIG d   1       6.231   0.625  -4.595  0.00  0.00    -0.494 OA
BRANCH  29  30
ATOM     30  C   LIG d   1       7.265   1.228  -3.813  0.00  0.00     0.079 C 
ATOM     31  H   LIG d   1       7.674   0.491  -3.121  0.00  0.00     0.066 H 
ATOM     32  H   LIG d   1       8.056   1.586  -4.471  0.00  0.00     0.066 H 
ATOM     33  H   LIG d   1       6.854   2.065  -3.249  0.00  0.00     0.066 H 
ENDBRANCH  29  30
ENDBRANCH  20  29
ENDBRANCH   1  19
BRANCH  10  34
ATOM     34  C   LIG d   1       3.602   0.168  -8.679  0.00  0.00     0.328 C 
ATOM     35  O   LIG d   1       2.403   0.302  -8.738  0.00  0.00    -0.249 OA
BRANCH  34  36
ATOM     36  O   LIG d   1       4.407   1.217  -8.911  0.00  0.00    -0.467 OA
BRANCH  36  37
ATOM     37  C   LIG d   1       3.858   2.309  -9.695  0.00  0.00     0.082 C 
ATOM     38  H   LIG d   1       3.381   1.910 -10.590  0.00  0.00     0.066 H 
ATOM     39  H   LIG d   1       3.121   2.849  -9.099  0.00  0.00     0.066 H 
ATOM     40  H   LIG d   1       4.661   2.989  -9.983  0.00  0.00     0.066 H 
ENDBRANCH  36  37
ENDBRANCH  34  36
ENDBRANCH  10  34
BRANCH   8  41
ATOM     41  C   LIG d   1       5.382  -5.566  -5.683  0.00  0.00     0.053 C 
ATOM     42  H   LIG d   1       5.163  -5.030  -4.759  0.00  0.00     0.054 H 
ATOM     43  H   LIG d   1       5.123  -6.618  -5.561  0.00  0.00     0.054 H 
BRANCH  41  44
ATOM     44  C   LIG d   1       6.849  -5.443  -6.000  0.00  0.00    -0.028 A 
ATOM     45  C   LIG d   1       7.694  -4.790  -5.123  0.00  0.00    -0.056 A 
ATOM     46  C   LIG d   1       9.041  -4.677  -5.413  0.00  0.00    -0.043 A 
ATOM     47  H   LIG d   1       7.301  -4.368  -4.209  0.00  0.00     0.062 H 
ATOM     48  C   LIG d   1       9.543  -5.217  -6.583  0.00  0.00     0.041 A 
ATOM     49  H   LIG d   1       9.700  -4.166  -4.727  0.00  0.00     0.063 H 
ATOM     50  C   LIG d   1       8.697  -5.871  -7.462  0.00  0.00    -0.043 A 
ATOM     51 CL   LIG d   1      11.234  -5.076  -6.949  0.00  0.00    -0.084 Cl
ATOM     52  C   LIG d   1       7.352  -5.988  -7.167  0.00  0.00    -0.056 A 
ATOM     53  H   LIG d   1       9.089  -6.293  -8.375  0.00  0.00     0.063 H 
ATOM     54  H   LIG d   1       6.692  -6.503  -7.850  0.00  0.00     0.062 H 
ENDBRANCH  41  44
ENDBRANCH   8  41
TORSDOF 8
ENDMDL
MODEL 7
REMARK VINA RESULT:      -6.3      3.659      6.297
REMARK  8 active torsions:
REMARK  status: ('A' for Active; 'I' for Inactive)
REMARK    1  A    between atoms: C_1  and  O_2 
REMARK    2  A    between atoms: O_2  and  C_3 
REMARK    3  A    between atoms: C_8  and  C_9 
REMARK       I    between atoms: C_9  and  N_11 
REMARK    4  A    between atoms: N_16  and  C_17 
REMARK    5  A    between atoms: C_17  and  C_18 
REMARK    6  A    between atoms: C_26  and  C_28 
REMARK    7  A    between atoms: C_28  and  O_30 
REMARK    8  A    between atoms: O_30  and  C_31 
ROOT
ATOM      1  C   LIG d   1       3.810  -0.297  -5.802  0.00  0.00     0.251 C 
ATOM      2  O   LIG d   1       2.694  -0.316  -6.283  0.00  0.00    -0.270 OA
ATOM      3  N   LIG d   1       4.884  -0.130  -6.599  0.00  0.00    -0.278 N 
ATOM      4  C   LIG d   1       6.233   0.031  -6.026  0.00  0.00     0.062 C 
ATOM      5  C   LIG d   1       7.167  -0.834  -6.841  0.00  0.00     0.108 A 
ATOM      6  C   LIG d   1       6.835  -1.417  -8.012  0.00  0.00     0.207 A 
ATOM      7  C   LIG d   1       8.881  -1.949  -7.598  0.00  0.00     0.247 A 
ATOM      8  N   LIG d   1       8.459  -1.170  -6.576  0.00  0.00    -0.287 N 
ATOM      9  C   LIG d   1       5.481  -1.299  -8.667  0.00  0.00     0.063 C 
ATOM     10  C   LIG d   1       4.740  -0.100  -8.062  0.00  0.00     0.133 C 
ATOM     11  H   LIG d   1       5.167   0.825  -8.450  0.00  0.00     0.062 H 
ATOM     12  H   LIG d   1       6.539   1.076  -6.089  0.00  0.00     0.053 H 
ATOM     13  H   LIG d   1       6.236  -0.294  -4.986  0.00  0.00     0.053 H 
ATOM     14  H   LIG d   1       9.866  -2.383  -7.694  0.00  0.00     0.160 H 
ATOM     15  H   LIG d   1       4.909  -2.209  -8.489  0.00  0.00     0.040 H 
ATOM     16  H   LIG d   1       5.604  -1.149  -9.740  0.00  0.00     0.040 H 
ATOM     17  N   LIG d   1       7.902  -2.089  -8.451  0.00  0.00    -0.198 N 
ATOM     18  H   LIG d   1       7.946  -2.630  -9.322  0.00  0.00     0.454 HD
ENDROOT
BRANCH   1  19
ATOM     19  C   LIG d   1       3.989  -0.452  -4.346  0.00  0.00     0.079 A 
ATOM     20  C   LIG d   1       4.185  -1.723  -3.791  0.00  0.00     0.132 A 
ATOM     21  C   LIG d   1       4.352  -1.856  -2.421  0.00  0.00    -0.019 A 
ATOM     22  C   LIG d   1       4.325  -0.740  -1.608  0.00  0.00    -0.058 A 
ATOM     23  H   LIG d   1       4.504  -2.834  -1.988  0.00  0.00     0.065 H 
ATOM     24  C   LIG d   1       4.131   0.519  -2.153  0.00  0.00    -0.061 A 
ATOM     25  H   LIG d   1       4.456  -0.849  -0.542  0.00  0.00     0.062 H 
ATOM     26  C   LIG d   1       3.968   0.670  -3.514  0.00  0.00    -0.046 A 
ATOM     27  H   LIG d   1       4.113   1.386  -1.510  0.00  0.00     0.062 H 
ATOM     28  H   LIG d   1       3.822   1.653  -3.935  0.00  0.00     0.063 H 
BRANCH  20  29
ATOM     29  O   LIG d   1       4.212  -2.819  -4.590  0.00  0.00    -0.494 OA
BRANCH  29  30
ATOM     30  C   LIG d   1       5.477  -3.461  -4.768  0.00  0.00     0.079 C 
ATOM     31  H   LIG d   1       5.431  -4.118  -5.637  0.00  0.00     0.066 H 
ATOM     32  H   LIG d   1       6.248  -2.707  -4.923  0.00  0.00     0.066 H 
ATOM     33  H   LIG d   1       5.715  -4.048  -3.882  0.00  0.00     0.066 H 
ENDBRANCH  29  30
ENDBRANCH  20  29
ENDBRANCH   1  19
BRANCH  10  34
ATOM     34  C   LIG d   1       3.280  -0.173  -8.426  0.00  0.00     0.328 C 
ATOM     35  O   LIG d   1       2.764  -1.245  -8.639  0.00  0.00    -0.249 OA
BRANCH  34  36
ATOM     36  O   LIG d   1       2.553   0.951  -8.516  0.00  0.00    -0.467 OA
BRANCH  36  37
ATOM     37  C   LIG d   1       3.245   2.151  -8.953  0.00  0.00     0.082 C 
ATOM     38  H   LIG d   1       3.929   2.481  -8.171  0.00  0.00     0.066 H 
ATOM     39  H   LIG d   1       3.808   1.934  -9.861  0.00  0.00     0.066 H 
ATOM     40  H   LIG d   1       2.517   2.937  -9.155  0.00  0.00     0.066 H 
ENDBRANCH  36  37
ENDBRANCH  34  36
ENDBRANCH  10  34
BRANCH   8  41
ATOM     41  C   LIG d   1       9.243  -0.765  -5.406  0.00  0.00     0.053 C 
ATOM     42  H   LIG d   1       8.776  -1.156  -4.503  0.00  0.00     0.054 H 
ATOM     43  H   LIG d   1      10.255  -1.162  -5.492  0.00  0.00     0.054 H 
BRANCH  41  44
ATOM     44  C   LIG d   1       9.298   0.739  -5.334  0.00  0.00    -0.028 A 
ATOM     45  C   LIG d   1       9.798   1.464  -6.400  0.00  0.00    -0.056 A 
ATOM     46  C   LIG d   1       9.848   2.844  -6.335  0.00  0.00    -0.043 A 
ATOM     47  H   LIG d   1      10.149   0.951  -7.284  0.00  0.00     0.062 H 
ATOM     48  C   LIG d   1       9.398   3.499  -5.203  0.00  0.00     0.041 A 
ATOM     49  H   LIG d   1      10.239   3.409  -7.168  0.00  0.00     0.063 H 
ATOM     50  C   LIG d   1       8.898   2.773  -4.136  0.00  0.00    -0.043 A 
ATOM     51 CL   LIG d   1       9.461   5.232  -5.120  0.00  0.00    -0.084 Cl
ATOM     52  C   LIG d   1       8.843   1.394  -4.205  0.00  0.00    -0.056 A 
ATOM     53  H   LIG d   1       8.547   3.284  -3.253  0.00  0.00     0.063 H 
ATOM     54  H   LIG d   1       8.448   0.827  -3.375  0.00  0.00     0.062 H 
ENDBRANCH  41  44
ENDBRANCH   8  41
TORSDOF 8
ENDMDL
MODEL 8
REMARK VINA RESULT:      -6.2      2.605      4.886
REMARK  8 active torsions:
REMARK  status: ('A' for Active; 'I' for Inactive)
REMARK    1  A    between atoms: C_1  and  O_2 
REMARK    2  A    between atoms: O_2  and  C_3 
REMARK    3  A    between atoms: C_8  and  C_9 
REMARK       I    between atoms: C_9  and  N_11 
REMARK    4  A    between atoms: N_16  and  C_17 
REMARK    5  A    between atoms: C_17  and  C_18 
REMARK    6  A    between atoms: C_26  and  C_28 
REMARK    7  A    between atoms: C_28  and  O_30 
REMARK    8  A    between atoms: O_30  and  C_31 
ROOT
ATOM      1  C   LIG d   1       4.649  -2.496  -4.320  0.00  0.00     0.251 C 
ATOM      2  O   LIG d   1       4.123  -2.592  -3.228  0.00  0.00    -0.270 OA
ATOM      3  N   LIG d   1       4.639  -1.317  -4.972  0.00  0.00    -0.278 N 
ATOM      4  C   LIG d   1       5.386  -1.143  -6.231  0.00  0.00     0.062 C 
ATOM      5  C   LIG d   1       4.479  -0.398  -7.185  0.00  0.00     0.108 A 
ATOM      6  C   LIG d   1       3.323   0.197  -6.824  0.00  0.00     0.207 A 
ATOM      7  C   LIG d   1       3.581   0.541  -8.935  0.00  0.00     0.247 A 
ATOM      8  N   LIG d   1       4.643  -0.185  -8.519  0.00  0.00    -0.287 N 
ATOM      9  C   LIG d   1       2.764   0.194  -5.423  0.00  0.00     0.063 C 
ATOM     10  C   LIG d   1       3.888  -0.169  -4.443  0.00  0.00     0.133 C 
ATOM     11  H   LIG d   1       4.558   0.683  -4.327  0.00  0.00     0.062 H 
ATOM     12  H   LIG d   1       6.292  -0.564  -6.048  0.00  0.00     0.053 H 
ATOM     13  H   LIG d   1       5.645  -2.116  -6.647  0.00  0.00     0.053 H 
ATOM     14  H   LIG d   1       3.408   0.881  -9.946  0.00  0.00     0.160 H 
ATOM     15  H   LIG d   1       1.965  -0.543  -5.350  0.00  0.00     0.040 H 
ATOM     16  H   LIG d   1       2.374   1.182  -5.180  0.00  0.00     0.040 H 
ATOM     17  N   LIG d   1       2.798   0.763  -7.914  0.00  0.00    -0.198 N 
ATOM     18  H   LIG d   1       1.918   1.292  -7.943  0.00  0.00     0.454 HD
ENDROOT
BRANCH   1  19
ATOM     19  C   LIG d   1       5.303  -3.670  -4.929  0.00  0.00     0.079 A 
ATOM     20  C   LIG d   1       6.680  -3.873  -4.767  0.00  0.00     0.132 A 
ATOM     21  C   LIG d   1       7.285  -4.980  -5.343  0.00  0.00    -0.019 A 
ATOM     22  C   LIG d   1       6.531  -5.878  -6.073  0.00  0.00    -0.058 A 
ATOM     23  H   LIG d   1       8.345  -5.140  -5.221  0.00  0.00     0.065 H 
ATOM     24  C   LIG d   1       5.169  -5.681  -6.235  0.00  0.00    -0.061 A 
ATOM     25  H   LIG d   1       7.006  -6.740  -6.519  0.00  0.00     0.062 H 
ATOM     26  C   LIG d   1       4.552  -4.589  -5.665  0.00  0.00    -0.046 A 
ATOM     27  H   LIG d   1       4.589  -6.390  -6.807  0.00  0.00     0.062 H 
ATOM     28  H   LIG d   1       3.490  -4.442  -5.791  0.00  0.00     0.063 H 
BRANCH  20  29
ATOM     29  O   LIG d   1       7.419  -2.990  -4.049  0.00  0.00    -0.494 OA
BRANCH  29  30
ATOM     30  C   LIG d   1       8.647  -2.547  -4.632  0.00  0.00     0.079 C 
ATOM     31  H   LIG d   1       9.472  -2.778  -3.958  0.00  0.00     0.066 H 
ATOM     32  H   LIG d   1       8.802  -3.056  -5.583  0.00  0.00     0.066 H 
ATOM     33  H   LIG d   1       8.604  -1.471  -4.797  0.00  0.00     0.066 H 
ENDBRANCH  29  30
ENDBRANCH  20  29
ENDBRANCH   1  19
BRANCH  10  34
ATOM     34  C   LIG d   1       3.293  -0.529  -3.106  0.00  0.00     0.328 C 
ATOM     35  O   LIG d   1       2.158  -0.937  -3.040  0.00  0.00    -0.249 OA
BRANCH  34  36
ATOM     36  O   LIG d   1       4.025  -0.396  -1.988  0.00  0.00    -0.467 OA
BRANCH  36  37
ATOM     37  C   LIG d   1       4.595   0.914  -1.725  0.00  0.00     0.082 C 
ATOM     38  H   LIG d   1       5.382   0.823  -0.977  0.00  0.00     0.066 H 
ATOM     39  H   LIG d   1       5.013   1.319  -2.647  0.00  0.00     0.066 H 
ATOM     40  H   LIG d   1       3.816   1.581  -1.355  0.00  0.00     0.066 H 
ENDBRANCH  36  37
ENDBRANCH  34  36
ENDBRANCH  10  34
BRANCH   8  41
ATOM     41  C   LIG d   1       5.759  -0.651  -9.345  0.00  0.00     0.053 C 
ATOM     42  H   LIG d   1       5.694  -0.196 -10.334  0.00  0.00     0.054 H 
ATOM     43  H   LIG d   1       6.702  -0.367  -8.877  0.00  0.00     0.054 H 
BRANCH  41  44
ATOM     44  C   LIG d   1       5.695  -2.151  -9.477  0.00  0.00    -0.028 A 
ATOM     45  C   LIG d   1       4.521  -2.759  -9.878  0.00  0.00    -0.056 A 
ATOM     46  C   LIG d   1       4.460  -4.135  -9.999  0.00  0.00    -0.043 A 
ATOM     47  H   LIG d   1       3.649  -2.159 -10.097  0.00  0.00     0.062 H 
ATOM     48  C   LIG d   1       5.576  -4.902  -9.718  0.00  0.00     0.041 A 
ATOM     49  H   LIG d   1       3.543  -4.610 -10.312  0.00  0.00     0.063 H 
ATOM     50  C   LIG d   1       6.752  -4.293  -9.316  0.00  0.00    -0.043 A 
ATOM     51 CL   LIG d   1       5.503  -6.630  -9.868  0.00  0.00    -0.084 Cl
ATOM     52  C   LIG d   1       6.812  -2.917  -9.201  0.00  0.00    -0.056 A 
ATOM     53  H   LIG d   1       7.623  -4.892  -9.097  0.00  0.00     0.063 H 
ATOM     54  H   LIG d   1       7.731  -2.440  -8.892  0.00  0.00     0.062 H 
ENDBRANCH  41  44
ENDBRANCH   8  41
TORSDOF 8
ENDMDL
MODEL 9
REMARK VINA RESULT:      -6.0      6.699      9.507
REMARK  8 active torsions:
REMARK  status: ('A' for Active; 'I' for Inactive)
REMARK    1  A    between atoms: C_1  and  O_2 
REMARK    2  A    between atoms: O_2  and  C_3 
REMARK    3  A    between atoms: C_8  and  C_9 
REMARK       I    between atoms: C_9  and  N_11 
REMARK    4  A    between atoms: N_16  and  C_17 
REMARK    5  A    between atoms: C_17  and  C_18 
REMARK    6  A    between atoms: C_26  and  C_28 
REMARK    7  A    between atoms: C_28  and  O_30 
REMARK    8  A    between atoms: O_30  and  C_31 
ROOT
ATOM      1  C   LIG d   1      10.078   8.048  -4.056  0.00  0.00     0.251 C 
ATOM      2  O   LIG d   1      10.363   9.078  -3.476  0.00  0.00    -0.270 OA
ATOM      3  N   LIG d   1       9.715   6.957  -3.352  0.00  0.00    -0.278 N 
ATOM      4  C   LIG d   1       9.235   5.742  -4.035  0.00  0.00     0.062 C 
ATOM      5  C   LIG d   1       9.910   4.564  -3.370  0.00  0.00     0.108 A 
ATOM      6  C   LIG d   1      10.603   4.640  -2.214  0.00  0.00     0.207 A 
ATOM      7  C   LIG d   1      10.653   2.581  -2.849  0.00  0.00     0.247 A 
ATOM      8  N   LIG d   1       9.942   3.265  -3.774  0.00  0.00    -0.287 N 
ATOM      9  C   LIG d   1      10.815   5.911  -1.430  0.00  0.00     0.063 C 
ATOM     10  C   LIG d   1       9.782   6.950  -1.883  0.00  0.00     0.133 C 
ATOM     11  H   LIG d   1       8.804   6.693  -1.476  0.00  0.00     0.062 H 
ATOM     12  H   LIG d   1       8.153   5.661  -3.931  0.00  0.00     0.053 H 
ATOM     13  H   LIG d   1       9.506   5.778  -5.091  0.00  0.00     0.053 H 
ATOM     14  H   LIG d   1      10.864   1.522  -2.874  0.00  0.00     0.160 H 
ATOM     15  H   LIG d   1      11.820   6.291  -1.614  0.00  0.00     0.040 H 
ATOM     16  H   LIG d   1      10.690   5.712  -0.366  0.00  0.00     0.040 H 
ATOM     17  N   LIG d   1      11.044   3.413  -1.921  0.00  0.00    -0.198 N 
ATOM     18  H   LIG d   1      11.601   3.164  -1.095  0.00  0.00     0.454 HD
ENDROOT
BRANCH   1  19
ATOM     19  C   LIG d   1      10.124   7.994  -5.529  0.00  0.00     0.079 A 
ATOM     20  C   LIG d   1      11.239   7.451  -6.180  0.00  0.00     0.132 A 
ATOM     21  C   LIG d   1      11.272   7.405  -7.566  0.00  0.00    -0.019 A 
ATOM     22  C   LIG d   1      10.208   7.892  -8.300  0.00  0.00    -0.058 A 
ATOM     23  H   LIG d   1      12.130   6.987  -8.072  0.00  0.00     0.065 H 
ATOM     24  C   LIG d   1       9.103   8.429  -7.660  0.00  0.00    -0.061 A 
ATOM     25  H   LIG d   1      10.238   7.853  -9.379  0.00  0.00     0.062 H 
ATOM     26  C   LIG d   1       9.053   8.479  -6.283  0.00  0.00    -0.046 A 
ATOM     27  H   LIG d   1       8.276   8.807  -8.242  0.00  0.00     0.062 H 
ATOM     28  H   LIG d   1       8.188   8.894  -5.789  0.00  0.00     0.063 H 
BRANCH  20  29
ATOM     29  O   LIG d   1      12.284   6.972  -5.458  0.00  0.00    -0.494 OA
BRANCH  29  30
ATOM     30  C   LIG d   1      12.643   5.604  -5.666  0.00  0.00     0.079 C 
ATOM     31  H   LIG d   1      13.580   5.393  -5.150  0.00  0.00     0.066 H 
ATOM     32  H   LIG d   1      11.858   4.959  -5.273  0.00  0.00     0.066 H 
ATOM     33  H   LIG d   1      12.767   5.419  -6.732  0.00  0.00     0.066 H 
ENDBRANCH  29  30
ENDBRANCH  20  29
ENDBRANCH   1  19
BRANCH  10  34
ATOM     34  C   LIG d   1      10.191   8.315  -1.392  0.00  0.00     0.328 C 
ATOM     35  O   LIG d   1      11.360   8.571  -1.226  0.00  0.00    -0.249 OA
BRANCH  34  36
ATOM     36  O   LIG d   1       9.257   9.244  -1.137  0.00  0.00    -0.467 OA
BRANCH  36  37
ATOM     37  C   LIG d   1       9.590  10.262  -0.156  0.00  0.00     0.082 C 
ATOM     38  H   LIG d   1       9.255   9.939   0.831  0.00  0.00     0.066 H 
ATOM     39  H   LIG d   1      10.669  10.414  -0.142  0.00  0.00     0.066 H 
ATOM     40  H   LIG d   1       9.095  11.197  -0.420  0.00  0.00     0.066 H 
ENDBRANCH  36  37
ENDBRANCH  34  36
ENDBRANCH  10  34
BRANCH   8  41
ATOM     41  C   LIG d   1       9.322   2.713  -4.982  0.00  0.00     0.053 C 
ATOM     42  H   LIG d   1       8.698   3.473  -5.450  0.00  0.00     0.054 H 
ATOM     43  H   LIG d   1      10.100   2.402  -5.680  0.00  0.00     0.054 H 
BRANCH  41  44
ATOM     44  C   LIG d   1       8.475   1.523  -4.612  0.00  0.00    -0.028 A 
ATOM     45  C   LIG d   1       7.377   1.686  -3.788  0.00  0.00    -0.056 A 
ATOM     46  C   LIG d   1       6.599   0.596  -3.449  0.00  0.00    -0.043 A 
ATOM     47  H   LIG d   1       7.127   2.667  -3.410  0.00  0.00     0.062 H 
ATOM     48  C   LIG d   1       6.919  -0.659  -3.934  0.00  0.00     0.041 A 
ATOM     49  H   LIG d   1       5.741   0.724  -2.805  0.00  0.00     0.063 H 
ATOM     50  C   LIG d   1       8.019  -0.823  -4.758  0.00  0.00    -0.043 A 
ATOM     51 CL   LIG d   1       5.943  -2.031  -3.508  0.00  0.00    -0.084 Cl
ATOM     52  C   LIG d   1       8.792   0.270  -5.101  0.00  0.00    -0.056 A 
ATOM     53  H   LIG d   1       8.269  -1.802  -5.137  0.00  0.00     0.063 H 
ATOM     54  H   LIG d   1       9.647   0.144  -5.749  0.00  0.00     0.062 H 
ENDBRANCH  41  44
ENDBRANCH   8  41
TORSDOF 8
ENDMDL
MODEL 10
REMARK VINA RESULT:      -5.9      1.091      1.983
REMARK  8 active torsions:
REMARK  status: ('A' for Active; 'I' for Inactive)
REMARK    1  A    between atoms: C_1  and  O_2 
REMARK    2  A    between atoms: O_2  and  C_3 
REMARK    3  A    between atoms: C_8  and  C_9 
REMARK       I    between atoms: C_9  and  N_11 
REMARK    4  A    between atoms: N_16  and  C_17 
REMARK    5  A    between atoms: C_17  and  C_18 
REMARK    6  A    between atoms: C_26  and  C_28 
REMARK    7  A    between atoms: C_28  and  O_30 
REMARK    8  A    between atoms: O_30  and  C_31 
ROOT
ATOM      1  C   LIG d   1       6.832  -1.011  -5.174  0.00  0.00     0.251 C 
ATOM      2  O   LIG d   1       7.979  -0.927  -4.780  0.00  0.00    -0.270 OA
ATOM      3  N   LIG d   1       6.541  -0.750  -6.464  0.00  0.00    -0.278 N 
ATOM      4  C   LIG d   1       5.184  -0.977  -6.994  0.00  0.00     0.062 C 
ATOM      5  C   LIG d   1       4.834   0.225  -7.842  0.00  0.00     0.108 A 
ATOM      6  C   LIG d   1       5.719   1.171  -8.221  0.00  0.00     0.207 A 
ATOM      7  C   LIG d   1       3.811   1.715  -9.061  0.00  0.00     0.247 A 
ATOM      8  N   LIG d   1       3.627   0.568  -8.369  0.00  0.00    -0.287 N 
ATOM      9  C   LIG d   1       7.179   1.171  -7.843  0.00  0.00     0.063 C 
ATOM     10  C   LIG d   1       7.571  -0.238  -7.380  0.00  0.00     0.133 C 
ATOM     11  H   LIG d   1       7.648  -0.897  -8.245  0.00  0.00     0.062 H 
ATOM     12  H   LIG d   1       5.171  -1.881  -7.603  0.00  0.00     0.053 H 
ATOM     13  H   LIG d   1       4.476  -1.072  -6.172  0.00  0.00     0.053 H 
ATOM     14  H   LIG d   1       3.047   2.253  -9.604  0.00  0.00     0.160 H 
ATOM     15  H   LIG d   1       7.347   1.881  -7.033  0.00  0.00     0.040 H 
ATOM     16  H   LIG d   1       7.783   1.453  -8.706  0.00  0.00     0.040 H 
ATOM     17  N   LIG d   1       5.065   2.066  -8.966  0.00  0.00    -0.198 N 
ATOM     18  H   LIG d   1       5.484   2.900  -9.396  0.00  0.00     0.454 HD
ENDROOT
BRANCH   1  19
ATOM     19  C   LIG d   1       5.759  -1.403  -4.241  0.00  0.00     0.079 A 
ATOM     20  C   LIG d   1       5.124  -0.437  -3.451  0.00  0.00     0.132 A 
ATOM     21  C   LIG d   1       4.115  -0.817  -2.577  0.00  0.00    -0.019 A 
ATOM     22  C   LIG d   1       3.740  -2.143  -2.488  0.00  0.00    -0.058 A 
ATOM     23  H   LIG d   1       3.623  -0.075  -1.966  0.00  0.00     0.065 H 
ATOM     24  C   LIG d   1       4.366  -3.102  -3.268  0.00  0.00    -0.061 A 
ATOM     25  H   LIG d   1       2.954  -2.434  -1.807  0.00  0.00     0.062 H 
ATOM     26  C   LIG d   1       5.367  -2.741  -4.145  0.00  0.00    -0.046 A 
ATOM     27  H   LIG d   1       4.066  -4.136  -3.192  0.00  0.00     0.062 H 
ATOM     28  H   LIG d   1       5.848  -3.491  -4.754  0.00  0.00     0.063 H 
BRANCH  20  29
ATOM     29  O   LIG d   1       5.492   0.866  -3.539  0.00  0.00    -0.494 OA
BRANCH  29  30
ATOM     30  C   LIG d   1       4.754   1.804  -2.753  0.00  0.00     0.079 C 
ATOM     31  H   LIG d   1       5.398   2.209  -1.972  0.00  0.00     0.066 H 
ATOM     32  H   LIG d   1       4.402   2.615  -3.391  0.00  0.00     0.066 H 
ATOM     33  H   LIG d   1       3.901   1.304  -2.296  0.00  0.00     0.066 H 
ENDBRANCH  29  30
ENDBRANCH  20  29
ENDBRANCH   1  19
BRANCH  10  34
ATOM     34  C   LIG d   1       8.898  -0.184  -6.667  0.00  0.00     0.328 C 
ATOM     35  O   LIG d   1       9.630  -1.145  -6.680  0.00  0.00    -0.249 OA
BRANCH  34  36
ATOM     36  O   LIG d   1       9.265   0.931  -6.017  0.00  0.00    -0.467 OA
BRANCH  36  37
ATOM     37  C   LIG d   1      10.650   1.348  -6.152  0.00  0.00     0.082 C 
ATOM     38  H   LIG d   1      10.755   1.982  -7.033  0.00  0.00     0.066 H 
ATOM     39  H   LIG d   1      10.949   1.906  -5.264  0.00  0.00     0.066 H 
ATOM     40  H   LIG d   1      11.285   0.468  -6.260  0.00  0.00     0.066 H 
ENDBRANCH  36  37
ENDBRANCH  34  36
ENDBRANCH  10  34
BRANCH   8  41
ATOM     41  C   LIG d   1       2.369  -0.167  -8.218  0.00  0.00     0.053 C 
ATOM     42  H   LIG d   1       2.417  -0.789  -7.324  0.00  0.00     0.054 H 
ATOM     43  H   LIG d   1       1.545   0.540  -8.123  0.00  0.00     0.054 H 
BRANCH  41  44
ATOM     44  C   LIG d   1       2.147  -1.039  -9.426  0.00  0.00    -0.028 A 
ATOM     45  C   LIG d   1       1.383  -0.576 -10.481  0.00  0.00    -0.056 A 
ATOM     46  C   LIG d   1       1.179  -1.375 -11.591  0.00  0.00    -0.043 A 
ATOM     47  H   LIG d   1       0.945   0.411 -10.438  0.00  0.00     0.062 H 
ATOM     48  C   LIG d   1       1.740  -2.638 -11.645  0.00  0.00     0.041 A 
ATOM     49  H   LIG d   1       0.582  -1.013 -12.414  0.00  0.00     0.063 H 
ATOM     50  C   LIG d   1       2.505  -3.102 -10.589  0.00  0.00    -0.043 A 
ATOM     51 CL   LIG d   1       1.485  -3.643 -13.037  0.00  0.00    -0.084 Cl
ATOM     52  C   LIG d   1       2.712  -2.299  -9.483  0.00  0.00    -0.056 A 
ATOM     53  H   LIG d   1       2.943  -4.087 -10.631  0.00  0.00     0.063 H 
ATOM     54  H   LIG d   1       3.313  -2.658  -8.660  0.00  0.00     0.062 H 
ENDBRANCH  41  44
ENDBRANCH   8  41
TORSDOF 8
ENDMDL
