MODEL 1
REMARK VINA RESULT:      -6.5      0.000      0.000
REMARK  10 active torsions:
REMARK  status: ('A' for Active; 'I' for Inactive)
REMARK    1  A    between atoms: C_1  and  C_2 
REMARK    2  A    between atoms: C_4  and  O_25 
REMARK    3  A    between atoms: C_5  and  C_24 
REMARK    4  A    between atoms: C_10  and  C_13 
REMARK    5  A    between atoms: C_13  and  C_15 
REMARK    6  A    between atoms: C_13  and  C_16 
REMARK       I    between atoms: C_16  and  N_18 
REMARK    7  A    between atoms: N_18  and  C_19 
REMARK    8  A    between atoms: O_25  and  C_26 
REMARK    9  A    between atoms: C_26  and  C_27 
REMARK   10  A    between atoms: C_27  and  N_28 
ROOT
ATOM      1  C   LIG d   1       3.284   0.142  -7.806  0.00  0.00    -0.043 A 
ATOM      2  C   LIG d   1       4.100  -0.386  -6.828  0.00  0.00    -0.017 A 
ATOM      3  C   LIG d   1       4.448  -1.727  -6.874  0.00  0.00     0.124 A 
ATOM      4  C   LIG d   1       3.965  -2.526  -7.898  0.00  0.00    -0.005 A 
ATOM      5  C   LIG d   1       3.139  -1.993  -8.877  0.00  0.00    -0.037 A 
ATOM      6  C   LIG d   1       2.797  -0.659  -8.831  0.00  0.00    -0.041 A 
ATOM      7  C   LIG d   1       1.899  -0.018  -9.856  0.00  0.00    -0.027 C 
ATOM      8  C   LIG d   1       1.809  -0.885 -11.111  0.00  0.00    -0.045 C 
ATOM      9  C   LIG d   1       1.451  -2.314 -10.685  0.00  0.00    -0.026 C 
ATOM     10  H   LIG d   1       0.577  -2.305 -10.017  0.00  0.00     0.031 H 
ATOM     11  C   LIG d   1       2.654  -2.917  -9.964  0.00  0.00    -0.024 C 
ATOM     12  H   LIG d   1       4.469   0.244  -6.032  0.00  0.00     0.066 H 
ATOM     13  H   LIG d   1       0.890   0.104  -9.435  0.00  0.00     0.031 H 
ATOM     14  H   LIG d   1       2.303   0.967 -10.132  0.00  0.00     0.031 H 
ATOM     15  H   LIG d   1       1.032  -0.485 -11.778  0.00  0.00     0.027 H 
ATOM     16  H   LIG d   1       2.779  -0.878 -11.631  0.00  0.00     0.027 H 
ATOM     17  H   LIG d   1       3.463  -3.081 -10.693  0.00  0.00     0.032 H 
ATOM     18  H   LIG d   1       2.360  -3.880  -9.522  0.00  0.00     0.032 H 
ENDROOT
BRANCH   3  19
ATOM     19  O   LIG d   1       5.254  -2.257  -5.917  0.00  0.00    -0.490 OA
BRANCH  19  20
ATOM     20  C   LIG d   1       4.648  -2.575  -4.662  0.00  0.00     0.102 C 
ATOM     21  H   LIG d   1       3.736  -1.972  -4.533  0.00  0.00     0.071 H 
ATOM     22  H   LIG d   1       4.388  -3.643  -4.641  0.00  0.00     0.071 H 
BRANCH  20  23
ATOM     23  C   LIG d   1       5.629  -2.266  -3.530  0.00  0.00     0.033 C 
ATOM     24  H   LIG d   1       5.534  -3.029  -2.743  0.00  0.00     0.046 H 
ATOM     25  H   LIG d   1       6.656  -2.271  -3.923  0.00  0.00     0.046 H 
BRANCH  23  26
ATOM     26  N   LIG d   1       5.327  -0.943  -2.967  0.00  0.00    -0.295 N 
ATOM     27  C   LIG d   1       3.893  -0.638  -3.077  0.00  0.00     0.022 C 
ATOM     28  C   LIG d   1       3.614   0.719  -2.427  0.00  0.00     0.060 C 
ATOM     29  H   LIG d   1       3.605  -0.605  -4.138  0.00  0.00     0.045 H 
ATOM     30  H   LIG d   1       3.313  -1.419  -2.563  0.00  0.00     0.045 H 
ATOM     31  O   LIG d   1       4.428   1.716  -3.049  0.00  0.00    -0.377 OA
ATOM     32  H   LIG d   1       3.851   0.670  -1.354  0.00  0.00     0.057 H 
ATOM     33  H   LIG d   1       2.553   0.979  -2.556  0.00  0.00     0.057 H 
ATOM     34  C   LIG d   1       5.831   1.452  -2.961  0.00  0.00     0.060 C 
ATOM     35  C   LIG d   1       6.132   0.102  -3.616  0.00  0.00     0.022 C 
ATOM     36  H   LIG d   1       6.134   1.423  -1.904  0.00  0.00     0.057 H 
ATOM     37  H   LIG d   1       6.389   2.245  -3.480  0.00  0.00     0.057 H 
ATOM     38  H   LIG d   1       7.201  -0.133  -3.500  0.00  0.00     0.045 H 
ATOM     39  H   LIG d   1       5.881   0.147  -4.686  0.00  0.00     0.045 H 
ENDBRANCH  23  26
ENDBRANCH  20  23
ENDBRANCH  19  20
ENDBRANCH   3  19
BRANCH   4  40
ATOM     40  C   LIG d   1       4.338  -3.986  -7.947  0.00  0.00    -0.036 C 
ATOM     41  H   LIG d   1       4.044  -4.471  -7.006  0.00  0.00     0.028 H 
ATOM     42  H   LIG d   1       5.424  -4.082  -8.087  0.00  0.00     0.028 H 
ATOM     43  H   LIG d   1       3.816  -4.468  -8.788  0.00  0.00     0.028 H 
ENDBRANCH   4  40
BRANCH   1  44
ATOM     44  C   LIG d   1       2.912   1.602  -7.761  0.00  0.00    -0.039 C 
ATOM     45  H   LIG d   1       1.844   1.700  -7.520  0.00  0.00     0.028 H 
ATOM     46  H   LIG d   1       3.112   2.062  -8.740  0.00  0.00     0.028 H 
ATOM     47  H   LIG d   1       3.510   2.109  -6.989  0.00  0.00     0.028 H 
ENDBRANCH   1  44
BRANCH   9  48
ATOM     48  C   LIG d   1       1.119  -3.152 -11.922  0.00  0.00     0.036 C 
ATOM     49  H   LIG d   1       2.034  -3.616 -12.317  0.00  0.00     0.039 H 
BRANCH  48  50
ATOM     50  C   LIG d   1       0.487  -2.256 -12.989  0.00  0.00    -0.054 C 
ATOM     51  H   LIG d   1       1.250  -1.974 -13.730  0.00  0.00     0.024 H 
ATOM     52  H   LIG d   1       0.084  -1.349 -12.515  0.00  0.00     0.024 H 
ATOM     53  H   LIG d   1      -0.326  -2.800 -13.490  0.00  0.00     0.024 H 
ENDBRANCH  48  50
BRANCH  48  54
ATOM     54  C   LIG d   1       0.150  -4.243 -11.543  0.00  0.00     0.222 C 
ATOM     55  O   LIG d   1      -0.091  -5.138 -12.324  0.00  0.00    -0.275 OA
ATOM     56  N   LIG d   1      -0.449  -4.222 -10.336  0.00  0.00    -0.265 N 
ATOM     57  H   LIG d   1      -0.231  -3.410  -9.627  0.00  0.00     0.157 HD
BRANCH  56  58
ATOM     58  C   LIG d   1      -1.343  -5.228  -9.987  0.00  0.00     0.164 A 
ATOM     59  S   LIG d   1      -3.057  -5.305 -10.253  0.00  0.00    -0.060 SA
ATOM     60  C   LIG d   1      -3.338  -6.900  -9.500  0.00  0.00    -0.003 A 
ATOM     61  C   LIG d   1      -2.080  -7.219  -9.108  0.00  0.00     0.037 A 
ATOM     62  H   LIG d   1      -4.258  -7.455  -9.386  0.00  0.00     0.071 H 
ATOM     63  N   LIG d   1      -1.107  -6.366  -9.364  0.00  0.00    -0.233 NA
ATOM     64  H   LIG d   1      -1.880  -8.149  -8.597  0.00  0.00     0.084 H 
ENDBRANCH  56  58
ENDBRANCH  48  54
ENDBRANCH   9  48
TORSDOF 10
ENDMDL
MODEL 2
REMARK VINA RESULT:      -6.1      4.995      8.661
REMARK  10 active torsions:
REMARK  status: ('A' for Active; 'I' for Inactive)
REMARK    1  A    between atoms: C_1  and  C_2 
REMARK    2  A    between atoms: C_4  and  O_25 
REMARK    3  A    between atoms: C_5  and  C_24 
REMARK    4  A    between atoms: C_10  and  C_13 
REMARK    5  A    between atoms: C_13  and  C_15 
REMARK    6  A    between atoms: C_13  and  C_16 
REMARK       I    between atoms: C_16  and  N_18 
REMARK    7  A    between atoms: N_18  and  C_19 
REMARK    8  A    between atoms: O_25  and  C_26 
REMARK    9  A    between atoms: C_26  and  C_27 
REMARK   10  A    between atoms: C_27  and  N_28 
ROOT
ATOM      1  C   LIG d   1       8.176  -5.164  -4.888  0.00  0.00    -0.043 A 
ATOM      2  C   LIG d   1       7.747  -6.257  -5.611  0.00  0.00    -0.017 A 
ATOM      3  C   LIG d   1       6.441  -6.304  -6.075  0.00  0.00     0.124 A 
ATOM      4  C   LIG d   1       5.577  -5.258  -5.797  0.00  0.00    -0.005 A 
ATOM      5  C   LIG d   1       6.009  -4.163  -5.063  0.00  0.00    -0.037 A 
ATOM      6  C   LIG d   1       7.308  -4.116  -4.607  0.00  0.00    -0.041 A 
ATOM      7  C   LIG d   1       7.841  -2.962  -3.798  0.00  0.00    -0.027 C 
ATOM      8  C   LIG d   1       6.938  -1.739  -3.945  0.00  0.00    -0.045 C 
ATOM      9  C   LIG d   1       5.494  -2.168  -3.658  0.00  0.00    -0.026 C 
ATOM     10  H   LIG d   1       5.443  -2.719  -2.707  0.00  0.00     0.031 H 
ATOM     11  C   LIG d   1       5.019  -3.058  -4.803  0.00  0.00    -0.024 C 
ATOM     12  H   LIG d   1       8.427  -7.069  -5.820  0.00  0.00     0.066 H 
ATOM     13  H   LIG d   1       7.884  -3.248  -2.736  0.00  0.00     0.031 H 
ATOM     14  H   LIG d   1       8.851  -2.704  -4.149  0.00  0.00     0.031 H 
ATOM     15  H   LIG d   1       7.250  -0.964  -3.230  0.00  0.00     0.027 H 
ATOM     16  H   LIG d   1       7.017  -1.347  -4.970  0.00  0.00     0.027 H 
ATOM     17  H   LIG d   1       4.908  -2.444  -5.711  0.00  0.00     0.032 H 
ATOM     18  H   LIG d   1       4.045  -3.494  -4.536  0.00  0.00     0.032 H 
ENDROOT
BRANCH   3  19
ATOM     19  O   LIG d   1       6.009  -7.375  -6.791  0.00  0.00    -0.490 OA
BRANCH  19  20
ATOM     20  C   LIG d   1       6.237  -8.668  -6.227  0.00  0.00     0.102 C 
ATOM     21  H   LIG d   1       6.118  -9.435  -7.007  0.00  0.00     0.071 H 
ATOM     22  H   LIG d   1       7.258  -8.715  -5.820  0.00  0.00     0.071 H 
BRANCH  20  23
ATOM     23  C   LIG d   1       5.228  -8.920  -5.105  0.00  0.00     0.033 C 
ATOM     24  H   LIG d   1       4.785  -7.964  -4.789  0.00  0.00     0.046 H 
ATOM     25  H   LIG d   1       4.435  -9.590  -5.468  0.00  0.00     0.046 H 
BRANCH  23  26
ATOM     26  N   LIG d   1       5.910  -9.544  -3.963  0.00  0.00    -0.295 N 
ATOM     27  C   LIG d   1       7.005 -10.415  -4.415  0.00  0.00     0.022 C 
ATOM     28  C   LIG d   1       7.724 -10.997  -3.196  0.00  0.00     0.060 C 
ATOM     29  H   LIG d   1       6.594 -11.234  -5.026  0.00  0.00     0.045 H 
ATOM     30  H   LIG d   1       7.714  -9.829  -5.018  0.00  0.00     0.045 H 
ATOM     31  O   LIG d   1       6.780 -11.693  -2.379  0.00  0.00    -0.377 OA
ATOM     32  H   LIG d   1       8.181 -10.183  -2.615  0.00  0.00     0.057 H 
ATOM     33  H   LIG d   1       8.507 -11.695  -3.528  0.00  0.00     0.057 H 
ATOM     34  C   LIG d   1       5.701 -10.875  -1.920  0.00  0.00     0.060 C 
ATOM     35  C   LIG d   1       4.961 -10.293  -3.127  0.00  0.00     0.022 C 
ATOM     36  H   LIG d   1       6.097 -10.056  -1.302  0.00  0.00     0.057 H 
ATOM     37  H   LIG d   1       5.006 -11.482  -1.321  0.00  0.00     0.057 H 
ATOM     38  H   LIG d   1       4.166  -9.616  -2.780  0.00  0.00     0.045 H 
ATOM     39  H   LIG d   1       4.517 -11.108  -3.716  0.00  0.00     0.045 H 
ENDBRANCH  23  26
ENDBRANCH  20  23
ENDBRANCH  19  20
ENDBRANCH   3  19
BRANCH   4  40
ATOM     40  C   LIG d   1       4.155  -5.310  -6.295  0.00  0.00    -0.036 C 
ATOM     41  H   LIG d   1       3.626  -4.395  -5.991  0.00  0.00     0.028 H 
ATOM     42  H   LIG d   1       3.648  -6.187  -5.867  0.00  0.00     0.028 H 
ATOM     43  H   LIG d   1       4.154  -5.387  -7.393  0.00  0.00     0.028 H 
ENDBRANCH   4  40
BRANCH   1  44
ATOM     44  C   LIG d   1       9.598  -5.109  -4.391  0.00  0.00    -0.039 C 
ATOM     45  H   LIG d   1      10.267  -4.856  -5.226  0.00  0.00     0.028 H 
ATOM     46  H   LIG d   1       9.880  -6.089  -3.978  0.00  0.00     0.028 H 
ATOM     47  H   LIG d   1       9.683  -4.342  -3.607  0.00  0.00     0.028 H 
ENDBRANCH   1  44
BRANCH   9  48
ATOM     48  C   LIG d   1       4.598  -0.931  -3.560  0.00  0.00     0.036 C 
ATOM     49  H   LIG d   1       5.065  -0.181  -2.905  0.00  0.00     0.039 H 
BRANCH  48  50
ATOM     50  C   LIG d   1       3.233  -1.334  -2.998  0.00  0.00    -0.054 C 
ATOM     51  H   LIG d   1       2.526  -0.499  -3.120  0.00  0.00     0.024 H 
ATOM     52  H   LIG d   1       3.333  -1.577  -1.931  0.00  0.00     0.024 H 
ATOM     53  H   LIG d   1       2.858  -2.214  -3.541  0.00  0.00     0.024 H 
ENDBRANCH  48  50
BRANCH  48  54
ATOM     54  C   LIG d   1       4.421  -0.331  -4.931  0.00  0.00     0.222 C 
ATOM     55  O   LIG d   1       5.357   0.203  -5.486  0.00  0.00    -0.275 OA
ATOM     56  N   LIG d   1       3.220  -0.387  -5.540  0.00  0.00    -0.265 N 
ATOM     57  H   LIG d   1       2.370  -0.871  -5.037  0.00  0.00     0.157 HD
BRANCH  56  58
ATOM     58  C   LIG d   1       3.056   0.167  -6.804  0.00  0.00     0.164 A 
ATOM     59  S   LIG d   1       2.880  -0.636  -8.333  0.00  0.00    -0.060 SA
ATOM     60  C   LIG d   1       2.729   0.826  -9.348  0.00  0.00    -0.003 A 
ATOM     61  C   LIG d   1       2.835   1.798  -8.409  0.00  0.00     0.037 A 
ATOM     62  H   LIG d   1       2.593   0.912 -10.417  0.00  0.00     0.071 H 
ATOM     63  N   LIG d   1       2.998   1.439  -7.150  0.00  0.00    -0.233 NA
ATOM     64  H   LIG d   1       2.789   2.840  -8.685  0.00  0.00     0.084 H 
ENDBRANCH  56  58
ENDBRANCH  48  54
ENDBRANCH   9  48
TORSDOF 10
ENDMDL
MODEL 3
REMARK VINA RESULT:      -6.0      8.248     11.915
REMARK  10 active torsions:
REMARK  status: ('A' for Active; 'I' for Inactive)
REMARK    1  A    between atoms: C_1  and  C_2 
REMARK    2  A    between atoms: C_4  and  O_25 
REMARK    3  A    between atoms: C_5  and  C_24 
REMARK    4  A    between atoms: C_10  and  C_13 
REMARK    5  A    between atoms: C_13  and  C_15 
REMARK    6  A    between atoms: C_13  and  C_16 
REMARK       I    between atoms: C_16  and  N_18 
REMARK    7  A    between atoms: N_18  and  C_19 
REMARK    8  A    between atoms: O_25  and  C_26 
REMARK    9  A    between atoms: C_26  and  C_27 
REMARK   10  A    between atoms: C_27  and  N_28 
ROOT
ATOM      1  C   LIG d   1       9.958   6.597  -7.067  0.00  0.00    -0.043 A 
ATOM      2  C   LIG d   1      10.028   7.786  -6.373  0.00  0.00    -0.017 A 
ATOM      3  C   LIG d   1       9.886   7.786  -4.994  0.00  0.00     0.124 A 
ATOM      4  C   LIG d   1       9.666   6.592  -4.327  0.00  0.00    -0.005 A 
ATOM      5  C   LIG d   1       9.591   5.397  -5.029  0.00  0.00    -0.037 A 
ATOM      6  C   LIG d   1       9.735   5.399  -6.399  0.00  0.00    -0.041 A 
ATOM      7  C   LIG d   1       9.657   4.140  -7.223  0.00  0.00    -0.027 C 
ATOM      8  C   LIG d   1       9.843   2.907  -6.341  0.00  0.00    -0.045 C 
ATOM      9  C   LIG d   1       8.877   3.011  -5.155  0.00  0.00    -0.026 C 
ATOM     10  H   LIG d   1       7.858   3.224  -5.512  0.00  0.00     0.031 H 
ATOM     11  C   LIG d   1       9.356   4.135  -4.240  0.00  0.00    -0.024 C 
ATOM     12  H   LIG d   1      10.196   8.712  -6.902  0.00  0.00     0.066 H 
ATOM     13  H   LIG d   1       8.672   4.083  -7.711  0.00  0.00     0.031 H 
ATOM     14  H   LIG d   1      10.445   4.154  -7.989  0.00  0.00     0.031 H 
ATOM     15  H   LIG d   1       9.626   2.002  -6.926  0.00  0.00     0.027 H 
ATOM     16  H   LIG d   1      10.881   2.870  -5.979  0.00  0.00     0.027 H 
ATOM     17  H   LIG d   1      10.295   3.826  -3.756  0.00  0.00     0.032 H 
ATOM     18  H   LIG d   1       8.592   4.320  -3.472  0.00  0.00     0.032 H 
ENDROOT
BRANCH   3  19
ATOM     19  O   LIG d   1       9.955   8.953  -4.300  0.00  0.00    -0.490 OA
BRANCH  19  20
ATOM     20  C   LIG d   1       9.523  10.136  -4.975  0.00  0.00     0.102 C 
ATOM     21  H   LIG d   1       9.747  10.047  -6.049  0.00  0.00     0.071 H 
ATOM     22  H   LIG d   1       8.439  10.262  -4.836  0.00  0.00     0.071 H 
BRANCH  20  23
ATOM     23  C   LIG d   1      10.256  11.349  -4.399  0.00  0.00     0.033 C 
ATOM     24  H   LIG d   1       9.726  11.706  -3.504  0.00  0.00     0.046 H 
ATOM     25  H   LIG d   1      11.282  11.062  -4.127  0.00  0.00     0.046 H 
BRANCH  23  26
ATOM     26  N   LIG d   1      10.297  12.419  -5.404  0.00  0.00    -0.295 N 
ATOM     27  C   LIG d   1       9.615  13.627  -4.916  0.00  0.00     0.022 C 
ATOM     28  C   LIG d   1       9.733  14.733  -5.967  0.00  0.00     0.060 C 
ATOM     29  H   LIG d   1       8.553  13.401  -4.736  0.00  0.00     0.045 H 
ATOM     30  H   LIG d   1      10.083  13.958  -3.977  0.00  0.00     0.045 H 
ATOM     31  O   LIG d   1       9.189  14.267  -7.205  0.00  0.00    -0.377 OA
ATOM     32  H   LIG d   1      10.791  14.997  -6.108  0.00  0.00     0.057 H 
ATOM     33  H   LIG d   1       9.175  15.621  -5.633  0.00  0.00     0.057 H 
ATOM     34  C   LIG d   1       9.830  13.093  -7.710  0.00  0.00     0.060 C 
ATOM     35  C   LIG d   1       9.713  11.970  -6.676  0.00  0.00     0.022 C 
ATOM     36  H   LIG d   1      10.893  13.307  -7.901  0.00  0.00     0.057 H 
ATOM     37  H   LIG d   1       9.346  12.781  -8.647  0.00  0.00     0.057 H 
ATOM     38  H   LIG d   1      10.255  11.082  -7.035  0.00  0.00     0.045 H 
ATOM     39  H   LIG d   1       8.654  11.717  -6.525  0.00  0.00     0.045 H 
ENDBRANCH  23  26
ENDBRANCH  20  23
ENDBRANCH  19  20
ENDBRANCH   3  19
BRANCH   4  40
ATOM     40  C   LIG d   1       9.507   6.590  -2.828  0.00  0.00    -0.036 C 
ATOM     41  H   LIG d   1       8.463   6.363  -2.571  0.00  0.00     0.028 H 
ATOM     42  H   LIG d   1       9.777   7.579  -2.430  0.00  0.00     0.028 H 
ATOM     43  H   LIG d   1      10.168   5.826  -2.391  0.00  0.00     0.028 H 
ENDBRANCH   4  40
BRANCH   1  44
ATOM     44  C   LIG d   1      10.120   6.595  -8.565  0.00  0.00    -0.039 C 
ATOM     45  H   LIG d   1       9.760   5.639  -8.972  0.00  0.00     0.028 H 
ATOM     46  H   LIG d   1      11.183   6.726  -8.819  0.00  0.00     0.028 H 
ATOM     47  H   LIG d   1       9.536   7.421  -8.998  0.00  0.00     0.028 H 
ENDBRANCH   1  44
BRANCH   9  48
ATOM     48  C   LIG d   1       8.863   1.689  -4.384  0.00  0.00     0.036 C 
ATOM     49  H   LIG d   1       9.173   1.860  -3.343  0.00  0.00     0.039 H 
BRANCH  48  50
ATOM     50  C   LIG d   1       9.818   0.699  -5.055  0.00  0.00    -0.054 C 
ATOM     51  H   LIG d   1      10.681   1.243  -5.466  0.00  0.00     0.024 H 
ATOM     52  H   LIG d   1       9.292   0.177  -5.868  0.00  0.00     0.024 H 
ATOM     53  H   LIG d   1      10.166  -0.034  -4.313  0.00  0.00     0.024 H 
ENDBRANCH  48  50
BRANCH  48  54
ATOM     54  C   LIG d   1       7.467   1.121  -4.385  0.00  0.00     0.222 C 
ATOM     55  O   LIG d   1       6.964   0.752  -5.424  0.00  0.00    -0.275 OA
ATOM     56  N   LIG d   1       6.779   1.025  -3.231  0.00  0.00    -0.265 N 
ATOM     57  H   LIG d   1       7.235   1.360  -2.288  0.00  0.00     0.157 HD
BRANCH  56  58
ATOM     58  C   LIG d   1       5.491   0.502  -3.232  0.00  0.00     0.164 A 
ATOM     59  S   LIG d   1       4.976  -1.130  -2.938  0.00  0.00    -0.060 SA
ATOM     60  C   LIG d   1       3.221  -0.860  -3.139  0.00  0.00    -0.003 A 
ATOM     61  C   LIG d   1       3.200   0.466  -3.422  0.00  0.00     0.037 A 
ATOM     62  H   LIG d   1       2.403  -1.561  -3.061  0.00  0.00     0.071 H 
ATOM     63  N   LIG d   1       4.347   1.117  -3.461  0.00  0.00    -0.233 NA
ATOM     64  H   LIG d   1       2.268   0.976  -3.611  0.00  0.00     0.084 H 
ENDBRANCH  56  58
ENDBRANCH  48  54
ENDBRANCH   9  48
TORSDOF 10
ENDMDL
MODEL 4
REMARK VINA RESULT:      -6.0      7.526     11.518
REMARK  10 active torsions:
REMARK  status: ('A' for Active; 'I' for Inactive)
REMARK    1  A    between atoms: C_1  and  C_2 
REMARK    2  A    between atoms: C_4  and  O_25 
REMARK    3  A    between atoms: C_5  and  C_24 
REMARK    4  A    between atoms: C_10  and  C_13 
REMARK    5  A    between atoms: C_13  and  C_15 
REMARK    6  A    between atoms: C_13  and  C_16 
REMARK       I    between atoms: C_16  and  N_18 
REMARK    7  A    between atoms: N_18  and  C_19 
REMARK    8  A    between atoms: O_25  and  C_26 
REMARK    9  A    between atoms: C_26  and  C_27 
REMARK   10  A    between atoms: C_27  and  N_28 
ROOT
ATOM      1  C   LIG d   1      10.254   6.615  -5.628  0.00  0.00    -0.043 A 
ATOM      2  C   LIG d   1      10.617   7.562  -4.694  0.00  0.00    -0.017 A 
ATOM      3  C   LIG d   1      10.624   7.232  -3.347  0.00  0.00     0.124 A 
ATOM      4  C   LIG d   1      10.256   5.956  -2.953  0.00  0.00    -0.005 A 
ATOM      5  C   LIG d   1       9.885   5.007  -3.895  0.00  0.00    -0.037 A 
ATOM      6  C   LIG d   1       9.882   5.337  -5.232  0.00  0.00    -0.041 A 
ATOM      7  C   LIG d   1       9.482   4.358  -6.306  0.00  0.00    -0.027 C 
ATOM      8  C   LIG d   1       9.526   2.927  -5.774  0.00  0.00    -0.045 C 
ATOM      9  C   LIG d   1       8.727   2.873  -4.466  0.00  0.00    -0.026 C 
ATOM     10  H   LIG d   1       7.734   3.326  -4.608  0.00  0.00     0.031 H 
ATOM     11  C   LIG d   1       9.502   3.638  -3.396  0.00  0.00    -0.024 C 
ATOM     12  H   LIG d   1      10.899   8.555  -5.011  0.00  0.00     0.066 H 
ATOM     13  H   LIG d   1       8.459   4.582  -6.643  0.00  0.00     0.031 H 
ATOM     14  H   LIG d   1      10.175   4.445  -7.156  0.00  0.00     0.031 H 
ATOM     15  H   LIG d   1       9.083   2.247  -6.515  0.00  0.00     0.027 H 
ATOM     16  H   LIG d   1      10.571   2.637  -5.589  0.00  0.00     0.027 H 
ATOM     17  H   LIG d   1      10.412   3.073  -3.142  0.00  0.00     0.032 H 
ATOM     18  H   LIG d   1       8.871   3.736  -2.501  0.00  0.00     0.032 H 
ENDROOT
BRANCH   3  19
ATOM     19  O   LIG d   1      10.983   8.156  -2.418  0.00  0.00    -0.490 OA
BRANCH  19  20
ATOM     20  C   LIG d   1      10.109   9.273  -2.244  0.00  0.00     0.102 C 
ATOM     21  H   LIG d   1      10.689  10.206  -2.306  0.00  0.00     0.071 H 
ATOM     22  H   LIG d   1       9.342   9.265  -3.032  0.00  0.00     0.071 H 
BRANCH  20  23
ATOM     23  C   LIG d   1       9.433   9.182  -0.874  0.00  0.00     0.033 C 
ATOM     24  H   LIG d   1       8.351   9.340  -0.988  0.00  0.00     0.046 H 
ATOM     25  H   LIG d   1       9.616   8.189  -0.440  0.00  0.00     0.046 H 
BRANCH  23  26
ATOM     26  N   LIG d   1       9.987  10.213   0.015  0.00  0.00    -0.295 N 
ATOM     27  C   LIG d   1      10.271  11.451  -0.726  0.00  0.00     0.022 C 
ATOM     28  C   LIG d   1      10.789  12.514   0.246  0.00  0.00     0.060 C 
ATOM     29  H   LIG d   1      11.033  11.251  -1.495  0.00  0.00     0.045 H 
ATOM     30  H   LIG d   1       9.349  11.809  -1.208  0.00  0.00     0.045 H 
ATOM     31  O   LIG d   1      11.944  12.011   0.923  0.00  0.00    -0.377 OA
ATOM     32  H   LIG d   1      10.008  12.752   0.982  0.00  0.00     0.057 H 
ATOM     33  H   LIG d   1      11.058  13.424  -0.311  0.00  0.00     0.057 H 
ATOM     34  C   LIG d   1      11.704  10.806   1.655  0.00  0.00     0.060 C 
ATOM     35  C   LIG d   1      11.195   9.726   0.697  0.00  0.00     0.022 C 
ATOM     36  H   LIG d   1      10.948  10.993   2.433  0.00  0.00     0.057 H 
ATOM     37  H   LIG d   1      12.638  10.468   2.127  0.00  0.00     0.057 H 
ATOM     38  H   LIG d   1      10.953   8.815   1.265  0.00  0.00     0.045 H 
ATOM     39  H   LIG d   1      11.971   9.499  -0.047  0.00  0.00     0.045 H 
ENDBRANCH  23  26
ENDBRANCH  20  23
ENDBRANCH  19  20
ENDBRANCH   3  19
BRANCH   4  40
ATOM     40  C   LIG d   1      10.258   5.596  -1.489  0.00  0.00    -0.036 C 
ATOM     41  H   LIG d   1       9.835   4.589  -1.358  0.00  0.00     0.028 H 
ATOM     42  H   LIG d   1       9.650   6.324  -0.932  0.00  0.00     0.028 H 
ATOM     43  H   LIG d   1      11.290   5.613  -1.109  0.00  0.00     0.028 H 
ENDBRANCH   4  40
BRANCH   1  44
ATOM     44  C   LIG d   1      10.254   6.972  -7.092  0.00  0.00    -0.039 C 
ATOM     45  H   LIG d   1      10.657   7.987  -7.221  0.00  0.00     0.028 H 
ATOM     46  H   LIG d   1       9.224   6.933  -7.479  0.00  0.00     0.028 H 
ATOM     47  H   LIG d   1      10.880   6.256  -7.644  0.00  0.00     0.028 H 
ENDBRANCH   1  44
BRANCH   9  48
ATOM     48  C   LIG d   1       8.547   1.417  -4.032  0.00  0.00     0.036 C 
ATOM     49  H   LIG d   1       9.125   1.226  -3.116  0.00  0.00     0.039 H 
BRANCH  48  50
ATOM     50  C   LIG d   1       9.026   0.489  -5.151  0.00  0.00    -0.054 C 
ATOM     51  H   LIG d   1       9.123   1.062  -6.085  0.00  0.00     0.024 H 
ATOM     52  H   LIG d   1       8.295  -0.321  -5.292  0.00  0.00     0.024 H 
ATOM     53  H   LIG d   1      10.001   0.060  -4.880  0.00  0.00     0.024 H 
ENDBRANCH  48  50
BRANCH  48  54
ATOM     54  C   LIG d   1       7.091   1.153  -3.748  0.00  0.00     0.222 C 
ATOM     55  O   LIG d   1       6.441   1.957  -3.115  0.00  0.00    -0.275 OA
ATOM     56  N   LIG d   1       6.511   0.024  -4.199  0.00  0.00    -0.265 N 
ATOM     57  H   LIG d   1       7.100  -0.706  -4.774  0.00  0.00     0.157 HD
BRANCH  56  58
ATOM     58  C   LIG d   1       5.168  -0.220  -3.937  0.00  0.00     0.164 A 
ATOM     59  S   LIG d   1       4.454  -1.093  -2.617  0.00  0.00    -0.060 SA
ATOM     60  C   LIG d   1       2.746  -0.886  -3.098  0.00  0.00    -0.003 A 
ATOM     61  C   LIG d   1       2.889  -0.167  -4.238  0.00  0.00     0.037 A 
ATOM     62  H   LIG d   1       1.847  -1.240  -2.614  0.00  0.00     0.071 H 
ATOM     63  N   LIG d   1       4.108   0.150  -4.631  0.00  0.00    -0.233 NA
ATOM     64  H   LIG d   1       2.027   0.138  -4.811  0.00  0.00     0.084 H 
ENDBRANCH  56  58
ENDBRANCH  48  54
ENDBRANCH   9  48
TORSDOF 10
ENDMDL
MODEL 5
REMARK VINA RESULT:      -5.9      6.997     10.947
REMARK  10 active torsions:
REMARK  status: ('A' for Active; 'I' for Inactive)
REMARK    1  A    between atoms: C_1  and  C_2 
REMARK    2  A    between atoms: C_4  and  O_25 
REMARK    3  A    between atoms: C_5  and  C_24 
REMARK    4  A    between atoms: C_10  and  C_13 
REMARK    5  A    between atoms: C_13  and  C_15 
REMARK    6  A    between atoms: C_13  and  C_16 
REMARK       I    between atoms: C_16  and  N_18 
REMARK    7  A    between atoms: N_18  and  C_19 
REMARK    8  A    between atoms: O_25  and  C_26 
REMARK    9  A    between atoms: C_26  and  C_27 
REMARK   10  A    between atoms: C_27  and  N_28 
ROOT
ATOM      1  C   LIG d   1       9.992   6.238  -6.844  0.00  0.00    -0.043 A 
ATOM      2  C   LIG d   1      10.129   7.404  -6.121  0.00  0.00    -0.017 A 
ATOM      3  C   LIG d   1       9.981   7.379  -4.743  0.00  0.00     0.124 A 
ATOM      4  C   LIG d   1       9.687   6.185  -4.107  0.00  0.00    -0.005 A 
ATOM      5  C   LIG d   1       9.543   5.014  -4.838  0.00  0.00    -0.037 A 
ATOM      6  C   LIG d   1       9.694   5.040  -6.206  0.00  0.00    -0.041 A 
ATOM      7  C   LIG d   1       9.544   3.809  -7.062  0.00  0.00    -0.027 C 
ATOM      8  C   LIG d   1       9.652   2.546  -6.209  0.00  0.00    -0.045 C 
ATOM      9  C   LIG d   1       8.688   2.678  -5.025  0.00  0.00    -0.026 C 
ATOM     10  H   LIG d   1       7.685   2.961  -5.380  0.00  0.00     0.031 H 
ATOM     11  C   LIG d   1       9.229   3.750  -4.081  0.00  0.00    -0.024 C 
ATOM     12  H   LIG d   1      10.355   8.331  -6.626  0.00  0.00     0.066 H 
ATOM     13  H   LIG d   1       8.561   3.823  -7.555  0.00  0.00     0.031 H 
ATOM     14  H   LIG d   1      10.337   3.794  -7.824  0.00  0.00     0.031 H 
ATOM     15  H   LIG d   1       9.384   1.670  -6.817  0.00  0.00     0.027 H 
ATOM     16  H   LIG d   1      10.684   2.437  -5.844  0.00  0.00     0.027 H 
ATOM     17  H   LIG d   1      10.145   3.373  -3.601  0.00  0.00     0.032 H 
ATOM     18  H   LIG d   1       8.473   3.961  -3.311  0.00  0.00     0.032 H 
ENDROOT
BRANCH   3  19
ATOM     19  O   LIG d   1      10.117   8.522  -4.020  0.00  0.00    -0.490 OA
BRANCH  19  20
ATOM     20  C   LIG d   1      11.441   8.885  -3.623  0.00  0.00     0.102 C 
ATOM     21  H   LIG d   1      12.019   7.975  -3.404  0.00  0.00     0.071 H 
ATOM     22  H   LIG d   1      11.928   9.442  -4.437  0.00  0.00     0.071 H 
BRANCH  20  23
ATOM     23  C   LIG d   1      11.375   9.762  -2.372  0.00  0.00     0.033 C 
ATOM     24  H   LIG d   1      11.979  10.668  -2.527  0.00  0.00     0.046 H 
ATOM     25  H   LIG d   1      10.331  10.046  -2.177  0.00  0.00     0.046 H 
BRANCH  23  26
ATOM     26  N   LIG d   1      11.901   9.015  -1.221  0.00  0.00    -0.295 N 
ATOM     27  C   LIG d   1      12.629   7.815  -1.661  0.00  0.00     0.022 C 
ATOM     28  C   LIG d   1      13.209   7.101  -0.437  0.00  0.00     0.060 C 
ATOM     29  H   LIG d   1      11.939   7.140  -2.189  0.00  0.00     0.045 H 
ATOM     30  H   LIG d   1      13.445   8.110  -2.337  0.00  0.00     0.045 H 
ATOM     31  O   LIG d   1      12.151   6.789   0.472  0.00  0.00    -0.377 OA
ATOM     32  H   LIG d   1      13.939   7.755   0.060  0.00  0.00     0.057 H 
ATOM     33  H   LIG d   1      13.706   6.171  -0.754  0.00  0.00     0.057 H 
ATOM     34  C   LIG d   1      11.421   7.933   0.921  0.00  0.00     0.060 C 
ATOM     35  C   LIG d   1      10.823   8.656  -0.288  0.00  0.00     0.022 C 
ATOM     36  H   LIG d   1      12.098   8.614   1.458  0.00  0.00     0.057 H 
ATOM     37  H   LIG d   1      10.612   7.615   1.595  0.00  0.00     0.057 H 
ATOM     38  H   LIG d   1      10.309   9.570   0.046  0.00  0.00     0.045 H 
ATOM     39  H   LIG d   1      10.104   7.996  -0.794  0.00  0.00     0.045 H 
ENDBRANCH  23  26
ENDBRANCH  20  23
ENDBRANCH  19  20
ENDBRANCH   3  19
BRANCH   4  40
ATOM     40  C   LIG d   1       9.519   6.156  -2.609  0.00  0.00    -0.036 C 
ATOM     41  H   LIG d   1       9.793   7.135  -2.190  0.00  0.00     0.028 H 
ATOM     42  H   LIG d   1      10.171   5.379  -2.182  0.00  0.00     0.028 H 
ATOM     43  H   LIG d   1       8.471   5.931  -2.362  0.00  0.00     0.028 H 
ENDBRANCH   4  40
BRANCH   1  44
ATOM     44  C   LIG d   1      10.162   6.263  -8.342  0.00  0.00    -0.039 C 
ATOM     45  H   LIG d   1      10.501   7.262  -8.655  0.00  0.00     0.028 H 
ATOM     46  H   LIG d   1       9.199   6.035  -8.823  0.00  0.00     0.028 H 
ATOM     47  H   LIG d   1      10.907   5.512  -8.640  0.00  0.00     0.028 H 
ENDBRANCH   1  44
BRANCH   9  48
ATOM     48  C   LIG d   1       8.591   1.342  -4.286  0.00  0.00     0.036 C 
ATOM     49  H   LIG d   1       9.206   1.372  -3.375  0.00  0.00     0.039 H 
BRANCH  48  50
ATOM     50  C   LIG d   1       9.076   0.217  -5.204  0.00  0.00    -0.054 C 
ATOM     51  H   LIG d   1       8.978   0.532  -6.254  0.00  0.00     0.024 H 
ATOM     52  H   LIG d   1       8.468  -0.683  -5.033  0.00  0.00     0.024 H 
ATOM     53  H   LIG d   1      10.130  -0.005  -4.985  0.00  0.00     0.024 H 
ENDBRANCH  48  50
BRANCH  48  54
ATOM     54  C   LIG d   1       7.158   1.088  -3.894  0.00  0.00     0.222 C 
ATOM     55  O   LIG d   1       6.623   1.789  -3.062  0.00  0.00    -0.275 OA
ATOM     56  N   LIG d   1       6.472   0.080  -4.467  0.00  0.00    -0.265 N 
ATOM     57  H   LIG d   1       6.956  -0.557  -5.222  0.00  0.00     0.157 HD
BRANCH  56  58
ATOM     58  C   LIG d   1       5.151  -0.155  -4.105  0.00  0.00     0.164 A 
ATOM     59  S   LIG d   1       4.532  -1.114  -2.797  0.00  0.00    -0.060 SA
ATOM     60  C   LIG d   1       2.794  -0.835  -3.104  0.00  0.00    -0.003 A 
ATOM     61  C   LIG d   1       2.857  -0.032  -4.194  0.00  0.00     0.037 A 
ATOM     62  H   LIG d   1       1.932  -1.207  -2.570  0.00  0.00     0.071 H 
ATOM     63  N   LIG d   1       4.045   0.289  -4.670  0.00  0.00    -0.233 NA
ATOM     64  H   LIG d   1       1.957   0.335  -4.662  0.00  0.00     0.084 H 
ENDBRANCH  56  58
ENDBRANCH  48  54
ENDBRANCH   9  48
TORSDOF 10
ENDMDL
MODEL 6
REMARK VINA RESULT:      -5.9      7.329     11.082
REMARK  10 active torsions:
REMARK  status: ('A' for Active; 'I' for Inactive)
REMARK    1  A    between atoms: C_1  and  C_2 
REMARK    2  A    between atoms: C_4  and  O_25 
REMARK    3  A    between atoms: C_5  and  C_24 
REMARK    4  A    between atoms: C_10  and  C_13 
REMARK    5  A    between atoms: C_13  and  C_15 
REMARK    6  A    between atoms: C_13  and  C_16 
REMARK       I    between atoms: C_16  and  N_18 
REMARK    7  A    between atoms: N_18  and  C_19 
REMARK    8  A    between atoms: O_25  and  C_26 
REMARK    9  A    between atoms: C_26  and  C_27 
REMARK   10  A    between atoms: C_27  and  N_28 
ROOT
ATOM      1  C   LIG d   1       9.903   6.005  -7.252  0.00  0.00    -0.043 A 
ATOM      2  C   LIG d   1      10.040   7.225  -6.625  0.00  0.00    -0.017 A 
ATOM      3  C   LIG d   1       9.923   7.306  -5.246  0.00  0.00     0.124 A 
ATOM      4  C   LIG d   1       9.660   6.161  -4.512  0.00  0.00    -0.005 A 
ATOM      5  C   LIG d   1       9.517   4.935  -5.147  0.00  0.00    -0.037 A 
ATOM      6  C   LIG d   1       9.637   4.857  -6.516  0.00  0.00    -0.041 A 
ATOM      7  C   LIG d   1       9.485   3.561  -7.270  0.00  0.00    -0.027 C 
ATOM      8  C   LIG d   1       9.630   2.369  -6.325  0.00  0.00    -0.045 C 
ATOM      9  C   LIG d   1       8.691   2.582  -5.132  0.00  0.00    -0.026 C 
ATOM     10  H   LIG d   1       7.677   2.823  -5.484  0.00  0.00     0.031 H 
ATOM     11  C   LIG d   1       9.238   3.730  -4.287  0.00  0.00    -0.024 C 
ATOM     12  H   LIG d   1      10.241   8.113  -7.206  0.00  0.00     0.066 H 
ATOM     13  H   LIG d   1       8.491   3.524  -7.739  0.00  0.00     0.031 H 
ATOM     14  H   LIG d   1      10.260   3.496  -8.047  0.00  0.00     0.031 H 
ATOM     15  H   LIG d   1       9.361   1.445  -6.856  0.00  0.00     0.027 H 
ATOM     16  H   LIG d   1      10.672   2.302  -5.977  0.00  0.00     0.027 H 
ATOM     17  H   LIG d   1      10.170   3.403  -3.801  0.00  0.00     0.032 H 
ATOM     18  H   LIG d   1       8.497   3.991  -3.518  0.00  0.00     0.032 H 
ENDROOT
BRANCH   3  19
ATOM     19  O   LIG d   1      10.059   8.504  -4.618  0.00  0.00    -0.490 OA
BRANCH  19  20
ATOM     20  C   LIG d   1       9.481   9.642  -5.261  0.00  0.00     0.102 C 
ATOM     21  H   LIG d   1       9.915   9.754  -6.266  0.00  0.00     0.071 H 
ATOM     22  H   LIG d   1       8.394   9.504  -5.343  0.00  0.00     0.071 H 
BRANCH  20  23
ATOM     23  C   LIG d   1       9.775  10.896  -4.435  0.00  0.00     0.033 C 
ATOM     24  H   LIG d   1      10.573  11.476  -4.920  0.00  0.00     0.046 H 
ATOM     25  H   LIG d   1       8.865  11.511  -4.366  0.00  0.00     0.046 H 
BRANCH  23  26
ATOM     26  N   LIG d   1      10.205  10.506  -3.086  0.00  0.00    -0.295 N 
ATOM     27  C   LIG d   1       9.153  10.783  -2.097  0.00  0.00     0.022 C 
ATOM     28  C   LIG d   1       9.618  10.307  -0.718  0.00  0.00     0.060 C 
ATOM     29  H   LIG d   1       8.954  11.865  -2.066  0.00  0.00     0.045 H 
ATOM     30  H   LIG d   1       8.234  10.249  -2.380  0.00  0.00     0.045 H 
ATOM     31  O   LIG d   1      10.853  10.950  -0.390  0.00  0.00    -0.377 OA
ATOM     32  H   LIG d   1       9.765   9.218  -0.734  0.00  0.00     0.057 H 
ATOM     33  H   LIG d   1       8.859  10.564   0.036  0.00  0.00     0.057 H 
ATOM     34  C   LIG d   1      11.900  10.701  -1.331  0.00  0.00     0.060 C 
ATOM     35  C   LIG d   1      11.457  11.181  -2.716  0.00  0.00     0.022 C 
ATOM     36  H   LIG d   1      12.114   9.622  -1.367  0.00  0.00     0.057 H 
ATOM     37  H   LIG d   1      12.806  11.244  -1.027  0.00  0.00     0.057 H 
ATOM     38  H   LIG d   1      12.236  10.939  -3.455  0.00  0.00     0.045 H 
ATOM     39  H   LIG d   1      11.297  12.268  -2.695  0.00  0.00     0.045 H 
ENDBRANCH  23  26
ENDBRANCH  20  23
ENDBRANCH  19  20
ENDBRANCH   3  19
BRANCH   4  40
ATOM     40  C   LIG d   1       9.527   6.247  -3.013  0.00  0.00    -0.036 C 
ATOM     41  H   LIG d   1      10.301   5.626  -2.540  0.00  0.00     0.028 H 
ATOM     42  H   LIG d   1       8.532   5.887  -2.712  0.00  0.00     0.028 H 
ATOM     43  H   LIG d   1       9.650   7.293  -2.694  0.00  0.00     0.028 H 
ENDBRANCH   4  40
BRANCH   1  44
ATOM     44  C   LIG d   1      10.038   5.916  -8.751  0.00  0.00    -0.039 C 
ATOM     45  H   LIG d   1       9.612   4.964  -9.100  0.00  0.00     0.028 H 
ATOM     46  H   LIG d   1      11.102   5.965  -9.026  0.00  0.00     0.028 H 
ATOM     47  H   LIG d   1       9.500   6.753  -9.218  0.00  0.00     0.028 H 
ENDBRANCH   1  44
BRANCH   9  48
ATOM     48  C   LIG d   1       8.630   1.306  -4.290  0.00  0.00     0.036 C 
ATOM     49  H   LIG d   1       9.228   1.431  -3.375  0.00  0.00     0.039 H 
BRANCH  48  50
ATOM     50  C   LIG d   1       9.171   0.130  -5.107  0.00  0.00    -0.054 C 
ATOM     51  H   LIG d   1       9.747   0.513  -5.963  0.00  0.00     0.024 H 
ATOM     52  H   LIG d   1       8.331  -0.478  -5.473  0.00  0.00     0.024 H 
ATOM     53  H   LIG d   1       9.823  -0.488  -4.473  0.00  0.00     0.024 H 
ENDBRANCH  48  50
BRANCH  48  54
ATOM     54  C   LIG d   1       7.201   1.030  -3.898  0.00  0.00     0.222 C 
ATOM     55  O   LIG d   1       6.669   1.696  -3.036  0.00  0.00    -0.275 OA
ATOM     56  N   LIG d   1       6.515   0.043  -4.506  0.00  0.00    -0.265 N 
ATOM     57  H   LIG d   1       6.996  -0.562  -5.289  0.00  0.00     0.157 HD
BRANCH  56  58
ATOM     58  C   LIG d   1       5.197  -0.212  -4.145  0.00  0.00     0.164 A 
ATOM     59  S   LIG d   1       4.587  -1.310  -2.947  0.00  0.00    -0.060 SA
ATOM     60  C   LIG d   1       2.849  -0.966  -3.180  0.00  0.00    -0.003 A 
ATOM     61  C   LIG d   1       2.905  -0.040  -4.167  0.00  0.00     0.037 A 
ATOM     62  H   LIG d   1       1.990  -1.385  -2.675  0.00  0.00     0.071 H 
ATOM     63  N   LIG d   1       4.088   0.316  -4.628  0.00  0.00    -0.233 NA
ATOM     64  H   LIG d   1       2.002   0.396  -4.568  0.00  0.00     0.084 H 
ENDBRANCH  56  58
ENDBRANCH  48  54
ENDBRANCH   9  48
TORSDOF 10
ENDMDL
MODEL 7
REMARK VINA RESULT:      -5.7      7.669     11.734
REMARK  10 active torsions:
REMARK  status: ('A' for Active; 'I' for Inactive)
REMARK    1  A    between atoms: C_1  and  C_2 
REMARK    2  A    between atoms: C_4  and  O_25 
REMARK    3  A    between atoms: C_5  and  C_24 
REMARK    4  A    between atoms: C_10  and  C_13 
REMARK    5  A    between atoms: C_13  and  C_15 
REMARK    6  A    between atoms: C_13  and  C_16 
REMARK       I    between atoms: C_16  and  N_18 
REMARK    7  A    between atoms: N_18  and  C_19 
REMARK    8  A    between atoms: O_25  and  C_26 
REMARK    9  A    between atoms: C_26  and  C_27 
REMARK   10  A    between atoms: C_27  and  N_28 
ROOT
ATOM      1  C   LIG d   1      10.061   6.925  -5.315  0.00  0.00    -0.043 A 
ATOM      2  C   LIG d   1      10.373   7.812  -4.307  0.00  0.00    -0.017 A 
ATOM      3  C   LIG d   1      10.454   7.363  -2.998  0.00  0.00     0.124 A 
ATOM      4  C   LIG d   1      10.211   6.029  -2.714  0.00  0.00    -0.005 A 
ATOM      5  C   LIG d   1       9.891   5.140  -3.731  0.00  0.00    -0.037 A 
ATOM      6  C   LIG d   1       9.815   5.588  -5.031  0.00  0.00    -0.041 A 
ATOM      7  C   LIG d   1       9.465   4.679  -6.181  0.00  0.00    -0.027 C 
ATOM      8  C   LIG d   1       9.651   3.215  -5.785  0.00  0.00    -0.045 C 
ATOM      9  C   LIG d   1       8.903   2.972  -4.468  0.00  0.00    -0.026 C 
ATOM     10  H   LIG d   1       7.871   3.346  -4.542  0.00  0.00     0.031 H 
ATOM     11  C   LIG d   1       9.645   3.703  -3.352  0.00  0.00    -0.024 C 
ATOM     12  H   LIG d   1      10.557   8.851  -4.537  0.00  0.00     0.066 H 
ATOM     13  H   LIG d   1       8.415   4.840  -6.469  0.00  0.00     0.031 H 
ATOM     14  H   LIG d   1      10.118   4.903  -7.036  0.00  0.00     0.031 H 
ATOM     15  H   LIG d   1       9.243   2.568  -6.575  0.00  0.00     0.027 H 
ATOM     16  H   LIG d   1      10.722   3.004  -5.654  0.00  0.00     0.027 H 
ATOM     17  H   LIG d   1      10.609   3.200  -3.175  0.00  0.00     0.032 H 
ATOM     18  H   LIG d   1       9.039   3.663  -2.435  0.00  0.00     0.032 H 
ENDROOT
BRANCH   3  19
ATOM     19  O   LIG d   1      10.763   8.229  -1.997  0.00  0.00    -0.490 OA
BRANCH  19  20
ATOM     20  C   LIG d   1      11.489   9.406  -2.358  0.00  0.00     0.102 C 
ATOM     21  H   LIG d   1      12.568   9.215  -2.263  0.00  0.00     0.071 H 
ATOM     22  H   LIG d   1      11.255   9.675  -3.399  0.00  0.00     0.071 H 
BRANCH  20  23
ATOM     23  C   LIG d   1      11.090  10.556  -1.432  0.00  0.00     0.033 C 
ATOM     24  H   LIG d   1      10.403  10.182  -0.658  0.00  0.00     0.046 H 
ATOM     25  H   LIG d   1      11.989  10.972  -0.954  0.00  0.00     0.046 H 
BRANCH  23  26
ATOM     26  N   LIG d   1      10.422  11.605  -2.213  0.00  0.00    -0.295 N 
ATOM     27  C   LIG d   1       9.102  11.155  -2.680  0.00  0.00     0.022 C 
ATOM     28  C   LIG d   1       8.418  12.297  -3.437  0.00  0.00     0.060 C 
ATOM     29  H   LIG d   1       9.225  10.291  -3.350  0.00  0.00     0.045 H 
ATOM     30  H   LIG d   1       8.487  10.866  -1.815  0.00  0.00     0.045 H 
ATOM     31  O   LIG d   1       9.259  12.718  -4.514  0.00  0.00    -0.377 OA
ATOM     32  H   LIG d   1       8.247  13.141  -2.754  0.00  0.00     0.057 H 
ATOM     33  H   LIG d   1       7.455  11.948  -3.838  0.00  0.00     0.057 H 
ATOM     34  C   LIG d   1      10.552  13.164  -4.096  0.00  0.00     0.060 C 
ATOM     35  C   LIG d   1      11.257  12.031  -3.346  0.00  0.00     0.022 C 
ATOM     36  H   LIG d   1      10.444  14.033  -3.431  0.00  0.00     0.057 H 
ATOM     37  H   LIG d   1      11.147  13.447  -4.976  0.00  0.00     0.057 H 
ATOM     38  H   LIG d   1      12.228  12.386  -2.971  0.00  0.00     0.045 H 
ATOM     39  H   LIG d   1      11.415  11.181  -4.025  0.00  0.00     0.045 H 
ENDBRANCH  23  26
ENDBRANCH  20  23
ENDBRANCH  19  20
ENDBRANCH   3  19
BRANCH   4  40
ATOM     40  C   LIG d   1      10.293   5.540  -1.291  0.00  0.00    -0.036 C 
ATOM     41  H   LIG d   1       9.751   4.588  -1.198  0.00  0.00     0.028 H 
ATOM     42  H   LIG d   1       9.842   6.286  -0.620  0.00  0.00     0.028 H 
ATOM     43  H   LIG d   1      11.348   5.391  -1.016  0.00  0.00     0.028 H 
ENDBRANCH   4  40
BRANCH   1  44
ATOM     44  C   LIG d   1       9.981   7.411  -6.740  0.00  0.00    -0.039 C 
ATOM     45  H   LIG d   1       9.951   8.511  -6.750  0.00  0.00     0.028 H 
ATOM     46  H   LIG d   1       9.070   7.014  -7.212  0.00  0.00     0.028 H 
ATOM     47  H   LIG d   1      10.864   7.064  -7.297  0.00  0.00     0.028 H 
ENDBRANCH   1  44
BRANCH   9  48
ATOM     48  C   LIG d   1       8.865   1.473  -4.166  0.00  0.00     0.036 C 
ATOM     49  H   LIG d   1       9.270   1.282  -3.162  0.00  0.00     0.039 H 
BRANCH  48  50
ATOM     50  C   LIG d   1       9.692   0.721  -5.212  0.00  0.00    -0.054 C 
ATOM     51  H   LIG d   1      10.427   0.078  -4.705  0.00  0.00     0.024 H 
ATOM     52  H   LIG d   1      10.219   1.445  -5.851  0.00  0.00     0.024 H 
ATOM     53  H   LIG d   1       9.027   0.101  -5.830  0.00  0.00     0.024 H 
ENDBRANCH  48  50
BRANCH  48  54
ATOM     54  C   LIG d   1       7.439   0.988  -4.211  0.00  0.00     0.222 C 
ATOM     55  O   LIG d   1       6.919   0.730  -5.276  0.00  0.00    -0.275 OA
ATOM     56  N   LIG d   1       6.741   0.841  -3.068  0.00  0.00    -0.265 N 
ATOM     57  H   LIG d   1       7.212   1.075  -2.101  0.00  0.00     0.157 HD
BRANCH  56  58
ATOM     58  C   LIG d   1       5.426   0.395  -3.108  0.00  0.00     0.164 A 
ATOM     59  S   LIG d   1       4.798  -1.184  -2.752  0.00  0.00    -0.060 SA
ATOM     60  C   LIG d   1       3.075  -0.825  -3.062  0.00  0.00    -0.003 A 
ATOM     61  C   LIG d   1       3.150   0.480  -3.419  0.00  0.00     0.037 A 
ATOM     62  H   LIG d   1       2.213  -1.472  -2.989  0.00  0.00     0.071 H 
ATOM     63  N   LIG d   1       4.334   1.061  -3.433  0.00  0.00    -0.233 NA
ATOM     64  H   LIG d   1       2.261   1.032  -3.686  0.00  0.00     0.084 H 
ENDBRANCH  56  58
ENDBRANCH  48  54
ENDBRANCH   9  48
TORSDOF 10
ENDMDL
MODEL 8
REMARK VINA RESULT:      -5.7      3.813      4.938
REMARK  10 active torsions:
REMARK  status: ('A' for Active; 'I' for Inactive)
REMARK    1  A    between atoms: C_1  and  C_2 
REMARK    2  A    between atoms: C_4  and  O_25 
REMARK    3  A    between atoms: C_5  and  C_24 
REMARK    4  A    between atoms: C_10  and  C_13 
REMARK    5  A    between atoms: C_13  and  C_15 
REMARK    6  A    between atoms: C_13  and  C_16 
REMARK       I    between atoms: C_16  and  N_18 
REMARK    7  A    between atoms: N_18  and  C_19 
REMARK    8  A    between atoms: O_25  and  C_26 
REMARK    9  A    between atoms: C_26  and  C_27 
REMARK   10  A    between atoms: C_27  and  N_28 
ROOT
ATOM      1  C   LIG d   1       2.298  -1.065  -9.379  0.00  0.00    -0.043 A 
ATOM      2  C   LIG d   1       2.516  -0.106  -8.412  0.00  0.00    -0.017 A 
ATOM      3  C   LIG d   1       3.468  -0.327  -7.429  0.00  0.00     0.124 A 
ATOM      4  C   LIG d   1       4.183  -1.513  -7.421  0.00  0.00    -0.005 A 
ATOM      5  C   LIG d   1       3.956  -2.478  -8.391  0.00  0.00    -0.037 A 
ATOM      6  C   LIG d   1       3.013  -2.255  -9.369  0.00  0.00    -0.041 A 
ATOM      7  C   LIG d   1       2.711  -3.264 -10.448  0.00  0.00    -0.027 C 
ATOM      8  C   LIG d   1       3.840  -4.286 -10.561  0.00  0.00    -0.045 C 
ATOM      9  C   LIG d   1       4.128  -4.845  -9.162  0.00  0.00    -0.026 C 
ATOM     10  H   LIG d   1       3.193  -5.178  -8.686  0.00  0.00     0.031 H 
ATOM     11  C   LIG d   1       4.774  -3.742  -8.326  0.00  0.00    -0.024 C 
ATOM     12  H   LIG d   1       1.951   0.814  -8.425  0.00  0.00     0.066 H 
ATOM     13  H   LIG d   1       1.776  -3.791 -10.205  0.00  0.00     0.031 H 
ATOM     14  H   LIG d   1       2.600  -2.746 -11.412  0.00  0.00     0.031 H 
ATOM     15  H   LIG d   1       3.533  -5.098 -11.235  0.00  0.00     0.027 H 
ATOM     16  H   LIG d   1       4.739  -3.795 -10.962  0.00  0.00     0.027 H 
ATOM     17  H   LIG d   1       5.785  -3.545  -8.716  0.00  0.00     0.032 H 
ATOM     18  H   LIG d   1       4.845  -4.080  -7.283  0.00  0.00     0.032 H 
ENDROOT
BRANCH   3  19
ATOM     19  O   LIG d   1       3.693   0.613  -6.473  0.00  0.00    -0.490 OA
BRANCH  19  20
ATOM     20  C   LIG d   1       2.551   1.118  -5.778  0.00  0.00     0.102 C 
ATOM     21  H   LIG d   1       2.792   2.099  -5.341  0.00  0.00     0.071 H 
ATOM     22  H   LIG d   1       1.712   1.225  -6.481  0.00  0.00     0.071 H 
BRANCH  20  23
ATOM     23  C   LIG d   1       2.162   0.144  -4.664  0.00  0.00     0.033 C 
ATOM     24  H   LIG d   1       1.313   0.556  -4.097  0.00  0.00     0.046 H 
ATOM     25  H   LIG d   1       1.875  -0.822  -5.104  0.00  0.00     0.046 H 
BRANCH  23  26
ATOM     26  N   LIG d   1       3.304  -0.050  -3.761  0.00  0.00    -0.295 N 
ATOM     27  C   LIG d   1       3.152  -1.284  -2.976  0.00  0.00     0.022 C 
ATOM     28  C   LIG d   1       4.389  -1.478  -2.095  0.00  0.00     0.060 C 
ATOM     29  H   LIG d   1       2.256  -1.207  -2.342  0.00  0.00     0.045 H 
ATOM     30  H   LIG d   1       3.047  -2.141  -3.658  0.00  0.00     0.045 H 
ATOM     31  O   LIG d   1       4.562  -0.326  -1.265  0.00  0.00    -0.377 OA
ATOM     32  H   LIG d   1       5.277  -1.608  -2.730  0.00  0.00     0.057 H 
ATOM     33  H   LIG d   1       4.256  -2.368  -1.463  0.00  0.00     0.057 H 
ATOM     34  C   LIG d   1       4.714   0.894  -1.996  0.00  0.00     0.060 C 
ATOM     35  C   LIG d   1       3.480   1.111  -2.876  0.00  0.00     0.022 C 
ATOM     36  H   LIG d   1       5.611   0.833  -2.630  0.00  0.00     0.057 H 
ATOM     37  H   LIG d   1       4.817   1.734  -1.295  0.00  0.00     0.057 H 
ATOM     38  H   LIG d   1       3.617   2.018  -3.485  0.00  0.00     0.045 H 
ATOM     39  H   LIG d   1       2.590   1.227  -2.241  0.00  0.00     0.045 H 
ENDBRANCH  23  26
ENDBRANCH  20  23
ENDBRANCH  19  20
ENDBRANCH   3  19
BRANCH   4  40
ATOM     40  C   LIG d   1       5.215  -1.757  -6.350  0.00  0.00    -0.036 C 
ATOM     41  H   LIG d   1       5.686  -0.804  -6.069  0.00  0.00     0.028 H 
ATOM     42  H   LIG d   1       5.981  -2.448  -6.730  0.00  0.00     0.028 H 
ATOM     43  H   LIG d   1       4.728  -2.200  -5.467  0.00  0.00     0.028 H 
ENDBRANCH   4  40
BRANCH   1  44
ATOM     44  C   LIG d   1       1.268  -0.821 -10.453  0.00  0.00    -0.039 C 
ATOM     45  H   LIG d   1       0.637   0.033 -10.168  0.00  0.00     0.028 H 
ATOM     46  H   LIG d   1       0.642  -1.718 -10.570  0.00  0.00     0.028 H 
ATOM     47  H   LIG d   1       1.775  -0.603 -11.404  0.00  0.00     0.028 H 
ENDBRANCH   1  44
BRANCH   9  48
ATOM     48  C   LIG d   1       5.080  -6.037  -9.268  0.00  0.00     0.036 C 
ATOM     49  H   LIG d   1       6.096  -5.732  -8.978  0.00  0.00     0.039 H 
BRANCH  48  50
ATOM     50  C   LIG d   1       5.085  -6.557 -10.707  0.00  0.00    -0.054 C 
ATOM     51  H   LIG d   1       4.056  -6.571 -11.096  0.00  0.00     0.024 H 
ATOM     52  H   LIG d   1       5.498  -7.577 -10.727  0.00  0.00     0.024 H 
ATOM     53  H   LIG d   1       5.705  -5.899 -11.333  0.00  0.00     0.024 H 
ENDBRANCH  48  50
BRANCH  48  54
ATOM     54  C   LIG d   1       4.621  -7.131  -8.339  0.00  0.00     0.222 C 
ATOM     55  O   LIG d   1       3.463  -7.179  -7.984  0.00  0.00    -0.275 OA
ATOM     56  N   LIG d   1       5.498  -8.057  -7.904  0.00  0.00    -0.265 N 
ATOM     57  H   LIG d   1       6.549  -8.014  -8.227  0.00  0.00     0.157 HD
BRANCH  56  58
ATOM     58  C   LIG d   1       5.075  -9.066  -7.047  0.00  0.00     0.164 A 
ATOM     59  S   LIG d   1       4.917  -9.034  -5.319  0.00  0.00    -0.060 SA
ATOM     60  C   LIG d   1       4.330 -10.709  -5.108  0.00  0.00    -0.003 A 
ATOM     61  C   LIG d   1       4.319 -11.136  -6.394  0.00  0.00     0.037 A 
ATOM     62  H   LIG d   1       4.062 -11.236  -4.204  0.00  0.00     0.071 H 
ATOM     63  N   LIG d   1       4.696 -10.295  -7.338  0.00  0.00    -0.233 NA
ATOM     64  H   LIG d   1       4.011 -12.141  -6.640  0.00  0.00     0.084 H 
ENDBRANCH  56  58
ENDBRANCH  48  54
ENDBRANCH   9  48
TORSDOF 10
ENDMDL
MODEL 9
REMARK VINA RESULT:      -5.6      2.821      8.968
REMARK  10 active torsions:
REMARK  status: ('A' for Active; 'I' for Inactive)
REMARK    1  A    between atoms: C_1  and  C_2 
REMARK    2  A    between atoms: C_4  and  O_25 
REMARK    3  A    between atoms: C_5  and  C_24 
REMARK    4  A    between atoms: C_10  and  C_13 
REMARK    5  A    between atoms: C_13  and  C_15 
REMARK    6  A    between atoms: C_13  and  C_16 
REMARK       I    between atoms: C_16  and  N_18 
REMARK    7  A    between atoms: N_18  and  C_19 
REMARK    8  A    between atoms: O_25  and  C_26 
REMARK    9  A    between atoms: C_26  and  C_27 
REMARK   10  A    between atoms: C_27  and  N_28 
ROOT
ATOM      1  C   LIG d   1       3.289  -1.497 -13.369  0.00  0.00    -0.043 A 
ATOM      2  C   LIG d   1       2.602  -2.632 -13.740  0.00  0.00    -0.017 A 
ATOM      3  C   LIG d   1       1.722  -3.225 -12.847  0.00  0.00     0.124 A 
ATOM      4  C   LIG d   1       1.550  -2.675 -11.588  0.00  0.00    -0.005 A 
ATOM      5  C   LIG d   1       2.248  -1.535 -11.215  0.00  0.00    -0.037 A 
ATOM      6  C   LIG d   1       3.119  -0.947 -12.105  0.00  0.00    -0.041 A 
ATOM      7  C   LIG d   1       3.915   0.286 -11.764  0.00  0.00    -0.027 C 
ATOM      8  C   LIG d   1       3.314   0.997 -10.553  0.00  0.00    -0.045 C 
ATOM      9  C   LIG d   1       3.130  -0.032  -9.431  0.00  0.00    -0.026 C 
ATOM     10  H   LIG d   1       4.063  -0.593  -9.272  0.00  0.00     0.031 H 
ATOM     11  C   LIG d   1       2.009  -0.988  -9.832  0.00  0.00    -0.024 C 
ATOM     12  H   LIG d   1       2.745  -3.056 -14.723  0.00  0.00     0.066 H 
ATOM     13  H   LIG d   1       4.952   0.000 -11.530  0.00  0.00     0.031 H 
ATOM     14  H   LIG d   1       3.909   0.975 -12.621  0.00  0.00     0.031 H 
ATOM     15  H   LIG d   1       3.992   1.797 -10.223  0.00  0.00     0.027 H 
ATOM     16  H   LIG d   1       2.341   1.431 -10.829  0.00  0.00     0.027 H 
ATOM     17  H   LIG d   1       1.052  -0.443  -9.815  0.00  0.00     0.032 H 
ATOM     18  H   LIG d   1       1.971  -1.816  -9.111  0.00  0.00     0.032 H 
ENDROOT
BRANCH   3  19
ATOM     19  O   LIG d   1       1.036  -4.343 -13.204  0.00  0.00    -0.490 OA
BRANCH  19  20
ATOM     20  C   LIG d   1       0.369  -4.319 -14.467  0.00  0.00     0.102 C 
ATOM     21  H   LIG d   1       0.186  -3.276 -14.765  0.00  0.00     0.071 H 
ATOM     22  H   LIG d   1       0.998  -4.811 -15.223  0.00  0.00     0.071 H 
BRANCH  20  23
ATOM     23  C   LIG d   1      -0.965  -5.060 -14.354  0.00  0.00     0.033 C 
ATOM     24  H   LIG d   1      -1.764  -4.446 -14.794  0.00  0.00     0.046 H 
ATOM     25  H   LIG d   1      -0.900  -6.017 -14.891  0.00  0.00     0.046 H 
BRANCH  23  26
ATOM     26  N   LIG d   1      -1.265  -5.313 -12.938  0.00  0.00    -0.295 N 
ATOM     27  C   LIG d   1      -1.385  -6.755 -12.675  0.00  0.00     0.022 C 
ATOM     28  C   LIG d   1      -1.639  -6.976 -11.181  0.00  0.00     0.060 C 
ATOM     29  H   LIG d   1      -2.225  -7.165 -13.256  0.00  0.00     0.045 H 
ATOM     30  H   LIG d   1      -0.453  -7.259 -12.969  0.00  0.00     0.045 H 
ATOM     31  O   LIG d   1      -2.810  -6.255 -10.790  0.00  0.00    -0.377 OA
ATOM     32  H   LIG d   1      -0.776  -6.614 -10.603  0.00  0.00     0.057 H 
ATOM     33  H   LIG d   1      -1.787  -8.049 -10.987  0.00  0.00     0.057 H 
ATOM     34  C   LIG d   1      -2.729  -4.848 -11.032  0.00  0.00     0.060 C 
ATOM     35  C   LIG d   1      -2.486  -4.605 -12.523  0.00  0.00     0.022 C 
ATOM     36  H   LIG d   1      -1.897  -4.422 -10.451  0.00  0.00     0.057 H 
ATOM     37  H   LIG d   1      -3.670  -4.366 -10.730  0.00  0.00     0.057 H 
ATOM     38  H   LIG d   1      -2.364  -3.527 -12.706  0.00  0.00     0.045 H 
ATOM     39  H   LIG d   1      -3.342  -4.981 -13.102  0.00  0.00     0.045 H 
ENDBRANCH  23  26
ENDBRANCH  20  23
ENDBRANCH  19  20
ENDBRANCH   3  19
BRANCH   4  40
ATOM     40  C   LIG d   1       0.598  -3.320 -10.613  0.00  0.00    -0.036 C 
ATOM     41  H   LIG d   1       0.676  -4.414 -10.693  0.00  0.00     0.028 H 
ATOM     42  H   LIG d   1      -0.431  -3.007 -10.845  0.00  0.00     0.028 H 
ATOM     43  H   LIG d   1       0.854  -3.007  -9.590  0.00  0.00     0.028 H 
ENDBRANCH   4  40
BRANCH   1  44
ATOM     44  C   LIG d   1       4.240  -0.848 -14.343  0.00  0.00    -0.039 C 
ATOM     45  H   LIG d   1       4.477  -1.557 -15.150  0.00  0.00     0.028 H 
ATOM     46  H   LIG d   1       5.165  -0.566 -13.818  0.00  0.00     0.028 H 
ATOM     47  H   LIG d   1       3.772   0.051 -14.770  0.00  0.00     0.028 H 
ENDBRANCH   1  44
BRANCH   9  48
ATOM     48  C   LIG d   1       2.757   0.683  -8.131  0.00  0.00     0.036 C 
ATOM     49  H   LIG d   1       1.737   0.404  -7.829  0.00  0.00     0.039 H 
BRANCH  48  50
ATOM     50  C   LIG d   1       2.841   2.197  -8.340  0.00  0.00    -0.054 C 
ATOM     51  H   LIG d   1       3.590   2.621  -7.655  0.00  0.00     0.024 H 
ATOM     52  H   LIG d   1       1.860   2.650  -8.137  0.00  0.00     0.024 H 
ATOM     53  H   LIG d   1       3.134   2.407  -9.379  0.00  0.00     0.024 H 
ENDBRANCH  48  50
BRANCH  48  54
ATOM     54  C   LIG d   1       3.712   0.273  -7.040  0.00  0.00     0.222 C 
ATOM     55  O   LIG d   1       4.908   0.298  -7.240  0.00  0.00    -0.275 OA
ATOM     56  N   LIG d   1       3.237  -0.121  -5.842  0.00  0.00    -0.265 N 
ATOM     57  H   LIG d   1       2.153  -0.144  -5.660  0.00  0.00     0.157 HD
BRANCH  56  58
ATOM     58  C   LIG d   1       4.118  -0.500  -4.836  0.00  0.00     0.164 A 
ATOM     59  S   LIG d   1       4.661  -2.091  -4.403  0.00  0.00    -0.060 SA
ATOM     60  C   LIG d   1       5.732  -1.613  -3.055  0.00  0.00    -0.003 A 
ATOM     61  C   LIG d   1       5.563  -0.269  -3.063  0.00  0.00     0.037 A 
ATOM     62  H   LIG d   1       6.343  -2.227  -2.410  0.00  0.00     0.071 H 
ATOM     63  N   LIG d   1       4.752   0.257  -3.961  0.00  0.00    -0.233 NA
ATOM     64  H   LIG d   1       6.078   0.357  -2.350  0.00  0.00     0.084 H 
ENDBRANCH  56  58
ENDBRANCH  48  54
ENDBRANCH   9  48
TORSDOF 10
ENDMDL
