MODEL 1
REMARK VINA RESULT:      -6.6      0.000      0.000
REMARK  10 active torsions:
REMARK  status: ('A' for Active; 'I' for Inactive)
REMARK    1  A    between atoms: C_1  and  C_2 
REMARK    2  A    between atoms: C_3  and  C_33 
REMARK    3  A    between atoms: C_9  and  C_32 
REMARK    4  A    between atoms: C_20  and  O_31 
REMARK    5  A    between atoms: C_24  and  C_30 
REMARK    6  A    between atoms: C_33  and  C_34 
REMARK    7  A    between atoms: C_34  and  C_35 
REMARK    8  A    between atoms: C_35  and  C_37 
REMARK    9  A    between atoms: C_35  and  C_38 
REMARK   10  A    between atoms: C_38  and  O_39 
ROOT
ATOM      1  C   LIG d   1       5.499  -2.715  -4.568  0.00  0.00    -0.028 C 
ATOM      2  C   LIG d   1       5.467  -1.759  -3.664  0.00  0.00     0.098 C 
ATOM      3  O   LIG d   1       6.328  -0.748  -3.913  0.00  0.00    -0.492 OA
ATOM      4  C   LIG d   1       6.760  -0.807  -5.300  0.00  0.00     0.107 C 
ATOM      5  H   LIG d   1       7.790  -0.490  -5.469  0.00  0.00     0.074 H 
ATOM      6  C   LIG d   1       6.524  -2.323  -5.616  0.00  0.00     0.033 C 
ATOM      7  H   LIG d   1       7.431  -2.927  -5.585  0.00  0.00     0.039 H 
ATOM      8  C   LIG d   1       5.856  -2.292  -6.996  0.00  0.00     0.039 C 
ATOM      9  C   LIG d   1       4.894  -1.083  -6.861  0.00  0.00    -0.022 C 
ATOM     10  H   LIG d   1       4.055  -1.355  -6.221  0.00  0.00     0.031 H 
ATOM     11  C   LIG d   1       5.744  -0.024  -6.164  0.00  0.00    -0.011 C 
ATOM     12  C   LIG d   1       4.362  -0.711  -8.232  0.00  0.00    -0.034 C 
ATOM     13  H   LIG d   1       5.110  -0.088  -8.724  0.00  0.00     0.031 H 
ATOM     14  C   LIG d   1       3.113   0.134  -8.092  0.00  0.00    -0.049 C 
ATOM     15  C   LIG d   1       2.418   0.340  -9.432  0.00  0.00    -0.049 C 
ATOM     16  C   LIG d   1       2.050  -1.026 -10.016  0.00  0.00    -0.033 C 
ATOM     17  H   LIG d   1       1.438  -1.574  -9.301  0.00  0.00     0.031 H 
ATOM     18  C   LIG d   1       1.271  -0.835 -11.319  0.00  0.00    -0.024 C 
ATOM     19  C   LIG d   1       0.918  -2.205 -11.902  0.00  0.00     0.056 C 
ATOM     20  H   LIG d   1       0.304  -2.756 -11.190  0.00  0.00     0.059 H 
ATOM     21  C   LIG d   1       2.202  -2.988 -12.181  0.00  0.00    -0.026 C 
ATOM     22  C   LIG d   1       2.981  -3.176 -10.877  0.00  0.00    -0.045 C 
ATOM     23  C   LIG d   1       3.331  -1.805 -10.294  0.00  0.00    -0.026 C 
ATOM     24  C   LIG d   1       4.197  -1.946  -9.070  0.00  0.00    -0.026 C 
ATOM     25  H   LIG d   1       5.195  -2.166  -9.449  0.00  0.00     0.031 H 
ATOM     26  C   LIG d   1       3.810  -3.166  -8.231  0.00  0.00     0.010 C 
ATOM     27  C   LIG d   1       4.987  -3.482  -7.311  0.00  0.00     0.140 C 
ATOM     28  O   LIG d   1       5.203  -4.586  -6.874  0.00  0.00    -0.297 OA
ATOM     29  H   LIG d   1       6.265   0.585  -6.901  0.00  0.00     0.030 H 
ATOM     30  H   LIG d   1       5.117   0.605  -5.531  0.00  0.00     0.030 H 
ATOM     31  H   LIG d   1       3.376   1.106  -7.674  0.00  0.00     0.027 H 
ATOM     32  H   LIG d   1       2.429  -0.372  -7.411  0.00  0.00     0.027 H 
ATOM     33  H   LIG d   1       3.088   0.861 -10.115  0.00  0.00     0.027 H 
ATOM     34  H   LIG d   1       1.512   0.930  -9.288  0.00  0.00     0.027 H 
ATOM     35  H   LIG d   1       0.355  -0.279 -11.117  0.00  0.00     0.029 H 
ATOM     36  H   LIG d   1       1.883  -0.283 -12.032  0.00  0.00     0.029 H 
ATOM     37  H   LIG d   1       1.950  -3.965 -12.597  0.00  0.00     0.029 H 
ATOM     38  H   LIG d   1       2.816  -2.439 -12.894  0.00  0.00     0.029 H 
ATOM     39  H   LIG d   1       3.898  -3.730 -11.078  0.00  0.00     0.027 H 
ATOM     40  H   LIG d   1       2.370  -3.730 -10.164  0.00  0.00     0.027 H 
ATOM     41  H   LIG d   1       3.619  -3.939  -8.836  0.00  0.00     0.035 H 
ATOM     42  H   LIG d   1       2.925  -2.942  -7.637  0.00  0.00     0.035 H 
ENDROOT
BRANCH   2  43
ATOM     43  C   LIG d   1       4.554  -1.789  -2.466  0.00  0.00     0.005 C 
ATOM     44  H   LIG d   1       4.460  -2.813  -2.107  0.00  0.00     0.034 H 
ATOM     45  H   LIG d   1       4.969  -1.163  -1.676  0.00  0.00     0.034 H 
BRANCH  43  46
ATOM     46  C   LIG d   1       3.175  -1.259  -2.863  0.00  0.00    -0.042 C 
ATOM     47  H   LIG d   1       2.644  -2.020  -3.435  0.00  0.00     0.027 H 
ATOM     48  H   LIG d   1       2.606  -1.019  -1.964  0.00  0.00     0.027 H 
BRANCH  46  49
ATOM     49  C   LIG d   1       3.336   0.001  -3.715  0.00  0.00    -0.020 C 
ATOM     50  H   LIG d   1       4.201  -0.113  -4.370  0.00  0.00     0.032 H 
BRANCH  49  51
ATOM     51  C   LIG d   1       2.079   0.208  -4.562  0.00  0.00    -0.060 C 
ATOM     52  H   LIG d   1       1.616   1.159  -4.298  0.00  0.00     0.023 H 
ATOM     53  H   LIG d   1       2.349   0.216  -5.618  0.00  0.00     0.023 H 
ATOM     54  H   LIG d   1       1.376  -0.603  -4.373  0.00  0.00     0.023 H 
ENDBRANCH  49  51
BRANCH  49  55
ATOM     55  C   LIG d   1       3.543   1.211  -2.804  0.00  0.00     0.047 C 
ATOM     56  H   LIG d   1       2.764   1.950  -2.998  0.00  0.00     0.056 H 
ATOM     57  H   LIG d   1       3.491   0.895  -1.762  0.00  0.00     0.056 H 
BRANCH  55  58
ATOM     58  O   LIG d   1       4.824   1.790  -3.062  0.00  0.00    -0.395 OA
ATOM     59  H   LIG d   1       5.540   1.414  -2.532  0.00  0.00     0.209 HD
ENDBRANCH  55  58
ENDBRANCH  49  55
ENDBRANCH  46  49
ENDBRANCH  43  46
ENDBRANCH   2  43
BRANCH   1  60
ATOM     60  C   LIG d   1       4.668  -3.971  -4.562  0.00  0.00    -0.040 C 
ATOM     61  H   LIG d   1       3.682  -3.752  -4.152  0.00  0.00     0.028 H 
ATOM     62  H   LIG d   1       4.563  -4.343  -5.582  0.00  0.00     0.028 H 
ATOM     63  H   LIG d   1       5.158  -4.728  -3.949  0.00  0.00     0.028 H 
ENDBRANCH   1  60
BRANCH   8  64
ATOM     64  C   LIG d   1       6.888  -2.058  -8.100  0.00  0.00    -0.052 C 
ATOM     65  H   LIG d   1       7.144  -0.999  -8.141  0.00  0.00     0.024 H 
ATOM     66  H   LIG d   1       7.785  -2.641  -7.889  0.00  0.00     0.024 H 
ATOM     67  H   LIG d   1       6.472  -2.368  -9.058  0.00  0.00     0.024 H 
ENDBRANCH   8  64
BRANCH  23  68
ATOM     68  C   LIG d   1       4.129  -1.045 -11.355  0.00  0.00    -0.059 C 
ATOM     69  H   LIG d   1       3.800  -0.006 -11.381  0.00  0.00     0.024 H 
ATOM     70  H   LIG d   1       5.190  -1.083 -11.109  0.00  0.00     0.024 H 
ATOM     71  H   LIG d   1       3.965  -1.503 -12.330  0.00  0.00     0.024 H 
ENDBRANCH  23  68
BRANCH  19  72
ATOM     72  O   LIG d   1       0.193  -2.031 -13.121  0.00  0.00    -0.392 OA
ATOM     73  H   LIG d   1      -0.474  -2.712 -13.283  0.00  0.00     0.210 HD
ENDBRANCH  19  72
TORSDOF 10
ENDMDL
MODEL 2
REMARK VINA RESULT:      -6.1      3.573      6.279
REMARK  10 active torsions:
REMARK  status: ('A' for Active; 'I' for Inactive)
REMARK    1  A    between atoms: C_1  and  C_2 
REMARK    2  A    between atoms: C_3  and  C_33 
REMARK    3  A    between atoms: C_9  and  C_32 
REMARK    4  A    between atoms: C_20  and  O_31 
REMARK    5  A    between atoms: C_24  and  C_30 
REMARK    6  A    between atoms: C_33  and  C_34 
REMARK    7  A    between atoms: C_34  and  C_35 
REMARK    8  A    between atoms: C_35  and  C_37 
REMARK    9  A    between atoms: C_35  and  C_38 
REMARK   10  A    between atoms: C_38  and  O_39 
ROOT
ATOM      1  C   LIG d   1       4.694  -1.495  -5.436  0.00  0.00    -0.028 C 
ATOM      2  C   LIG d   1       4.643  -1.941  -4.200  0.00  0.00     0.098 C 
ATOM      3  O   LIG d   1       5.598  -2.852  -3.913  0.00  0.00    -0.492 OA
ATOM      4  C   LIG d   1       6.647  -2.792  -4.917  0.00  0.00     0.107 C 
ATOM      5  H   LIG d   1       7.109  -3.753  -5.150  0.00  0.00     0.074 H 
ATOM      6  C   LIG d   1       5.860  -2.180  -6.125  0.00  0.00     0.033 C 
ATOM      7  H   LIG d   1       5.554  -2.914  -6.871  0.00  0.00     0.039 H 
ATOM      8  C   LIG d   1       6.825  -1.120  -6.670  0.00  0.00     0.039 C 
ATOM      9  C   LIG d   1       7.396  -0.505  -5.366  0.00  0.00    -0.022 C 
ATOM     10  H   LIG d   1       6.637   0.117  -4.894  0.00  0.00     0.031 H 
ATOM     11  C   LIG d   1       7.677  -1.721  -4.488  0.00  0.00    -0.011 C 
ATOM     12  C   LIG d   1       8.595   0.361  -5.705  0.00  0.00    -0.034 C 
ATOM     13  H   LIG d   1       9.464  -0.292  -5.802  0.00  0.00     0.031 H 
ATOM     14  C   LIG d   1       8.889   1.310  -4.562  0.00  0.00    -0.049 C 
ATOM     15  C   LIG d   1       9.936   2.349  -4.946  0.00  0.00    -0.049 C 
ATOM     16  C   LIG d   1       9.431   3.140  -6.154  0.00  0.00    -0.033 C 
ATOM     17  H   LIG d   1       8.462   3.581  -5.920  0.00  0.00     0.031 H 
ATOM     18  C   LIG d   1      10.429   4.247  -6.497  0.00  0.00    -0.024 C 
ATOM     19  C   LIG d   1       9.922   5.026  -7.713  0.00  0.00     0.056 C 
ATOM     20  H   LIG d   1       8.954   5.471  -7.482  0.00  0.00     0.059 H 
ATOM     21  C   LIG d   1       9.777   4.078  -8.904  0.00  0.00    -0.026 C 
ATOM     22  C   LIG d   1       8.780   2.970  -8.558  0.00  0.00    -0.045 C 
ATOM     23  C   LIG d   1       9.287   2.194  -7.340  0.00  0.00    -0.026 C 
ATOM     24  C   LIG d   1       8.390   1.023  -7.037  0.00  0.00    -0.026 C 
ATOM     25  H   LIG d   1       8.653   0.263  -7.773  0.00  0.00     0.031 H 
ATOM     26  C   LIG d   1       6.918   1.343  -7.302  0.00  0.00     0.010 C 
ATOM     27  C   LIG d   1       6.172   0.015  -7.414  0.00  0.00     0.140 C 
ATOM     28  O   LIG d   1       5.150  -0.114  -8.043  0.00  0.00    -0.297 OA
ATOM     29  H   LIG d   1       8.690  -2.083  -4.658  0.00  0.00     0.030 H 
ATOM     30  H   LIG d   1       7.540  -1.466  -3.437  0.00  0.00     0.030 H 
ATOM     31  H   LIG d   1       9.248   0.745  -3.702  0.00  0.00     0.027 H 
ATOM     32  H   LIG d   1       7.965   1.820  -4.292  0.00  0.00     0.027 H 
ATOM     33  H   LIG d   1      10.870   1.849  -5.201  0.00  0.00     0.027 H 
ATOM     34  H   LIG d   1      10.102   3.027  -4.109  0.00  0.00     0.027 H 
ATOM     35  H   LIG d   1      10.529   4.924  -5.648  0.00  0.00     0.029 H 
ATOM     36  H   LIG d   1      11.399   3.805  -6.726  0.00  0.00     0.029 H 
ATOM     37  H   LIG d   1       9.415   4.634  -9.770  0.00  0.00     0.029 H 
ATOM     38  H   LIG d   1      10.745   3.635  -9.136  0.00  0.00     0.029 H 
ATOM     39  H   LIG d   1       8.681   2.291  -9.405  0.00  0.00     0.027 H 
ATOM     40  H   LIG d   1       7.810   3.411  -8.329  0.00  0.00     0.027 H 
ATOM     41  H   LIG d   1       6.838   1.865  -8.151  0.00  0.00     0.035 H 
ATOM     42  H   LIG d   1       6.511   1.927  -6.477  0.00  0.00     0.035 H 
ENDROOT
BRANCH   2  43
ATOM     43  C   LIG d   1       3.618  -1.478  -3.199  0.00  0.00     0.005 C 
ATOM     44  H   LIG d   1       3.029  -0.667  -3.630  0.00  0.00     0.034 H 
ATOM     45  H   LIG d   1       2.959  -2.307  -2.942  0.00  0.00     0.034 H 
BRANCH  43  46
ATOM     46  C   LIG d   1       4.325  -0.979  -1.937  0.00  0.00    -0.042 C 
ATOM     47  H   LIG d   1       3.770  -1.306  -1.057  0.00  0.00     0.027 H 
ATOM     48  H   LIG d   1       5.335  -1.388  -1.901  0.00  0.00     0.027 H 
BRANCH  46  49
ATOM     49  C   LIG d   1       4.393   0.548  -1.959  0.00  0.00    -0.020 C 
ATOM     50  H   LIG d   1       4.410   0.926  -0.936  0.00  0.00     0.032 H 
BRANCH  49  51
ATOM     51  C   LIG d   1       5.664   0.992  -2.687  0.00  0.00    -0.060 C 
ATOM     52  H   LIG d   1       5.393   1.547  -3.585  0.00  0.00     0.023 H 
ATOM     53  H   LIG d   1       6.255   1.629  -2.030  0.00  0.00     0.023 H 
ATOM     54  H   LIG d   1       6.248   0.114  -2.965  0.00  0.00     0.023 H 
ENDBRANCH  49  51
BRANCH  49  55
ATOM     55  C   LIG d   1       3.168   1.104  -2.687  0.00  0.00     0.047 C 
ATOM     56  H   LIG d   1       2.771   0.346  -3.362  0.00  0.00     0.056 H 
ATOM     57  H   LIG d   1       2.404   1.376  -1.958  0.00  0.00     0.056 H 
BRANCH  55  58
ATOM     58  O   LIG d   1       3.543   2.261  -3.437  0.00  0.00    -0.395 OA
ATOM     59  H   LIG d   1       4.177   2.835  -2.986  0.00  0.00     0.209 HD
ENDBRANCH  55  58
ENDBRANCH  49  55
ENDBRANCH  46  49
ENDBRANCH  43  46
ENDBRANCH   2  43
BRANCH   1  60
ATOM     60  C   LIG d   1       3.763  -0.485  -6.056  0.00  0.00    -0.040 C 
ATOM     61  H   LIG d   1       3.456  -0.833  -7.042  0.00  0.00     0.028 H 
ATOM     62  H   LIG d   1       2.884  -0.365  -5.422  0.00  0.00     0.028 H 
ATOM     63  H   LIG d   1       4.276   0.472  -6.150  0.00  0.00     0.028 H 
ENDBRANCH   1  60
BRANCH   8  64
ATOM     64  C   LIG d   1       7.930  -1.764  -7.509  0.00  0.00    -0.052 C 
ATOM     65  H   LIG d   1       8.650  -1.003  -7.809  0.00  0.00     0.024 H 
ATOM     66  H   LIG d   1       8.435  -2.529  -6.919  0.00  0.00     0.024 H 
ATOM     67  H   LIG d   1       7.493  -2.221  -8.397  0.00  0.00     0.024 H 
ENDBRANCH   8  64
BRANCH  23  68
ATOM     68  C   LIG d   1      10.675   1.652  -7.686  0.00  0.00    -0.059 C 
ATOM     69  H   LIG d   1      10.815   1.678  -8.767  0.00  0.00     0.024 H 
ATOM     70  H   LIG d   1      11.435   2.268  -7.207  0.00  0.00     0.024 H 
ATOM     71  H   LIG d   1      10.763   0.624  -7.333  0.00  0.00     0.024 H 
ENDBRANCH  23  68
BRANCH  19  72
ATOM     72  O   LIG d   1      10.854   6.059  -8.039  0.00  0.00    -0.392 OA
ATOM     73  H   LIG d   1      11.291   5.939  -8.893  0.00  0.00     0.210 HD
ENDBRANCH  19  72
TORSDOF 10
ENDMDL
MODEL 3
REMARK VINA RESULT:      -6.0      3.892      7.497
REMARK  10 active torsions:
REMARK  status: ('A' for Active; 'I' for Inactive)
REMARK    1  A    between atoms: C_1  and  C_2 
REMARK    2  A    between atoms: C_3  and  C_33 
REMARK    3  A    between atoms: C_9  and  C_32 
REMARK    4  A    between atoms: C_20  and  O_31 
REMARK    5  A    between atoms: C_24  and  C_30 
REMARK    6  A    between atoms: C_33  and  C_34 
REMARK    7  A    between atoms: C_34  and  C_35 
REMARK    8  A    between atoms: C_35  and  C_37 
REMARK    9  A    between atoms: C_35  and  C_38 
REMARK   10  A    between atoms: C_38  and  O_39 
ROOT
ATOM      1  C   LIG d   1       6.313  -7.549  -5.733  0.00  0.00    -0.028 C 
ATOM      2  C   LIG d   1       7.486  -8.078  -5.460  0.00  0.00     0.098 C 
ATOM      3  O   LIG d   1       8.483  -7.626  -6.252  0.00  0.00    -0.492 OA
ATOM      4  C   LIG d   1       8.062  -6.402  -6.914  0.00  0.00     0.107 C 
ATOM      5  H   LIG d   1       8.455  -6.274  -7.923  0.00  0.00     0.074 H 
ATOM      6  C   LIG d   1       6.505  -6.572  -6.878  0.00  0.00     0.033 C 
ATOM      7  H   LIG d   1       6.076  -6.915  -7.820  0.00  0.00     0.039 H 
ATOM      8  C   LIG d   1       6.012  -5.184  -6.451  0.00  0.00     0.039 C 
ATOM      9  C   LIG d   1       7.053  -4.791  -5.371  0.00  0.00    -0.022 C 
ATOM     10  H   LIG d   1       6.875  -5.371  -4.466  0.00  0.00     0.031 H 
ATOM     11  C   LIG d   1       8.386  -5.207  -5.987  0.00  0.00    -0.011 C 
ATOM     12  C   LIG d   1       6.904  -3.317  -5.044  0.00  0.00    -0.034 C 
ATOM     13  H   LIG d   1       7.444  -2.749  -5.801  0.00  0.00     0.031 H 
ATOM     14  C   LIG d   1       7.562  -3.012  -3.715  0.00  0.00    -0.049 C 
ATOM     15  C   LIG d   1       7.243  -1.600  -3.238  0.00  0.00    -0.049 C 
ATOM     16  C   LIG d   1       5.726  -1.452  -3.105  0.00  0.00    -0.033 C 
ATOM     17  H   LIG d   1       5.343  -2.222  -2.435  0.00  0.00     0.031 H 
ATOM     18  C   LIG d   1       5.391  -0.070  -2.541  0.00  0.00    -0.024 C 
ATOM     19  C   LIG d   1       3.872   0.074  -2.421  0.00  0.00     0.056 C 
ATOM     20  H   LIG d   1       3.487  -0.694  -1.751  0.00  0.00     0.059 H 
ATOM     21  C   LIG d   1       3.234  -0.086  -3.802  0.00  0.00    -0.026 C 
ATOM     22  C   LIG d   1       3.571  -1.469  -4.365  0.00  0.00    -0.045 C 
ATOM     23  C   LIG d   1       5.090  -1.612  -4.481  0.00  0.00    -0.026 C 
ATOM     24  C   LIG d   1       5.459  -2.915  -5.139  0.00  0.00    -0.026 C 
ATOM     25  H   LIG d   1       5.279  -2.761  -6.202  0.00  0.00     0.031 H 
ATOM     26  C   LIG d   1       4.516  -4.049  -4.734  0.00  0.00     0.010 C 
ATOM     27  C   LIG d   1       4.672  -5.166  -5.764  0.00  0.00     0.140 C 
ATOM     28  O   LIG d   1       3.799  -5.963  -6.006  0.00  0.00    -0.297 OA
ATOM     29  H   LIG d   1       8.806  -4.385  -6.566  0.00  0.00     0.030 H 
ATOM     30  H   LIG d   1       9.083  -5.512  -5.207  0.00  0.00     0.030 H 
ATOM     31  H   LIG d   1       8.643  -3.118  -3.811  0.00  0.00     0.027 H 
ATOM     32  H   LIG d   1       7.199  -3.726  -2.978  0.00  0.00     0.027 H 
ATOM     33  H   LIG d   1       7.618  -0.876  -3.962  0.00  0.00     0.027 H 
ATOM     34  H   LIG d   1       7.713  -1.425  -2.270  0.00  0.00     0.027 H 
ATOM     35  H   LIG d   1       5.845   0.041  -1.556  0.00  0.00     0.029 H 
ATOM     36  H   LIG d   1       5.779   0.699  -3.209  0.00  0.00     0.029 H 
ATOM     37  H   LIG d   1       2.151   0.016  -3.716  0.00  0.00     0.029 H 
ATOM     38  H   LIG d   1       3.618   0.682  -4.472  0.00  0.00     0.029 H 
ATOM     39  H   LIG d   1       3.120  -1.580  -5.351  0.00  0.00     0.027 H 
ATOM     40  H   LIG d   1       3.183  -2.238  -3.699  0.00  0.00     0.027 H 
ATOM     41  H   LIG d   1       3.575  -3.712  -4.720  0.00  0.00     0.035 H 
ATOM     42  H   LIG d   1       4.784  -4.419  -3.745  0.00  0.00     0.035 H 
ENDROOT
BRANCH   2  43
ATOM     43  C   LIG d   1       7.698  -9.092  -4.366  0.00  0.00     0.005 C 
ATOM     44  H   LIG d   1       6.749  -9.573  -4.128  0.00  0.00     0.034 H 
ATOM     45  H   LIG d   1       8.412  -9.845  -4.699  0.00  0.00     0.034 H 
BRANCH  43  46
ATOM     46  C   LIG d   1       8.241  -8.391  -3.119  0.00  0.00    -0.042 C 
ATOM     47  H   LIG d   1       9.331  -8.405  -3.141  0.00  0.00     0.027 H 
ATOM     48  H   LIG d   1       7.892  -7.359  -3.101  0.00  0.00     0.027 H 
BRANCH  46  49
ATOM     49  C   LIG d   1       7.748  -9.119  -1.868  0.00  0.00    -0.020 C 
ATOM     50  H   LIG d   1       7.390  -8.389  -1.141  0.00  0.00     0.032 H 
BRANCH  49  51
ATOM     51  C   LIG d   1       6.606 -10.065  -2.245  0.00  0.00    -0.060 C 
ATOM     52  H   LIG d   1       6.432 -10.014  -3.320  0.00  0.00     0.023 H 
ATOM     53  H   LIG d   1       6.872 -11.084  -1.968  0.00  0.00     0.023 H 
ATOM     54  H   LIG d   1       5.700  -9.769  -1.716  0.00  0.00     0.023 H 
ENDBRANCH  49  51
BRANCH  49  55
ATOM     55  C   LIG d   1       8.897  -9.924  -1.259  0.00  0.00     0.047 C 
ATOM     56  H   LIG d   1       8.491 -10.753  -0.678  0.00  0.00     0.056 H 
ATOM     57  H   LIG d   1       9.529 -10.315  -2.056  0.00  0.00     0.056 H 
BRANCH  55  58
ATOM     58  O   LIG d   1       9.672  -9.079  -0.407  0.00  0.00    -0.395 OA
ATOM     59  H   LIG d   1       9.174  -8.696   0.328  0.00  0.00     0.209 HD
ENDBRANCH  55  58
ENDBRANCH  49  55
ENDBRANCH  46  49
ENDBRANCH  43  46
ENDBRANCH   2  43
BRANCH   1  60
ATOM     60  C   LIG d   1       5.015  -7.858  -5.035  0.00  0.00    -0.040 C 
ATOM     61  H   LIG d   1       4.181  -7.567  -5.674  0.00  0.00     0.028 H 
ATOM     62  H   LIG d   1       4.958  -8.928  -4.829  0.00  0.00     0.028 H 
ATOM     63  H   LIG d   1       4.966  -7.305  -4.097  0.00  0.00     0.028 H 
ENDBRANCH   1  60
BRANCH   8  64
ATOM     64  C   LIG d   1       6.040  -4.206  -7.628  0.00  0.00    -0.052 C 
ATOM     65  H   LIG d   1       5.562  -3.272  -7.336  0.00  0.00     0.024 H 
ATOM     66  H   LIG d   1       7.074  -4.012  -7.914  0.00  0.00     0.024 H 
ATOM     67  H   LIG d   1       5.505  -4.639  -8.473  0.00  0.00     0.024 H 
ENDBRANCH   8  64
BRANCH  23  68
ATOM     68  C   LIG d   1       5.592  -0.473  -5.371  0.00  0.00    -0.059 C 
ATOM     69  H   LIG d   1       6.658  -0.321  -5.199  0.00  0.00     0.024 H 
ATOM     70  H   LIG d   1       5.426  -0.728  -6.417  0.00  0.00     0.024 H 
ATOM     71  H   LIG d   1       5.051   0.442  -5.130  0.00  0.00     0.024 H 
ENDBRANCH  23  68
BRANCH  19  72
ATOM     72  O   LIG d   1       3.556   1.365  -1.899  0.00  0.00    -0.392 OA
ATOM     73  H   LIG d   1       2.683   1.691  -2.157  0.00  0.00     0.210 HD
ENDBRANCH  19  72
TORSDOF 10
ENDMDL
MODEL 4
REMARK VINA RESULT:      -5.8      2.087      3.644
REMARK  10 active torsions:
REMARK  status: ('A' for Active; 'I' for Inactive)
REMARK    1  A    between atoms: C_1  and  C_2 
REMARK    2  A    between atoms: C_3  and  C_33 
REMARK    3  A    between atoms: C_9  and  C_32 
REMARK    4  A    between atoms: C_20  and  O_31 
REMARK    5  A    between atoms: C_24  and  C_30 
REMARK    6  A    between atoms: C_33  and  C_34 
REMARK    7  A    between atoms: C_34  and  C_35 
REMARK    8  A    between atoms: C_35  and  C_37 
REMARK    9  A    between atoms: C_35  and  C_38 
REMARK   10  A    between atoms: C_38  and  O_39 
ROOT
ATOM      1  C   LIG d   1       4.032  -0.219  -7.132  0.00  0.00    -0.028 C 
ATOM      2  C   LIG d   1       3.130   0.501  -6.501  0.00  0.00     0.098 C 
ATOM      3  O   LIG d   1       2.929   1.720  -7.048  0.00  0.00    -0.492 OA
ATOM      4  C   LIG d   1       3.470   1.743  -8.397  0.00  0.00     0.107 C 
ATOM      5  H   LIG d   1       3.892   2.702  -8.700  0.00  0.00     0.074 H 
ATOM      6  C   LIG d   1       4.539   0.603  -8.303  0.00  0.00     0.033 C 
ATOM      7  H   LIG d   1       5.559   0.963  -8.172  0.00  0.00     0.039 H 
ATOM      8  C   LIG d   1       4.329  -0.181  -9.603  0.00  0.00     0.039 C 
ATOM      9  C   LIG d   1       2.783  -0.195  -9.725  0.00  0.00    -0.022 C 
ATOM     10  H   LIG d   1       2.366  -0.883  -8.990  0.00  0.00     0.031 H 
ATOM     11  C   LIG d   1       2.382   1.234  -9.370  0.00  0.00    -0.011 C 
ATOM     12  C   LIG d   1       2.394  -0.670 -11.112  0.00  0.00    -0.034 C 
ATOM     13  H   LIG d   1       2.460   0.182 -11.790  0.00  0.00     0.031 H 
ATOM     14  C   LIG d   1       0.949  -1.122 -11.119  0.00  0.00    -0.049 C 
ATOM     15  C   LIG d   1       0.581  -1.816 -12.425  0.00  0.00    -0.049 C 
ATOM     16  C   LIG d   1       1.498  -3.026 -12.621  0.00  0.00    -0.033 C 
ATOM     17  H   LIG d   1       1.421  -3.683 -11.755  0.00  0.00     0.031 H 
ATOM     18  C   LIG d   1       1.083  -3.786 -13.881  0.00  0.00    -0.024 C 
ATOM     19  C   LIG d   1       2.012  -4.987 -14.076  0.00  0.00     0.056 C 
ATOM     20  H   LIG d   1       1.937  -5.648 -13.212  0.00  0.00     0.059 H 
ATOM     21  C   LIG d   1       3.455  -4.499 -14.220  0.00  0.00    -0.026 C 
ATOM     22  C   LIG d   1       3.867  -3.736 -12.959  0.00  0.00    -0.045 C 
ATOM     23  C   LIG d   1       2.935  -2.538 -12.765  0.00  0.00    -0.026 C 
ATOM     24  C   LIG d   1       3.378  -1.696 -11.598  0.00  0.00    -0.026 C 
ATOM     25  H   LIG d   1       4.227  -1.121 -11.965  0.00  0.00     0.031 H 
ATOM     26  C   LIG d   1       3.936  -2.547 -10.456  0.00  0.00     0.010 C 
ATOM     27  C   LIG d   1       4.756  -1.625  -9.555  0.00  0.00     0.140 C 
ATOM     28  O   LIG d   1       5.665  -2.018  -8.865  0.00  0.00    -0.297 OA
ATOM     29  H   LIG d   1       2.359   1.852 -10.268  0.00  0.00     0.030 H 
ATOM     30  H   LIG d   1       1.407   1.241  -8.884  0.00  0.00     0.030 H 
ATOM     31  H   LIG d   1       0.296  -0.260 -10.979  0.00  0.00     0.027 H 
ATOM     32  H   LIG d   1       0.801  -1.818 -10.294  0.00  0.00     0.027 H 
ATOM     33  H   LIG d   1       0.709  -1.123 -13.256  0.00  0.00     0.027 H 
ATOM     34  H   LIG d   1      -0.457  -2.148 -12.384  0.00  0.00     0.027 H 
ATOM     35  H   LIG d   1       0.056  -4.136 -13.775  0.00  0.00     0.029 H 
ATOM     36  H   LIG d   1       1.156  -3.126 -14.746  0.00  0.00     0.029 H 
ATOM     37  H   LIG d   1       4.116  -5.355 -14.359  0.00  0.00     0.029 H 
ATOM     38  H   LIG d   1       3.530  -3.840 -15.084  0.00  0.00     0.029 H 
ATOM     39  H   LIG d   1       4.893  -3.385 -13.065  0.00  0.00     0.027 H 
ATOM     40  H   LIG d   1       3.795  -4.396 -12.095  0.00  0.00     0.027 H 
ATOM     41  H   LIG d   1       4.510  -3.274 -10.831  0.00  0.00     0.035 H 
ATOM     42  H   LIG d   1       3.118  -2.987  -9.887  0.00  0.00     0.035 H 
ENDROOT
BRANCH   2  43
ATOM     43  C   LIG d   1       2.389   0.011  -5.284  0.00  0.00     0.005 C 
ATOM     44  H   LIG d   1       1.321   0.183  -5.415  0.00  0.00     0.034 H 
ATOM     45  H   LIG d   1       2.572  -1.055  -5.151  0.00  0.00     0.034 H 
BRANCH  43  46
ATOM     46  C   LIG d   1       2.880   0.769  -4.048  0.00  0.00    -0.042 C 
ATOM     47  H   LIG d   1       3.379   1.687  -4.360  0.00  0.00     0.027 H 
ATOM     48  H   LIG d   1       2.029   1.017  -3.412  0.00  0.00     0.027 H 
BRANCH  46  49
ATOM     49  C   LIG d   1       3.862  -0.105  -3.268  0.00  0.00    -0.020 C 
ATOM     50  H   LIG d   1       4.723  -0.335  -3.898  0.00  0.00     0.032 H 
BRANCH  49  51
ATOM     51  C   LIG d   1       4.331   0.643  -2.019  0.00  0.00    -0.060 C 
ATOM     52  H   LIG d   1       3.543   0.621  -1.265  0.00  0.00     0.023 H 
ATOM     53  H   LIG d   1       5.226   0.165  -1.623  0.00  0.00     0.023 H 
ATOM     54  H   LIG d   1       4.555   1.678  -2.278  0.00  0.00     0.023 H 
ENDBRANCH  49  51
BRANCH  49  55
ATOM     55  C   LIG d   1       3.171  -1.406  -2.855  0.00  0.00     0.047 C 
ATOM     56  H   LIG d   1       3.114  -1.456  -1.767  0.00  0.00     0.056 H 
ATOM     57  H   LIG d   1       2.165  -1.431  -3.273  0.00  0.00     0.056 H 
BRANCH  55  58
ATOM     58  O   LIG d   1       3.919  -2.520  -3.345  0.00  0.00    -0.395 OA
ATOM     59  H   LIG d   1       4.217  -2.423  -4.260  0.00  0.00     0.209 HD
ENDBRANCH  55  58
ENDBRANCH  49  55
ENDBRANCH  46  49
ENDBRANCH  43  46
ENDBRANCH   2  43
BRANCH   1  60
ATOM     60  C   LIG d   1       4.481  -1.608  -6.758  0.00  0.00    -0.040 C 
ATOM     61  H   LIG d   1       4.553  -1.686  -5.674  0.00  0.00     0.028 H 
ATOM     62  H   LIG d   1       3.757  -2.335  -7.128  0.00  0.00     0.028 H 
ATOM     63  H   LIG d   1       5.455  -1.806  -7.204  0.00  0.00     0.028 H 
ENDBRANCH   1  60
BRANCH   8  64
ATOM     64  C   LIG d   1       4.971   0.542 -10.790  0.00  0.00    -0.052 C 
ATOM     65  H   LIG d   1       6.020   0.740 -10.571  0.00  0.00     0.024 H 
ATOM     66  H   LIG d   1       4.897  -0.085 -11.679  0.00  0.00     0.024 H 
ATOM     67  H   LIG d   1       4.452   1.483 -10.966  0.00  0.00     0.024 H 
ENDBRANCH   8  64
BRANCH  23  68
ATOM     68  C   LIG d   1       3.021  -1.680 -14.029  0.00  0.00    -0.059 C 
ATOM     69  H   LIG d   1       4.060  -1.612 -14.352  0.00  0.00     0.024 H 
ATOM     70  H   LIG d   1       2.424  -2.136 -14.819  0.00  0.00     0.024 H 
ATOM     71  H   LIG d   1       2.639  -0.681 -13.817  0.00  0.00     0.024 H 
ENDBRANCH  23  68
BRANCH  19  72
ATOM     72  O   LIG d   1       1.631  -5.698 -15.255  0.00  0.00    -0.392 OA
ATOM     73  H   LIG d   1       1.374  -5.128 -15.992  0.00  0.00     0.210 HD
ENDBRANCH  19  72
TORSDOF 10
ENDMDL
MODEL 5
REMARK VINA RESULT:      -5.8      1.918      7.351
REMARK  10 active torsions:
REMARK  status: ('A' for Active; 'I' for Inactive)
REMARK    1  A    between atoms: C_1  and  C_2 
REMARK    2  A    between atoms: C_3  and  C_33 
REMARK    3  A    between atoms: C_9  and  C_32 
REMARK    4  A    between atoms: C_20  and  O_31 
REMARK    5  A    between atoms: C_24  and  C_30 
REMARK    6  A    between atoms: C_33  and  C_34 
REMARK    7  A    between atoms: C_34  and  C_35 
REMARK    8  A    between atoms: C_35  and  C_37 
REMARK    9  A    between atoms: C_35  and  C_38 
REMARK   10  A    between atoms: C_38  and  O_39 
ROOT
ATOM      1  C   LIG d   1       2.783  -0.600 -11.486  0.00  0.00    -0.028 C 
ATOM      2  C   LIG d   1       3.172  -1.507 -12.356  0.00  0.00     0.098 C 
ATOM      3  O   LIG d   1       4.469  -1.392 -12.717  0.00  0.00    -0.492 OA
ATOM      4  C   LIG d   1       5.169  -0.554 -11.757  0.00  0.00     0.107 C 
ATOM      5  H   LIG d   1       5.958   0.065 -12.186  0.00  0.00     0.074 H 
ATOM      6  C   LIG d   1       3.978   0.282 -11.176  0.00  0.00     0.033 C 
ATOM      7  H   LIG d   1       3.898   1.286 -11.594  0.00  0.00     0.039 H 
ATOM      8  C   LIG d   1       4.245   0.267  -9.667  0.00  0.00     0.039 C 
ATOM      9  C   LIG d   1       4.716  -1.192  -9.437  0.00  0.00    -0.022 C 
ATOM     10  H   LIG d   1       3.863  -1.866  -9.512  0.00  0.00     0.031 H 
ATOM     11  C   LIG d   1       5.671  -1.449 -10.600  0.00  0.00    -0.011 C 
ATOM     12  C   LIG d   1       5.313  -1.314  -8.048  0.00  0.00    -0.034 C 
ATOM     13  H   LIG d   1       6.346  -0.965  -8.095  0.00  0.00     0.031 H 
ATOM     14  C   LIG d   1       5.361  -2.768  -7.629  0.00  0.00    -0.049 C 
ATOM     15  C   LIG d   1       5.739  -2.920  -6.160  0.00  0.00    -0.049 C 
ATOM     16  C   LIG d   1       4.715  -2.173  -5.304  0.00  0.00    -0.033 C 
ATOM     17  H   LIG d   1       3.715  -2.546  -5.525  0.00  0.00     0.031 H 
ATOM     18  C   LIG d   1       5.028  -2.390  -3.822  0.00  0.00    -0.024 C 
ATOM     19  C   LIG d   1       4.006  -1.630  -2.973  0.00  0.00     0.056 C 
ATOM     20  H   LIG d   1       3.005  -2.002  -3.190  0.00  0.00     0.059 H 
ATOM     21  C   LIG d   1       4.079  -0.138  -3.300  0.00  0.00    -0.026 C 
ATOM     22  C   LIG d   1       3.768   0.077  -4.783  0.00  0.00    -0.045 C 
ATOM     23  C   LIG d   1       4.788  -0.686  -5.631  0.00  0.00    -0.026 C 
ATOM     24  C   LIG d   1       4.586  -0.407  -7.096  0.00  0.00    -0.026 C 
ATOM     25  H   LIG d   1       5.016   0.580  -7.263  0.00  0.00     0.031 H 
ATOM     26  C   LIG d   1       3.105  -0.263  -7.454  0.00  0.00     0.010 C 
ATOM     27  C   LIG d   1       3.026   0.452  -8.801  0.00  0.00     0.140 C 
ATOM     28  O   LIG d   1       2.071   1.107  -9.143  0.00  0.00    -0.297 OA
ATOM     29  H   LIG d   1       6.687  -1.170 -10.321  0.00  0.00     0.030 H 
ATOM     30  H   LIG d   1       5.636  -2.498 -10.891  0.00  0.00     0.030 H 
ATOM     31  H   LIG d   1       6.090  -3.300  -8.240  0.00  0.00     0.027 H 
ATOM     32  H   LIG d   1       4.376  -3.206  -7.789  0.00  0.00     0.027 H 
ATOM     33  H   LIG d   1       6.731  -2.501  -5.993  0.00  0.00     0.027 H 
ATOM     34  H   LIG d   1       5.739  -3.977  -5.890  0.00  0.00     0.027 H 
ATOM     35  H   LIG d   1       4.973  -3.454  -3.591  0.00  0.00     0.029 H 
ATOM     36  H   LIG d   1       6.030  -2.021  -3.604  0.00  0.00     0.029 H 
ATOM     37  H   LIG d   1       3.350   0.403  -2.695  0.00  0.00     0.029 H 
ATOM     38  H   LIG d   1       5.079   0.234  -3.081  0.00  0.00     0.029 H 
ATOM     39  H   LIG d   1       3.825   1.140  -5.017  0.00  0.00     0.027 H 
ATOM     40  H   LIG d   1       2.766  -0.291  -5.002  0.00  0.00     0.027 H 
ATOM     41  H   LIG d   1       2.642   0.269  -6.745  0.00  0.00     0.035 H 
ATOM     42  H   LIG d   1       2.644  -1.247  -7.529  0.00  0.00     0.035 H 
ENDROOT
BRANCH   2  43
ATOM     43  C   LIG d   1       2.257  -2.575 -12.896  0.00  0.00     0.005 C 
ATOM     44  H   LIG d   1       1.253  -2.428 -12.499  0.00  0.00     0.034 H 
ATOM     45  H   LIG d   1       2.229  -2.515 -13.984  0.00  0.00     0.034 H 
BRANCH  43  46
ATOM     46  C   LIG d   1       2.775  -3.952 -12.476  0.00  0.00    -0.042 C 
ATOM     47  H   LIG d   1       2.733  -4.631 -13.327  0.00  0.00     0.027 H 
ATOM     48  H   LIG d   1       3.807  -3.863 -12.133  0.00  0.00     0.027 H 
BRANCH  46  49
ATOM     49  C   LIG d   1       1.908  -4.501 -11.343  0.00  0.00    -0.020 C 
ATOM     50  H   LIG d   1       1.883  -5.590 -11.399  0.00  0.00     0.032 H 
BRANCH  49  51
ATOM     51  C   LIG d   1       2.497  -4.073  -9.996  0.00  0.00    -0.060 C 
ATOM     52  H   LIG d   1       1.788  -3.426  -9.479  0.00  0.00     0.023 H 
ATOM     53  H   LIG d   1       2.693  -4.957  -9.389  0.00  0.00     0.023 H 
ATOM     54  H   LIG d   1       3.428  -3.533 -10.163  0.00  0.00     0.023 H 
ENDBRANCH  49  51
BRANCH  49  55
ATOM     55  C   LIG d   1       0.487  -3.951 -11.475  0.00  0.00     0.047 C 
ATOM     56  H   LIG d   1       0.519  -2.969 -11.949  0.00  0.00     0.056 H 
ATOM     57  H   LIG d   1      -0.110  -4.629 -12.086  0.00  0.00     0.056 H 
BRANCH  55  58
ATOM     58  O   LIG d   1      -0.103  -3.835 -10.178  0.00  0.00    -0.395 OA
ATOM     59  H   LIG d   1       0.170  -3.046  -9.690  0.00  0.00     0.209 HD
ENDBRANCH  55  58
ENDBRANCH  49  55
ENDBRANCH  46  49
ENDBRANCH  43  46
ENDBRANCH   2  43
BRANCH   1  60
ATOM     60  C   LIG d   1       1.401  -0.462 -10.904  0.00  0.00    -0.040 C 
ATOM     61  H   LIG d   1       0.842  -1.382 -11.073  0.00  0.00     0.028 H 
ATOM     62  H   LIG d   1       1.475  -0.273  -9.833  0.00  0.00     0.028 H 
ATOM     63  H   LIG d   1       0.886   0.370 -11.384  0.00  0.00     0.028 H 
ENDBRANCH   1  60
BRANCH   8  64
ATOM     64  C   LIG d   1       5.341   1.268  -9.293  0.00  0.00    -0.052 C 
ATOM     65  H   LIG d   1       5.797   0.971  -8.349  0.00  0.00     0.024 H 
ATOM     66  H   LIG d   1       6.100   1.283 -10.075  0.00  0.00     0.024 H 
ATOM     67  H   LIG d   1       4.906   2.262  -9.190  0.00  0.00     0.024 H 
ENDBRANCH   8  64
BRANCH  23  68
ATOM     68  C   LIG d   1       6.178  -0.182  -5.239  0.00  0.00    -0.059 C 
ATOM     69  H   LIG d   1       6.287  -0.221  -4.155  0.00  0.00     0.024 H 
ATOM     70  H   LIG d   1       6.938  -0.812  -5.703  0.00  0.00     0.024 H 
ATOM     71  H   LIG d   1       6.302   0.846  -5.580  0.00  0.00     0.024 H 
ENDBRANCH  23  68
BRANCH  19  72
ATOM     72  O   LIG d   1       4.298  -1.828  -1.588  0.00  0.00    -0.392 OA
ATOM     73  H   LIG d   1       4.365  -2.757  -1.328  0.00  0.00     0.210 HD
ENDBRANCH  19  72
TORSDOF 10
ENDMDL
MODEL 6
REMARK VINA RESULT:      -5.7      2.205      3.138
REMARK  10 active torsions:
REMARK  status: ('A' for Active; 'I' for Inactive)
REMARK    1  A    between atoms: C_1  and  C_2 
REMARK    2  A    between atoms: C_3  and  C_33 
REMARK    3  A    between atoms: C_9  and  C_32 
REMARK    4  A    between atoms: C_20  and  O_31 
REMARK    5  A    between atoms: C_24  and  C_30 
REMARK    6  A    between atoms: C_33  and  C_34 
REMARK    7  A    between atoms: C_34  and  C_35 
REMARK    8  A    between atoms: C_35  and  C_37 
REMARK    9  A    between atoms: C_35  and  C_38 
REMARK   10  A    between atoms: C_38  and  O_39 
ROOT
ATOM      1  C   LIG d   1       6.762  -0.762  -3.616  0.00  0.00    -0.028 C 
ATOM      2  C   LIG d   1       6.323   0.467  -3.449  0.00  0.00     0.098 C 
ATOM      3  O   LIG d   1       6.827   1.349  -4.340  0.00  0.00    -0.492 OA
ATOM      4  C   LIG d   1       7.400   0.630  -5.466  0.00  0.00     0.107 C 
ATOM      5  H   LIG d   1       8.281   1.100  -5.904  0.00  0.00     0.074 H 
ATOM      6  C   LIG d   1       7.709  -0.755  -4.802  0.00  0.00     0.033 C 
ATOM      7  H   LIG d   1       8.754  -0.890  -4.526  0.00  0.00     0.039 H 
ATOM      8  C   LIG d   1       7.219  -1.762  -5.850  0.00  0.00     0.039 C 
ATOM      9  C   LIG d   1       5.905  -1.100  -6.343  0.00  0.00    -0.022 C 
ATOM     10  H   LIG d   1       5.138  -1.197  -5.575  0.00  0.00     0.031 H 
ATOM     11  C   LIG d   1       6.282   0.370  -6.502  0.00  0.00    -0.011 C 
ATOM     12  C   LIG d   1       5.430  -1.804  -7.600  0.00  0.00    -0.034 C 
ATOM     13  H   LIG d   1       5.981  -1.390  -8.445  0.00  0.00     0.031 H 
ATOM     14  C   LIG d   1       3.967  -1.502  -7.841  0.00  0.00    -0.049 C 
ATOM     15  C   LIG d   1       3.389  -2.365  -8.958  0.00  0.00    -0.049 C 
ATOM     16  C   LIG d   1       3.554  -3.839  -8.582  0.00  0.00    -0.033 C 
ATOM     17  H   LIG d   1       3.082  -4.023  -7.618  0.00  0.00     0.031 H 
ATOM     18  C   LIG d   1       2.899  -4.717  -9.650  0.00  0.00    -0.024 C 
ATOM     19  C   LIG d   1       3.078  -6.190  -9.273  0.00  0.00     0.056 C 
ATOM     20  H   LIG d   1       2.606  -6.378  -8.309  0.00  0.00     0.059 H 
ATOM     21  C   LIG d   1       4.570  -6.516  -9.182  0.00  0.00    -0.026 C 
ATOM     22  C   LIG d   1       5.224  -5.635  -8.115  0.00  0.00    -0.045 C 
ATOM     23  C   LIG d   1       5.041  -4.163  -8.493  0.00  0.00    -0.026 C 
ATOM     24  C   LIG d   1       5.769  -3.266  -7.528  0.00  0.00    -0.026 C 
ATOM     25  H   LIG d   1       6.819  -3.327  -7.815  0.00  0.00     0.031 H 
ATOM     26  C   LIG d   1       5.716  -3.801  -6.095  0.00  0.00     0.010 C 
ATOM     27  C   LIG d   1       6.826  -3.110  -5.306  0.00  0.00     0.140 C 
ATOM     28  O   LIG d   1       7.343  -3.601  -4.332  0.00  0.00    -0.297 OA
ATOM     29  H   LIG d   1       6.651   0.557  -7.510  0.00  0.00     0.030 H 
ATOM     30  H   LIG d   1       5.420   1.004  -6.294  0.00  0.00     0.030 H 
ATOM     31  H   LIG d   1       3.850  -0.452  -8.108  0.00  0.00     0.027 H 
ATOM     32  H   LIG d   1       3.417  -1.698  -6.921  0.00  0.00     0.027 H 
ATOM     33  H   LIG d   1       3.921  -2.163  -9.887  0.00  0.00     0.027 H 
ATOM     34  H   LIG d   1       2.331  -2.137  -9.086  0.00  0.00     0.027 H 
ATOM     35  H   LIG d   1       1.836  -4.485  -9.711  0.00  0.00     0.029 H 
ATOM     36  H   LIG d   1       3.369  -4.529 -10.615  0.00  0.00     0.029 H 
ATOM     37  H   LIG d   1       4.697  -7.566  -8.913  0.00  0.00     0.029 H 
ATOM     38  H   LIG d   1       5.042  -6.330 -10.146  0.00  0.00     0.029 H 
ATOM     39  H   LIG d   1       6.287  -5.864  -8.055  0.00  0.00     0.027 H 
ATOM     40  H   LIG d   1       4.755  -5.824  -7.150  0.00  0.00     0.027 H 
ATOM     41  H   LIG d   1       5.854  -4.791  -6.104  0.00  0.00     0.035 H 
ATOM     42  H   LIG d   1       4.748  -3.573  -5.650  0.00  0.00     0.035 H 
ENDROOT
BRANCH   2  43
ATOM     43  C   LIG d   1       5.348   0.853  -2.368  0.00  0.00     0.005 C 
ATOM     44  H   LIG d   1       5.196   0.008  -1.696  0.00  0.00     0.034 H 
ATOM     45  H   LIG d   1       5.744   1.698  -1.805  0.00  0.00     0.034 H 
BRANCH  43  46
ATOM     46  C   LIG d   1       4.012   1.246  -3.002  0.00  0.00    -0.042 C 
ATOM     47  H   LIG d   1       3.291   1.476  -2.218  0.00  0.00     0.027 H 
ATOM     48  H   LIG d   1       4.153   2.124  -3.633  0.00  0.00     0.027 H 
BRANCH  46  49
ATOM     49  C   LIG d   1       3.489   0.087  -3.852  0.00  0.00    -0.020 C 
ATOM     50  H   LIG d   1       4.324  -0.395  -4.362  0.00  0.00     0.032 H 
BRANCH  49  51
ATOM     51  C   LIG d   1       2.788  -0.931  -2.949  0.00  0.00    -0.060 C 
ATOM     52  H   LIG d   1       3.369  -1.067  -2.037  0.00  0.00     0.023 H 
ATOM     53  H   LIG d   1       1.793  -0.567  -2.696  0.00  0.00     0.023 H 
ATOM     54  H   LIG d   1       2.705  -1.884  -3.472  0.00  0.00     0.023 H 
ENDBRANCH  49  51
BRANCH  49  55
ATOM     55  C   LIG d   1       2.497   0.619  -4.887  0.00  0.00     0.047 C 
ATOM     56  H   LIG d   1       2.205   1.635  -4.622  0.00  0.00     0.056 H 
ATOM     57  H   LIG d   1       2.965   0.620  -5.871  0.00  0.00     0.056 H 
BRANCH  55  58
ATOM     58  O   LIG d   1       1.339  -0.219  -4.912  0.00  0.00    -0.395 OA
ATOM     59  H   LIG d   1       1.360  -0.899  -5.598  0.00  0.00     0.209 HD
ENDBRANCH  55  58
ENDBRANCH  49  55
ENDBRANCH  46  49
ENDBRANCH  43  46
ENDBRANCH   2  43
BRANCH   1  60
ATOM     60  C   LIG d   1       6.393  -1.959  -2.779  0.00  0.00    -0.040 C 
ATOM     61  H   LIG d   1       5.317  -2.124  -2.837  0.00  0.00     0.028 H 
ATOM     62  H   LIG d   1       6.917  -2.839  -3.152  0.00  0.00     0.028 H 
ATOM     63  H   LIG d   1       6.678  -1.779  -1.742  0.00  0.00     0.028 H 
ENDBRANCH   1  60
BRANCH   8  64
ATOM     64  C   LIG d   1       8.229  -1.903  -6.990  0.00  0.00    -0.052 C 
ATOM     65  H   LIG d   1       8.669  -0.930  -7.209  0.00  0.00     0.024 H 
ATOM     66  H   LIG d   1       9.015  -2.599  -6.695  0.00  0.00     0.024 H 
ATOM     67  H   LIG d   1       7.724  -2.282  -7.878  0.00  0.00     0.024 H 
ENDBRANCH   8  64
BRANCH  23  68
ATOM     68  C   LIG d   1       5.654  -3.965  -9.880  0.00  0.00    -0.059 C 
ATOM     69  H   LIG d   1       4.971  -3.384 -10.500  0.00  0.00     0.024 H 
ATOM     70  H   LIG d   1       6.601  -3.432  -9.787  0.00  0.00     0.024 H 
ATOM     71  H   LIG d   1       5.829  -4.937 -10.343  0.00  0.00     0.024 H 
ENDBRANCH  23  68
BRANCH  19  72
ATOM     72  O   LIG d   1       2.471  -7.014 -10.270  0.00  0.00    -0.392 OA
ATOM     73  H   LIG d   1       3.036  -7.733 -10.584  0.00  0.00     0.210 HD
ENDBRANCH  19  72
TORSDOF 10
ENDMDL
MODEL 7
REMARK VINA RESULT:      -5.6      4.484      8.212
REMARK  10 active torsions:
REMARK  status: ('A' for Active; 'I' for Inactive)
REMARK    1  A    between atoms: C_1  and  C_2 
REMARK    2  A    between atoms: C_3  and  C_33 
REMARK    3  A    between atoms: C_9  and  C_32 
REMARK    4  A    between atoms: C_20  and  O_31 
REMARK    5  A    between atoms: C_24  and  C_30 
REMARK    6  A    between atoms: C_33  and  C_34 
REMARK    7  A    between atoms: C_34  and  C_35 
REMARK    8  A    between atoms: C_35  and  C_37 
REMARK    9  A    between atoms: C_35  and  C_38 
REMARK   10  A    between atoms: C_38  and  O_39 
ROOT
ATOM      1  C   LIG d   1       6.209  -1.734  -4.401  0.00  0.00    -0.028 C 
ATOM      2  C   LIG d   1       5.137  -2.286  -3.876  0.00  0.00     0.098 C 
ATOM      3  O   LIG d   1       4.585  -3.245  -4.651  0.00  0.00    -0.492 OA
ATOM      4  C   LIG d   1       5.545  -3.671  -5.656  0.00  0.00     0.107 C 
ATOM      5  H   LIG d   1       5.106  -3.945  -6.616  0.00  0.00     0.074 H 
ATOM      6  C   LIG d   1       6.463  -2.404  -5.739  0.00  0.00     0.033 C 
ATOM      7  H   LIG d   1       6.252  -1.761  -6.594  0.00  0.00     0.039 H 
ATOM      8  C   LIG d   1       7.877  -2.996  -5.753  0.00  0.00     0.039 C 
ATOM      9  C   LIG d   1       7.756  -4.142  -4.714  0.00  0.00    -0.022 C 
ATOM     10  H   LIG d   1       7.708  -3.720  -3.711  0.00  0.00     0.031 H 
ATOM     11  C   LIG d   1       6.419  -4.796  -5.055  0.00  0.00    -0.011 C 
ATOM     12  C   LIG d   1       8.977  -5.036  -4.810  0.00  0.00    -0.034 C 
ATOM     13  H   LIG d   1       8.817  -5.736  -5.632  0.00  0.00     0.031 H 
ATOM     14  C   LIG d   1       9.113  -5.865  -3.551  0.00  0.00    -0.049 C 
ATOM     15  C   LIG d   1      10.443  -6.608  -3.505  0.00  0.00    -0.049 C 
ATOM     16  C   LIG d   1      11.583  -5.590  -3.575  0.00  0.00    -0.033 C 
ATOM     17  H   LIG d   1      11.474  -4.866  -2.767  0.00  0.00     0.031 H 
ATOM     18  C   LIG d   1      12.925  -6.311  -3.439  0.00  0.00    -0.024 C 
ATOM     19  C   LIG d   1      14.060  -5.287  -3.521  0.00  0.00     0.056 C 
ATOM     20  H   LIG d   1      13.955  -4.563  -2.714  0.00  0.00     0.059 H 
ATOM     21  C   LIG d   1      13.999  -4.564  -4.867  0.00  0.00    -0.026 C 
ATOM     22  C   LIG d   1      12.655  -3.845  -5.002  0.00  0.00    -0.045 C 
ATOM     23  C   LIG d   1      11.521  -4.870  -4.917  0.00  0.00    -0.026 C 
ATOM     24  C   LIG d   1      10.187  -4.217  -5.160  0.00  0.00    -0.026 C 
ATOM     25  H   LIG d   1      10.129  -4.074  -6.238  0.00  0.00     0.031 H 
ATOM     26  C   LIG d   1      10.120  -2.808  -4.567  0.00  0.00     0.010 C 
ATOM     27  C   LIG d   1       8.957  -2.081  -5.239  0.00  0.00     0.140 C 
ATOM     28  O   LIG d   1       8.908  -0.880  -5.349  0.00  0.00    -0.297 OA
ATOM     29  H   LIG d   1       6.565  -5.591  -5.785  0.00  0.00     0.030 H 
ATOM     30  H   LIG d   1       5.954  -5.194  -4.153  0.00  0.00     0.030 H 
ATOM     31  H   LIG d   1       8.300  -6.590  -3.501  0.00  0.00     0.027 H 
ATOM     32  H   LIG d   1       9.048  -5.199  -2.691  0.00  0.00     0.027 H 
ATOM     33  H   LIG d   1      10.510  -7.290  -4.352  0.00  0.00     0.027 H 
ATOM     34  H   LIG d   1      10.515  -7.173  -2.575  0.00  0.00     0.027 H 
ATOM     35  H   LIG d   1      12.968  -6.823  -2.477  0.00  0.00     0.029 H 
ATOM     36  H   LIG d   1      13.031  -7.038  -4.244  0.00  0.00     0.029 H 
ATOM     37  H   LIG d   1      14.808  -3.834  -4.925  0.00  0.00     0.029 H 
ATOM     38  H   LIG d   1      14.106  -5.288  -5.675  0.00  0.00     0.029 H 
ATOM     39  H   LIG d   1      12.610  -3.334  -5.964  0.00  0.00     0.027 H 
ATOM     40  H   LIG d   1      12.548  -3.117  -4.198  0.00  0.00     0.027 H 
ATOM     41  H   LIG d   1      10.982  -2.332  -4.742  0.00  0.00     0.035 H 
ATOM     42  H   LIG d   1       9.949  -2.865  -3.493  0.00  0.00     0.035 H 
ENDROOT
BRANCH   2  43
ATOM     43  C   LIG d   1       4.579  -1.888  -2.535  0.00  0.00     0.005 C 
ATOM     44  H   LIG d   1       4.603  -2.745  -1.861  0.00  0.00     0.034 H 
ATOM     45  H   LIG d   1       5.179  -1.080  -2.116  0.00  0.00     0.034 H 
BRANCH  43  46
ATOM     46  C   LIG d   1       3.134  -1.413  -2.704  0.00  0.00    -0.042 C 
ATOM     47  H   LIG d   1       2.751  -1.753  -3.666  0.00  0.00     0.027 H 
ATOM     48  H   LIG d   1       2.520  -1.826  -1.903  0.00  0.00     0.027 H 
BRANCH  46  49
ATOM     49  C   LIG d   1       3.088   0.114  -2.647  0.00  0.00    -0.020 C 
ATOM     50  H   LIG d   1       2.170   0.432  -2.150  0.00  0.00     0.032 H 
BRANCH  49  51
ATOM     51  C   LIG d   1       4.297   0.632  -1.865  0.00  0.00    -0.060 C 
ATOM     52  H   LIG d   1       5.112  -0.087  -1.938  0.00  0.00     0.023 H 
ATOM     53  H   LIG d   1       4.616   1.588  -2.281  0.00  0.00     0.023 H 
ATOM     54  H   LIG d   1       4.022   0.765  -0.818  0.00  0.00     0.023 H 
ENDBRANCH  49  51
BRANCH  49  55
ATOM     55  C   LIG d   1       3.120   0.680  -4.068  0.00  0.00     0.047 C 
ATOM     56  H   LIG d   1       2.734   1.699  -4.062  0.00  0.00     0.056 H 
ATOM     57  H   LIG d   1       4.146   0.682  -4.435  0.00  0.00     0.056 H 
BRANCH  55  58
ATOM     58  O   LIG d   1       2.311  -0.131  -4.922  0.00  0.00    -0.395 OA
ATOM     59  H   LIG d   1       2.513  -1.076  -4.876  0.00  0.00     0.209 HD
ENDBRANCH  55  58
ENDBRANCH  49  55
ENDBRANCH  46  49
ENDBRANCH  43  46
ENDBRANCH   2  43
BRANCH   1  60
ATOM     60  C   LIG d   1       7.035  -0.635  -3.785  0.00  0.00    -0.040 C 
ATOM     61  H   LIG d   1       6.636  -0.389  -2.802  0.00  0.00     0.028 H 
ATOM     62  H   LIG d   1       8.068  -0.970  -3.685  0.00  0.00     0.028 H 
ATOM     63  H   LIG d   1       7.000   0.247  -4.424  0.00  0.00     0.028 H 
ENDBRANCH   1  60
BRANCH   8  64
ATOM     64  C   LIG d   1       8.230  -3.541  -7.138  0.00  0.00    -0.052 C 
ATOM     65  H   LIG d   1       8.266  -2.720  -7.854  0.00  0.00     0.024 H 
ATOM     66  H   LIG d   1       9.204  -4.031  -7.098  0.00  0.00     0.024 H 
ATOM     67  H   LIG d   1       7.475  -4.261  -7.449  0.00  0.00     0.024 H 
ENDBRANCH   8  64
BRANCH  23  68
ATOM     68  C   LIG d   1      11.752  -5.903  -6.021  0.00  0.00    -0.059 C 
ATOM     69  H   LIG d   1      10.939  -5.848  -6.745  0.00  0.00     0.024 H 
ATOM     70  H   LIG d   1      12.698  -5.696  -6.521  0.00  0.00     0.024 H 
ATOM     71  H   LIG d   1      11.783  -6.901  -5.584  0.00  0.00     0.024 H 
ENDBRANCH  23  68
BRANCH  19  72
ATOM     72  O   LIG d   1      15.316  -5.958  -3.398  0.00  0.00    -0.392 OA
ATOM     73  H   LIG d   1      15.483  -6.324  -2.519  0.00  0.00     0.210 HD
ENDBRANCH  19  72
TORSDOF 10
ENDMDL
MODEL 8
REMARK VINA RESULT:      -5.5      5.652      8.501
REMARK  10 active torsions:
REMARK  status: ('A' for Active; 'I' for Inactive)
REMARK    1  A    between atoms: C_1  and  C_2 
REMARK    2  A    between atoms: C_3  and  C_33 
REMARK    3  A    between atoms: C_9  and  C_32 
REMARK    4  A    between atoms: C_20  and  O_31 
REMARK    5  A    between atoms: C_24  and  C_30 
REMARK    6  A    between atoms: C_33  and  C_34 
REMARK    7  A    between atoms: C_34  and  C_35 
REMARK    8  A    between atoms: C_35  and  C_37 
REMARK    9  A    between atoms: C_35  and  C_38 
REMARK   10  A    between atoms: C_38  and  O_39 
ROOT
ATOM      1  C   LIG d   1      10.611   4.680  -5.298  0.00  0.00    -0.028 C 
ATOM      2  C   LIG d   1      10.914   5.130  -6.496  0.00  0.00     0.098 C 
ATOM      3  O   LIG d   1      11.789   4.348  -7.164  0.00  0.00    -0.492 OA
ATOM      4  C   LIG d   1      11.846   3.036  -6.540  0.00  0.00     0.107 C 
ATOM      5  H   LIG d   1      12.828   2.563  -6.568  0.00  0.00     0.074 H 
ATOM      6  C   LIG d   1      11.373   3.384  -5.087  0.00  0.00     0.033 C 
ATOM      7  H   LIG d   1      12.186   3.470  -4.366  0.00  0.00     0.039 H 
ATOM      8  C   LIG d   1      10.384   2.259  -4.763  0.00  0.00     0.039 C 
ATOM      9  C   LIG d   1       9.626   2.098  -6.106  0.00  0.00    -0.022 C 
ATOM     10  H   LIG d   1       8.953   2.943  -6.247  0.00  0.00     0.031 H 
ATOM     11  C   LIG d   1      10.736   2.153  -7.153  0.00  0.00    -0.011 C 
ATOM     12  C   LIG d   1       8.808   0.822  -6.071  0.00  0.00    -0.034 C 
ATOM     13  H   LIG d   1       9.470  -0.008  -6.321  0.00  0.00     0.031 H 
ATOM     14  C   LIG d   1       7.736   0.863  -7.139  0.00  0.00    -0.049 C 
ATOM     15  C   LIG d   1       6.750  -0.290  -6.995  0.00  0.00    -0.049 C 
ATOM     16  C   LIG d   1       6.099  -0.217  -5.611  0.00  0.00    -0.033 C 
ATOM     17  H   LIG d   1       5.632   0.759  -5.481  0.00  0.00     0.031 H 
ATOM     18  C   LIG d   1       5.041  -1.314  -5.483  0.00  0.00    -0.024 C 
ATOM     19  C   LIG d   1       4.404  -1.241  -4.093  0.00  0.00     0.056 C 
ATOM     20  H   LIG d   1       3.934  -0.267  -3.960  0.00  0.00     0.059 H 
ATOM     21  C   LIG d   1       5.481  -1.438  -3.026  0.00  0.00    -0.026 C 
ATOM     22  C   LIG d   1       6.540  -0.341  -3.158  0.00  0.00    -0.045 C 
ATOM     23  C   LIG d   1       7.174  -0.414  -4.549  0.00  0.00    -0.026 C 
ATOM     24  C   LIG d   1       8.301   0.576  -4.678  0.00  0.00    -0.026 C 
ATOM     25  H   LIG d   1       9.140   0.127  -4.148  0.00  0.00     0.031 H 
ATOM     26  C   LIG d   1       8.009   1.879  -3.932  0.00  0.00     0.010 C 
ATOM     27  C   LIG d   1       9.340   2.603  -3.734  0.00  0.00     0.140 C 
ATOM     28  O   LIG d   1       9.536   3.382  -2.833  0.00  0.00    -0.297 OA
ATOM     29  H   LIG d   1      11.117   1.151  -7.350  0.00  0.00     0.030 H 
ATOM     30  H   LIG d   1      10.363   2.600  -8.074  0.00  0.00     0.030 H 
ATOM     31  H   LIG d   1       8.200   0.812  -8.124  0.00  0.00     0.027 H 
ATOM     32  H   LIG d   1       7.196   1.805  -7.050  0.00  0.00     0.027 H 
ATOM     33  H   LIG d   1       7.278  -1.237  -7.100  0.00  0.00     0.027 H 
ATOM     34  H   LIG d   1       5.981  -0.213  -7.764  0.00  0.00     0.027 H 
ATOM     35  H   LIG d   1       4.273  -1.169  -6.243  0.00  0.00     0.029 H 
ATOM     36  H   LIG d   1       5.509  -2.289  -5.618  0.00  0.00     0.029 H 
ATOM     37  H   LIG d   1       5.026  -1.386  -2.036  0.00  0.00     0.029 H 
ATOM     38  H   LIG d   1       5.950  -2.413  -3.158  0.00  0.00     0.029 H 
ATOM     39  H   LIG d   1       7.310  -0.486  -2.400  0.00  0.00     0.027 H 
ATOM     40  H   LIG d   1       6.073   0.634  -3.021  0.00  0.00     0.027 H 
ATOM     41  H   LIG d   1       7.587   1.671  -3.050  0.00  0.00     0.035 H 
ATOM     42  H   LIG d   1       7.334   2.500  -4.520  0.00  0.00     0.035 H 
ENDROOT
BRANCH   2  43
ATOM     43  C   LIG d   1      10.337   6.399  -7.069  0.00  0.00     0.005 C 
ATOM     44  H   LIG d   1       9.665   6.853  -6.341  0.00  0.00     0.034 H 
ATOM     45  H   LIG d   1      11.144   7.094  -7.300  0.00  0.00     0.034 H 
BRANCH  43  46
ATOM     46  C   LIG d   1       9.561   6.075  -8.347  0.00  0.00    -0.042 C 
ATOM     47  H   LIG d   1      10.202   5.515  -9.028  0.00  0.00     0.027 H 
ATOM     48  H   LIG d   1       8.685   5.476  -8.098  0.00  0.00     0.027 H 
BRANCH  46  49
ATOM     49  C   LIG d   1       9.117   7.375  -9.018  0.00  0.00    -0.020 C 
ATOM     50  H   LIG d   1       8.157   7.218  -9.514  0.00  0.00     0.032 H 
BRANCH  49  51
ATOM     51  C   LIG d   1       8.971   8.471  -7.960  0.00  0.00    -0.060 C 
ATOM     52  H   LIG d   1       7.916   8.718  -7.836  0.00  0.00     0.023 H 
ATOM     53  H   LIG d   1       9.375   8.117  -7.012  0.00  0.00     0.023 H 
ATOM     54  H   LIG d   1       9.516   9.359  -8.279  0.00  0.00     0.023 H 
ENDBRANCH  49  51
BRANCH  49  55
ATOM     55  C   LIG d   1      10.161   7.800 -10.051  0.00  0.00     0.047 C 
ATOM     56  H   LIG d   1      10.958   8.355  -9.556  0.00  0.00     0.056 H 
ATOM     57  H   LIG d   1      10.579   6.914 -10.530  0.00  0.00     0.056 H 
BRANCH  55  58
ATOM     58  O   LIG d   1       9.545   8.628 -11.039  0.00  0.00    -0.395 OA
ATOM     59  H   LIG d   1       9.368   9.531 -10.742  0.00  0.00     0.209 HD
ENDBRANCH  55  58
ENDBRANCH  49  55
ENDBRANCH  46  49
ENDBRANCH  43  46
ENDBRANCH   2  43
BRANCH   1  60
ATOM     60  C   LIG d   1       9.676   5.332  -4.313  0.00  0.00    -0.040 C 
ATOM     61  H   LIG d   1       8.860   4.649  -4.080  0.00  0.00     0.028 H 
ATOM     62  H   LIG d   1      10.221   5.573  -3.399  0.00  0.00     0.028 H 
ATOM     63  H   LIG d   1       9.273   6.247  -4.746  0.00  0.00     0.028 H 
ENDBRANCH   1  60
BRANCH   8  64
ATOM     64  C   LIG d   1      11.122   0.972  -4.387  0.00  0.00    -0.052 C 
ATOM     65  H   LIG d   1      11.314   0.387  -5.286  0.00  0.00     0.024 H 
ATOM     66  H   LIG d   1      12.068   1.223  -3.907  0.00  0.00     0.024 H 
ATOM     67  H   LIG d   1      10.510   0.390  -3.698  0.00  0.00     0.024 H 
ENDBRANCH   8  64
BRANCH  23  68
ATOM     68  C   LIG d   1       7.755  -1.819  -4.716  0.00  0.00    -0.059 C 
ATOM     69  H   LIG d   1       7.068  -2.428  -5.303  0.00  0.00     0.024 H 
ATOM     70  H   LIG d   1       8.715  -1.757  -5.229  0.00  0.00     0.024 H 
ATOM     71  H   LIG d   1       7.896  -2.273  -3.735  0.00  0.00     0.024 H 
ENDBRANCH  23  68
BRANCH  19  72
ATOM     72  O   LIG d   1       3.417  -2.267  -3.968  0.00  0.00    -0.392 OA
ATOM     73  H   LIG d   1       3.070  -2.584  -4.813  0.00  0.00     0.210 HD
ENDBRANCH  19  72
TORSDOF 10
ENDMDL
MODEL 9
REMARK VINA RESULT:      -5.4      2.089      3.188
REMARK  10 active torsions:
REMARK  status: ('A' for Active; 'I' for Inactive)
REMARK    1  A    between atoms: C_1  and  C_2 
REMARK    2  A    between atoms: C_3  and  C_33 
REMARK    3  A    between atoms: C_9  and  C_32 
REMARK    4  A    between atoms: C_20  and  O_31 
REMARK    5  A    between atoms: C_24  and  C_30 
REMARK    6  A    between atoms: C_33  and  C_34 
REMARK    7  A    between atoms: C_34  and  C_35 
REMARK    8  A    between atoms: C_35  and  C_37 
REMARK    9  A    between atoms: C_35  and  C_38 
REMARK   10  A    between atoms: C_38  and  O_39 
ROOT
ATOM      1  C   LIG d   1       8.822  -1.906  -6.715  0.00  0.00    -0.028 C 
ATOM      2  C   LIG d   1       8.866  -1.725  -5.413  0.00  0.00     0.098 C 
ATOM      3  O   LIG d   1       8.972  -0.428  -5.049  0.00  0.00    -0.492 OA
ATOM      4  C   LIG d   1       8.614   0.424  -6.171  0.00  0.00     0.107 C 
ATOM      5  H   LIG d   1       9.175   1.357  -6.230  0.00  0.00     0.074 H 
ATOM      6  C   LIG d   1       8.899  -0.540  -7.373  0.00  0.00     0.033 C 
ATOM      7  H   LIG d   1       9.848  -0.352  -7.875  0.00  0.00     0.039 H 
ATOM      8  C   LIG d   1       7.677  -0.341  -8.278  0.00  0.00     0.039 C 
ATOM      9  C   LIG d   1       6.522  -0.258  -7.246  0.00  0.00    -0.022 C 
ATOM     10  H   LIG d   1       6.328  -1.249  -6.836  0.00  0.00     0.031 H 
ATOM     11  C   LIG d   1       7.083   0.644  -6.150  0.00  0.00    -0.011 C 
ATOM     12  C   LIG d   1       5.267   0.239  -7.938  0.00  0.00    -0.034 C 
ATOM     13  H   LIG d   1       5.323   1.326  -7.994  0.00  0.00     0.031 H 
ATOM     14  C   LIG d   1       4.049  -0.094  -7.103  0.00  0.00    -0.049 C 
ATOM     15  C   LIG d   1       2.754   0.181  -7.859  0.00  0.00    -0.049 C 
ATOM     16  C   LIG d   1       2.741  -0.655  -9.141  0.00  0.00    -0.033 C 
ATOM     17  H   LIG d   1       2.870  -1.707  -8.890  0.00  0.00     0.031 H 
ATOM     18  C   LIG d   1       1.409  -0.460  -9.868  0.00  0.00    -0.024 C 
ATOM     19  C   LIG d   1       1.409  -1.290 -11.154  0.00  0.00     0.056 C 
ATOM     20  H   LIG d   1       1.536  -2.343 -10.906  0.00  0.00     0.059 H 
ATOM     21  C   LIG d   1       2.558  -0.835 -12.056  0.00  0.00    -0.026 C 
ATOM     22  C   LIG d   1       3.889  -1.028 -11.326  0.00  0.00    -0.045 C 
ATOM     23  C   LIG d   1       3.887  -0.200 -10.039  0.00  0.00    -0.026 C 
ATOM     24  C   LIG d   1       5.223  -0.273  -9.349  0.00  0.00    -0.026 C 
ATOM     25  H   LIG d   1       5.873   0.395  -9.912  0.00  0.00     0.031 H 
ATOM     26  C   LIG d   1       5.862  -1.657  -9.482  0.00  0.00     0.010 C 
ATOM     27  C   LIG d   1       7.351  -1.506  -9.175  0.00  0.00     0.140 C 
ATOM     28  O   LIG d   1       8.191  -2.254  -9.612  0.00  0.00    -0.297 OA
ATOM     29  H   LIG d   1       6.850   1.686  -6.365  0.00  0.00     0.030 H 
ATOM     30  H   LIG d   1       6.675   0.358  -5.181  0.00  0.00     0.030 H 
ATOM     31  H   LIG d   1       4.059   0.501  -6.189  0.00  0.00     0.027 H 
ATOM     32  H   LIG d   1       4.089  -1.150  -6.839  0.00  0.00     0.027 H 
ATOM     33  H   LIG d   1       2.696   1.239  -8.112  0.00  0.00     0.027 H 
ATOM     34  H   LIG d   1       1.902  -0.093  -7.237  0.00  0.00     0.027 H 
ATOM     35  H   LIG d   1       0.592  -0.787  -9.224  0.00  0.00     0.029 H 
ATOM     36  H   LIG d   1       1.279   0.594 -10.114  0.00  0.00     0.029 H 
ATOM     37  H   LIG d   1       2.557  -1.427 -12.972  0.00  0.00     0.029 H 
ATOM     38  H   LIG d   1       2.430   0.218 -12.304  0.00  0.00     0.029 H 
ATOM     39  H   LIG d   1       4.707  -0.699 -11.967  0.00  0.00     0.027 H 
ATOM     40  H   LIG d   1       4.021  -2.082 -11.080  0.00  0.00     0.027 H 
ATOM     41  H   LIG d   1       5.728  -1.999 -10.412  0.00  0.00     0.035 H 
ATOM     42  H   LIG d   1       5.406  -2.346  -8.772  0.00  0.00     0.035 H 
ENDROOT
BRANCH   2  43
ATOM     43  C   LIG d   1       8.801  -2.857  -4.422  0.00  0.00     0.005 C 
ATOM     44  H   LIG d   1       8.754  -3.806  -4.956  0.00  0.00     0.034 H 
ATOM     45  H   LIG d   1       9.690  -2.840  -3.790  0.00  0.00     0.034 H 
BRANCH  43  46
ATOM     46  C   LIG d   1       7.554  -2.701  -3.549  0.00  0.00    -0.042 C 
ATOM     47  H   LIG d   1       7.451  -3.573  -2.903  0.00  0.00     0.027 H 
ATOM     48  H   LIG d   1       7.650  -1.805  -2.936  0.00  0.00     0.027 H 
BRANCH  46  49
ATOM     49  C   LIG d   1       6.318  -2.579  -4.441  0.00  0.00    -0.020 C 
ATOM     50  H   LIG d   1       6.539  -1.914  -5.278  0.00  0.00     0.032 H 
BRANCH  49  51
ATOM     51  C   LIG d   1       5.936  -3.961  -4.976  0.00  0.00    -0.060 C 
ATOM     52  H   LIG d   1       6.567  -4.717  -4.509  0.00  0.00     0.023 H 
ATOM     53  H   LIG d   1       4.891  -4.164  -4.742  0.00  0.00     0.023 H 
ATOM     54  H   LIG d   1       6.079  -3.984  -6.056  0.00  0.00     0.023 H 
ENDBRANCH  49  51
BRANCH  49  55
ATOM     55  C   LIG d   1       5.156  -2.007  -3.629  0.00  0.00     0.047 C 
ATOM     56  H   LIG d   1       5.233  -2.347  -2.595  0.00  0.00     0.056 H 
ATOM     57  H   LIG d   1       5.194  -0.918  -3.656  0.00  0.00     0.056 H 
BRANCH  55  58
ATOM     58  O   LIG d   1       3.918  -2.453  -4.187  0.00  0.00    -0.395 OA
ATOM     59  H   LIG d   1       3.946  -2.598  -5.142  0.00  0.00     0.209 HD
ENDBRANCH  55  58
ENDBRANCH  49  55
ENDBRANCH  46  49
ENDBRANCH  43  46
ENDBRANCH   2  43
BRANCH   1  60
ATOM     60  C   LIG d   1       8.716  -3.230  -7.425  0.00  0.00    -0.040 C 
ATOM     61  H   LIG d   1       8.789  -3.072  -8.501  0.00  0.00     0.028 H 
ATOM     62  H   LIG d   1       9.525  -3.885  -7.098  0.00  0.00     0.028 H 
ATOM     63  H   LIG d   1       7.757  -3.693  -7.189  0.00  0.00     0.028 H 
ENDBRANCH   1  60
BRANCH   8  64
ATOM     64  C   LIG d   1       7.795   0.955  -9.082  0.00  0.00    -0.052 C 
ATOM     65  H   LIG d   1       8.420   0.785  -9.958  0.00  0.00     0.024 H 
ATOM     66  H   LIG d   1       6.803   1.277  -9.399  0.00  0.00     0.024 H 
ATOM     67  H   LIG d   1       8.245   1.729  -8.460  0.00  0.00     0.024 H 
ENDBRANCH   8  64
BRANCH  23  68
ATOM     68  C   LIG d   1       3.633   1.256 -10.430  0.00  0.00    -0.059 C 
ATOM     69  H   LIG d   1       4.576   1.804 -10.423  0.00  0.00     0.024 H 
ATOM     70  H   LIG d   1       3.200   1.294 -11.430  0.00  0.00     0.024 H 
ATOM     71  H   LIG d   1       2.944   1.710  -9.718  0.00  0.00     0.024 H 
ENDBRANCH  23  68
BRANCH  19  72
ATOM     72  O   LIG d   1       0.168  -1.108 -11.838  0.00  0.00    -0.392 OA
ATOM     73  H   LIG d   1      -0.093  -1.860 -12.387  0.00  0.00     0.210 HD
ENDBRANCH  19  72
TORSDOF 10
ENDMDL
MODEL 10
REMARK VINA RESULT:      -5.3      5.996      9.540
REMARK  10 active torsions:
REMARK  status: ('A' for Active; 'I' for Inactive)
REMARK    1  A    between atoms: C_1  and  C_2 
REMARK    2  A    between atoms: C_3  and  C_33 
REMARK    3  A    between atoms: C_9  and  C_32 
REMARK    4  A    between atoms: C_20  and  O_31 
REMARK    5  A    between atoms: C_24  and  C_30 
REMARK    6  A    between atoms: C_33  and  C_34 
REMARK    7  A    between atoms: C_34  and  C_35 
REMARK    8  A    between atoms: C_35  and  C_37 
REMARK    9  A    between atoms: C_35  and  C_38 
REMARK   10  A    between atoms: C_38  and  O_39 
ROOT
ATOM      1  C   LIG d   1       9.652  -4.454  -3.909  0.00  0.00    -0.028 C 
ATOM      2  C   LIG d   1       9.043  -3.766  -4.850  0.00  0.00     0.098 C 
ATOM      3  O   LIG d   1       9.281  -4.226  -6.098  0.00  0.00    -0.492 OA
ATOM      4  C   LIG d   1       9.816  -5.576  -6.026  0.00  0.00     0.107 C 
ATOM      5  H   LIG d   1      10.547  -5.816  -6.799  0.00  0.00     0.074 H 
ATOM      6  C   LIG d   1      10.427  -5.571  -4.584  0.00  0.00     0.033 C 
ATOM      7  H   LIG d   1      11.507  -5.426  -4.561  0.00  0.00     0.039 H 
ATOM      8  C   LIG d   1       9.979  -6.920  -4.010  0.00  0.00     0.039 C 
ATOM      9  C   LIG d   1       8.524  -7.027  -4.537  0.00  0.00    -0.022 C 
ATOM     10  H   LIG d   1       7.886  -6.336  -3.986  0.00  0.00     0.031 H 
ATOM     11  C   LIG d   1       8.633  -6.570  -5.989  0.00  0.00    -0.011 C 
ATOM     12  C   LIG d   1       8.015  -8.439  -4.321  0.00  0.00    -0.034 C 
ATOM     13  H   LIG d   1       8.379  -9.057  -5.142  0.00  0.00     0.031 H 
ATOM     14  C   LIG d   1       6.503  -8.462  -4.395  0.00  0.00    -0.049 C 
ATOM     15  C   LIG d   1       5.937  -9.809  -3.960  0.00  0.00    -0.049 C 
ATOM     16  C   LIG d   1       6.385 -10.097  -2.525  0.00  0.00    -0.033 C 
ATOM     17  H   LIG d   1       6.075  -9.278  -1.877  0.00  0.00     0.031 H 
ATOM     18  C   LIG d   1       5.752 -11.403  -2.041  0.00  0.00    -0.024 C 
ATOM     19  C   LIG d   1       6.214 -11.689  -0.611  0.00  0.00     0.056 C 
ATOM     20  H   LIG d   1       5.904 -10.872   0.041  0.00  0.00     0.059 H 
ATOM     21  C   LIG d   1       7.738 -11.815  -0.582  0.00  0.00    -0.026 C 
ATOM     22  C   LIG d   1       8.370 -10.508  -1.069  0.00  0.00    -0.045 C 
ATOM     23  C   LIG d   1       7.904 -10.222  -2.498  0.00  0.00    -0.026 C 
ATOM     24  C   LIG d   1       8.593  -9.005  -3.055  0.00  0.00    -0.026 C 
ATOM     25  H   LIG d   1       9.593  -9.340  -3.327  0.00  0.00     0.031 H 
ATOM     26  C   LIG d   1       8.809  -7.929  -1.988  0.00  0.00     0.010 C 
ATOM     27  C   LIG d   1       9.883  -6.976  -2.508  0.00  0.00     0.140 C 
ATOM     28  O   LIG d   1      10.592  -6.324  -1.780  0.00  0.00    -0.297 OA
ATOM     29  H   LIG d   1       8.837  -7.423  -6.637  0.00  0.00     0.030 H 
ATOM     30  H   LIG d   1       7.713  -6.074  -6.298  0.00  0.00     0.030 H 
ATOM     31  H   LIG d   1       6.184  -8.256  -5.416  0.00  0.00     0.027 H 
ATOM     32  H   LIG d   1       6.113  -7.685  -3.738  0.00  0.00     0.027 H 
ATOM     33  H   LIG d   1       6.307 -10.592  -4.622  0.00  0.00     0.027 H 
ATOM     34  H   LIG d   1       4.847  -9.780  -4.003  0.00  0.00     0.027 H 
ATOM     35  H   LIG d   1       4.666 -11.310  -2.060  0.00  0.00     0.029 H 
ATOM     36  H   LIG d   1       6.059 -12.220  -2.694  0.00  0.00     0.029 H 
ATOM     37  H   LIG d   1       8.067 -12.018   0.438  0.00  0.00     0.029 H 
ATOM     38  H   LIG d   1       8.048 -12.632  -1.232  0.00  0.00     0.029 H 
ATOM     39  H   LIG d   1       9.455 -10.600  -1.053  0.00  0.00     0.027 H 
ATOM     40  H   LIG d   1       8.064  -9.690  -0.416  0.00  0.00     0.027 H 
ATOM     41  H   LIG d   1       9.103  -8.360  -1.136  0.00  0.00     0.035 H 
ATOM     42  H   LIG d   1       7.881  -7.384  -1.818  0.00  0.00     0.035 H 
ENDROOT
BRANCH   2  43
ATOM     43  C   LIG d   1       8.163  -2.578  -4.563  0.00  0.00     0.005 C 
ATOM     44  H   LIG d   1       8.426  -2.157  -3.592  0.00  0.00     0.034 H 
ATOM     45  H   LIG d   1       8.305  -1.823  -5.336  0.00  0.00     0.034 H 
BRANCH  43  46
ATOM     46  C   LIG d   1       6.698  -3.020  -4.547  0.00  0.00    -0.042 C 
ATOM     47  H   LIG d   1       6.281  -2.929  -5.550  0.00  0.00     0.027 H 
ATOM     48  H   LIG d   1       6.636  -4.059  -4.221  0.00  0.00     0.027 H 
BRANCH  46  49
ATOM     49  C   LIG d   1       5.907  -2.135  -3.583  0.00  0.00    -0.020 C 
ATOM     50  H   LIG d   1       5.742  -2.672  -2.649  0.00  0.00     0.032 H 
BRANCH  49  51
ATOM     51  C   LIG d   1       6.697  -0.854  -3.302  0.00  0.00    -0.060 C 
ATOM     52  H   LIG d   1       6.244  -0.022  -3.841  0.00  0.00     0.023 H 
ATOM     53  H   LIG d   1       6.682  -0.646  -2.233  0.00  0.00     0.023 H 
ATOM     54  H   LIG d   1       7.727  -0.983  -3.634  0.00  0.00     0.023 H 
ENDBRANCH  49  51
BRANCH  49  55
ATOM     55  C   LIG d   1       4.559  -1.775  -4.210  0.00  0.00     0.047 C 
ATOM     56  H   LIG d   1       3.898  -1.373  -3.442  0.00  0.00     0.056 H 
ATOM     57  H   LIG d   1       4.709  -1.026  -4.988  0.00  0.00     0.056 H 
BRANCH  55  58
ATOM     58  O   LIG d   1       3.971  -2.945  -4.781  0.00  0.00    -0.395 OA
ATOM     59  H   LIG d   1       3.298  -2.761  -5.450  0.00  0.00     0.209 HD
ENDBRANCH  55  58
ENDBRANCH  49  55
ENDBRANCH  46  49
ENDBRANCH  43  46
ENDBRANCH   2  43
BRANCH   1  60
ATOM     60  C   LIG d   1       9.591  -4.182  -2.428  0.00  0.00    -0.040 C 
ATOM     61  H   LIG d   1      10.520  -3.712  -2.107  0.00  0.00     0.028 H 
ATOM     62  H   LIG d   1       8.754  -3.515  -2.216  0.00  0.00     0.028 H 
ATOM     63  H   LIG d   1       9.452  -5.120  -1.892  0.00  0.00     0.028 H 
ENDBRANCH   1  60
BRANCH   8  64
ATOM     64  C   LIG d   1      10.846  -8.061  -4.548  0.00  0.00    -0.052 C 
ATOM     65  H   LIG d   1      11.013  -7.919  -5.615  0.00  0.00     0.024 H 
ATOM     66  H   LIG d   1      11.804  -8.064  -4.027  0.00  0.00     0.024 H 
ATOM     67  H   LIG d   1      10.340  -9.011  -4.382  0.00  0.00     0.024 H 
ENDBRANCH   8  64
BRANCH  23  68
ATOM     68  C   LIG d   1       8.297 -11.424  -3.358  0.00  0.00    -0.059 C 
ATOM     69  H   LIG d   1       9.358 -11.635  -3.226  0.00  0.00     0.024 H 
ATOM     70  H   LIG d   1       7.714 -12.294  -3.055  0.00  0.00     0.024 H 
ATOM     71  H   LIG d   1       8.098 -11.202  -4.407  0.00  0.00     0.024 H 
ENDBRANCH  23  68
BRANCH  19  72
ATOM     72  O   LIG d   1       5.628 -12.910  -0.156  0.00  0.00    -0.392 OA
ATOM     73  H   LIG d   1       5.259 -12.861   0.736  0.00  0.00     0.210 HD
ENDBRANCH  19  72
TORSDOF 10
ENDMDL
