MODEL 1
REMARK VINA RESULT:      -6.0      0.000      0.000
REMARK  2 active torsions:
REMARK  status: ('A' for Active; 'I' for Inactive)
REMARK    1  A    between atoms: C_10  and  N_16 
REMARK    2  A    between atoms: C_11  and  O_15 
ROOT
ATOM      1  C   LIG d   1       3.949   0.670  -1.919  0.00  0.00    -0.060 A 
ATOM      2  C   LIG d   1       4.629  -0.542  -1.795  0.00  0.00    -0.060 A 
ATOM      3  C   LIG d   1       4.837  -1.356  -2.861  0.00  0.00    -0.034 A 
ATOM      4  C   LIG d   1       4.357  -0.976  -4.132  0.00  0.00     0.090 A 
ATOM      5  C   LIG d   1       3.642   0.299  -4.263  0.00  0.00     0.090 A 
ATOM      6  C   LIG d   1       3.462   1.095  -3.113  0.00  0.00    -0.034 A 
ATOM      7  N   LIG d   1       3.176   0.687  -5.446  0.00  0.00    -0.244 NA
ATOM      8  C   LIG d   1       3.362  -0.088  -6.510  0.00  0.00     0.092 A 
ATOM      9  C   LIG d   1       2.881   0.296  -7.779  0.00  0.00    -0.010 A 
ATOM     10  C   LIG d   1       3.087  -0.518  -8.852  0.00  0.00     0.069 A 
ATOM     11  C   LIG d   1       3.774  -1.741  -8.726  0.00  0.00     0.140 A 
ATOM     12  C   LIG d   1       4.261  -2.163  -7.528  0.00  0.00     0.009 A 
ATOM     13  C   LIG d   1       4.079  -1.363  -6.379  0.00  0.00     0.093 A 
ATOM     14  N   LIG d   1       4.543  -1.750  -5.197  0.00  0.00    -0.243 NA
ATOM     15  H   LIG d   1       3.806   1.286  -1.042  0.00  0.00     0.062 H 
ATOM     16  H   LIG d   1       5.000  -0.841  -0.825  0.00  0.00     0.062 H 
ATOM     17  H   LIG d   1       5.362  -2.292  -2.737  0.00  0.00     0.064 H 
ATOM     18  H   LIG d   1       2.939   2.038  -3.181  0.00  0.00     0.064 H 
ATOM     19  H   LIG d   1       2.351   1.230  -7.898  0.00  0.00     0.066 H 
ATOM     20  H   LIG d   1       4.784  -3.105  -7.455  0.00  0.00     0.068 H 
ENDROOT
BRANCH  10  21
ATOM     21  N   LIG d   1       2.608  -0.131 -10.102  0.00  0.00    -0.355 N 
ATOM     22  H   LIG d   1       2.964   0.802 -10.563  0.00  0.00     0.142 HD
ATOM     23  H   LIG d   1       1.873  -0.759 -10.627  0.00  0.00     0.142 HD
ENDBRANCH  10  21
BRANCH  11  24
ATOM     24  O   LIG d   1       3.954  -2.518  -9.825  0.00  0.00    -0.505 OA
ATOM     25  H   LIG d   1       3.090  -2.809 -10.440  0.00  0.00     0.292 HD
ENDBRANCH  11  24
TORSDOF 2
ENDMDL
MODEL 2
REMARK VINA RESULT:      -6.0      0.976      2.228
REMARK  2 active torsions:
REMARK  status: ('A' for Active; 'I' for Inactive)
REMARK    1  A    between atoms: C_10  and  N_16 
REMARK    2  A    between atoms: C_11  and  O_15 
ROOT
ATOM      1  C   LIG d   1       4.658  -0.636  -1.838  0.00  0.00    -0.060 A 
ATOM      2  C   LIG d   1       3.982   0.581  -1.937  0.00  0.00    -0.060 A 
ATOM      3  C   LIG d   1       3.489   1.030  -3.119  0.00  0.00    -0.034 A 
ATOM      4  C   LIG d   1       3.660   0.253  -4.285  0.00  0.00     0.090 A 
ATOM      5  C   LIG d   1       4.370  -1.026  -4.181  0.00  0.00     0.090 A 
ATOM      6  C   LIG d   1       4.856  -1.432  -2.921  0.00  0.00    -0.034 A 
ATOM      7  N   LIG d   1       4.548  -1.783  -5.261  0.00  0.00    -0.244 NA
ATOM      8  C   LIG d   1       4.079  -1.371  -6.434  0.00  0.00     0.092 A 
ATOM      9  C   LIG d   1       4.250  -2.150  -7.596  0.00  0.00    -0.010 A 
ATOM     10  C   LIG d   1       3.758  -1.704  -8.786  0.00  0.00     0.069 A 
ATOM     11  C   LIG d   1       3.075  -0.476  -8.884  0.00  0.00     0.140 A 
ATOM     12  C   LIG d   1       2.879   0.319  -7.797  0.00  0.00     0.009 A 
ATOM     13  C   LIG d   1       3.367  -0.090  -6.537  0.00  0.00     0.093 A 
ATOM     14  N   LIG d   1       3.190   0.664  -5.458  0.00  0.00    -0.243 NA
ATOM     15  H   LIG d   1       5.033  -0.954  -0.876  0.00  0.00     0.062 H 
ATOM     16  H   LIG d   1       3.848   1.181  -1.049  0.00  0.00     0.062 H 
ATOM     17  H   LIG d   1       2.974   1.978  -3.169  0.00  0.00     0.064 H 
ATOM     18  H   LIG d   1       5.382  -2.369  -2.817  0.00  0.00     0.064 H 
ATOM     19  H   LIG d   1       4.771  -3.095  -7.544  0.00  0.00     0.066 H 
ATOM     20  H   LIG d   1       2.353   1.256  -7.897  0.00  0.00     0.068 H 
ENDROOT
BRANCH  10  21
ATOM     21  N   LIG d   1       3.932  -2.480  -9.930  0.00  0.00    -0.355 N 
ATOM     22  H   LIG d   1       3.109  -2.592 -10.649  0.00  0.00     0.142 HD
ATOM     23  H   LIG d   1       4.895  -2.980 -10.113  0.00  0.00     0.142 HD
ENDBRANCH  10  21
BRANCH  11  24
ATOM     24  O   LIG d   1       2.603  -0.073 -10.092  0.00  0.00    -0.505 OA
ATOM     25  H   LIG d   1       3.058   0.790 -10.601  0.00  0.00     0.292 HD
ENDBRANCH  11  24
TORSDOF 2
ENDMDL
MODEL 3
REMARK VINA RESULT:      -5.8      4.596      5.322
REMARK  2 active torsions:
REMARK  status: ('A' for Active; 'I' for Inactive)
REMARK    1  A    between atoms: C_10  and  N_16 
REMARK    2  A    between atoms: C_11  and  O_15 
ROOT
ATOM      1  C   LIG d   1       4.115  -0.154  -1.768  0.00  0.00    -0.060 A 
ATOM      2  C   LIG d   1       4.468  -1.450  -2.146  0.00  0.00    -0.060 A 
ATOM      3  C   LIG d   1       5.541  -1.694  -2.941  0.00  0.00    -0.034 A 
ATOM      4  C   LIG d   1       6.325  -0.616  -3.404  0.00  0.00     0.090 A 
ATOM      5  C   LIG d   1       5.954   0.747  -3.007  0.00  0.00     0.090 A 
ATOM      6  C   LIG d   1       4.827   0.927  -2.178  0.00  0.00    -0.034 A 
ATOM      7  N   LIG d   1       6.671   1.786  -3.425  0.00  0.00    -0.244 NA
ATOM      8  C   LIG d   1       7.726   1.580  -4.207  0.00  0.00     0.092 A 
ATOM      9  C   LIG d   1       8.508   2.660  -4.666  0.00  0.00    -0.010 A 
ATOM     10  C   LIG d   1       9.585   2.420  -5.466  0.00  0.00     0.069 A 
ATOM     11  C   LIG d   1       9.941   1.112  -5.846  0.00  0.00     0.140 A 
ATOM     12  C   LIG d   1       9.225   0.031  -5.433  0.00  0.00     0.009 A 
ATOM     13  C   LIG d   1       8.098   0.216  -4.604  0.00  0.00     0.093 A 
ATOM     14  N   LIG d   1       7.381  -0.820  -4.185  0.00  0.00    -0.243 NA
ATOM     15  H   LIG d   1       3.253  -0.007  -1.133  0.00  0.00     0.062 H 
ATOM     16  H   LIG d   1       3.873  -2.280  -1.796  0.00  0.00     0.062 H 
ATOM     17  H   LIG d   1       5.790  -2.706  -3.223  0.00  0.00     0.064 H 
ATOM     18  H   LIG d   1       4.532   1.920  -1.871  0.00  0.00     0.064 H 
ATOM     19  H   LIG d   1       8.253   3.672  -4.387  0.00  0.00     0.066 H 
ATOM     20  H   LIG d   1       9.517  -0.963  -5.738  0.00  0.00     0.068 H 
ENDROOT
BRANCH  10  21
ATOM     21  N   LIG d   1      10.351   3.493  -5.916  0.00  0.00    -0.355 N 
ATOM     22  H   LIG d   1       9.859   4.407  -6.280  0.00  0.00     0.142 HD
ATOM     23  H   LIG d   1      11.449   3.426  -5.908  0.00  0.00     0.142 HD
ENDBRANCH  10  21
BRANCH  11  24
ATOM     24  O   LIG d   1      11.023   0.924  -6.645  0.00  0.00    -0.505 OA
ATOM     25  H   LIG d   1      11.589   1.790  -7.018  0.00  0.00     0.292 HD
ENDBRANCH  11  24
TORSDOF 2
ENDMDL
MODEL 4
REMARK VINA RESULT:      -5.8      2.592      5.677
REMARK  2 active torsions:
REMARK  status: ('A' for Active; 'I' for Inactive)
REMARK    1  A    between atoms: C_10  and  N_16 
REMARK    2  A    between atoms: C_11  and  O_15 
ROOT
ATOM      1  C   LIG d   1       4.481   1.122 -10.636  0.00  0.00    -0.060 A 
ATOM      2  C   LIG d   1       3.606   2.133 -10.238  0.00  0.00    -0.060 A 
ATOM      3  C   LIG d   1       3.078   2.169  -8.988  0.00  0.00    -0.034 A 
ATOM      4  C   LIG d   1       3.415   1.161  -8.060  0.00  0.00     0.090 A 
ATOM      5  C   LIG d   1       4.334   0.097  -8.478  0.00  0.00     0.090 A 
ATOM      6  C   LIG d   1       4.847   0.122  -9.792  0.00  0.00    -0.034 A 
ATOM      7  N   LIG d   1       4.673  -0.868  -7.628  0.00  0.00    -0.244 NA
ATOM      8  C   LIG d   1       4.172  -0.863  -6.398  0.00  0.00     0.092 A 
ATOM      9  C   LIG d   1       4.512  -1.871  -5.472  0.00  0.00    -0.010 A 
ATOM     10  C   LIG d   1       3.983  -1.840  -4.217  0.00  0.00     0.069 A 
ATOM     11  C   LIG d   1       3.101  -0.818  -3.816  0.00  0.00     0.140 A 
ATOM     12  C   LIG d   1       2.737   0.181  -4.664  0.00  0.00     0.009 A 
ATOM     13  C   LIG d   1       3.251   0.203  -5.979  0.00  0.00     0.093 A 
ATOM     14  N   LIG d   1       2.914   1.166  -6.828  0.00  0.00    -0.243 NA
ATOM     15  H   LIG d   1       4.877   1.133 -11.641  0.00  0.00     0.062 H 
ATOM     16  H   LIG d   1       3.343   2.908 -10.943  0.00  0.00     0.062 H 
ATOM     17  H   LIG d   1       2.399   2.960  -8.707  0.00  0.00     0.064 H 
ATOM     18  H   LIG d   1       5.525  -0.649 -10.125  0.00  0.00     0.064 H 
ATOM     19  H   LIG d   1       5.186  -2.665  -5.759  0.00  0.00     0.066 H 
ATOM     20  H   LIG d   1       2.058   0.954  -4.335  0.00  0.00     0.068 H 
ENDROOT
BRANCH  10  21
ATOM     21  N   LIG d   1       4.324  -2.841  -3.310  0.00  0.00    -0.355 N 
ATOM     22  H   LIG d   1       5.362  -2.937  -2.960  0.00  0.00     0.142 HD
ATOM     23  H   LIG d   1       3.554  -3.536  -2.943  0.00  0.00     0.142 HD
ENDBRANCH  10  21
BRANCH  11  24
ATOM     24  O   LIG d   1       2.599  -0.831  -2.554  0.00  0.00    -0.505 OA
ATOM     25  H   LIG d   1       1.522  -0.682  -2.388  0.00  0.00     0.292 HD
ENDBRANCH  11  24
TORSDOF 2
ENDMDL
MODEL 5
REMARK VINA RESULT:      -5.7      2.424      5.331
REMARK  2 active torsions:
REMARK  status: ('A' for Active; 'I' for Inactive)
REMARK    1  A    between atoms: C_10  and  N_16 
REMARK    2  A    between atoms: C_11  and  O_15 
ROOT
ATOM      1  C   LIG d   1       3.638   1.788 -10.559  0.00  0.00    -0.060 A 
ATOM      2  C   LIG d   1       4.425   0.701 -10.940  0.00  0.00    -0.060 A 
ATOM      3  C   LIG d   1       4.767  -0.275 -10.062  0.00  0.00    -0.034 A 
ATOM      4  C   LIG d   1       4.320  -0.198  -8.725  0.00  0.00     0.090 A 
ATOM      5  C   LIG d   1       3.492   0.944  -8.324  0.00  0.00     0.090 A 
ATOM      6  C   LIG d   1       3.175   1.923  -9.289  0.00  0.00    -0.034 A 
ATOM      7  N   LIG d   1       3.055   1.048  -7.072  0.00  0.00    -0.244 NA
ATOM      8  C   LIG d   1       3.373   0.109  -6.188  0.00  0.00     0.092 A 
ATOM      9  C   LIG d   1       2.924   0.189  -4.853  0.00  0.00    -0.010 A 
ATOM     10  C   LIG d   1       3.265  -0.789  -3.968  0.00  0.00     0.069 A 
ATOM     11  C   LIG d   1       4.059  -1.886  -4.354  0.00  0.00     0.140 A 
ATOM     12  C   LIG d   1       4.521  -2.017  -5.627  0.00  0.00     0.009 A 
ATOM     13  C   LIG d   1       4.201  -1.036  -6.590  0.00  0.00     0.093 A 
ATOM     14  N   LIG d   1       4.637  -1.138  -7.840  0.00  0.00    -0.243 NA
ATOM     15  H   LIG d   1       3.390   2.542 -11.292  0.00  0.00     0.062 H 
ATOM     16  H   LIG d   1       4.771   0.635 -11.961  0.00  0.00     0.062 H 
ATOM     17  H   LIG d   1       5.381  -1.104 -10.382  0.00  0.00     0.064 H 
ATOM     18  H   LIG d   1       2.567   2.774  -9.020  0.00  0.00     0.064 H 
ATOM     19  H   LIG d   1       2.314   1.022  -4.535  0.00  0.00     0.066 H 
ATOM     20  H   LIG d   1       5.129  -2.867  -5.900  0.00  0.00     0.068 H 
ENDROOT
BRANCH  10  21
ATOM     21  N   LIG d   1       2.818  -0.701  -2.651  0.00  0.00    -0.355 N 
ATOM     22  H   LIG d   1       2.479  -1.605  -2.124  0.00  0.00     0.142 HD
ATOM     23  H   LIG d   1       2.804   0.272  -2.138  0.00  0.00     0.142 HD
ENDBRANCH  10  21
BRANCH  11  24
ATOM     24  O   LIG d   1       4.373  -2.835  -3.434  0.00  0.00    -0.505 OA
ATOM     25  H   LIG d   1       4.313  -2.602  -2.361  0.00  0.00     0.292 HD
ENDBRANCH  11  24
TORSDOF 2
ENDMDL
MODEL 6
REMARK VINA RESULT:      -5.2      3.913      5.808
REMARK  2 active torsions:
REMARK  status: ('A' for Active; 'I' for Inactive)
REMARK    1  A    between atoms: C_10  and  N_16 
REMARK    2  A    between atoms: C_11  and  O_15 
ROOT
ATOM      1  C   LIG d   1       5.639  -6.401  -5.928  0.00  0.00    -0.060 A 
ATOM      2  C   LIG d   1       6.994  -6.069  -5.961  0.00  0.00    -0.060 A 
ATOM      3  C   LIG d   1       7.449  -4.878  -5.496  0.00  0.00    -0.034 A 
ATOM      4  C   LIG d   1       6.535  -3.943  -4.964  0.00  0.00     0.090 A 
ATOM      5  C   LIG d   1       5.110  -4.291  -4.930  0.00  0.00     0.090 A 
ATOM      6  C   LIG d   1       4.708  -5.548  -5.429  0.00  0.00    -0.034 A 
ATOM      7  N   LIG d   1       4.222  -3.433  -4.435  0.00  0.00    -0.244 NA
ATOM      8  C   LIG d   1       4.635  -2.258  -3.974  0.00  0.00     0.092 A 
ATOM      9  C   LIG d   1       3.719  -1.326  -3.442  0.00  0.00    -0.010 A 
ATOM     10  C   LIG d   1       4.171  -0.128  -2.975  0.00  0.00     0.069 A 
ATOM     11  C   LIG d   1       5.538   0.206  -3.009  0.00  0.00     0.140 A 
ATOM     12  C   LIG d   1       6.468  -0.652  -3.509  0.00  0.00     0.009 A 
ATOM     13  C   LIG d   1       6.062  -1.909  -4.008  0.00  0.00     0.093 A 
ATOM     14  N   LIG d   1       6.947  -2.767  -4.502  0.00  0.00    -0.243 NA
ATOM     15  H   LIG d   1       5.323  -7.361  -6.309  0.00  0.00     0.062 H 
ATOM     16  H   LIG d   1       7.700  -6.779  -6.366  0.00  0.00     0.062 H 
ATOM     17  H   LIG d   1       8.502  -4.644  -5.538  0.00  0.00     0.064 H 
ATOM     18  H   LIG d   1       3.665  -5.829  -5.415  0.00  0.00     0.064 H 
ATOM     19  H   LIG d   1       2.665  -1.561  -3.407  0.00  0.00     0.066 H 
ATOM     20  H   LIG d   1       7.512  -0.374  -3.524  0.00  0.00     0.068 H 
ENDROOT
BRANCH  10  21
ATOM     21  N   LIG d   1       3.259   0.786  -2.453  0.00  0.00    -0.355 N 
ATOM     22  H   LIG d   1       2.693   0.540  -1.543  0.00  0.00     0.142 HD
ATOM     23  H   LIG d   1       3.104   1.755  -2.951  0.00  0.00     0.142 HD
ENDBRANCH  10  21
BRANCH  11  24
ATOM     24  O   LIG d   1       5.939   1.412  -2.532  0.00  0.00    -0.505 OA
ATOM     25  H   LIG d   1       5.598   1.755  -1.544  0.00  0.00     0.292 HD
ENDBRANCH  11  24
TORSDOF 2
ENDMDL
MODEL 7
REMARK VINA RESULT:      -5.1     10.705     12.663
REMARK  2 active torsions:
REMARK  status: ('A' for Active; 'I' for Inactive)
REMARK    1  A    between atoms: C_10  and  N_16 
REMARK    2  A    between atoms: C_11  and  O_15 
ROOT
ATOM      1  C   LIG d   1       9.354   8.293  -6.187  0.00  0.00    -0.060 A 
ATOM      2  C   LIG d   1       9.653   9.615  -5.854  0.00  0.00    -0.060 A 
ATOM      3  C   LIG d   1      10.051   9.964  -4.604  0.00  0.00    -0.034 A 
ATOM      4  C   LIG d   1      10.168   8.972  -3.607  0.00  0.00     0.090 A 
ATOM      5  C   LIG d   1       9.853   7.582  -3.957  0.00  0.00     0.090 A 
ATOM      6  C   LIG d   1       9.446   7.290  -5.275  0.00  0.00    -0.034 A 
ATOM      7  N   LIG d   1       9.952   6.622  -3.041  0.00  0.00    -0.244 NA
ATOM      8  C   LIG d   1      10.338   6.931  -1.808  0.00  0.00     0.092 A 
ATOM      9  C   LIG d   1      10.454   5.937  -0.815  0.00  0.00    -0.010 A 
ATOM     10  C   LIG d   1      10.852   6.282   0.442  0.00  0.00     0.069 A 
ATOM     11  C   LIG d   1      11.154   7.616   0.776  0.00  0.00     0.140 A 
ATOM     12  C   LIG d   1      11.061   8.618  -0.139  0.00  0.00     0.009 A 
ATOM     13  C   LIG d   1      10.654   8.323  -1.458  0.00  0.00     0.093 A 
ATOM     14  N   LIG d   1      10.554   9.280  -2.373  0.00  0.00    -0.243 NA
ATOM     15  H   LIG d   1       9.041   8.062  -7.194  0.00  0.00     0.062 H 
ATOM     16  H   LIG d   1       9.567  10.380  -6.611  0.00  0.00     0.062 H 
ATOM     17  H   LIG d   1      10.272  10.995  -4.371  0.00  0.00     0.064 H 
ATOM     18  H   LIG d   1       9.209   6.276  -5.559  0.00  0.00     0.064 H 
ATOM     19  H   LIG d   1      10.226   4.907  -1.049  0.00  0.00     0.066 H 
ATOM     20  H   LIG d   1      11.298   9.634   0.140  0.00  0.00     0.068 H 
ENDROOT
BRANCH  10  21
ATOM     21  N   LIG d   1      10.963   5.293   1.417  0.00  0.00    -0.355 N 
ATOM     22  H   LIG d   1      10.639   4.266   1.198  0.00  0.00     0.142 HD
ATOM     23  H   LIG d   1      11.375   5.540   2.407  0.00  0.00     0.142 HD
ENDBRANCH  10  21
BRANCH  11  24
ATOM     24  O   LIG d   1      11.546   7.911   2.043  0.00  0.00    -0.505 OA
ATOM     25  H   LIG d   1      10.837   7.808   2.877  0.00  0.00     0.292 HD
ENDBRANCH  11  24
TORSDOF 2
ENDMDL
MODEL 8
REMARK VINA RESULT:      -5.1     10.426     12.321
REMARK  2 active torsions:
REMARK  status: ('A' for Active; 'I' for Inactive)
REMARK    1  A    between atoms: C_10  and  N_16 
REMARK    2  A    between atoms: C_11  and  O_15 
ROOT
ATOM      1  C   LIG d   1       9.254   5.005  -4.752  0.00  0.00    -0.060 A 
ATOM      2  C   LIG d   1       9.618   3.908  -3.970  0.00  0.00    -0.060 A 
ATOM      3  C   LIG d   1      10.083   4.057  -2.704  0.00  0.00    -0.034 A 
ATOM      4  C   LIG d   1      10.207   5.351  -2.154  0.00  0.00     0.090 A 
ATOM      5  C   LIG d   1       9.824   6.505  -2.976  0.00  0.00     0.090 A 
ATOM      6  C   LIG d   1       9.348   6.277  -4.284  0.00  0.00    -0.034 A 
ATOM      7  N   LIG d   1       9.929   7.738  -2.489  0.00  0.00    -0.244 NA
ATOM      8  C   LIG d   1      10.382   7.918  -1.253  0.00  0.00     0.092 A 
ATOM      9  C   LIG d   1      10.504   9.212  -0.707  0.00  0.00    -0.010 A 
ATOM     10  C   LIG d   1      10.971   9.366   0.564  0.00  0.00     0.069 A 
ATOM     11  C   LIG d   1      11.337   8.258   1.352  0.00  0.00     0.140 A 
ATOM     12  C   LIG d   1      11.241   6.986   0.880  0.00  0.00     0.009 A 
ATOM     13  C   LIG d   1      10.764   6.762  -0.430  0.00  0.00     0.093 A 
ATOM     14  N   LIG d   1      10.659   5.531  -0.918  0.00  0.00    -0.243 NA
ATOM     15  H   LIG d   1       8.888   4.840  -5.755  0.00  0.00     0.062 H 
ATOM     16  H   LIG d   1       9.526   2.915  -4.384  0.00  0.00     0.062 H 
ATOM     17  H   LIG d   1      10.362   3.191  -2.122  0.00  0.00     0.064 H 
ATOM     18  H   LIG d   1       9.060   7.109  -4.910  0.00  0.00     0.064 H 
ATOM     19  H   LIG d   1      10.229  10.076  -1.294  0.00  0.00     0.066 H 
ATOM     20  H   LIG d   1      11.528   6.152   1.502  0.00  0.00     0.068 H 
ENDROOT
BRANCH  10  21
ATOM     21  N   LIG d   1      11.089  10.649   1.095  0.00  0.00    -0.355 N 
ATOM     22  H   LIG d   1      11.810  11.359   0.664  0.00  0.00     0.142 HD
ATOM     23  H   LIG d   1      10.461  10.952   1.946  0.00  0.00     0.142 HD
ENDBRANCH  10  21
BRANCH  11  24
ATOM     24  O   LIG d   1      11.798   8.464   2.613  0.00  0.00    -0.505 OA
ATOM     25  H   LIG d   1      12.780   8.066   2.911  0.00  0.00     0.292 HD
ENDBRANCH  11  24
TORSDOF 2
ENDMDL
MODEL 9
REMARK VINA RESULT:      -5.1      4.237      5.414
REMARK  2 active torsions:
REMARK  status: ('A' for Active; 'I' for Inactive)
REMARK    1  A    between atoms: C_10  and  N_16 
REMARK    2  A    between atoms: C_11  and  O_15 
ROOT
ATOM      1  C   LIG d   1       9.612   3.582  -4.782  0.00  0.00    -0.060 A 
ATOM      2  C   LIG d   1       9.571   3.168  -6.114  0.00  0.00    -0.060 A 
ATOM      3  C   LIG d   1       8.752   2.167  -6.526  0.00  0.00    -0.034 A 
ATOM      4  C   LIG d   1       7.915   1.522  -5.590  0.00  0.00     0.090 A 
ATOM      5  C   LIG d   1       7.957   1.957  -4.190  0.00  0.00     0.090 A 
ATOM      6  C   LIG d   1       8.833   3.004  -3.832  0.00  0.00    -0.034 A 
ATOM      7  N   LIG d   1       7.182   1.371  -3.282  0.00  0.00    -0.244 NA
ATOM      8  C   LIG d   1       6.369   0.387  -3.653  0.00  0.00     0.092 A 
ATOM      9  C   LIG d   1       5.534  -0.255  -2.715  0.00  0.00    -0.010 A 
ATOM     10  C   LIG d   1       4.710  -1.260  -3.124  0.00  0.00     0.069 A 
ATOM     11  C   LIG d   1       4.669  -1.677  -4.468  0.00  0.00     0.140 A 
ATOM     12  C   LIG d   1       5.451  -1.095  -5.418  0.00  0.00     0.009 A 
ATOM     13  C   LIG d   1       6.326  -0.048  -5.056  0.00  0.00     0.093 A 
ATOM     14  N   LIG d   1       7.101   0.539  -5.961  0.00  0.00    -0.243 NA
ATOM     15  H   LIG d   1      10.280   4.382  -4.500  0.00  0.00     0.062 H 
ATOM     16  H   LIG d   1      10.209   3.656  -6.836  0.00  0.00     0.062 H 
ATOM     17  H   LIG d   1       8.743   1.863  -7.562  0.00  0.00     0.064 H 
ATOM     18  H   LIG d   1       8.884   3.343  -2.808  0.00  0.00     0.064 H 
ATOM     19  H   LIG d   1       5.550   0.048  -1.678  0.00  0.00     0.066 H 
ATOM     20  H   LIG d   1       5.403  -1.432  -6.443  0.00  0.00     0.068 H 
ENDROOT
BRANCH  10  21
ATOM     21  N   LIG d   1       3.889  -1.889  -2.190  0.00  0.00    -0.355 N 
ATOM     22  H   LIG d   1       4.319  -2.601  -1.471  0.00  0.00     0.142 HD
ATOM     23  H   LIG d   1       2.810  -1.674  -2.173  0.00  0.00     0.142 HD
ENDBRANCH  10  21
BRANCH  11  24
ATOM     24  O   LIG d   1       3.832  -2.684  -4.827  0.00  0.00    -0.505 OA
ATOM     25  H   LIG d   1       3.756  -2.988  -5.881  0.00  0.00     0.292 HD
ENDBRANCH  11  24
TORSDOF 2
ENDMDL
