MODEL 1
REMARK VINA RESULT:      -3.9      0.000      0.000
REMARK  2 active torsions:
REMARK  status: ('A' for Active; 'I' for Inactive)
REMARK    1  A    between atoms: C_3  and  C_6 
REMARK    2  A    between atoms: C_6  and  N_14 
ROOT
ATOM      1  C   LIG d   1       4.634   0.878  -1.788  0.00  0.00    -0.024 A 
ATOM      2  C   LIG d   1       3.364   0.676  -2.377  0.00  0.00    -0.015 A 
ATOM      3  C   LIG d   1       3.560   0.590  -3.704  0.00  0.00     0.149 A 
ATOM      4  O   LIG d   1       4.874   0.722  -3.950  0.00  0.00    -0.463 OA
ATOM      5  C   LIG d   1       5.529   0.903  -2.791  0.00  0.00     0.092 A 
ATOM      6  H   LIG d   1       4.844   0.990  -0.735  0.00  0.00     0.065 H 
ATOM      7  H   LIG d   1       2.419   0.604  -1.859  0.00  0.00     0.065 H 
ATOM      8  H   LIG d   1       6.595   1.041  -2.683  0.00  0.00     0.103 H 
ENDROOT
BRANCH   3   9
ATOM      9  C   LIG d   1       2.487   0.374  -4.742  0.00  0.00     0.024 C 
ATOM     10  H   LIG d   1       1.637   1.019  -4.523  0.00  0.00     0.090 H 
ATOM     11  H   LIG d   1       2.168  -0.668  -4.724  0.00  0.00     0.090 H 
BRANCH   9  12
ATOM     12  N   LIG d   1       3.026   0.724  -6.068  0.00  0.00     0.224 N 
ATOM     13  H   LIG d   1       3.008   1.735  -6.196  0.00  0.00     0.200 HD
ATOM     14  H   LIG d   1       3.983   0.389  -6.156  0.00  0.00     0.200 HD
ATOM     15  H   LIG d   1       2.448   0.284  -6.794  0.00  0.00     0.200 HD
ENDBRANCH   9  12
ENDBRANCH   3   9
TORSDOF 2
ENDMDL
MODEL 2
REMARK VINA RESULT:      -3.8      1.834      1.968
REMARK  2 active torsions:
REMARK  status: ('A' for Active; 'I' for Inactive)
REMARK    1  A    between atoms: C_3  and  C_6 
REMARK    2  A    between atoms: C_6  and  N_14 
ROOT
ATOM      1  C   LIG d   1       4.293  -1.020  -1.821  0.00  0.00    -0.024 A 
ATOM      2  C   LIG d   1       3.767   0.081  -2.535  0.00  0.00    -0.015 A 
ATOM      3  C   LIG d   1       3.129  -0.419  -3.608  0.00  0.00     0.149 A 
ATOM      4  O   LIG d   1       3.235  -1.758  -3.579  0.00  0.00    -0.463 OA
ATOM      5  C   LIG d   1       3.945  -2.127  -2.500  0.00  0.00     0.092 A 
ATOM      6  H   LIG d   1       4.863  -0.980  -0.905  0.00  0.00     0.065 H 
ATOM      7  H   LIG d   1       3.859   1.124  -2.268  0.00  0.00     0.065 H 
ATOM      8  H   LIG d   1       4.191  -3.142  -2.223  0.00  0.00     0.103 H 
ENDROOT
BRANCH   3   9
ATOM      9  C   LIG d   1       2.411   0.385  -4.661  0.00  0.00     0.024 C 
ATOM     10  H   LIG d   1       2.744   1.422  -4.615  0.00  0.00     0.090 H 
ATOM     11  H   LIG d   1       1.337   0.341  -4.484  0.00  0.00     0.090 H 
BRANCH   9  12
ATOM     12  N   LIG d   1       2.737  -0.164  -5.989  0.00  0.00     0.224 N 
ATOM     13  H   LIG d   1       3.393   0.449  -6.469  0.00  0.00     0.200 HD
ATOM     14  H   LIG d   1       3.148  -1.091  -5.892  0.00  0.00     0.200 HD
ATOM     15  H   LIG d   1       1.876  -0.236  -6.546  0.00  0.00     0.200 HD
ENDBRANCH   9  12
ENDBRANCH   3   9
TORSDOF 2
ENDMDL
MODEL 3
REMARK VINA RESULT:      -3.8      2.146      2.455
REMARK  2 active torsions:
REMARK  status: ('A' for Active; 'I' for Inactive)
REMARK    1  A    between atoms: C_3  and  C_6 
REMARK    2  A    between atoms: C_6  and  N_14 
ROOT
ATOM      1  C   LIG d   1       4.337   1.261  -1.849  0.00  0.00    -0.024 A 
ATOM      2  C   LIG d   1       4.615  -0.113  -1.661  0.00  0.00    -0.015 A 
ATOM      3  C   LIG d   1       3.907  -0.784  -2.586  0.00  0.00     0.149 A 
ATOM      4  O   LIG d   1       3.222   0.105  -3.324  0.00  0.00    -0.463 OA
ATOM      5  C   LIG d   1       3.474   1.346  -2.877  0.00  0.00     0.092 A 
ATOM      6  H   LIG d   1       4.740   2.083  -1.277  0.00  0.00     0.065 H 
ATOM      7  H   LIG d   1       5.272  -0.540  -0.917  0.00  0.00     0.065 H 
ATOM      8  H   LIG d   1       3.059   2.259  -3.279  0.00  0.00     0.103 H 
ENDROOT
BRANCH   3   9
ATOM      9  C   LIG d   1       3.888  -2.280  -2.768  0.00  0.00     0.024 C 
ATOM     10  H   LIG d   1       2.986  -2.690  -2.314  0.00  0.00     0.090 H 
ATOM     11  H   LIG d   1       4.766  -2.716  -2.291  0.00  0.00     0.090 H 
BRANCH   9  12
ATOM     12  N   LIG d   1       3.880  -2.588  -4.209  0.00  0.00     0.224 N 
ATOM     13  H   LIG d   1       4.661  -3.200  -4.440  0.00  0.00     0.200 HD
ATOM     14  H   LIG d   1       3.006  -3.043  -4.464  0.00  0.00     0.200 HD
ATOM     15  H   LIG d   1       3.970  -1.714  -4.742  0.00  0.00     0.200 HD
ENDBRANCH   9  12
ENDBRANCH   3   9
TORSDOF 2
ENDMDL
MODEL 4
REMARK VINA RESULT:      -3.6      2.280      2.761
REMARK  2 active torsions:
REMARK  status: ('A' for Active; 'I' for Inactive)
REMARK    1  A    between atoms: C_3  and  C_6 
REMARK    2  A    between atoms: C_6  and  N_14 
ROOT
ATOM      1  C   LIG d   1       4.017  -2.307  -2.571  0.00  0.00    -0.024 A 
ATOM      2  C   LIG d   1       4.262  -1.083  -1.908  0.00  0.00    -0.015 A 
ATOM      3  C   LIG d   1       4.555  -0.177  -2.857  0.00  0.00     0.149 A 
ATOM      4  O   LIG d   1       4.496  -0.782  -4.055  0.00  0.00    -0.463 OA
ATOM      5  C   LIG d   1       4.175  -2.076  -3.887  0.00  0.00     0.092 A 
ATOM      6  H   LIG d   1       3.752  -3.247  -2.110  0.00  0.00     0.065 H 
ATOM      7  H   LIG d   1       4.221  -0.909  -0.842  0.00  0.00     0.065 H 
ATOM      8  H   LIG d   1       4.060  -2.806  -4.675  0.00  0.00     0.103 H 
ENDROOT
BRANCH   3   9
ATOM      9  C   LIG d   1       4.888   1.274  -2.620  0.00  0.00     0.024 C 
ATOM     10  H   LIG d   1       5.867   1.496  -3.046  0.00  0.00     0.090 H 
ATOM     11  H   LIG d   1       4.905   1.473  -1.548  0.00  0.00     0.090 H 
BRANCH   9  12
ATOM     12  N   LIG d   1       3.876   2.114  -3.284  0.00  0.00     0.224 N 
ATOM     13  H   LIG d   1       3.181   1.526  -3.742  0.00  0.00     0.200 HD
ATOM     14  H   LIG d   1       3.416   2.713  -2.601  0.00  0.00     0.200 HD
ATOM     15  H   LIG d   1       4.335   2.702  -3.990  0.00  0.00     0.200 HD
ENDBRANCH   9  12
ENDBRANCH   3   9
TORSDOF 2
ENDMDL
MODEL 5
REMARK VINA RESULT:      -3.5      2.763      3.267
REMARK  2 active torsions:
REMARK  status: ('A' for Active; 'I' for Inactive)
REMARK    1  A    between atoms: C_3  and  C_6 
REMARK    2  A    between atoms: C_6  and  N_14 
ROOT
ATOM      1  C   LIG d   1       4.308  -0.332  -1.950  0.00  0.00    -0.024 A 
ATOM      2  C   LIG d   1       5.320  -0.721  -2.859  0.00  0.00    -0.015 A 
ATOM      3  C   LIG d   1       6.065   0.371  -3.104  0.00  0.00     0.149 A 
ATOM      4  O   LIG d   1       5.565   1.395  -2.392  0.00  0.00    -0.463 OA
ATOM      5  C   LIG d   1       4.496   0.975  -1.695  0.00  0.00     0.092 A 
ATOM      6  H   LIG d   1       3.535  -0.964  -1.540  0.00  0.00     0.065 H 
ATOM      7  H   LIG d   1       5.467  -1.707  -3.275  0.00  0.00     0.065 H 
ATOM      8  H   LIG d   1       3.892   1.583  -1.037  0.00  0.00     0.103 H 
ENDROOT
BRANCH   3   9
ATOM      9  C   LIG d   1       7.262   0.436  -4.017  0.00  0.00     0.024 C 
ATOM     10  H   LIG d   1       7.931   1.228  -3.682  0.00  0.00     0.090 H 
ATOM     11  H   LIG d   1       6.933   0.644  -5.035  0.00  0.00     0.090 H 
BRANCH   9  12
ATOM     12  N   LIG d   1       7.978  -0.851  -3.961  0.00  0.00     0.224 N 
ATOM     13  H   LIG d   1       8.939  -0.730  -4.277  0.00  0.00     0.200 HD
ATOM     14  H   LIG d   1       7.978  -1.210  -3.009  0.00  0.00     0.200 HD
ATOM     15  H   LIG d   1       7.507  -1.527  -4.574  0.00  0.00     0.200 HD
ENDBRANCH   9  12
ENDBRANCH   3   9
TORSDOF 2
ENDMDL
MODEL 6
REMARK VINA RESULT:      -3.3      2.706      3.298
REMARK  2 active torsions:
REMARK  status: ('A' for Active; 'I' for Inactive)
REMARK    1  A    between atoms: C_3  and  C_6 
REMARK    2  A    between atoms: C_6  and  N_14 
ROOT
ATOM      1  C   LIG d   1       2.726  -0.883  -2.923  0.00  0.00    -0.024 A 
ATOM      2  C   LIG d   1       3.810  -1.744  -2.634  0.00  0.00    -0.015 A 
ATOM      3  C   LIG d   1       4.891  -1.229  -3.245  0.00  0.00     0.149 A 
ATOM      4  O   LIG d   1       4.524  -0.104  -3.881  0.00  0.00    -0.463 OA
ATOM      5  C   LIG d   1       3.211   0.107  -3.694  0.00  0.00     0.092 A 
ATOM      6  H   LIG d   1       1.706  -0.997  -2.589  0.00  0.00     0.065 H 
ATOM      7  H   LIG d   1       3.775  -2.643  -2.035  0.00  0.00     0.065 H 
ATOM      8  H   LIG d   1       2.642   0.935  -4.091  0.00  0.00     0.103 H 
ENDROOT
BRANCH   3   9
ATOM      9  C   LIG d   1       6.281  -1.811  -3.216  0.00  0.00     0.024 C 
ATOM     10  H   LIG d   1       6.410  -2.483  -4.064  0.00  0.00     0.090 H 
ATOM     11  H   LIG d   1       6.425  -2.364  -2.288  0.00  0.00     0.090 H 
BRANCH   9  12
ATOM     12  N   LIG d   1       7.262  -0.716  -3.319  0.00  0.00     0.224 N 
ATOM     13  H   LIG d   1       6.820   0.112  -3.715  0.00  0.00     0.200 HD
ATOM     14  H   LIG d   1       7.636  -0.494  -2.399  0.00  0.00     0.200 HD
ATOM     15  H   LIG d   1       8.032  -1.009  -3.932  0.00  0.00     0.200 HD
ENDBRANCH   9  12
ENDBRANCH   3   9
TORSDOF 2
ENDMDL
MODEL 7
REMARK VINA RESULT:      -3.1      1.689      2.360
REMARK  2 active torsions:
REMARK  status: ('A' for Active; 'I' for Inactive)
REMARK    1  A    between atoms: C_3  and  C_6 
REMARK    2  A    between atoms: C_6  and  N_14 
ROOT
ATOM      1  C   LIG d   1       4.268   1.008  -1.937  0.00  0.00    -0.024 A 
ATOM      2  C   LIG d   1       5.479   0.765  -2.626  0.00  0.00    -0.015 A 
ATOM      3  C   LIG d   1       5.178  -0.009  -3.683  0.00  0.00     0.149 A 
ATOM      4  O   LIG d   1       3.855  -0.244  -3.675  0.00  0.00    -0.463 OA
ATOM      5  C   LIG d   1       3.299   0.366  -2.615  0.00  0.00     0.092 A 
ATOM      6  H   LIG d   1       4.144   1.596  -1.040  0.00  0.00     0.065 H 
ATOM      7  H   LIG d   1       6.458   1.133  -2.354  0.00  0.00     0.065 H 
ATOM      8  H   LIG d   1       2.251   0.348  -2.354  0.00  0.00     0.103 H 
ENDROOT
BRANCH   3   9
ATOM      9  C   LIG d   1       6.158  -0.523  -4.707  0.00  0.00     0.024 C 
ATOM     10  H   LIG d   1       5.878  -1.535  -5.000  0.00  0.00     0.090 H 
ATOM     11  H   LIG d   1       7.160  -0.532  -4.280  0.00  0.00     0.090 H 
BRANCH   9  12
ATOM     12  N   LIG d   1       6.111   0.348  -5.894  0.00  0.00     0.224 N 
ATOM     13  H   LIG d   1       6.747  -0.002  -6.609  0.00  0.00     0.200 HD
ATOM     14  H   LIG d   1       5.165   0.379  -6.268  0.00  0.00     0.200 HD
ATOM     15  H   LIG d   1       6.397   1.298  -5.627  0.00  0.00     0.200 HD
ENDBRANCH   9  12
ENDBRANCH   3   9
TORSDOF 2
ENDMDL
MODEL 8
REMARK VINA RESULT:      -3.1      1.476      2.113
REMARK  2 active torsions:
REMARK  status: ('A' for Active; 'I' for Inactive)
REMARK    1  A    between atoms: C_3  and  C_6 
REMARK    2  A    between atoms: C_6  and  N_14 
ROOT
ATOM      1  C   LIG d   1       3.063   0.275  -3.491  0.00  0.00    -0.024 A 
ATOM      2  C   LIG d   1       2.339   0.323  -4.704  0.00  0.00    -0.015 A 
ATOM      3  C   LIG d   1       3.232   0.168  -5.697  0.00  0.00     0.149 A 
ATOM      4  O   LIG d   1       4.452   0.024  -5.153  0.00  0.00    -0.463 OA
ATOM      5  C   LIG d   1       4.356   0.094  -3.815  0.00  0.00     0.092 A 
ATOM      6  H   LIG d   1       2.656   0.365  -2.495  0.00  0.00     0.065 H 
ATOM      7  H   LIG d   1       1.272   0.457  -4.812  0.00  0.00     0.065 H 
ATOM      8  H   LIG d   1       5.177   0.014  -3.118  0.00  0.00     0.103 H 
ENDROOT
BRANCH   3   9
ATOM      9  C   LIG d   1       2.918   0.153  -7.172  0.00  0.00     0.024 C 
ATOM     10  H   LIG d   1       1.879  -0.143  -7.317  0.00  0.00     0.090 H 
ATOM     11  H   LIG d   1       3.572  -0.557  -7.676  0.00  0.00     0.090 H 
BRANCH   9  12
ATOM     12  N   LIG d   1       3.110   1.508  -7.717  0.00  0.00     0.224 N 
ATOM     13  H   LIG d   1       2.389   1.713  -8.407  0.00  0.00     0.200 HD
ATOM     14  H   LIG d   1       3.068   2.196  -6.968  0.00  0.00     0.200 HD
ATOM     15  H   LIG d   1       4.031   1.563  -8.169  0.00  0.00     0.200 HD
ENDBRANCH   9  12
ENDBRANCH   3   9
TORSDOF 2
ENDMDL
MODEL 9
REMARK VINA RESULT:      -3.1      3.591      3.995
REMARK  2 active torsions:
REMARK  status: ('A' for Active; 'I' for Inactive)
REMARK    1  A    between atoms: C_3  and  C_6 
REMARK    2  A    between atoms: C_6  and  N_14 
ROOT
ATOM      1  C   LIG d   1       4.194  -0.919  -2.078  0.00  0.00    -0.024 A 
ATOM      2  C   LIG d   1       5.482  -1.016  -2.655  0.00  0.00    -0.015 A 
ATOM      3  C   LIG d   1       5.474  -2.104  -3.445  0.00  0.00     0.149 A 
ATOM      4  O   LIG d   1       4.255  -2.665  -3.383  0.00  0.00    -0.463 OA
ATOM      5  C   LIG d   1       3.477  -1.954  -2.551  0.00  0.00     0.092 A 
ATOM      6  H   LIG d   1       3.852  -0.159  -1.392  0.00  0.00     0.065 H 
ATOM      7  H   LIG d   1       6.312  -0.344  -2.492  0.00  0.00     0.065 H 
ATOM      8  H   LIG d   1       2.447  -2.173  -2.307  0.00  0.00     0.103 H 
ENDROOT
BRANCH   3   9
ATOM      9  C   LIG d   1       6.634  -2.605  -4.267  0.00  0.00     0.024 C 
ATOM     10  H   LIG d   1       6.628  -2.115  -5.240  0.00  0.00     0.090 H 
ATOM     11  H   LIG d   1       6.545  -3.683  -4.402  0.00  0.00     0.090 H 
BRANCH   9  12
ATOM     12  N   LIG d   1       7.892  -2.276  -3.572  0.00  0.00     0.224 N 
ATOM     13  H   LIG d   1       8.685  -2.440  -4.190  0.00  0.00     0.200 HD
ATOM     14  H   LIG d   1       7.885  -1.300  -3.282  0.00  0.00     0.200 HD
ATOM     15  H   LIG d   1       7.985  -2.872  -2.741  0.00  0.00     0.200 HD
ENDBRANCH   9  12
ENDBRANCH   3   9
TORSDOF 2
ENDMDL
MODEL 10
REMARK VINA RESULT:      -3.1      1.867      2.545
REMARK  2 active torsions:
REMARK  status: ('A' for Active; 'I' for Inactive)
REMARK    1  A    between atoms: C_3  and  C_6 
REMARK    2  A    between atoms: C_6  and  N_14 
ROOT
ATOM      1  C   LIG d   1       6.918  -0.683  -3.438  0.00  0.00    -0.024 A 
ATOM      2  C   LIG d   1       5.633  -0.591  -2.856  0.00  0.00    -0.015 A 
ATOM      3  C   LIG d   1       5.273   0.703  -2.909  0.00  0.00     0.149 A 
ATOM      4  O   LIG d   1       6.263   1.396  -3.495  0.00  0.00    -0.463 OA
ATOM      5  C   LIG d   1       7.266   0.561  -3.812  0.00  0.00     0.092 A 
ATOM      6  H   LIG d   1       7.506  -1.581  -3.559  0.00  0.00     0.065 H 
ATOM      7  H   LIG d   1       5.052  -1.405  -2.447  0.00  0.00     0.065 H 
ATOM      8  H   LIG d   1       8.193   0.840  -4.291  0.00  0.00     0.103 H 
ENDROOT
BRANCH   3   9
ATOM      9  C   LIG d   1       3.974   1.279  -2.404  0.00  0.00     0.024 C 
ATOM     10  H   LIG d   1       4.163   1.862  -1.503  0.00  0.00     0.090 H 
ATOM     11  H   LIG d   1       3.282   0.470  -2.175  0.00  0.00     0.090 H 
BRANCH   9  12
ATOM     12  N   LIG d   1       3.408   2.165  -3.437  0.00  0.00     0.224 N 
ATOM     13  H   LIG d   1       3.815   1.946  -4.345  0.00  0.00     0.200 HD
ATOM     14  H   LIG d   1       2.398   2.049  -3.481  0.00  0.00     0.200 HD
ATOM     15  H   LIG d   1       3.623   3.141  -3.200  0.00  0.00     0.200 HD
ENDBRANCH   9  12
ENDBRANCH   3   9
TORSDOF 2
ENDMDL
