MODEL 1
REMARK VINA RESULT:      -7.5      0.000      0.000
REMARK  4 active torsions:
REMARK  status: ('A' for Active; 'I' for Inactive)
REMARK    1  A    between atoms: C_6  and  C_11 
REMARK    2  A    between atoms: C_13  and  C_16 
REMARK    3  A    between atoms: N_25  and  C_26 
REMARK    4  A    between atoms: C_26  and  C_27 
ROOT
ATOM      1  C   LIG d   1       9.875   5.190  -5.272  0.00  0.00     0.096 C 
ATOM      2  H   LIG d   1       9.011   5.552  -5.847  0.00  0.00     0.057 H 
ATOM      3  C   LIG d   1      11.091   4.967  -6.184  0.00  0.00     0.014 C 
ATOM      4  C   LIG d   1      11.581   6.318  -6.639  0.00  0.00     0.042 A 
ATOM      5  C   LIG d   1      11.218   7.480  -6.050  0.00  0.00     0.076 A 
ATOM      6  N   LIG d   1      11.822   8.477  -6.699  0.00  0.00    -0.239 NA
ATOM      7  C   LIG d   1      12.549   7.978  -7.667  0.00  0.00     0.094 A 
ATOM      8  N   LIG d   1      12.421   6.630  -7.659  0.00  0.00    -0.348 N 
ATOM      9  C   LIG d   1      10.286   7.553  -4.866  0.00  0.00     0.044 C 
ATOM     10  N   LIG d   1      10.197   6.212  -4.265  0.00  0.00    -0.281 N 
ATOM     11  H   LIG d   1      11.880   4.445  -5.622  0.00  0.00     0.035 H 
ATOM     12  H   LIG d   1      10.794   4.358  -7.049  0.00  0.00     0.035 H 
ATOM     13  H   LIG d   1      13.075   8.587  -8.261  0.00  0.00     0.103 H 
ATOM     14  H   LIG d   1      10.681   8.271  -4.132  0.00  0.00     0.049 H 
ATOM     15  H   LIG d   1       9.291   7.883  -5.202  0.00  0.00     0.049 H 
ATOM     16  H   LIG d   1      12.848   5.832  -8.284  0.00  0.00     0.167 HD
ENDROOT
BRANCH   1  17
ATOM     17  C   LIG d   1       9.523   3.898  -4.581  0.00  0.00     0.245 A 
ATOM     18  N   LIG d   1       8.415   3.216  -4.726  0.00  0.00    -0.190 NA
ATOM     19  C   LIG d   1       8.542   2.139  -3.918  0.00  0.00     0.202 A 
ATOM     20  N   LIG d   1       9.707   2.233  -3.331  0.00  0.00    -0.056 NA
ATOM     21  O   LIG d   1      10.282   3.233  -3.705  0.00  0.00    -0.336 OA
BRANCH  19  22
ATOM     22  C   LIG d   1       7.544   1.058  -3.728  0.00  0.00     0.023 A 
ATOM     23  C   LIG d   1       6.292   1.362  -3.227  0.00  0.00    -0.043 A 
ATOM     24  C   LIG d   1       5.352   0.335  -3.049  0.00  0.00    -0.017 A 
ATOM     25  H   LIG d   1       6.039   2.382  -2.974  0.00  0.00     0.063 H 
ATOM     26  C   LIG d   1       4.068   0.605  -2.542  0.00  0.00    -0.054 A 
ATOM     27  C   LIG d   1       5.701  -0.997  -3.385  0.00  0.00    -0.018 A 
ATOM     28  C   LIG d   1       3.180  -0.413  -2.382  0.00  0.00    -0.061 A 
ATOM     29  H   LIG d   1       3.788   1.616  -2.282  0.00  0.00     0.062 H 
ATOM     30  C   LIG d   1       3.523  -1.723  -2.713  0.00  0.00    -0.061 A 
ATOM     31  H   LIG d   1       2.194  -0.204  -1.993  0.00  0.00     0.062 H 
ATOM     32  C   LIG d   1       4.756  -2.021  -3.206  0.00  0.00    -0.054 A 
ATOM     33  H   LIG d   1       2.799  -2.513  -2.576  0.00  0.00     0.062 H 
ATOM     34  H   LIG d   1       5.008  -3.041  -3.457  0.00  0.00     0.062 H 
ATOM     35  C   LIG d   1       6.981  -1.272  -3.898  0.00  0.00    -0.053 A 
ATOM     36  C   LIG d   1       7.878  -0.265  -4.057  0.00  0.00    -0.050 A 
ATOM     37  H   LIG d   1       7.253  -2.284  -4.160  0.00  0.00     0.062 H 
ATOM     38  H   LIG d   1       8.862  -0.484  -4.448  0.00  0.00     0.062 H 
ENDBRANCH  19  22
ENDBRANCH   1  17
BRANCH  10  39
ATOM     39  C   LIG d   1       9.223   6.191  -3.165  0.00  0.00     0.031 C 
ATOM     40  H   LIG d   1       8.465   6.971  -3.333  0.00  0.00     0.048 H 
ATOM     41  H   LIG d   1       8.733   5.207  -3.127  0.00  0.00     0.048 H 
BRANCH  39  42
ATOM     42  C   LIG d   1       9.931   6.452  -1.862  0.00  0.00     0.004 A 
ATOM     43  S   LIG d   1       9.994   7.952  -0.896  0.00  0.00    -0.100 SA
ATOM     44  C   LIG d   1      11.021   7.352   0.436  0.00  0.00    -0.024 A 
ATOM     45  C   LIG d   1      11.244   6.069   0.061  0.00  0.00    -0.054 A 
ATOM     46  H   LIG d   1      11.373   7.876   1.312  0.00  0.00     0.069 H 
ATOM     47  C   LIG d   1      10.681   5.606  -1.113  0.00  0.00    -0.050 A 
ATOM     48  H   LIG d   1      11.849   5.417   0.673  0.00  0.00     0.062 H 
ATOM     49  H   LIG d   1      10.838   4.586  -1.431  0.00  0.00     0.063 H 
ENDBRANCH  39  42
ENDBRANCH  10  39
TORSDOF 4
ENDMDL
MODEL 2
REMARK VINA RESULT:      -7.5      1.990      3.786
REMARK  4 active torsions:
REMARK  status: ('A' for Active; 'I' for Inactive)
REMARK    1  A    between atoms: C_6  and  C_11 
REMARK    2  A    between atoms: C_13  and  C_16 
REMARK    3  A    between atoms: N_25  and  C_26 
REMARK    4  A    between atoms: C_26  and  C_27 
ROOT
ATOM      1  C   LIG d   1      10.571   4.963  -3.344  0.00  0.00     0.096 C 
ATOM      2  H   LIG d   1      11.411   5.216  -4.006  0.00  0.00     0.057 H 
ATOM      3  C   LIG d   1      11.063   4.630  -1.928  0.00  0.00     0.014 C 
ATOM      4  C   LIG d   1      11.562   5.906  -1.300  0.00  0.00     0.042 A 
ATOM      5  C   LIG d   1      11.280   7.137  -1.786  0.00  0.00     0.076 A 
ATOM      6  N   LIG d   1      11.877   8.036  -1.003  0.00  0.00    -0.239 NA
ATOM      7  C   LIG d   1      12.518   7.412  -0.047  0.00  0.00     0.094 A 
ATOM      8  N   LIG d   1      12.343   6.078  -0.203  0.00  0.00    -0.348 N 
ATOM      9  C   LIG d   1      10.427   7.368  -3.009  0.00  0.00     0.044 C 
ATOM     10  N   LIG d   1       9.680   6.132  -3.292  0.00  0.00    -0.281 N 
ATOM     11  H   LIG d   1      10.233   4.215  -1.339  0.00  0.00     0.035 H 
ATOM     12  H   LIG d   1      11.876   3.892  -1.987  0.00  0.00     0.035 H 
ATOM     13  H   LIG d   1      13.027   7.934   0.637  0.00  0.00     0.103 H 
ATOM     14  H   LIG d   1       9.728   8.196  -2.817  0.00  0.00     0.049 H 
ATOM     15  H   LIG d   1      11.072   7.624  -3.863  0.00  0.00     0.049 H 
ATOM     16  H   LIG d   1      12.697   5.203   0.363  0.00  0.00     0.167 HD
ENDROOT
BRANCH   1  17
ATOM     17  C   LIG d   1       9.819   3.784  -3.904  0.00  0.00     0.245 A 
ATOM     18  N   LIG d   1       8.992   3.007  -3.249  0.00  0.00    -0.190 NA
ATOM     19  C   LIG d   1       8.561   2.094  -4.149  0.00  0.00     0.202 A 
ATOM     20  N   LIG d   1       9.151   2.363  -5.284  0.00  0.00    -0.056 NA
ATOM     21  O   LIG d   1       9.870   3.332  -5.160  0.00  0.00    -0.336 OA
BRANCH  19  22
ATOM     22  C   LIG d   1       7.604   0.989  -3.893  0.00  0.00     0.023 A 
ATOM     23  C   LIG d   1       6.385   1.263  -3.303  0.00  0.00    -0.043 A 
ATOM     24  C   LIG d   1       5.483   0.214  -3.064  0.00  0.00    -0.017 A 
ATOM     25  H   LIG d   1       6.127   2.276  -3.030  0.00  0.00     0.063 H 
ATOM     26  C   LIG d   1       4.232   0.453  -2.467  0.00  0.00    -0.054 A 
ATOM     27  C   LIG d   1       5.838  -1.109  -3.429  0.00  0.00    -0.018 A 
ATOM     28  C   LIG d   1       3.381  -0.586  -2.248  0.00  0.00    -0.061 A 
ATOM     29  H   LIG d   1       3.948   1.456  -2.184  0.00  0.00     0.062 H 
ATOM     30  C   LIG d   1       3.730  -1.887  -2.607  0.00  0.00    -0.061 A 
ATOM     31  H   LIG d   1       2.420  -0.400  -1.790  0.00  0.00     0.062 H 
ATOM     32  C   LIG d   1       4.932  -2.155  -3.187  0.00  0.00    -0.054 A 
ATOM     33  H   LIG d   1       3.036  -2.693  -2.423  0.00  0.00     0.062 H 
ATOM     34  H   LIG d   1       5.189  -3.169  -3.459  0.00  0.00     0.062 H 
ATOM     35  C   LIG d   1       7.085  -1.353  -4.031  0.00  0.00    -0.053 A 
ATOM     36  C   LIG d   1       7.945  -0.325  -4.250  0.00  0.00    -0.050 A 
ATOM     37  H   LIG d   1       7.360  -2.358  -4.316  0.00  0.00     0.062 H 
ATOM     38  H   LIG d   1       8.903  -0.521  -4.709  0.00  0.00     0.062 H 
ENDBRANCH  19  22
ENDBRANCH   1  17
BRANCH  10  39
ATOM     39  C   LIG d   1       8.905   6.258  -4.534  0.00  0.00     0.031 C 
ATOM     40  H   LIG d   1       8.775   5.264  -4.987  0.00  0.00     0.048 H 
ATOM     41  H   LIG d   1       7.918   6.689  -4.309  0.00  0.00     0.048 H 
BRANCH  39  42
ATOM     42  C   LIG d   1       9.638   7.156  -5.495  0.00  0.00     0.004 A 
ATOM     43  S   LIG d   1      11.124   6.828  -6.429  0.00  0.00    -0.100 SA
ATOM     44  C   LIG d   1      11.248   8.401  -7.265  0.00  0.00    -0.024 A 
ATOM     45  C   LIG d   1      10.166   9.060  -6.784  0.00  0.00    -0.054 A 
ATOM     46  H   LIG d   1      11.993   8.740  -7.970  0.00  0.00     0.069 H 
ATOM     47  C   LIG d   1       9.337   8.420  -5.881  0.00  0.00    -0.050 A 
ATOM     48  H   LIG d   1       9.952  10.069  -7.104  0.00  0.00     0.062 H 
ATOM     49  H   LIG d   1       8.465   8.921  -5.487  0.00  0.00     0.063 H 
ENDBRANCH  39  42
ENDBRANCH  10  39
TORSDOF 4
ENDMDL
MODEL 3
REMARK VINA RESULT:      -7.4      4.085      8.597
REMARK  4 active torsions:
REMARK  status: ('A' for Active; 'I' for Inactive)
REMARK    1  A    between atoms: C_6  and  C_11 
REMARK    2  A    between atoms: C_13  and  C_16 
REMARK    3  A    between atoms: N_25  and  C_26 
REMARK    4  A    between atoms: C_26  and  C_27 
ROOT
ATOM      1  C   LIG d   1       6.167  -0.247  -7.575  0.00  0.00     0.096 C 
ATOM      2  H   LIG d   1       6.486  -1.063  -8.240  0.00  0.00     0.057 H 
ATOM      3  C   LIG d   1       5.440   0.854  -8.361  0.00  0.00     0.014 C 
ATOM      4  C   LIG d   1       4.112   0.300  -8.811  0.00  0.00     0.042 A 
ATOM      5  C   LIG d   1       3.559  -0.822  -8.297  0.00  0.00     0.076 A 
ATOM      6  N   LIG d   1       2.396  -1.029  -8.918  0.00  0.00    -0.239 NA
ATOM      7  C   LIG d   1       2.205  -0.079  -9.797  0.00  0.00     0.094 A 
ATOM      8  N   LIG d   1       3.259   0.770  -9.757  0.00  0.00    -0.348 N 
ATOM      9  C   LIG d   1       4.207  -1.641  -7.208  0.00  0.00     0.044 C 
ATOM     10  N   LIG d   1       5.254  -0.822  -6.575  0.00  0.00    -0.281 N 
ATOM     11  H   LIG d   1       5.287   1.729  -7.712  0.00  0.00     0.035 H 
ATOM     12  H   LIG d   1       6.046   1.145  -9.231  0.00  0.00     0.035 H 
ATOM     13  H   LIG d   1       1.378  -0.077 -10.358  0.00  0.00     0.103 H 
ATOM     14  H   LIG d   1       3.449  -1.926  -6.463  0.00  0.00     0.049 H 
ATOM     15  H   LIG d   1       4.650  -2.548  -7.646  0.00  0.00     0.049 H 
ATOM     16  H   LIG d   1       3.506   1.687 -10.315  0.00  0.00     0.167 HD
ENDROOT
BRANCH   1  17
ATOM     17  C   LIG d   1       7.366   0.343  -6.879  0.00  0.00     0.245 A 
ATOM     18  N   LIG d   1       7.364   1.362  -6.057  0.00  0.00    -0.190 NA
ATOM     19  C   LIG d   1       8.653   1.531  -5.684  0.00  0.00     0.202 A 
ATOM     20  N   LIG d   1       9.356   0.617  -6.302  0.00  0.00    -0.056 NA
ATOM     21  O   LIG d   1       8.631  -0.074  -6.985  0.00  0.00    -0.336 OA
BRANCH  19  22
ATOM     22  C   LIG d   1       9.173   2.564  -4.755  0.00  0.00     0.023 A 
ATOM     23  C   LIG d   1       8.980   3.902  -5.042  0.00  0.00    -0.043 A 
ATOM     24  C   LIG d   1       9.474   4.875  -4.158  0.00  0.00    -0.017 A 
ATOM     25  H   LIG d   1       8.453   4.197  -5.937  0.00  0.00     0.063 H 
ATOM     26  C   LIG d   1       9.297   6.247  -4.416  0.00  0.00    -0.054 A 
ATOM     27  C   LIG d   1      10.164   4.470  -2.988  0.00  0.00    -0.018 A 
ATOM     28  C   LIG d   1       9.789   7.164  -3.540  0.00  0.00    -0.061 A 
ATOM     29  H   LIG d   1       8.774   6.569  -5.304  0.00  0.00     0.062 H 
ATOM     30  C   LIG d   1      10.466   6.766  -2.388  0.00  0.00    -0.061 A 
ATOM     31  H   LIG d   1       9.651   8.217  -3.738  0.00  0.00     0.062 H 
ATOM     32  C   LIG d   1      10.656   5.448  -2.108  0.00  0.00    -0.054 A 
ATOM     33  H   LIG d   1      10.847   7.515  -1.710  0.00  0.00     0.062 H 
ATOM     34  H   LIG d   1      11.185   5.155  -1.212  0.00  0.00     0.062 H 
ATOM     35  C   LIG d   1      10.339   3.100  -2.723  0.00  0.00    -0.053 A 
ATOM     36  C   LIG d   1       9.858   2.174  -3.592  0.00  0.00    -0.050 A 
ATOM     37  H   LIG d   1      10.860   2.785  -1.831  0.00  0.00     0.062 H 
ATOM     38  H   LIG d   1      10.000   1.124  -3.385  0.00  0.00     0.062 H 
ENDBRANCH  19  22
ENDBRANCH   1  17
BRANCH  10  39
ATOM     39  C   LIG d   1       5.995  -1.598  -5.572  0.00  0.00     0.031 C 
ATOM     40  H   LIG d   1       5.989  -2.661  -5.853  0.00  0.00     0.048 H 
ATOM     41  H   LIG d   1       7.034  -1.238  -5.523  0.00  0.00     0.048 H 
BRANCH  39  42
ATOM     42  C   LIG d   1       5.342  -1.431  -4.225  0.00  0.00     0.004 A 
ATOM     43  S   LIG d   1       5.415  -0.043  -3.104  0.00  0.00    -0.100 SA
ATOM     44  C   LIG d   1       4.378  -0.708  -1.811  0.00  0.00    -0.024 A 
ATOM     45  C   LIG d   1       4.051  -1.924  -2.313  0.00  0.00    -0.054 A 
ATOM     46  H   LIG d   1       4.088  -0.259  -0.873  0.00  0.00     0.069 H 
ATOM     47  C   LIG d   1       4.539  -2.292  -3.552  0.00  0.00    -0.050 A 
ATOM     48  H   LIG d   1       3.414  -2.594  -1.754  0.00  0.00     0.062 H 
ATOM     49  H   LIG d   1       4.289  -3.253  -3.977  0.00  0.00     0.063 H 
ENDBRANCH  39  42
ENDBRANCH  10  39
TORSDOF 4
ENDMDL
MODEL 4
REMARK VINA RESULT:      -7.4      2.697      4.316
REMARK  4 active torsions:
REMARK  status: ('A' for Active; 'I' for Inactive)
REMARK    1  A    between atoms: C_6  and  C_11 
REMARK    2  A    between atoms: C_13  and  C_16 
REMARK    3  A    between atoms: N_25  and  C_26 
REMARK    4  A    between atoms: C_26  and  C_27 
ROOT
ATOM      1  C   LIG d   1      10.152   4.944  -5.277  0.00  0.00     0.096 C 
ATOM      2  H   LIG d   1      11.193   5.177  -5.012  0.00  0.00     0.057 H 
ATOM      3  C   LIG d   1       9.196   6.032  -4.768  0.00  0.00     0.014 C 
ATOM      4  C   LIG d   1       9.437   7.277  -5.582  0.00  0.00     0.042 A 
ATOM      5  C   LIG d   1      10.114   7.284  -6.753  0.00  0.00     0.076 A 
ATOM      6  N   LIG d   1      10.150   8.539  -7.201  0.00  0.00    -0.239 NA
ATOM      7  C   LIG d   1       9.519   9.314  -6.355  0.00  0.00     0.094 A 
ATOM      8  N   LIG d   1       9.061   8.558  -5.330  0.00  0.00    -0.348 N 
ATOM      9  C   LIG d   1      10.697   6.040  -7.379  0.00  0.00     0.044 C 
ATOM     10  N   LIG d   1      10.074   4.867  -6.743  0.00  0.00    -0.281 N 
ATOM     11  H   LIG d   1       8.156   5.693  -4.890  0.00  0.00     0.035 H 
ATOM     12  H   LIG d   1       9.395   6.227  -3.705  0.00  0.00     0.035 H 
ATOM     13  H   LIG d   1       9.448  10.295  -6.534  0.00  0.00     0.103 H 
ATOM     14  H   LIG d   1      10.487   6.041  -8.459  0.00  0.00     0.049 H 
ATOM     15  H   LIG d   1      11.785   6.024  -7.217  0.00  0.00     0.049 H 
ATOM     16  H   LIG d   1       8.490   8.794  -4.419  0.00  0.00     0.167 HD
ENDROOT
BRANCH   1  17
ATOM     17  C   LIG d   1       9.761   3.615  -4.684  0.00  0.00     0.245 A 
ATOM     18  N   LIG d   1       8.564   3.083  -4.691  0.00  0.00    -0.190 NA
ATOM     19  C   LIG d   1       8.689   1.898  -4.051  0.00  0.00     0.202 A 
ATOM     20  N   LIG d   1       9.941   1.785  -3.691  0.00  0.00    -0.056 NA
ATOM     21  O   LIG d   1      10.568   2.758  -4.052  0.00  0.00    -0.336 OA
BRANCH  19  22
ATOM     22  C   LIG d   1       7.607   0.915  -3.798  0.00  0.00     0.023 A 
ATOM     23  C   LIG d   1       6.376   1.353  -3.347  0.00  0.00    -0.043 A 
ATOM     24  C   LIG d   1       5.355   0.418  -3.110  0.00  0.00    -0.017 A 
ATOM     25  H   LIG d   1       6.200   2.406  -3.179  0.00  0.00     0.063 H 
ATOM     26  C   LIG d   1       4.090   0.825  -2.651  0.00  0.00    -0.054 A 
ATOM     27  C   LIG d   1       5.604  -0.959  -3.336  0.00  0.00    -0.018 A 
ATOM     28  C   LIG d   1       3.123  -0.106  -2.431  0.00  0.00    -0.061 A 
ATOM     29  H   LIG d   1       3.887   1.871  -2.475  0.00  0.00     0.062 H 
ATOM     30  C   LIG d   1       3.367  -1.460  -2.654  0.00  0.00    -0.061 A 
ATOM     31  H   LIG d   1       2.151   0.208  -2.080  0.00  0.00     0.062 H 
ATOM     32  C   LIG d   1       4.579  -1.890  -3.097  0.00  0.00    -0.054 A 
ATOM     33  H   LIG d   1       2.581  -2.179  -2.471  0.00  0.00     0.062 H 
ATOM     34  H   LIG d   1       4.754  -2.943  -3.264  0.00  0.00     0.062 H 
ATOM     35  C   LIG d   1       6.866  -1.370  -3.801  0.00  0.00    -0.053 A 
ATOM     36  C   LIG d   1       7.841  -0.452  -4.019  0.00  0.00    -0.050 A 
ATOM     37  H   LIG d   1       7.061  -2.418  -3.979  0.00  0.00     0.062 H 
ATOM     38  H   LIG d   1       8.810  -0.775  -4.371  0.00  0.00     0.062 H 
ENDBRANCH  19  22
ENDBRANCH   1  17
BRANCH  10  39
ATOM     39  C   LIG d   1      10.674   3.621  -7.237  0.00  0.00     0.031 C 
ATOM     40  H   LIG d   1      11.455   3.857  -7.975  0.00  0.00     0.048 H 
ATOM     41  H   LIG d   1      11.120   3.069  -6.396  0.00  0.00     0.048 H 
BRANCH  39  42
ATOM     42  C   LIG d   1       9.610   2.774  -7.886  0.00  0.00     0.004 A 
ATOM     43  S   LIG d   1       9.357   1.010  -7.780  0.00  0.00    -0.100 SA
ATOM     44  C   LIG d   1       7.916   0.899  -8.828  0.00  0.00    -0.024 A 
ATOM     45  C   LIG d   1       7.727   2.193  -9.183  0.00  0.00    -0.054 A 
ATOM     46  H   LIG d   1       7.344   0.026  -9.108  0.00  0.00     0.069 H 
ATOM     47  C   LIG d   1       8.591   3.155  -8.695  0.00  0.00    -0.050 A 
ATOM     48  H   LIG d   1       6.910   2.469  -9.834  0.00  0.00     0.062 H 
ATOM     49  H   LIG d   1       8.459   4.194  -8.958  0.00  0.00     0.063 H 
ENDBRANCH  39  42
ENDBRANCH  10  39
TORSDOF 4
ENDMDL
MODEL 5
REMARK VINA RESULT:      -7.3      8.327     12.984
REMARK  4 active torsions:
REMARK  status: ('A' for Active; 'I' for Inactive)
REMARK    1  A    between atoms: C_6  and  C_11 
REMARK    2  A    between atoms: C_13  and  C_16 
REMARK    3  A    between atoms: N_25  and  C_26 
REMARK    4  A    between atoms: C_26  and  C_27 
ROOT
ATOM      1  C   LIG d   1       5.898  -7.397  -7.426  0.00  0.00     0.096 C 
ATOM      2  H   LIG d   1       6.887  -7.081  -7.785  0.00  0.00     0.057 H 
ATOM      3  C   LIG d   1       4.928  -7.616  -8.597  0.00  0.00     0.014 C 
ATOM      4  C   LIG d   1       5.378  -8.844  -9.346  0.00  0.00     0.042 A 
ATOM      5  C   LIG d   1       6.250  -9.747  -8.843  0.00  0.00     0.076 A 
ATOM      6  N   LIG d   1       6.433 -10.698  -9.760  0.00  0.00    -0.239 NA
ATOM      7  C   LIG d   1       5.707 -10.421 -10.814  0.00  0.00     0.094 A 
ATOM      8  N   LIG d   1       5.034  -9.268 -10.589  0.00  0.00    -0.348 N 
ATOM      9  C   LIG d   1       6.864  -9.629  -7.469  0.00  0.00     0.044 C 
ATOM     10  N   LIG d   1       6.075  -8.659  -6.692  0.00  0.00    -0.281 N 
ATOM     11  H   LIG d   1       3.909  -7.759  -8.208  0.00  0.00     0.035 H 
ATOM     12  H   LIG d   1       4.948  -6.738  -9.258  0.00  0.00     0.035 H 
ATOM     13  H   LIG d   1       5.723 -11.032 -11.605  0.00  0.00     0.103 H 
ATOM     14  H   LIG d   1       6.847 -10.612  -6.975  0.00  0.00     0.049 H 
ATOM     15  H   LIG d   1       7.904  -9.283  -7.561  0.00  0.00     0.049 H 
ATOM     16  H   LIG d   1       4.326  -8.682 -11.195  0.00  0.00     0.167 HD
ENDROOT
BRANCH   1  17
ATOM     17  C   LIG d   1       5.335  -6.352  -6.498  0.00  0.00     0.245 A 
ATOM     18  N   LIG d   1       5.924  -5.242  -6.130  0.00  0.00    -0.190 NA
ATOM     19  C   LIG d   1       5.051  -4.625  -5.300  0.00  0.00     0.202 A 
ATOM     20  N   LIG d   1       3.997  -5.393  -5.211  0.00  0.00    -0.056 NA
ATOM     21  O   LIG d   1       4.143  -6.383  -5.895  0.00  0.00    -0.336 OA
BRANCH  19  22
ATOM     22  C   LIG d   1       5.255  -3.324  -4.616  0.00  0.00     0.023 A 
ATOM     23  C   LIG d   1       4.172  -2.659  -4.075  0.00  0.00    -0.043 A 
ATOM     24  C   LIG d   1       4.371  -1.428  -3.428  0.00  0.00    -0.017 A 
ATOM     25  H   LIG d   1       3.181  -3.081  -4.147  0.00  0.00     0.063 H 
ATOM     26  C   LIG d   1       3.294  -0.721  -2.864  0.00  0.00    -0.054 A 
ATOM     27  C   LIG d   1       5.679  -0.888  -3.343  0.00  0.00    -0.018 A 
ATOM     28  C   LIG d   1       3.521   0.469  -2.245  0.00  0.00    -0.061 A 
ATOM     29  H   LIG d   1       2.293  -1.121  -2.922  0.00  0.00     0.062 H 
ATOM     30  C   LIG d   1       4.807   1.000  -2.160  0.00  0.00    -0.061 A 
ATOM     31  H   LIG d   1       2.693   1.010  -1.812  0.00  0.00     0.062 H 
ATOM     32  C   LIG d   1       5.873   0.343  -2.695  0.00  0.00    -0.054 A 
ATOM     33  H   LIG d   1       4.960   1.946  -1.663  0.00  0.00     0.062 H 
ATOM     34  H   LIG d   1       6.864   0.768  -2.622  0.00  0.00     0.062 H 
ATOM     35  C   LIG d   1       6.760  -1.594  -3.900  0.00  0.00    -0.053 A 
ATOM     36  C   LIG d   1       6.547  -2.780  -4.525  0.00  0.00    -0.050 A 
ATOM     37  H   LIG d   1       7.760  -1.190  -3.834  0.00  0.00     0.062 H 
ATOM     38  H   LIG d   1       7.381  -3.314  -4.955  0.00  0.00     0.062 H 
ENDBRANCH  19  22
ENDBRANCH   1  17
BRANCH  10  39
ATOM     39  C   LIG d   1       6.682  -8.421  -5.376  0.00  0.00     0.031 C 
ATOM     40  H   LIG d   1       7.755  -8.658  -5.419  0.00  0.00     0.048 H 
ATOM     41  H   LIG d   1       6.551  -7.365  -5.096  0.00  0.00     0.048 H 
BRANCH  39  42
ATOM     42  C   LIG d   1       6.015  -9.299  -4.349  0.00  0.00     0.004 A 
ATOM     43  S   LIG d   1       6.753 -10.237  -3.021  0.00  0.00    -0.100 SA
ATOM     44  C   LIG d   1       5.257 -10.940  -2.347  0.00  0.00    -0.024 A 
ATOM     45  C   LIG d   1       4.310 -10.421  -3.167  0.00  0.00    -0.054 A 
ATOM     46  H   LIG d   1       5.138 -11.607  -1.506  0.00  0.00     0.069 H 
ATOM     47  C   LIG d   1       4.697  -9.576  -4.189  0.00  0.00    -0.050 A 
ATOM     48  H   LIG d   1       3.267 -10.662  -3.020  0.00  0.00     0.062 H 
ATOM     49  H   LIG d   1       3.962  -9.144  -4.851  0.00  0.00     0.063 H 
ENDBRANCH  39  42
ENDBRANCH  10  39
TORSDOF 4
ENDMDL
MODEL 6
REMARK VINA RESULT:      -7.3      3.291      7.948
REMARK  4 active torsions:
REMARK  status: ('A' for Active; 'I' for Inactive)
REMARK    1  A    between atoms: C_6  and  C_11 
REMARK    2  A    between atoms: C_13  and  C_16 
REMARK    3  A    between atoms: N_25  and  C_26 
REMARK    4  A    between atoms: C_26  and  C_27 
ROOT
ATOM      1  C   LIG d   1       8.315   1.009  -6.386  0.00  0.00     0.096 C 
ATOM      2  H   LIG d   1       8.898   0.148  -6.743  0.00  0.00     0.057 H 
ATOM      3  C   LIG d   1       7.833   1.875  -7.560  0.00  0.00     0.014 C 
ATOM      4  C   LIG d   1       6.783   1.095  -8.308  0.00  0.00     0.042 A 
ATOM      5  C   LIG d   1       6.161   0.005  -7.802  0.00  0.00     0.076 A 
ATOM      6  N   LIG d   1       5.302  -0.441  -8.719  0.00  0.00    -0.239 NA
ATOM      7  C   LIG d   1       5.363   0.330  -9.775  0.00  0.00     0.094 A 
ATOM      8  N   LIG d   1       6.279   1.302  -9.552  0.00  0.00    -0.348 N 
ATOM      9  C   LIG d   1       6.447  -0.547  -6.427  0.00  0.00     0.044 C 
ATOM     10  N   LIG d   1       7.154   0.485  -5.652  0.00  0.00    -0.281 N 
ATOM     11  H   LIG d   1       7.408   2.813  -7.174  0.00  0.00     0.035 H 
ATOM     12  H   LIG d   1       8.681   2.102  -8.221  0.00  0.00     0.035 H 
ATOM     13  H   LIG d   1       4.782   0.141 -10.566  0.00  0.00     0.103 H 
ATOM     14  H   LIG d   1       5.499  -0.808  -5.933  0.00  0.00     0.049 H 
ATOM     15  H   LIG d   1       7.073  -1.448  -6.517  0.00  0.00     0.049 H 
ATOM     16  H   LIG d   1       6.642   2.145 -10.159  0.00  0.00     0.167 HD
ENDROOT
BRANCH   1  17
ATOM     17  C   LIG d   1       9.159   1.846  -5.460  0.00  0.00     0.245 A 
ATOM     18  N   LIG d   1       8.805   2.972  -4.891  0.00  0.00    -0.190 NA
ATOM     19  C   LIG d   1       9.873   3.358  -4.155  0.00  0.00     0.202 A 
ATOM     20  N   LIG d   1      10.804   2.456  -4.324  0.00  0.00    -0.056 NA
ATOM     21  O   LIG d   1      10.407   1.581  -5.064  0.00  0.00    -0.336 OA
BRANCH  19  22
ATOM     22  C   LIG d   1       9.970   4.580  -3.318  0.00  0.00     0.023 A 
ATOM     23  C   LIG d   1      10.536   4.504  -2.060  0.00  0.00    -0.043 A 
ATOM     24  C   LIG d   1      10.625   5.663  -1.273  0.00  0.00    -0.017 A 
ATOM     25  H   LIG d   1      10.907   3.561  -1.685  0.00  0.00     0.063 H 
ATOM     26  C   LIG d   1      11.195   5.626   0.013  0.00  0.00    -0.054 A 
ATOM     27  C   LIG d   1      10.133   6.891  -1.780  0.00  0.00    -0.018 A 
ATOM     28  C   LIG d   1      11.266   6.767   0.750  0.00  0.00    -0.061 A 
ATOM     29  H   LIG d   1      11.574   4.697   0.412  0.00  0.00     0.062 H 
ATOM     30  C   LIG d   1      10.783   7.976   0.250  0.00  0.00    -0.061 A 
ATOM     31  H   LIG d   1      11.705   6.737   1.737  0.00  0.00     0.062 H 
ATOM     32  C   LIG d   1      10.225   8.048  -0.989  0.00  0.00    -0.054 A 
ATOM     33  H   LIG d   1      10.852   8.867   0.856  0.00  0.00     0.062 H 
ATOM     34  H   LIG d   1       9.853   8.992  -1.362  0.00  0.00     0.062 H 
ATOM     35  C   LIG d   1       9.568   6.935  -3.067  0.00  0.00    -0.053 A 
ATOM     36  C   LIG d   1       9.485   5.802  -3.811  0.00  0.00    -0.050 A 
ATOM     37  H   LIG d   1       9.194   7.869  -3.462  0.00  0.00     0.062 H 
ATOM     38  H   LIG d   1       9.046   5.842  -4.797  0.00  0.00     0.062 H 
ENDBRANCH  19  22
ENDBRANCH   1  17
BRANCH  10  39
ATOM     39  C   LIG d   1       7.553  -0.027  -4.334  0.00  0.00     0.031 C 
ATOM     40  H   LIG d   1       7.960  -1.043  -4.444  0.00  0.00     0.048 H 
ATOM     41  H   LIG d   1       8.322   0.631  -3.902  0.00  0.00     0.048 H 
BRANCH  39  42
ATOM     42  C   LIG d   1       6.353  -0.062  -3.425  0.00  0.00     0.004 A 
ATOM     43  S   LIG d   1       5.398  -1.467  -2.876  0.00  0.00    -0.100 SA
ATOM     44  C   LIG d   1       4.218  -0.590  -1.864  0.00  0.00    -0.024 A 
ATOM     45  C   LIG d   1       4.624   0.695  -2.009  0.00  0.00    -0.054 A 
ATOM     46  H   LIG d   1       3.394  -0.982  -1.286  0.00  0.00     0.069 H 
ATOM     47  C   LIG d   1       5.721   0.965  -2.804  0.00  0.00    -0.050 A 
ATOM     48  H   LIG d   1       4.099   1.495  -1.508  0.00  0.00     0.062 H 
ATOM     49  H   LIG d   1       6.069   1.980  -2.932  0.00  0.00     0.063 H 
ENDBRANCH  39  42
ENDBRANCH  10  39
TORSDOF 4
ENDMDL
MODEL 7
REMARK VINA RESULT:      -7.3      2.805      4.633
REMARK  4 active torsions:
REMARK  status: ('A' for Active; 'I' for Inactive)
REMARK    1  A    between atoms: C_6  and  C_11 
REMARK    2  A    between atoms: C_13  and  C_16 
REMARK    3  A    between atoms: N_25  and  C_26 
REMARK    4  A    between atoms: C_26  and  C_27 
ROOT
ATOM      1  C   LIG d   1      10.227   5.366  -5.574  0.00  0.00     0.096 C 
ATOM      2  H   LIG d   1      11.313   5.537  -5.556  0.00  0.00     0.057 H 
ATOM      3  C   LIG d   1       9.517   6.210  -4.506  0.00  0.00     0.014 C 
ATOM      4  C   LIG d   1       9.598   7.655  -4.930  0.00  0.00     0.042 A 
ATOM      5  C   LIG d   1       9.922   8.047  -6.183  0.00  0.00     0.076 A 
ATOM      6  N   LIG d   1       9.907   9.381  -6.213  0.00  0.00    -0.239 NA
ATOM      7  C   LIG d   1       9.584   9.832  -5.028  0.00  0.00     0.094 A 
ATOM      8  N   LIG d   1       9.384   8.780  -4.200  0.00  0.00    -0.348 N 
ATOM      9  C   LIG d   1      10.232   7.081  -7.299  0.00  0.00     0.044 C 
ATOM     10  N   LIG d   1       9.741   5.749  -6.908  0.00  0.00    -0.281 N 
ATOM     11  H   LIG d   1       8.466   5.895  -4.428  0.00  0.00     0.035 H 
ATOM     12  H   LIG d   1      10.015   6.070  -3.536  0.00  0.00     0.035 H 
ATOM     13  H   LIG d   1       9.525  10.817  -4.868  0.00  0.00     0.103 H 
ATOM     14  H   LIG d   1       9.731   7.413  -8.221  0.00  0.00     0.049 H 
ATOM     15  H   LIG d   1      11.319   7.049  -7.465  0.00  0.00     0.049 H 
ATOM     16  H   LIG d   1       9.104   8.702  -3.139  0.00  0.00     0.167 HD
ENDROOT
BRANCH   1  17
ATOM     17  C   LIG d   1       9.937   3.907  -5.335  0.00  0.00     0.245 A 
ATOM     18  N   LIG d   1       8.820   3.403  -4.872  0.00  0.00    -0.190 NA
ATOM     19  C   LIG d   1       9.017   2.065  -4.825  0.00  0.00     0.202 A 
ATOM     20  N   LIG d   1      10.233   1.840  -5.252  0.00  0.00    -0.056 NA
ATOM     21  O   LIG d   1      10.769   2.885  -5.553  0.00  0.00    -0.336 OA
BRANCH  19  22
ATOM     22  C   LIG d   1       8.040   1.047  -4.369  0.00  0.00     0.023 A 
ATOM     23  C   LIG d   1       6.986   1.424  -3.558  0.00  0.00    -0.043 A 
ATOM     24  C   LIG d   1       6.064   0.456  -3.130  0.00  0.00    -0.017 A 
ATOM     25  H   LIG d   1       6.872   2.456  -3.258  0.00  0.00     0.063 H 
ATOM     26  C   LIG d   1       4.978   0.802  -2.305  0.00  0.00    -0.054 A 
ATOM     27  C   LIG d   1       6.229  -0.892  -3.533  0.00  0.00    -0.018 A 
ATOM     28  C   LIG d   1       4.103  -0.161  -1.906  0.00  0.00    -0.061 A 
ATOM     29  H   LIG d   1       4.840   1.826  -1.990  0.00  0.00     0.062 H 
ATOM     30  C   LIG d   1       4.265  -1.487  -2.304  0.00  0.00    -0.061 A 
ATOM     31  H   LIG d   1       3.269   0.107  -1.274  0.00  0.00     0.062 H 
ATOM     32  C   LIG d   1       5.304  -1.857  -3.101  0.00  0.00    -0.054 A 
ATOM     33  H   LIG d   1       3.556  -2.231  -1.973  0.00  0.00     0.062 H 
ATOM     34  H   LIG d   1       5.418  -2.890  -3.400  0.00  0.00     0.062 H 
ATOM     35  C   LIG d   1       7.310  -1.242  -4.363  0.00  0.00    -0.053 A 
ATOM     36  C   LIG d   1       8.194  -0.292  -4.762  0.00  0.00    -0.050 A 
ATOM     37  H   LIG d   1       7.440  -2.268  -4.677  0.00  0.00     0.062 H 
ATOM     38  H   LIG d   1       9.024  -0.569  -5.396  0.00  0.00     0.062 H 
ENDBRANCH  19  22
ENDBRANCH   1  17
BRANCH  10  39
ATOM     39  C   LIG d   1      10.103   4.739  -7.910  0.00  0.00     0.031 C 
ATOM     40  H   LIG d   1      11.154   4.446  -7.772  0.00  0.00     0.048 H 
ATOM     41  H   LIG d   1       9.458   3.855  -7.791  0.00  0.00     0.048 H 
BRANCH  39  42
ATOM     42  C   LIG d   1       9.919   5.312  -9.291  0.00  0.00     0.004 A 
ATOM     43  S   LIG d   1      11.146   5.632 -10.549  0.00  0.00    -0.100 SA
ATOM     44  C   LIG d   1      10.056   6.285 -11.803  0.00  0.00    -0.024 A 
ATOM     45  C   LIG d   1       8.849   6.216 -11.189  0.00  0.00    -0.054 A 
ATOM     46  H   LIG d   1      10.296   6.642 -12.794  0.00  0.00     0.069 H 
ATOM     47  C   LIG d   1       8.778   5.712  -9.904  0.00  0.00    -0.050 A 
ATOM     48  H   LIG d   1       7.956   6.547 -11.699  0.00  0.00     0.062 H 
ATOM     49  H   LIG d   1       7.829   5.642  -9.395  0.00  0.00     0.063 H 
ENDBRANCH  39  42
ENDBRANCH  10  39
TORSDOF 4
ENDMDL
MODEL 8
REMARK VINA RESULT:      -7.1      2.627      3.157
REMARK  4 active torsions:
REMARK  status: ('A' for Active; 'I' for Inactive)
REMARK    1  A    between atoms: C_6  and  C_11 
REMARK    2  A    between atoms: C_13  and  C_16 
REMARK    3  A    between atoms: N_25  and  C_26 
REMARK    4  A    between atoms: C_26  and  C_27 
ROOT
ATOM      1  C   LIG d   1      11.936   3.397  -4.156  0.00  0.00     0.096 C 
ATOM      2  H   LIG d   1      12.233   4.042  -4.995  0.00  0.00     0.057 H 
ATOM      3  C   LIG d   1      12.846   2.165  -4.056  0.00  0.00     0.014 C 
ATOM      4  C   LIG d   1      14.207   2.631  -3.604  0.00  0.00     0.042 A 
ATOM      5  C   LIG d   1      14.436   3.848  -3.060  0.00  0.00     0.076 A 
ATOM      6  N   LIG d   1      15.737   3.936  -2.782  0.00  0.00    -0.239 NA
ATOM      7  C   LIG d   1      16.326   2.820  -3.130  0.00  0.00     0.094 A 
ATOM      8  N   LIG d   1      15.398   1.981  -3.649  0.00  0.00    -0.348 N 
ATOM      9  C   LIG d   1      13.351   4.872  -2.837  0.00  0.00     0.044 C 
ATOM     10  N   LIG d   1      12.048   4.192  -2.924  0.00  0.00    -0.281 N 
ATOM     11  H   LIG d   1      12.426   1.455  -3.328  0.00  0.00     0.035 H 
ATOM     12  H   LIG d   1      12.917   1.680  -5.040  0.00  0.00     0.035 H 
ATOM     13  H   LIG d   1      17.310   2.711  -2.993  0.00  0.00     0.103 H 
ATOM     14  H   LIG d   1      13.474   5.327  -1.843  0.00  0.00     0.049 H 
ATOM     15  H   LIG d   1      13.421   5.654  -3.609  0.00  0.00     0.049 H 
ATOM     16  H   LIG d   1      15.454   0.961  -4.058  0.00  0.00     0.167 HD
ENDROOT
BRANCH   1  17
ATOM     17  C   LIG d   1      10.508   2.952  -4.337  0.00  0.00     0.245 A 
ATOM     18  N   LIG d   1       9.950   1.893  -3.803  0.00  0.00    -0.190 NA
ATOM     19  C   LIG d   1       8.670   1.897  -4.241  0.00  0.00     0.202 A 
ATOM     20  N   LIG d   1       8.530   2.944  -5.012  0.00  0.00    -0.056 NA
ATOM     21  O   LIG d   1       9.572   3.560  -5.072  0.00  0.00    -0.336 OA
BRANCH  19  22
ATOM     22  C   LIG d   1       7.624   0.897  -3.914  0.00  0.00     0.023 A 
ATOM     23  C   LIG d   1       6.406   1.319  -3.416  0.00  0.00    -0.043 A 
ATOM     24  C   LIG d   1       5.420   0.368  -3.108  0.00  0.00    -0.017 A 
ATOM     25  H   LIG d   1       6.213   2.371  -3.267  0.00  0.00     0.063 H 
ATOM     26  C   LIG d   1       4.168   0.758  -2.600  0.00  0.00    -0.054 A 
ATOM     27  C   LIG d   1       5.690  -1.008  -3.310  0.00  0.00    -0.018 A 
ATOM     28  C   LIG d   1       3.234  -0.188  -2.311  0.00  0.00    -0.061 A 
ATOM     29  H   LIG d   1       3.948   1.804  -2.441  0.00  0.00     0.062 H 
ATOM     30  C   LIG d   1       3.499  -1.542  -2.511  0.00  0.00    -0.061 A 
ATOM     31  H   LIG d   1       2.272   0.113  -1.923  0.00  0.00     0.062 H 
ATOM     32  C   LIG d   1       4.700  -1.956  -3.000  0.00  0.00    -0.054 A 
ATOM     33  H   LIG d   1       2.741  -2.273  -2.274  0.00  0.00     0.062 H 
ATOM     34  H   LIG d   1       4.892  -3.009  -3.149  0.00  0.00     0.062 H 
ATOM     35  C   LIG d   1       6.938  -1.404  -3.823  0.00  0.00    -0.053 A 
ATOM     36  C   LIG d   1       7.881  -0.470  -4.110  0.00  0.00    -0.050 A 
ATOM     37  H   LIG d   1       7.150  -2.451  -3.984  0.00  0.00     0.062 H 
ATOM     38  H   LIG d   1       8.839  -0.781  -4.499  0.00  0.00     0.062 H 
ENDBRANCH  19  22
ENDBRANCH   1  17
BRANCH  10  39
ATOM     39  C   LIG d   1      10.943   5.155  -2.817  0.00  0.00     0.031 C 
ATOM     40  H   LIG d   1      11.043   5.916  -3.605  0.00  0.00     0.048 H 
ATOM     41  H   LIG d   1       9.984   4.628  -2.936  0.00  0.00     0.048 H 
BRANCH  39  42
ATOM     42  C   LIG d   1      10.987   5.822  -1.468  0.00  0.00     0.004 A 
ATOM     43  S   LIG d   1      10.973   7.563  -1.072  0.00  0.00    -0.100 SA
ATOM     44  C   LIG d   1      11.045   7.418   0.706  0.00  0.00    -0.024 A 
ATOM     45  C   LIG d   1      11.075   6.074   0.877  0.00  0.00    -0.054 A 
ATOM     46  H   LIG d   1      11.062   8.199   1.452  0.00  0.00     0.069 H 
ATOM     47  C   LIG d   1      11.039   5.255  -0.236  0.00  0.00    -0.050 A 
ATOM     48  H   LIG d   1      11.122   5.649   1.868  0.00  0.00     0.062 H 
ATOM     49  H   LIG d   1      11.055   4.181  -0.128  0.00  0.00     0.063 H 
ENDBRANCH  39  42
ENDBRANCH  10  39
TORSDOF 4
ENDMDL
MODEL 9
REMARK VINA RESULT:      -7.0      8.292     11.878
REMARK  4 active torsions:
REMARK  status: ('A' for Active; 'I' for Inactive)
REMARK    1  A    between atoms: C_6  and  C_11 
REMARK    2  A    between atoms: C_13  and  C_16 
REMARK    3  A    between atoms: N_25  and  C_26 
REMARK    4  A    between atoms: C_26  and  C_27 
ROOT
ATOM      1  C   LIG d   1       2.321  -1.262 -11.507  0.00  0.00     0.096 C 
ATOM      2  H   LIG d   1       2.769  -0.781 -12.388  0.00  0.00     0.057 H 
ATOM      3  C   LIG d   1       0.806  -1.017 -11.455  0.00  0.00     0.014 C 
ATOM      4  C   LIG d   1       0.172  -1.800 -12.576  0.00  0.00     0.042 A 
ATOM      5  C   LIG d   1       0.805  -2.791 -13.244  0.00  0.00     0.076 A 
ATOM      6  N   LIG d   1      -0.032  -3.264 -14.168  0.00  0.00    -0.239 NA
ATOM      7  C   LIG d   1      -1.162  -2.607 -14.099  0.00  0.00     0.094 A 
ATOM      8  N   LIG d   1      -1.070  -1.683 -13.114  0.00  0.00    -0.348 N 
ATOM      9  C   LIG d   1       2.216  -3.228 -12.936  0.00  0.00     0.044 C 
ATOM     10  N   LIG d   1       2.582  -2.705 -11.609  0.00  0.00    -0.281 N 
ATOM     11  H   LIG d   1       0.412  -1.354 -10.485  0.00  0.00     0.035 H 
ATOM     12  H   LIG d   1       0.604   0.056 -11.579  0.00  0.00     0.035 H 
ATOM     13  H   LIG d   1      -1.910  -2.832 -14.723  0.00  0.00     0.103 H 
ATOM     14  H   LIG d   1       2.268  -4.327 -12.937  0.00  0.00     0.049 H 
ATOM     15  H   LIG d   1       2.899  -2.828 -13.701  0.00  0.00     0.049 H 
ATOM     16  H   LIG d   1      -1.770  -0.931 -12.721  0.00  0.00     0.167 HD
ENDROOT
BRANCH   1  17
ATOM     17  C   LIG d   1       2.959  -0.724 -10.253  0.00  0.00     0.245 A 
ATOM     18  N   LIG d   1       2.588  -0.976  -9.022  0.00  0.00    -0.190 NA
ATOM     19  C   LIG d   1       3.443  -0.284  -8.235  0.00  0.00     0.202 A 
ATOM     20  N   LIG d   1       4.270   0.347  -9.027  0.00  0.00    -0.056 NA
ATOM     21  O   LIG d   1       4.009   0.100 -10.185  0.00  0.00    -0.336 OA
BRANCH  19  22
ATOM     22  C   LIG d   1       3.437  -0.242  -6.752  0.00  0.00     0.023 A 
ATOM     23  C   LIG d   1       4.332  -1.020  -6.043  0.00  0.00    -0.043 A 
ATOM     24  C   LIG d   1       4.323  -0.977  -4.639  0.00  0.00    -0.017 A 
ATOM     25  H   LIG d   1       5.033  -1.656  -6.563  0.00  0.00     0.063 H 
ATOM     26  C   LIG d   1       5.218  -1.754  -3.882  0.00  0.00    -0.054 A 
ATOM     27  C   LIG d   1       3.396  -0.137  -3.973  0.00  0.00    -0.018 A 
ATOM     28  C   LIG d   1       5.182  -1.689  -2.524  0.00  0.00    -0.061 A 
ATOM     29  H   LIG d   1       5.930  -2.398  -4.377  0.00  0.00     0.062 H 
ATOM     30  C   LIG d   1       4.271  -0.862  -1.868  0.00  0.00    -0.061 A 
ATOM     31  H   LIG d   1       5.871  -2.286  -1.944  0.00  0.00     0.062 H 
ATOM     32  C   LIG d   1       3.390  -0.097  -2.569  0.00  0.00    -0.054 A 
ATOM     33  H   LIG d   1       4.264  -0.830  -0.789  0.00  0.00     0.062 H 
ATOM     34  H   LIG d   1       2.688   0.538  -2.047  0.00  0.00     0.062 H 
ATOM     35  C   LIG d   1       2.502   0.646  -4.725  0.00  0.00    -0.053 A 
ATOM     36  C   LIG d   1       2.523   0.586  -6.081  0.00  0.00    -0.050 A 
ATOM     37  H   LIG d   1       1.795   1.292  -4.224  0.00  0.00     0.062 H 
ATOM     38  H   LIG d   1       1.831   1.187  -6.653  0.00  0.00     0.062 H 
ENDBRANCH  19  22
ENDBRANCH   1  17
BRANCH  10  39
ATOM     39  C   LIG d   1       3.984  -3.010 -11.292  0.00  0.00     0.031 C 
ATOM     40  H   LIG d   1       4.534  -3.214 -12.222  0.00  0.00     0.048 H 
ATOM     41  H   LIG d   1       4.439  -2.150 -10.778  0.00  0.00     0.048 H 
BRANCH  39  42
ATOM     42  C   LIG d   1       4.045  -4.219 -10.396  0.00  0.00     0.004 A 
ATOM     43  S   LIG d   1       4.949  -5.742 -10.623  0.00  0.00    -0.100 SA
ATOM     44  C   LIG d   1       4.445  -6.561  -9.118  0.00  0.00    -0.024 A 
ATOM     45  C   LIG d   1       3.633  -5.634  -8.553  0.00  0.00    -0.054 A 
ATOM     46  H   LIG d   1       4.715  -7.541  -8.754  0.00  0.00     0.069 H 
ATOM     47  C   LIG d   1       3.433  -4.431  -9.205  0.00  0.00    -0.050 A 
ATOM     48  H   LIG d   1       3.154  -5.830  -7.605  0.00  0.00     0.062 H 
ATOM     49  H   LIG d   1       2.797  -3.673  -8.773  0.00  0.00     0.063 H 
ENDBRANCH  39  42
ENDBRANCH  10  39
TORSDOF 4
ENDMDL
MODEL 10
REMARK VINA RESULT:      -6.9      2.528      3.540
REMARK  4 active torsions:
REMARK  status: ('A' for Active; 'I' for Inactive)
REMARK    1  A    between atoms: C_6  and  C_11 
REMARK    2  A    between atoms: C_13  and  C_16 
REMARK    3  A    between atoms: N_25  and  C_26 
REMARK    4  A    between atoms: C_26  and  C_27 
ROOT
ATOM      1  C   LIG d   1      10.010   5.264  -3.299  0.00  0.00     0.096 C 
ATOM      2  H   LIG d   1       9.796   5.274  -2.220  0.00  0.00     0.057 H 
ATOM      3  C   LIG d   1       9.404   6.491  -3.994  0.00  0.00     0.014 C 
ATOM      4  C   LIG d   1      10.180   7.704  -3.550  0.00  0.00     0.042 A 
ATOM      5  C   LIG d   1      11.387   7.636  -2.944  0.00  0.00     0.076 A 
ATOM      6  N   LIG d   1      11.788   8.881  -2.682  0.00  0.00    -0.239 NA
ATOM      7  C   LIG d   1      10.877   9.721  -3.104  0.00  0.00     0.094 A 
ATOM      8  N   LIG d   1       9.857   9.019  -3.653  0.00  0.00    -0.348 N 
ATOM      9  C   LIG d   1      12.095   6.336  -2.651  0.00  0.00     0.044 C 
ATOM     10  N   LIG d   1      11.471   5.277  -3.462  0.00  0.00    -0.281 N 
ATOM     11  H   LIG d   1       9.478   6.370  -5.085  0.00  0.00     0.035 H 
ATOM     12  H   LIG d   1       8.347   6.590  -3.709  0.00  0.00     0.035 H 
ATOM     13  H   LIG d   1      11.012  10.705  -2.988  0.00  0.00     0.103 H 
ATOM     14  H   LIG d   1      13.160   6.431  -2.909  0.00  0.00     0.049 H 
ATOM     15  H   LIG d   1      11.997   6.098  -1.581  0.00  0.00     0.049 H 
ATOM     16  H   LIG d   1       8.906   9.317  -4.120  0.00  0.00     0.167 HD
ENDROOT
BRANCH   1  17
ATOM     17  C   LIG d   1       9.448   4.009  -3.917  0.00  0.00     0.245 A 
ATOM     18  N   LIG d   1       8.672   3.133  -3.328  0.00  0.00    -0.190 NA
ATOM     19  C   LIG d   1       8.422   2.185  -4.260  0.00  0.00     0.202 A 
ATOM     20  N   LIG d   1       9.059   2.536  -5.347  0.00  0.00    -0.056 NA
ATOM     21  O   LIG d   1       9.646   3.581  -5.167  0.00  0.00    -0.336 OA
BRANCH  19  22
ATOM     22  C   LIG d   1       7.587   0.972  -4.080  0.00  0.00     0.023 A 
ATOM     23  C   LIG d   1       6.450   1.034  -3.297  0.00  0.00    -0.043 A 
ATOM     24  C   LIG d   1       5.663  -0.117  -3.130  0.00  0.00    -0.017 A 
ATOM     25  H   LIG d   1       6.169   1.961  -2.817  0.00  0.00     0.063 H 
ATOM     26  C   LIG d   1       4.499  -0.093  -2.341  0.00  0.00    -0.054 A 
ATOM     27  C   LIG d   1       6.048  -1.323  -3.766  0.00  0.00    -0.018 A 
ATOM     28  C   LIG d   1       3.759  -1.226  -2.199  0.00  0.00    -0.061 A 
ATOM     29  H   LIG d   1       4.195   0.820  -1.850  0.00  0.00     0.062 H 
ATOM     30  C   LIG d   1       4.137  -2.412  -2.826  0.00  0.00    -0.061 A 
ATOM     31  H   LIG d   1       2.865  -1.206  -1.593  0.00  0.00     0.062 H 
ATOM     32  C   LIG d   1       5.257  -2.472  -3.597  0.00  0.00    -0.054 A 
ATOM     33  H   LIG d   1       3.532  -3.297  -2.697  0.00  0.00     0.062 H 
ATOM     34  H   LIG d   1       5.538  -3.399  -4.075  0.00  0.00     0.062 H 
ATOM     35  C   LIG d   1       7.207  -1.351  -4.562  0.00  0.00    -0.053 A 
ATOM     36  C   LIG d   1       7.958  -0.229  -4.706  0.00  0.00    -0.050 A 
ATOM     37  H   LIG d   1       7.504  -2.266  -5.053  0.00  0.00     0.062 H 
ATOM     38  H   LIG d   1       8.850  -0.258  -5.315  0.00  0.00     0.062 H 
ENDBRANCH  19  22
ENDBRANCH   1  17
BRANCH  10  39
ATOM     39  C   LIG d   1      12.047   3.964  -3.147  0.00  0.00     0.031 C 
ATOM     40  H   LIG d   1      12.390   3.955  -2.102  0.00  0.00     0.048 H 
ATOM     41  H   LIG d   1      11.284   3.184  -3.289  0.00  0.00     0.048 H 
BRANCH  39  42
ATOM     42  C   LIG d   1      13.215   3.695  -4.060  0.00  0.00     0.004 A 
ATOM     43  S   LIG d   1      13.235   3.515  -5.837  0.00  0.00    -0.100 SA
ATOM     44  C   LIG d   1      14.986   3.230  -6.041  0.00  0.00    -0.024 A 
ATOM     45  C   LIG d   1      15.431   3.291  -4.762  0.00  0.00    -0.054 A 
ATOM     46  H   LIG d   1      15.545   3.055  -6.948  0.00  0.00     0.069 H 
ATOM     47  C   LIG d   1      14.524   3.535  -3.747  0.00  0.00    -0.050 A 
ATOM     48  H   LIG d   1      16.479   3.155  -4.540  0.00  0.00     0.062 H 
ATOM     49  H   LIG d   1      14.854   3.594  -2.721  0.00  0.00     0.063 H 
ENDBRANCH  39  42
ENDBRANCH  10  39
TORSDOF 4
ENDMDL
