MODEL 1
REMARK VINA RESULT:      -5.2      0.000      0.000
REMARK  3 active torsions:
REMARK  status: ('A' for Active; 'I' for Inactive)
REMARK    1  A    between atoms: CB_1  and  CA_2 
REMARK       I    between atoms: CA_2  and  C_4 
REMARK       I    between atoms: CA_2  and  N_6 
REMARK       I    between atoms: N_6  and  C_7 
REMARK       I    between atoms: C_7  and  CA_9 
REMARK    2  A    between atoms: CA_9  and  CB_11 
REMARK       I    between atoms: CA_9  and  N_24 
REMARK    3  A    between atoms: CB_11  and  CG_12 
ROOT
ATOM      1  CA  ALA d   2       3.137   0.973  -7.806  0.00  0.00     0.060 C 
ATOM      2  HA  ALA d   2       2.439   1.682  -7.360  0.00  0.00     0.056 H 
ATOM      3  C   ALA d   2       4.127   1.717  -8.665  0.00  0.00     0.062 C 
ATOM      4  O   ALA d   2       5.308   1.656  -8.417  0.00  0.00    -0.548 OA
ATOM      5  N   ALA d   2       3.852   0.259  -6.746  0.00  0.00    -0.303 N 
ATOM      6  H   ALA d   2       4.780   0.005  -6.871  0.00  0.00     0.149 HD
ATOM      7  OXT ALA d   2       3.696   2.447  -9.706  0.00  0.00    -0.548 OA
ATOM      8  C   ASP d   1       3.220  -0.048  -5.595  0.00  0.00     0.262 C 
ATOM      9  O   ASP d   1       2.059   0.269  -5.438  0.00  0.00    -0.270 OA
ATOM     10  CA  ASP d   1       3.954  -0.783  -4.505  0.00  0.00     0.058 C 
ATOM     11  HA  ASP d   1       4.587  -1.553  -4.947  0.00  0.00     0.095 H 
ATOM     12  H1  ASP d   1       3.452  -1.963  -2.894  0.00  0.00     0.200 HD
ATOM     13  H2  ASP d   1       2.386  -0.717  -3.172  0.00  0.00     0.200 HD
ATOM     14  N   ASP d   1       2.972  -1.425  -3.613  0.00  0.00     0.228 N 
ATOM     15  H3  ASP d   1       2.378  -2.056  -4.163  0.00  0.00     0.200 HD
ENDROOT
BRANCH  10  16
ATOM     16  CB  ASP d   1       4.824   0.203  -3.721  0.00  0.00     0.038 C 
ATOM     17  HB1 ASP d   1       4.856   1.157  -4.246  0.00  0.00     0.038 H 
ATOM     18  HB2 ASP d   1       5.833  -0.197  -3.629  0.00  0.00     0.038 H 
BRANCH  16  19
ATOM     19  CG  ASP d   1       4.238   0.407  -2.347  0.00  0.00     0.048 C 
ATOM     20  OD1 ASP d   1       4.600  -0.287  -1.427  0.00  0.00    -0.550 OA
ATOM     21  OD2 ASP d   1       3.314   1.359  -2.146  0.00  0.00    -0.550 OA
ENDBRANCH  16  19
ENDBRANCH  10  16
BRANCH   1  22
ATOM     22  CB  ALA d   2       2.366  -0.029  -8.668  0.00  0.00    -0.041 C 
ATOM     23  HB1 ALA d   2       2.957  -0.937  -8.785  0.00  0.00     0.025 H 
ATOM     24  HB2 ALA d   2       1.419  -0.271  -8.185  0.00  0.00     0.025 H 
ATOM     25  HB3 ALA d   2       2.173   0.409  -9.648  0.00  0.00     0.025 H 
ENDBRANCH   1  22
TORSDOF 7
ENDMDL
MODEL 2
REMARK VINA RESULT:      -5.0      1.564      5.538
REMARK  3 active torsions:
REMARK  status: ('A' for Active; 'I' for Inactive)
REMARK    1  A    between atoms: CB_1  and  CA_2 
REMARK       I    between atoms: CA_2  and  C_4 
REMARK       I    between atoms: CA_2  and  N_6 
REMARK       I    between atoms: N_6  and  C_7 
REMARK       I    between atoms: C_7  and  CA_9 
REMARK    2  A    between atoms: CA_9  and  CB_11 
REMARK       I    between atoms: CA_9  and  N_24 
REMARK    3  A    between atoms: CB_11  and  CG_12 
ROOT
ATOM      1  CA  ALA d   2       4.044   0.067  -3.787  0.00  0.00     0.060 C 
ATOM      2  HA  ALA d   2       5.047  -0.266  -4.056  0.00  0.00     0.056 H 
ATOM      3  C   ALA d   2       4.140   1.282  -2.900  0.00  0.00     0.062 C 
ATOM      4  O   ALA d   2       3.639   2.325  -3.248  0.00  0.00    -0.548 OA
ATOM      5  N   ALA d   2       3.300   0.407  -5.002  0.00  0.00    -0.303 N 
ATOM      6  H   ALA d   2       2.666   1.141  -4.994  0.00  0.00     0.149 HD
ATOM      7  OXT ALA d   2       4.783   1.206  -1.725  0.00  0.00    -0.548 OA
ATOM      8  C   ASP d   1       3.498  -0.300  -6.133  0.00  0.00     0.262 C 
ATOM      9  O   ASP d   1       4.292  -1.217  -6.144  0.00  0.00    -0.270 OA
ATOM     10  CA  ASP d   1       2.733   0.050  -7.383  0.00  0.00     0.058 C 
ATOM     11  HA  ASP d   1       1.703   0.298  -7.122  0.00  0.00     0.095 H 
ATOM     12  H1  ASP d   1       2.181  -0.912  -9.118  0.00  0.00     0.200 HD
ATOM     13  H2  ASP d   1       3.685  -1.347  -8.558  0.00  0.00     0.200 HD
ATOM     14  N   ASP d   1       2.730  -1.115  -8.285  0.00  0.00     0.228 N 
ATOM     15  H3  ASP d   1       2.316  -1.918  -7.799  0.00  0.00     0.200 HD
ENDROOT
BRANCH  10  16
ATOM     16  CB  ASP d   1       3.391   1.252  -8.064  0.00  0.00     0.038 C 
ATOM     17  HB1 ASP d   1       4.141   1.681  -7.400  0.00  0.00     0.038 H 
ATOM     18  HB2 ASP d   1       2.632   2.002  -8.289  0.00  0.00     0.038 H 
BRANCH  16  19
ATOM     19  CG  ASP d   1       4.050   0.806  -9.344  0.00  0.00     0.048 C 
ATOM     20  OD1 ASP d   1       5.162   0.333  -9.317  0.00  0.00    -0.550 OA
ATOM     21  OD2 ASP d   1       3.403   0.932 -10.512  0.00  0.00    -0.550 OA
ENDBRANCH  16  19
ENDBRANCH  10  16
BRANCH   1  22
ATOM     22  CB  ALA d   2       3.317  -1.053  -3.040  0.00  0.00    -0.041 C 
ATOM     23  HB1 ALA d   2       2.398  -1.305  -3.568  0.00  0.00     0.025 H 
ATOM     24  HB2 ALA d   2       3.960  -1.931  -2.986  0.00  0.00     0.025 H 
ATOM     25  HB3 ALA d   2       3.075  -0.718  -2.030  0.00  0.00     0.025 H 
ENDBRANCH   1  22
TORSDOF 7
ENDMDL
MODEL 3
REMARK VINA RESULT:      -4.9      3.054      3.890
REMARK  3 active torsions:
REMARK  status: ('A' for Active; 'I' for Inactive)
REMARK    1  A    between atoms: CB_1  and  CA_2 
REMARK       I    between atoms: CA_2  and  C_4 
REMARK       I    between atoms: CA_2  and  N_6 
REMARK       I    between atoms: N_6  and  C_7 
REMARK       I    between atoms: C_7  and  CA_9 
REMARK    2  A    between atoms: CA_9  and  CB_11 
REMARK       I    between atoms: CA_9  and  N_24 
REMARK    3  A    between atoms: CB_11  and  CG_12 
ROOT
ATOM      1  CA  ALA d   2       4.697  -2.491  -6.518  0.00  0.00     0.060 C 
ATOM      2  HA  ALA d   2       5.685  -2.036  -6.589  0.00  0.00     0.056 H 
ATOM      3  C   ALA d   2       4.841  -3.977  -6.317  0.00  0.00     0.062 C 
ATOM      4  O   ALA d   2       4.387  -4.501  -5.327  0.00  0.00    -0.548 OA
ATOM      5  N   ALA d   2       3.974  -1.913  -5.383  0.00  0.00    -0.303 N 
ATOM      6  H   ALA d   2       3.371  -2.464  -4.860  0.00  0.00     0.149 HD
ATOM      7  OXT ALA d   2       5.475  -4.721  -7.238  0.00  0.00    -0.548 OA
ATOM      8  C   ASP d   1       4.146  -0.614  -5.065  0.00  0.00     0.262 C 
ATOM      9  O   ASP d   1       4.899   0.076  -5.719  0.00  0.00    -0.270 OA
ATOM     10  CA  ASP d   1       3.402  -0.020  -3.898  0.00  0.00     0.058 C 
ATOM     11  HA  ASP d   1       2.383  -0.408  -3.879  0.00  0.00     0.095 H 
ATOM     12  H1  ASP d   1       2.816   1.861  -3.297  0.00  0.00     0.200 HD
ATOM     13  H2  ASP d   1       4.298   1.828  -4.052  0.00  0.00     0.200 HD
ATOM     14  N   ASP d   1       3.353   1.444  -4.056  0.00  0.00     0.228 N 
ATOM     15  H3  ASP d   1       2.903   1.673  -4.949  0.00  0.00     0.200 HD
ENDROOT
BRANCH  10  16
ATOM     16  CB  ASP d   1       4.114  -0.393  -2.595  0.00  0.00     0.038 C 
ATOM     17  HB1 ASP d   1       4.729  -1.278  -2.758  0.00  0.00     0.038 H 
ATOM     18  HB2 ASP d   1       3.373  -0.602  -1.824  0.00  0.00     0.038 H 
BRANCH  16  19
ATOM     19  CG  ASP d   1       4.989   0.752  -2.155  0.00  0.00     0.048 C 
ATOM     20  OD1 ASP d   1       4.661   1.436  -1.215  0.00  0.00    -0.550 OA
ATOM     21  OD2 ASP d   1       6.133   1.012  -2.808  0.00  0.00    -0.550 OA
ENDBRANCH  16  19
ENDBRANCH  10  16
BRANCH   1  22
ATOM     22  CB  ALA d   2       3.919  -2.224  -7.809  0.00  0.00    -0.041 C 
ATOM     23  HB1 ALA d   2       4.617  -2.012  -8.617  0.00  0.00     0.025 H 
ATOM     24  HB2 ALA d   2       3.324  -3.102  -8.062  0.00  0.00     0.025 H 
ATOM     25  HB3 ALA d   2       3.258  -1.368  -7.664  0.00  0.00     0.025 H 
ENDBRANCH   1  22
TORSDOF 7
ENDMDL
MODEL 4
REMARK VINA RESULT:      -4.7      2.392      2.852
REMARK  3 active torsions:
REMARK  status: ('A' for Active; 'I' for Inactive)
REMARK    1  A    between atoms: CB_1  and  CA_2 
REMARK       I    between atoms: CA_2  and  C_4 
REMARK       I    between atoms: CA_2  and  N_6 
REMARK       I    between atoms: N_6  and  C_7 
REMARK       I    between atoms: C_7  and  CA_9 
REMARK    2  A    between atoms: CA_9  and  CB_11 
REMARK       I    between atoms: CA_9  and  N_24 
REMARK    3  A    between atoms: CB_11  and  CG_12 
ROOT
ATOM      1  CA  ALA d   2       3.213  -0.950  -8.757  0.00  0.00     0.060 C 
ATOM      2  HA  ALA d   2       4.070  -0.311  -8.973  0.00  0.00     0.056 H 
ATOM      3  C   ALA d   2       3.560  -2.381  -9.080  0.00  0.00     0.062 C 
ATOM      4  O   ALA d   2       3.522  -3.222  -8.214  0.00  0.00    -0.548 OA
ATOM      5  N   ALA d   2       2.867  -0.840  -7.338  0.00  0.00    -0.303 N 
ATOM      6  H   ALA d   2       2.535  -1.615  -6.858  0.00  0.00     0.149 HD
ATOM      7  OXT ALA d   2       3.912  -2.720 -10.330  0.00  0.00    -0.548 OA
ATOM      8  C   ASP d   1       3.010   0.338  -6.698  0.00  0.00     0.262 C 
ATOM      9  O   ASP d   1       3.426   1.307  -7.298  0.00  0.00    -0.270 OA
ATOM     10  CA  ASP d   1       2.654   0.451  -5.239  0.00  0.00     0.058 C 
ATOM     11  HA  ASP d   1       1.745  -0.118  -5.041  0.00  0.00     0.095 H 
ATOM     12  H1  ASP d   1       2.129   1.959  -3.939  0.00  0.00     0.200 HD
ATOM     13  H2  ASP d   1       3.261   2.411  -5.071  0.00  0.00     0.200 HD
ATOM     14  N   ASP d   1       2.413   1.867  -4.913  0.00  0.00     0.228 N 
ATOM     15  H3  ASP d   1       1.666   2.231  -5.515  0.00  0.00     0.200 HD
ENDROOT
BRANCH  10  16
ATOM     16  CB  ASP d   1       3.799  -0.107  -4.390  0.00  0.00     0.038 C 
ATOM     17  HB1 ASP d   1       4.716  -0.120  -4.979  0.00  0.00     0.038 H 
ATOM     18  HB2 ASP d   1       3.555  -1.120  -4.072  0.00  0.00     0.038 H 
BRANCH  16  19
ATOM     19  CG  ASP d   1       3.995   0.766  -3.177  0.00  0.00     0.048 C 
ATOM     20  OD1 ASP d   1       3.270   0.640  -2.219  0.00  0.00    -0.550 OA
ATOM     21  OD2 ASP d   1       4.975   1.683  -3.162  0.00  0.00    -0.550 OA
ENDBRANCH  16  19
ENDBRANCH  10  16
BRANCH   1  22
ATOM     22  CB  ALA d   2       2.021  -0.510  -9.609  0.00  0.00    -0.041 C 
ATOM     23  HB1 ALA d   2       2.161   0.523  -9.924  0.00  0.00     0.025 H 
ATOM     24  HB2 ALA d   2       1.946  -1.151 -10.488  0.00  0.00     0.025 H 
ATOM     25  HB3 ALA d   2       1.106  -0.591  -9.022  0.00  0.00     0.025 H 
ENDBRANCH   1  22
TORSDOF 7
ENDMDL
MODEL 5
REMARK VINA RESULT:      -4.7      1.590      5.666
REMARK  3 active torsions:
REMARK  status: ('A' for Active; 'I' for Inactive)
REMARK    1  A    between atoms: CB_1  and  CA_2 
REMARK       I    between atoms: CA_2  and  C_4 
REMARK       I    between atoms: CA_2  and  N_6 
REMARK       I    between atoms: N_6  and  C_7 
REMARK       I    between atoms: C_7  and  CA_9 
REMARK    2  A    between atoms: CA_9  and  CB_11 
REMARK       I    between atoms: CA_9  and  N_24 
REMARK    3  A    between atoms: CB_11  and  CG_12 
ROOT
ATOM      1  CA  ALA d   2       5.141   0.225  -3.477  0.00  0.00     0.060 C 
ATOM      2  HA  ALA d   2       5.689   1.092  -3.847  0.00  0.00     0.056 H 
ATOM      3  C   ALA d   2       4.283   0.634  -2.307  0.00  0.00     0.062 C 
ATOM      4  O   ALA d   2       3.084   0.496  -2.360  0.00  0.00    -0.548 OA
ATOM      5  N   ALA d   2       4.291  -0.307  -4.543  0.00  0.00    -0.303 N 
ATOM      6  H   ALA d   2       3.424  -0.688  -4.329  0.00  0.00     0.149 HD
ATOM      7  OXT ALA d   2       4.851   1.154  -1.208  0.00  0.00    -0.548 OA
ATOM      8  C   ASP d   1       4.711  -0.269  -5.824  0.00  0.00     0.262 C 
ATOM      9  O   ASP d   1       5.795   0.207  -6.092  0.00  0.00    -0.270 OA
ATOM     10  CA  ASP d   1       3.836  -0.817  -6.921  0.00  0.00     0.058 C 
ATOM     11  HA  ASP d   1       3.357  -1.735  -6.580  0.00  0.00     0.095 H 
ATOM     12  H1  ASP d   1       4.105  -1.534  -8.832  0.00  0.00     0.200 HD
ATOM     13  H2  ASP d   1       5.113  -0.269  -8.441  0.00  0.00     0.200 HD
ATOM     14  N   ASP d   1       4.674  -1.122  -8.094  0.00  0.00     0.228 N 
ATOM     15  H3  ASP d   1       5.406  -1.788  -7.824  0.00  0.00     0.200 HD
ENDROOT
BRANCH  10  16
ATOM     16  CB  ASP d   1       2.765   0.214  -7.282  0.00  0.00     0.038 C 
ATOM     17  HB1 ASP d   1       2.636   0.910  -6.453  0.00  0.00     0.038 H 
ATOM     18  HB2 ASP d   1       1.822  -0.296  -7.479  0.00  0.00     0.038 H 
BRANCH  16  19
ATOM     19  CG  ASP d   1       3.193   0.973  -8.512  0.00  0.00     0.048 C 
ATOM     20  OD1 ASP d   1       3.935   1.921  -8.408  0.00  0.00    -0.550 OA
ATOM     21  OD2 ASP d   1       2.749   0.597  -9.721  0.00  0.00    -0.550 OA
ENDBRANCH  16  19
ENDBRANCH  10  16
BRANCH   1  22
ATOM     22  CB  ALA d   2       6.133  -0.851  -3.029  0.00  0.00    -0.041 C 
ATOM     23  HB1 ALA d   2       7.116  -0.403  -2.887  0.00  0.00     0.025 H 
ATOM     24  HB2 ALA d   2       5.794  -1.290  -2.090  0.00  0.00     0.025 H 
ATOM     25  HB3 ALA d   2       6.194  -1.628  -3.791  0.00  0.00     0.025 H 
ENDBRANCH   1  22
TORSDOF 7
ENDMDL
MODEL 6
REMARK VINA RESULT:      -4.5      3.811      5.250
REMARK  3 active torsions:
REMARK  status: ('A' for Active; 'I' for Inactive)
REMARK    1  A    between atoms: CB_1  and  CA_2 
REMARK       I    between atoms: CA_2  and  C_4 
REMARK       I    between atoms: CA_2  and  N_6 
REMARK       I    between atoms: N_6  and  C_7 
REMARK       I    between atoms: C_7  and  CA_9 
REMARK    2  A    between atoms: CA_9  and  CB_11 
REMARK       I    between atoms: CA_9  and  N_24 
REMARK    3  A    between atoms: CB_11  and  CG_12 
ROOT
ATOM      1  CA  ALA d   2       5.489  -4.525  -5.352  0.00  0.00     0.060 C 
ATOM      2  HA  ALA d   2       5.817  -4.691  -4.326  0.00  0.00     0.056 H 
ATOM      3  C   ALA d   2       4.488  -5.584  -5.737  0.00  0.00     0.062 C 
ATOM      4  O   ALA d   2       3.369  -5.268  -6.065  0.00  0.00    -0.548 OA
ATOM      5  N   ALA d   2       4.865  -3.204  -5.458  0.00  0.00    -0.303 N 
ATOM      6  H   ALA d   2       4.114  -3.068  -6.056  0.00  0.00     0.149 HD
ATOM      7  OXT ALA d   2       4.839  -6.879  -5.714  0.00  0.00    -0.548 OA
ATOM      8  C   ASP d   1       5.336  -2.176  -4.723  0.00  0.00     0.262 C 
ATOM      9  O   ASP d   1       6.276  -2.346  -3.975  0.00  0.00    -0.270 OA
ATOM     10  CA  ASP d   1       4.696  -0.817  -4.832  0.00  0.00     0.058 C 
ATOM     11  HA  ASP d   1       4.447  -0.613  -5.874  0.00  0.00     0.095 H 
ATOM     12  H1  ASP d   1       5.249   1.133  -4.466  0.00  0.00     0.200 HD
ATOM     13  H2  ASP d   1       5.876   0.041  -3.379  0.00  0.00     0.200 HD
ATOM     14  N   ASP d   1       5.650   0.202  -4.360  0.00  0.00     0.228 N 
ATOM     15  H3  ASP d   1       6.510   0.143  -4.915  0.00  0.00     0.200 HD
ENDROOT
BRANCH  10  16
ATOM     16  CB  ASP d   1       3.419  -0.786  -3.988  0.00  0.00     0.038 C 
ATOM     17  HB1 ASP d   1       3.501  -1.511  -3.178  0.00  0.00     0.038 H 
ATOM     18  HB2 ASP d   1       2.563  -1.035  -4.615  0.00  0.00     0.038 H 
BRANCH  16  19
ATOM     19  CG  ASP d   1       3.233   0.594  -3.409  0.00  0.00     0.048 C 
ATOM     20  OD1 ASP d   1       3.289   0.759  -2.214  0.00  0.00    -0.550 OA
ATOM     21  OD2 ASP d   1       3.006   1.637  -4.222  0.00  0.00    -0.550 OA
ENDBRANCH  16  19
ENDBRANCH  10  16
BRANCH   1  22
ATOM     22  CB  ALA d   2       6.694  -4.598  -6.292  0.00  0.00    -0.041 C 
ATOM     23  HB1 ALA d   2       7.393  -5.351  -5.929  0.00  0.00     0.025 H 
ATOM     24  HB2 ALA d   2       6.358  -4.866  -7.294  0.00  0.00     0.025 H 
ATOM     25  HB3 ALA d   2       7.189  -3.627  -6.323  0.00  0.00     0.025 H 
ENDBRANCH   1  22
TORSDOF 7
ENDMDL
MODEL 7
REMARK VINA RESULT:      -4.5      1.992      6.003
REMARK  3 active torsions:
REMARK  status: ('A' for Active; 'I' for Inactive)
REMARK    1  A    between atoms: CB_1  and  CA_2 
REMARK       I    between atoms: CA_2  and  C_4 
REMARK       I    between atoms: CA_2  and  N_6 
REMARK       I    between atoms: N_6  and  C_7 
REMARK       I    between atoms: C_7  and  CA_9 
REMARK    2  A    between atoms: CA_9  and  CB_11 
REMARK       I    between atoms: CA_9  and  N_24 
REMARK    3  A    between atoms: CB_11  and  CG_12 
ROOT
ATOM      1  CA  ALA d   2       3.615  -0.728  -3.854  0.00  0.00     0.060 C 
ATOM      2  HA  ALA d   2       2.569  -0.473  -3.680  0.00  0.00     0.056 H 
ATOM      3  C   ALA d   2       3.888  -2.113  -3.325  0.00  0.00     0.062 C 
ATOM      4  O   ALA d   2       4.277  -2.980  -4.072  0.00  0.00    -0.548 OA
ATOM      5  N   ALA d   2       3.894  -0.691  -5.291  0.00  0.00    -0.303 N 
ATOM      6  H   ALA d   2       4.521  -1.321  -5.680  0.00  0.00     0.149 HD
ATOM      7  OXT ALA d   2       3.700  -2.384  -2.024  0.00  0.00    -0.548 OA
ATOM      8  C   ASP d   1       3.281   0.220  -6.073  0.00  0.00     0.262 C 
ATOM      9  O   ASP d   1       2.498   1.008  -5.587  0.00  0.00    -0.270 OA
ATOM     10  CA  ASP d   1       3.569   0.258  -7.551  0.00  0.00     0.058 C 
ATOM     11  HA  ASP d   1       4.634   0.091  -7.720  0.00  0.00     0.095 H 
ATOM     12  H1  ASP d   1       3.433   1.646  -9.067  0.00  0.00     0.200 HD
ATOM     13  H2  ASP d   1       2.207   1.751  -7.947  0.00  0.00     0.200 HD
ATOM     14  N   ASP d   1       3.205   1.586  -8.076  0.00  0.00     0.228 N 
ATOM     15  H3  ASP d   1       3.731   2.306  -7.568  0.00  0.00     0.200 HD
ENDROOT
BRANCH  10  16
ATOM     16  CB  ASP d   1       2.763  -0.835  -8.257  0.00  0.00     0.038 C 
ATOM     17  HB1 ASP d   1       1.846  -1.027  -7.699  0.00  0.00     0.038 H 
ATOM     18  HB2 ASP d   1       3.356  -1.747  -8.309  0.00  0.00     0.038 H 
BRANCH  16  19
ATOM     19  CG  ASP d   1       2.416  -0.381  -9.652  0.00  0.00     0.048 C 
ATOM     20  OD1 ASP d   1       1.260  -0.315  -9.995  0.00  0.00    -0.550 OA
ATOM     21  OD2 ASP d   1       3.392  -0.052 -10.512  0.00  0.00    -0.550 OA
ENDBRANCH  16  19
ENDBRANCH  10  16
BRANCH   1  22
ATOM     22  CB  ALA d   2       4.513   0.279  -3.132  0.00  0.00    -0.041 C 
ATOM     23  HB1 ALA d   2       5.532   0.191  -3.507  0.00  0.00     0.025 H 
ATOM     24  HB2 ALA d   2       4.144   1.289  -3.312  0.00  0.00     0.025 H 
ATOM     25  HB3 ALA d   2       4.500   0.074  -2.061  0.00  0.00     0.025 H 
ENDBRANCH   1  22
TORSDOF 7
ENDMDL
MODEL 8
REMARK VINA RESULT:      -4.5      3.671      5.608
REMARK  3 active torsions:
REMARK  status: ('A' for Active; 'I' for Inactive)
REMARK    1  A    between atoms: CB_1  and  CA_2 
REMARK       I    between atoms: CA_2  and  C_4 
REMARK       I    between atoms: CA_2  and  N_6 
REMARK       I    between atoms: N_6  and  C_7 
REMARK       I    between atoms: C_7  and  CA_9 
REMARK    2  A    between atoms: CA_9  and  CB_11 
REMARK       I    between atoms: CA_9  and  N_24 
REMARK    3  A    between atoms: CB_11  and  CG_12 
ROOT
ATOM      1  CA  ALA d   2       4.367  -0.578  -2.942  0.00  0.00     0.060 C 
ATOM      2  HA  ALA d   2       4.691  -1.315  -2.207  0.00  0.00     0.056 H 
ATOM      3  C   ALA d   2       5.137   0.703  -2.741  0.00  0.00     0.062 C 
ATOM      4  O   ALA d   2       5.823   1.142  -3.634  0.00  0.00    -0.548 OA
ATOM      5  N   ALA d   2       4.617  -1.090  -4.291  0.00  0.00    -0.303 N 
ATOM      6  H   ALA d   2       4.881  -0.484  -5.000  0.00  0.00     0.149 HD
ATOM      7  OXT ALA d   2       5.060   1.356  -1.571  0.00  0.00    -0.548 OA
ATOM      8  C   ASP d   1       4.480  -2.407  -4.547  0.00  0.00     0.262 C 
ATOM      9  O   ASP d   1       4.150  -3.166  -3.661  0.00  0.00    -0.270 OA
ATOM     10  CA  ASP d   1       4.736  -2.934  -5.935  0.00  0.00     0.058 C 
ATOM     11  HA  ASP d   1       4.332  -2.238  -6.670  0.00  0.00     0.095 H 
ATOM     12  H1  ASP d   1       4.186  -4.588  -7.033  0.00  0.00     0.200 HD
ATOM     13  H2  ASP d   1       4.441  -4.906  -5.420  0.00  0.00     0.200 HD
ATOM     14  N   ASP d   1       4.059  -4.235  -6.085  0.00  0.00     0.228 N 
ATOM     15  H3  ASP d   1       3.056  -4.117  -5.904  0.00  0.00     0.200 HD
ENDROOT
BRANCH  10  16
ATOM     16  CB  ASP d   1       6.243  -3.088  -6.152  0.00  0.00     0.038 C 
ATOM     17  HB1 ASP d   1       6.779  -2.649  -5.310  0.00  0.00     0.038 H 
ATOM     18  HB2 ASP d   1       6.531  -2.579  -7.071  0.00  0.00     0.038 H 
BRANCH  16  19
ATOM     19  CG  ASP d   1       6.589  -4.551  -6.258  0.00  0.00     0.048 C 
ATOM     20  OD1 ASP d   1       6.862  -5.181  -5.264  0.00  0.00    -0.550 OA
ATOM     21  OD2 ASP d   1       6.593  -5.155  -7.457  0.00  0.00    -0.550 OA
ENDBRANCH  16  19
ENDBRANCH  10  16
BRANCH   1  22
ATOM     22  CB  ALA d   2       2.872  -0.306  -2.767  0.00  0.00    -0.041 C 
ATOM     23  HB1 ALA d   2       2.733   0.620  -2.210  0.00  0.00     0.025 H 
ATOM     24  HB2 ALA d   2       2.402  -0.215  -3.747  0.00  0.00     0.025 H 
ATOM     25  HB3 ALA d   2       2.414  -1.131  -2.220  0.00  0.00     0.025 H 
ENDBRANCH   1  22
TORSDOF 7
ENDMDL
MODEL 9
REMARK VINA RESULT:      -4.3      2.664      5.228
REMARK  3 active torsions:
REMARK  status: ('A' for Active; 'I' for Inactive)
REMARK    1  A    between atoms: CB_1  and  CA_2 
REMARK       I    between atoms: CA_2  and  C_4 
REMARK       I    between atoms: CA_2  and  N_6 
REMARK       I    between atoms: N_6  and  C_7 
REMARK       I    between atoms: C_7  and  CA_9 
REMARK    2  A    between atoms: CA_9  and  CB_11 
REMARK       I    between atoms: CA_9  and  N_24 
REMARK    3  A    between atoms: CB_11  and  CG_12 
ROOT
ATOM      1  CA  ALA d   2       4.258  -0.485  -3.074  0.00  0.00     0.060 C 
ATOM      2  HA  ALA d   2       4.727  -1.331  -2.571  0.00  0.00     0.056 H 
ATOM      3  C   ALA d   2       4.884   0.798  -2.591  0.00  0.00     0.062 C 
ATOM      4  O   ALA d   2       5.437   1.533  -3.374  0.00  0.00    -0.548 OA
ATOM      5  N   ALA d   2       4.454  -0.609  -4.521  0.00  0.00    -0.303 N 
ATOM      6  H   ALA d   2       4.583   0.185  -5.063  0.00  0.00     0.149 HD
ATOM      7  OXT ALA d   2       4.828   1.123  -1.290  0.00  0.00    -0.548 OA
ATOM      8  C   ASP d   1       4.453  -1.826  -5.100  0.00  0.00     0.262 C 
ATOM      9  O   ASP d   1       4.291  -2.819  -4.422  0.00  0.00    -0.270 OA
ATOM     10  CA  ASP d   1       4.654  -1.953  -6.587  0.00  0.00     0.058 C 
ATOM     11  HA  ASP d   1       4.110  -1.157  -7.097  0.00  0.00     0.095 H 
ATOM     12  H1  ASP d   1       4.215  -3.341  -8.043  0.00  0.00     0.200 HD
ATOM     13  H2  ASP d   1       4.639  -4.012  -6.582  0.00  0.00     0.200 HD
ATOM     14  N   ASP d   1       4.126  -3.255  -7.032  0.00  0.00     0.228 N 
ATOM     15  H3  ASP d   1       3.135  -3.324  -6.776  0.00  0.00     0.200 HD
ENDROOT
BRANCH  10  16
ATOM     16  CB  ASP d   1       6.145  -1.841  -6.912  0.00  0.00     0.038 C 
ATOM     17  HB1 ASP d   1       6.414  -2.597  -7.650  0.00  0.00     0.038 H 
ATOM     18  HB2 ASP d   1       6.727  -1.996  -6.004  0.00  0.00     0.038 H 
BRANCH  16  19
ATOM     19  CG  ASP d   1       6.437  -0.471  -7.468  0.00  0.00     0.048 C 
ATOM     20  OD1 ASP d   1       6.689  -0.337  -8.642  0.00  0.00    -0.550 OA
ATOM     21  OD2 ASP d   1       6.417   0.600  -6.659  0.00  0.00    -0.550 OA
ENDBRANCH  16  19
ENDBRANCH  10  16
BRANCH   1  22
ATOM     22  CB  ALA d   2       2.760  -0.471  -2.761  0.00  0.00    -0.041 C 
ATOM     23  HB1 ALA d   2       2.408  -1.493  -2.624  0.00  0.00     0.025 H 
ATOM     24  HB2 ALA d   2       2.585   0.100  -1.849  0.00  0.00     0.025 H 
ATOM     25  HB3 ALA d   2       2.221  -0.008  -3.588  0.00  0.00     0.025 H 
ENDBRANCH   1  22
TORSDOF 7
ENDMDL
