MODEL 1
REMARK VINA RESULT:      -6.8      0.000      0.000
REMARK  8 active torsions:
REMARK  status: ('A' for Active; 'I' for Inactive)
REMARK    1  A    between atoms: C_1  and  O_2 
REMARK    2  A    between atoms: O_2  and  C_3 
REMARK    3  A    between atoms: C_6  and  C_9 
REMARK    4  A    between atoms: C_14  and  C_15 
REMARK    5  A    between atoms: C_18  and  O_22 
REMARK    6  A    between atoms: C_20  and  O_21 
REMARK    7  A    between atoms: O_22  and  C_23 
REMARK    8  A    between atoms: C_23  and  C_24 
ROOT
ATOM      1  C   LIG d   1       4.155  -4.001  -9.634  0.00  0.00     0.043 A 
ATOM      2  C   LIG d   1       5.349  -3.285  -9.531  0.00  0.00    -0.046 A 
ATOM      3  C   LIG d   1       5.960  -3.138  -8.306  0.00  0.00    -0.019 A 
ATOM      4  C   LIG d   1       5.397  -3.710  -7.171  0.00  0.00     0.124 A 
ATOM      5  C   LIG d   1       4.211  -4.423  -7.263  0.00  0.00     0.022 A 
ATOM      6  C   LIG d   1       3.586  -4.572  -8.489  0.00  0.00     0.130 A 
ATOM      7  H   LIG d   1       5.790  -2.843 -10.412  0.00  0.00     0.063 H 
ATOM      8  H   LIG d   1       6.881  -2.581  -8.228  0.00  0.00     0.065 H 
ATOM      9  H   LIG d   1       3.775  -4.862  -6.377  0.00  0.00     0.069 H 
ENDROOT
BRANCH   1  10
ATOM     10  C   LIG d   1       3.493  -4.156 -10.948  0.00  0.00     0.085 A 
ATOM     11  C   LIG d   1       2.854  -3.062 -11.563  0.00  0.00     0.026 A 
ATOM     12  C   LIG d   1       2.251  -3.267 -12.805  0.00  0.00     0.039 A 
ATOM     13  N   LIG d   1       2.293  -4.473 -13.347  0.00  0.00    -0.243 NA
ATOM     14  H   LIG d   1       1.754  -2.455 -13.313  0.00  0.00     0.084 H 
ATOM     15  C   LIG d   1       2.897  -5.475 -12.738  0.00  0.00     0.117 A 
ATOM     16  N   LIG d   1       3.486  -5.334 -11.569  0.00  0.00    -0.235 NA
ATOM     17  H   LIG d   1       2.909  -6.445 -13.215  0.00  0.00     0.105 H 
BRANCH  11  18
ATOM     18  C   LIG d   1       2.827  -1.729 -10.914  0.00  0.00    -0.014 A 
ATOM     19  C   LIG d   1       3.650  -0.707 -11.382  0.00  0.00    -0.051 A 
ATOM     20  C   LIG d   1       3.621   0.531 -10.776  0.00  0.00    -0.019 A 
ATOM     21  H   LIG d   1       4.309  -0.884 -12.220  0.00  0.00     0.062 H 
ATOM     22  C   LIG d   1       2.774   0.760  -9.700  0.00  0.00     0.120 A 
ATOM     23  H   LIG d   1       4.259   1.325 -11.139  0.00  0.00     0.065 H 
ATOM     24  C   LIG d   1       1.954  -0.257  -9.230  0.00  0.00    -0.019 A 
ATOM     25  C   LIG d   1       1.973  -1.495  -9.836  0.00  0.00    -0.051 A 
ATOM     26  H   LIG d   1       1.296  -0.076  -8.394  0.00  0.00     0.065 H 
ATOM     27  H   LIG d   1       1.331  -2.284  -9.473  0.00  0.00     0.062 H 
BRANCH  22  28
ATOM     28  O   LIG d   1       2.749   1.981  -9.105  0.00  0.00    -0.495 OA
BRANCH  28  29
ATOM     29  C   LIG d   1       3.928   2.781  -9.217  0.00  0.00     0.079 C 
ATOM     30  H   LIG d   1       3.684   3.721  -9.711  0.00  0.00     0.066 H 
ATOM     31  H   LIG d   1       4.325   2.985  -8.223  0.00  0.00     0.066 H 
ATOM     32  H   LIG d   1       4.675   2.246  -9.804  0.00  0.00     0.066 H 
ENDBRANCH  28  29
ENDBRANCH  22  28
ENDBRANCH  11  18
ENDBRANCH   1  10
BRANCH   6  33
ATOM     33  O   LIG d   1       2.424  -5.268  -8.581  0.00  0.00    -0.506 OA
ATOM     34  H   LIG d   1       2.152  -5.691  -7.756  0.00  0.00     0.292 HD
ENDBRANCH   6  33
BRANCH   4  35
ATOM     35  O   LIG d   1       6.007  -3.565  -5.966  0.00  0.00    -0.487 OA
BRANCH  35  36
ATOM     36  C   LIG d   1       5.232  -3.872  -4.806  0.00  0.00     0.115 C 
ATOM     37  H   LIG d   1       5.737  -4.644  -4.226  0.00  0.00     0.075 H 
ATOM     38  H   LIG d   1       4.249  -4.229  -5.109  0.00  0.00     0.075 H 
BRANCH  36  39
ATOM     39  C   LIG d   1       5.077  -2.632  -3.963  0.00  0.00    -0.009 A 
ATOM     40  C   LIG d   1       5.928  -1.561  -4.148  0.00  0.00    -0.036 A 
ATOM     41  C   LIG d   1       5.783  -0.420  -3.378  0.00  0.00     0.060 A 
ATOM     42  H   LIG d   1       6.708  -1.613  -4.893  0.00  0.00     0.064 H 
ATOM     43  C   LIG d   1       4.783  -0.354  -2.422  0.00  0.00     0.059 A 
ATOM     44 CL   LIG d   1       6.853   0.927  -3.609  0.00  0.00    -0.082 Cl
ATOM     45  C   LIG d   1       3.931  -1.428  -2.239  0.00  0.00    -0.042 A 
ATOM     46 CL   LIG d   1       4.599   1.076  -1.456  0.00  0.00    -0.082 Cl
ATOM     47  C   LIG d   1       4.078  -2.566  -3.009  0.00  0.00    -0.054 A 
ATOM     48  H   LIG d   1       3.150  -1.377  -1.494  0.00  0.00     0.063 H 
ATOM     49  H   LIG d   1       3.412  -3.405  -2.864  0.00  0.00     0.062 H 
ENDBRANCH  36  39
ENDBRANCH  35  36
ENDBRANCH   4  35
TORSDOF 8
ENDMDL
MODEL 2
REMARK VINA RESULT:      -6.7      8.146     11.339
REMARK  8 active torsions:
REMARK  status: ('A' for Active; 'I' for Inactive)
REMARK    1  A    between atoms: C_1  and  O_2 
REMARK    2  A    between atoms: O_2  and  C_3 
REMARK    3  A    between atoms: C_6  and  C_9 
REMARK    4  A    between atoms: C_14  and  C_15 
REMARK    5  A    between atoms: C_18  and  O_22 
REMARK    6  A    between atoms: C_20  and  O_21 
REMARK    7  A    between atoms: O_22  and  C_23 
REMARK    8  A    between atoms: C_23  and  C_24 
ROOT
ATOM      1  C   LIG d   1       9.918   5.244  -2.739  0.00  0.00     0.043 A 
ATOM      2  C   LIG d   1       9.035   4.983  -3.788  0.00  0.00    -0.046 A 
ATOM      3  C   LIG d   1       8.911   3.702  -4.281  0.00  0.00    -0.019 A 
ATOM      4  C   LIG d   1       9.656   2.666  -3.729  0.00  0.00     0.124 A 
ATOM      5  C   LIG d   1      10.535   2.916  -2.687  0.00  0.00     0.022 A 
ATOM      6  C   LIG d   1      10.671   4.200  -2.188  0.00  0.00     0.130 A 
ATOM      7  H   LIG d   1       8.453   5.785  -4.216  0.00  0.00     0.063 H 
ATOM      8  H   LIG d   1       8.231   3.503  -5.095  0.00  0.00     0.065 H 
ATOM      9  H   LIG d   1      11.115   2.108  -2.264  0.00  0.00     0.069 H 
ENDROOT
BRANCH   1  10
ATOM     10  C   LIG d   1      10.058   6.619  -2.212  0.00  0.00     0.085 A 
ATOM     11  C   LIG d   1      10.342   7.694  -3.076  0.00  0.00     0.026 A 
ATOM     12  C   LIG d   1      10.457   8.969  -2.521  0.00  0.00     0.039 A 
ATOM     13  N   LIG d   1      10.307   9.117  -1.215  0.00  0.00    -0.243 NA
ATOM     14  H   LIG d   1      10.670   9.822  -3.148  0.00  0.00     0.084 H 
ATOM     15  C   LIG d   1      10.045   8.085  -0.437  0.00  0.00     0.117 A 
ATOM     16  N   LIG d   1       9.921   6.863  -0.909  0.00  0.00    -0.235 NA
ATOM     17  H   LIG d   1       9.929   8.248   0.625  0.00  0.00     0.105 H 
BRANCH  11  18
ATOM     18  C   LIG d   1      10.509   7.479  -4.533  0.00  0.00    -0.014 A 
ATOM     19  C   LIG d   1      11.695   6.939  -5.028  0.00  0.00    -0.051 A 
ATOM     20  C   LIG d   1      11.847   6.741  -6.384  0.00  0.00    -0.019 A 
ATOM     21  H   LIG d   1      12.494   6.677  -4.350  0.00  0.00     0.062 H 
ATOM     22  C   LIG d   1      10.819   7.076  -7.257  0.00  0.00     0.120 A 
ATOM     23  H   LIG d   1      12.766   6.322  -6.769  0.00  0.00     0.065 H 
ATOM     24  C   LIG d   1       9.638   7.615  -6.766  0.00  0.00    -0.019 A 
ATOM     25  C   LIG d   1       9.478   7.810  -5.411  0.00  0.00    -0.051 A 
ATOM     26  H   LIG d   1       8.841   7.875  -7.446  0.00  0.00     0.065 H 
ATOM     27  H   LIG d   1       8.556   8.225  -5.030  0.00  0.00     0.062 H 
BRANCH  22  28
ATOM     28  O   LIG d   1      10.972   6.879  -8.592  0.00  0.00    -0.495 OA
BRANCH  28  29
ATOM     29  C   LIG d   1       9.821   7.081  -9.413  0.00  0.00     0.079 C 
ATOM     30  H   LIG d   1       8.920   6.975  -8.808  0.00  0.00     0.066 H 
ATOM     31  H   LIG d   1       9.852   8.081  -9.845  0.00  0.00     0.066 H 
ATOM     32  H   LIG d   1       9.810   6.341 -10.213  0.00  0.00     0.066 H 
ENDBRANCH  28  29
ENDBRANCH  22  28
ENDBRANCH  11  18
ENDBRANCH   1  10
BRANCH   6  33
ATOM     33  O   LIG d   1      11.533   4.447  -1.168  0.00  0.00    -0.506 OA
ATOM     34  H   LIG d   1      11.126   4.419  -0.293  0.00  0.00     0.292 HD
ENDBRANCH   6  33
BRANCH   4  35
ATOM     35  O   LIG d   1       9.525   1.405  -4.217  0.00  0.00    -0.487 OA
BRANCH  35  36
ATOM     36  C   LIG d   1       8.390   1.145  -5.046  0.00  0.00     0.115 C 
ATOM     37  H   LIG d   1       8.700   0.564  -5.914  0.00  0.00     0.075 H 
ATOM     38  H   LIG d   1       7.956   2.088  -5.374  0.00  0.00     0.075 H 
BRANCH  36  39
ATOM     39  C   LIG d   1       7.365   0.366  -4.262  0.00  0.00    -0.009 A 
ATOM     40  C   LIG d   1       6.477   1.029  -3.437  0.00  0.00    -0.036 A 
ATOM     41  C   LIG d   1       5.532   0.316  -2.722  0.00  0.00     0.060 A 
ATOM     42  H   LIG d   1       6.521   2.105  -3.350  0.00  0.00     0.064 H 
ATOM     43  C   LIG d   1       5.476  -1.063  -2.833  0.00  0.00     0.059 A 
ATOM     44 CL   LIG d   1       4.417   1.148  -1.684  0.00  0.00    -0.082 Cl
ATOM     45  C   LIG d   1       6.366  -1.726  -3.660  0.00  0.00    -0.042 A 
ATOM     46 CL   LIG d   1       4.292  -1.960  -1.937  0.00  0.00    -0.082 Cl
ATOM     47  C   LIG d   1       7.309  -1.011  -4.374  0.00  0.00    -0.054 A 
ATOM     48  H   LIG d   1       6.323  -2.801  -3.748  0.00  0.00     0.063 H 
ATOM     49  H   LIG d   1       8.004  -1.529  -5.019  0.00  0.00     0.062 H 
ENDBRANCH  36  39
ENDBRANCH  35  36
ENDBRANCH   4  35
TORSDOF 8
ENDMDL
MODEL 3
REMARK VINA RESULT:      -6.4      8.564     11.657
REMARK  8 active torsions:
REMARK  status: ('A' for Active; 'I' for Inactive)
REMARK    1  A    between atoms: C_1  and  O_2 
REMARK    2  A    between atoms: O_2  and  C_3 
REMARK    3  A    between atoms: C_6  and  C_9 
REMARK    4  A    between atoms: C_14  and  C_15 
REMARK    5  A    between atoms: C_18  and  O_22 
REMARK    6  A    between atoms: C_20  and  O_21 
REMARK    7  A    between atoms: O_22  and  C_23 
REMARK    8  A    between atoms: C_23  and  C_24 
ROOT
ATOM      1  C   LIG d   1       9.983   5.061  -3.146  0.00  0.00     0.043 A 
ATOM      2  C   LIG d   1       9.241   4.794  -4.298  0.00  0.00    -0.046 A 
ATOM      3  C   LIG d   1       9.057   3.493  -4.712  0.00  0.00    -0.019 A 
ATOM      4  C   LIG d   1       9.600   2.444  -3.981  0.00  0.00     0.124 A 
ATOM      5  C   LIG d   1      10.338   2.699  -2.835  0.00  0.00     0.022 A 
ATOM      6  C   LIG d   1      10.533   4.002  -2.413  0.00  0.00     0.130 A 
ATOM      7  H   LIG d   1       8.815   5.608  -4.866  0.00  0.00     0.063 H 
ATOM      8  H   LIG d   1       8.487   3.289  -5.606  0.00  0.00     0.065 H 
ATOM      9  H   LIG d   1      10.762   1.880  -2.271  0.00  0.00     0.069 H 
ENDROOT
BRANCH   1  10
ATOM     10  C   LIG d   1      10.187   6.457  -2.702  0.00  0.00     0.085 A 
ATOM     11  C   LIG d   1      11.206   7.248  -3.266  0.00  0.00     0.026 A 
ATOM     12  C   LIG d   1      11.347   8.560  -2.811  0.00  0.00     0.039 A 
ATOM     13  N   LIG d   1      10.533   9.002  -1.867  0.00  0.00    -0.243 NA
ATOM     14  H   LIG d   1      12.112   9.202  -3.219  0.00  0.00     0.084 H 
ATOM     15  C   LIG d   1       9.593   8.230  -1.358  0.00  0.00     0.117 A 
ATOM     16  N   LIG d   1       9.413   6.988  -1.756  0.00  0.00    -0.235 NA
ATOM     17  H   LIG d   1       8.948   8.630  -0.589  0.00  0.00     0.105 H 
BRANCH  11  18
ATOM     18  C   LIG d   1      12.100   6.707  -4.318  0.00  0.00    -0.014 A 
ATOM     19  C   LIG d   1      13.226   5.966  -3.964  0.00  0.00    -0.051 A 
ATOM     20  C   LIG d   1      14.055   5.464  -4.945  0.00  0.00    -0.019 A 
ATOM     21  H   LIG d   1      13.449   5.785  -2.922  0.00  0.00     0.062 H 
ATOM     22  C   LIG d   1      13.768   5.694  -6.284  0.00  0.00     0.120 A 
ATOM     23  H   LIG d   1      14.928   4.889  -4.671  0.00  0.00     0.065 H 
ATOM     24  C   LIG d   1      12.647   6.432  -6.639  0.00  0.00    -0.019 A 
ATOM     25  C   LIG d   1      11.812   6.932  -5.663  0.00  0.00    -0.051 A 
ATOM     26  H   LIG d   1      12.427   6.610  -7.681  0.00  0.00     0.065 H 
ATOM     27  H   LIG d   1      10.937   7.503  -5.941  0.00  0.00     0.062 H 
BRANCH  22  28
ATOM     28  O   LIG d   1      14.586   5.197  -7.247  0.00  0.00    -0.495 OA
BRANCH  28  29
ATOM     29  C   LIG d   1      15.977   5.102  -6.930  0.00  0.00     0.079 C 
ATOM     30  H   LIG d   1      16.568   5.417  -7.790  0.00  0.00     0.066 H 
ATOM     31  H   LIG d   1      16.202   5.744  -6.079  0.00  0.00     0.066 H 
ATOM     32  H   LIG d   1      16.222   4.070  -6.680  0.00  0.00     0.066 H 
ENDBRANCH  28  29
ENDBRANCH  22  28
ENDBRANCH  11  18
ENDBRANCH   1  10
BRANCH   6  33
ATOM     33  O   LIG d   1      11.258   4.255  -1.292  0.00  0.00    -0.506 OA
ATOM     34  H   LIG d   1      11.166   3.582  -0.604  0.00  0.00     0.292 HD
ENDBRANCH   6  33
BRANCH   4  35
ATOM     35  O   LIG d   1       9.411   1.163  -4.392  0.00  0.00    -0.487 OA
BRANCH  35  36
ATOM     36  C   LIG d   1       8.264   0.906  -5.205  0.00  0.00     0.115 C 
ATOM     37  H   LIG d   1       8.553   0.292  -6.058  0.00  0.00     0.075 H 
ATOM     38  H   LIG d   1       7.850   1.849  -5.559  0.00  0.00     0.075 H 
BRANCH  36  39
ATOM     39  C   LIG d   1       7.225   0.177  -4.391  0.00  0.00    -0.009 A 
ATOM     40  C   LIG d   1       6.456   0.868  -3.476  0.00  0.00    -0.036 A 
ATOM     41  C   LIG d   1       5.498   0.200  -2.733  0.00  0.00     0.060 A 
ATOM     42  H   LIG d   1       6.601   1.929  -3.339  0.00  0.00     0.064 H 
ATOM     43  C   LIG d   1       5.312  -1.161  -2.907  0.00  0.00     0.059 A 
ATOM     44 CL   LIG d   1       4.532   1.067  -1.581  0.00  0.00    -0.082 Cl
ATOM     45  C   LIG d   1       6.084  -1.851  -3.825  0.00  0.00    -0.042 A 
ATOM     46 CL   LIG d   1       4.112  -2.000  -1.976  0.00  0.00    -0.082 Cl
ATOM     47  C   LIG d   1       7.039  -1.182  -4.566  0.00  0.00    -0.054 A 
ATOM     48  H   LIG d   1       5.939  -2.913  -3.963  0.00  0.00     0.063 H 
ATOM     49  H   LIG d   1       7.641  -1.722  -5.283  0.00  0.00     0.062 H 
ENDBRANCH  36  39
ENDBRANCH  35  36
ENDBRANCH   4  35
TORSDOF 8
ENDMDL
MODEL 4
REMARK VINA RESULT:      -6.4      1.629      2.177
REMARK  8 active torsions:
REMARK  status: ('A' for Active; 'I' for Inactive)
REMARK    1  A    between atoms: C_1  and  O_2 
REMARK    2  A    between atoms: O_2  and  C_3 
REMARK    3  A    between atoms: C_6  and  C_9 
REMARK    4  A    between atoms: C_14  and  C_15 
REMARK    5  A    between atoms: C_18  and  O_22 
REMARK    6  A    between atoms: C_20  and  O_21 
REMARK    7  A    between atoms: O_22  and  C_23 
REMARK    8  A    between atoms: C_23  and  C_24 
ROOT
ATOM      1  C   LIG d   1       4.486  -4.506  -8.017  0.00  0.00     0.043 A 
ATOM      2  C   LIG d   1       5.744  -4.065  -8.428  0.00  0.00    -0.046 A 
ATOM      3  C   LIG d   1       6.723  -3.809  -7.493  0.00  0.00    -0.019 A 
ATOM      4  C   LIG d   1       6.465  -3.999  -6.141  0.00  0.00     0.124 A 
ATOM      5  C   LIG d   1       5.218  -4.437  -5.723  0.00  0.00     0.022 A 
ATOM      6  C   LIG d   1       4.226  -4.692  -6.653  0.00  0.00     0.130 A 
ATOM      7  H   LIG d   1       5.948  -3.920  -9.479  0.00  0.00     0.063 H 
ATOM      8  H   LIG d   1       7.694  -3.463  -7.813  0.00  0.00     0.065 H 
ATOM      9  H   LIG d   1       5.020  -4.579  -4.670  0.00  0.00     0.069 H 
ENDROOT
BRANCH   1  10
ATOM     10  C   LIG d   1       3.430  -4.777  -9.017  0.00  0.00     0.085 A 
ATOM     11  C   LIG d   1       2.899  -3.734  -9.800  0.00  0.00     0.026 A 
ATOM     12  C   LIG d   1       1.909  -4.051 -10.732  0.00  0.00     0.039 A 
ATOM     13  N   LIG d   1       1.503  -5.306 -10.835  0.00  0.00    -0.243 NA
ATOM     14  H   LIG d   1       1.478  -3.282 -11.356  0.00  0.00     0.084 H 
ATOM     15  C   LIG d   1       2.022  -6.255 -10.081  0.00  0.00     0.117 A 
ATOM     16  N   LIG d   1       2.961  -6.012  -9.192  0.00  0.00    -0.235 NA
ATOM     17  H   LIG d   1       1.663  -7.268 -10.197  0.00  0.00     0.105 H 
BRANCH  11  18
ATOM     18  C   LIG d   1       3.380  -2.341  -9.644  0.00  0.00    -0.014 A 
ATOM     19  C   LIG d   1       4.266  -1.799 -10.575  0.00  0.00    -0.051 A 
ATOM     20  C   LIG d   1       4.711  -0.502 -10.426  0.00  0.00    -0.019 A 
ATOM     21  H   LIG d   1       4.603  -2.394 -11.411  0.00  0.00     0.062 H 
ATOM     22  C   LIG d   1       4.278   0.264  -9.351  0.00  0.00     0.120 A 
ATOM     23  H   LIG d   1       5.398  -0.082 -11.147  0.00  0.00     0.065 H 
ATOM     24  C   LIG d   1       3.397  -0.273  -8.423  0.00  0.00    -0.019 A 
ATOM     25  C   LIG d   1       2.943  -1.567  -8.569  0.00  0.00    -0.051 A 
ATOM     26  H   LIG d   1       3.062   0.324  -7.589  0.00  0.00     0.065 H 
ATOM     27  H   LIG d   1       2.254  -1.983  -7.849  0.00  0.00     0.062 H 
BRANCH  22  28
ATOM     28  O   LIG d   1       4.719   1.541  -9.209  0.00  0.00    -0.495 OA
BRANCH  28  29
ATOM     29  C   LIG d   1       3.797   2.584  -9.532  0.00  0.00     0.079 C 
ATOM     30  H   LIG d   1       2.788   2.276  -9.259  0.00  0.00     0.066 H 
ATOM     31  H   LIG d   1       4.062   3.488  -8.984  0.00  0.00     0.066 H 
ATOM     32  H   LIG d   1       3.837   2.785 -10.603  0.00  0.00     0.066 H 
ENDBRANCH  28  29
ENDBRANCH  22  28
ENDBRANCH  11  18
ENDBRANCH   1  10
BRANCH   6  33
ATOM     33  O   LIG d   1       3.003  -5.120  -6.246  0.00  0.00    -0.506 OA
ATOM     34  H   LIG d   1       2.639  -4.622  -5.502  0.00  0.00     0.292 HD
ENDBRANCH   6  33
BRANCH   4  35
ATOM     35  O   LIG d   1       7.436  -3.748  -5.225  0.00  0.00    -0.487 OA
BRANCH  35  36
ATOM     36  C   LIG d   1       7.968  -2.422  -5.191  0.00  0.00     0.115 C 
ATOM     37  H   LIG d   1       7.983  -2.010  -6.199  0.00  0.00     0.075 H 
ATOM     38  H   LIG d   1       8.981  -2.447  -4.792  0.00  0.00     0.075 H 
BRANCH  36  39
ATOM     39  C   LIG d   1       7.103  -1.557  -4.309  0.00  0.00    -0.009 A 
ATOM     40  C   LIG d   1       6.028  -2.110  -3.641  0.00  0.00    -0.036 A 
ATOM     41  C   LIG d   1       5.237  -1.318  -2.827  0.00  0.00     0.060 A 
ATOM     42  H   LIG d   1       5.804  -3.160  -3.754  0.00  0.00     0.064 H 
ATOM     43  C   LIG d   1       5.525   0.029  -2.683  0.00  0.00     0.059 A 
ATOM     44 CL   LIG d   1       3.886  -2.012  -1.988  0.00  0.00    -0.082 Cl
ATOM     45  C   LIG d   1       6.602   0.580  -3.353  0.00  0.00    -0.042 A 
ATOM     46 CL   LIG d   1       4.535   1.024  -1.663  0.00  0.00    -0.082 Cl
ATOM     47  C   LIG d   1       7.391  -0.213  -4.165  0.00  0.00    -0.054 A 
ATOM     48  H   LIG d   1       6.828   1.631  -3.241  0.00  0.00     0.063 H 
ATOM     49  H   LIG d   1       8.232   0.219  -4.688  0.00  0.00     0.062 H 
ENDBRANCH  36  39
ENDBRANCH  35  36
ENDBRANCH   4  35
TORSDOF 8
ENDMDL
MODEL 5
REMARK VINA RESULT:      -6.3      8.306     11.494
REMARK  8 active torsions:
REMARK  status: ('A' for Active; 'I' for Inactive)
REMARK    1  A    between atoms: C_1  and  O_2 
REMARK    2  A    between atoms: O_2  and  C_3 
REMARK    3  A    between atoms: C_6  and  C_9 
REMARK    4  A    between atoms: C_14  and  C_15 
REMARK    5  A    between atoms: C_18  and  O_22 
REMARK    6  A    between atoms: C_20  and  O_21 
REMARK    7  A    between atoms: O_22  and  C_23 
REMARK    8  A    between atoms: C_23  and  C_24 
ROOT
ATOM      1  C   LIG d   1      10.802   5.100  -5.242  0.00  0.00     0.043 A 
ATOM      2  C   LIG d   1       9.428   4.917  -5.081  0.00  0.00    -0.046 A 
ATOM      3  C   LIG d   1       8.939   3.693  -4.680  0.00  0.00    -0.019 A 
ATOM      4  C   LIG d   1       9.811   2.641  -4.427  0.00  0.00     0.124 A 
ATOM      5  C   LIG d   1      11.178   2.814  -4.585  0.00  0.00     0.022 A 
ATOM      6  C   LIG d   1      11.679   4.038  -4.991  0.00  0.00     0.130 A 
ATOM      7  H   LIG d   1       8.748   5.734  -5.273  0.00  0.00     0.063 H 
ATOM      8  H   LIG d   1       7.876   3.552  -4.561  0.00  0.00     0.065 H 
ATOM      9  H   LIG d   1      11.852   1.992  -4.390  0.00  0.00     0.069 H 
ENDROOT
BRANCH   1  10
ATOM     10  C   LIG d   1      11.330   6.412  -5.677  0.00  0.00     0.085 A 
ATOM     11  C   LIG d   1      11.531   7.449  -4.746  0.00  0.00     0.026 A 
ATOM     12  C   LIG d   1      12.037   8.663  -5.214  0.00  0.00     0.039 A 
ATOM     13  N   LIG d   1      12.295   8.795  -6.505  0.00  0.00    -0.243 NA
ATOM     14  H   LIG d   1      12.210   9.483  -4.534  0.00  0.00     0.084 H 
ATOM     15  C   LIG d   1      12.089   7.802  -7.348  0.00  0.00     0.117 A 
ATOM     16  N   LIG d   1      11.620   6.636  -6.958  0.00  0.00    -0.235 NA
ATOM     17  H   LIG d   1      12.313   7.951  -8.395  0.00  0.00     0.105 H 
BRANCH  11  18
ATOM     18  C   LIG d   1      11.220   7.257  -3.309  0.00  0.00    -0.014 A 
ATOM     19  C   LIG d   1       9.982   7.649  -2.804  0.00  0.00    -0.051 A 
ATOM     20  C   LIG d   1       9.697   7.468  -1.467  0.00  0.00    -0.019 A 
ATOM     21  H   LIG d   1       9.247   8.094  -3.458  0.00  0.00     0.062 H 
ATOM     22  C   LIG d   1      10.641   6.895  -0.624  0.00  0.00     0.120 A 
ATOM     23  H   LIG d   1       8.737   7.772  -1.074  0.00  0.00     0.065 H 
ATOM     24  C   LIG d   1      11.875   6.504  -1.125  0.00  0.00    -0.019 A 
ATOM     25  C   LIG d   1      12.164   6.677  -2.462  0.00  0.00    -0.051 A 
ATOM     26  H   LIG d   1      12.607   6.059  -0.469  0.00  0.00     0.065 H 
ATOM     27  H   LIG d   1      13.123   6.368  -2.852  0.00  0.00     0.062 H 
BRANCH  22  28
ATOM     28  O   LIG d   1      10.356   6.718   0.692  0.00  0.00    -0.495 OA
BRANCH  28  29
ATOM     29  C   LIG d   1      11.128   5.744   1.397  0.00  0.00     0.079 C 
ATOM     30  H   LIG d   1      11.505   5.001   0.694  0.00  0.00     0.066 H 
ATOM     31  H   LIG d   1      11.966   6.232   1.893  0.00  0.00     0.066 H 
ATOM     32  H   LIG d   1      10.501   5.253   2.141  0.00  0.00     0.066 H 
ENDBRANCH  28  29
ENDBRANCH  22  28
ENDBRANCH  11  18
ENDBRANCH   1  10
BRANCH   6  33
ATOM     33  O   LIG d   1      13.017   4.208  -5.148  0.00  0.00    -0.506 OA
ATOM     34  H   LIG d   1      13.348   5.055  -4.821  0.00  0.00     0.292 HD
ENDBRANCH   6  33
BRANCH   4  35
ATOM     35  O   LIG d   1       9.323   1.438  -4.029  0.00  0.00    -0.487 OA
BRANCH  35  36
ATOM     36  C   LIG d   1       8.507   0.728  -4.964  0.00  0.00     0.115 C 
ATOM     37  H   LIG d   1       9.112  -0.017  -5.481  0.00  0.00     0.075 H 
ATOM     38  H   LIG d   1       8.092   1.427  -5.689  0.00  0.00     0.075 H 
BRANCH  36  39
ATOM     39  C   LIG d   1       7.384   0.040  -4.230  0.00  0.00    -0.009 A 
ATOM     40  C   LIG d   1       6.564   0.766  -3.388  0.00  0.00    -0.036 A 
ATOM     41  C   LIG d   1       5.529   0.137  -2.719  0.00  0.00     0.060 A 
ATOM     42  H   LIG d   1       6.730   1.824  -3.252  0.00  0.00     0.064 H 
ATOM     43  C   LIG d   1       5.317  -1.221  -2.893  0.00  0.00     0.059 A 
ATOM     44 CL   LIG d   1       4.498   1.047  -1.660  0.00  0.00    -0.082 Cl
ATOM     45  C   LIG d   1       6.140  -1.945  -3.736  0.00  0.00    -0.042 A 
ATOM     46 CL   LIG d   1       4.021  -2.012  -2.054  0.00  0.00    -0.082 Cl
ATOM     47  C   LIG d   1       7.172  -1.315  -4.404  0.00  0.00    -0.054 A 
ATOM     48  H   LIG d   1       5.975  -3.004  -3.874  0.00  0.00     0.063 H 
ATOM     49  H   LIG d   1       7.815  -1.881  -5.063  0.00  0.00     0.062 H 
ENDBRANCH  36  39
ENDBRANCH  35  36
ENDBRANCH   4  35
TORSDOF 8
ENDMDL
MODEL 6
REMARK VINA RESULT:      -6.3      5.077      7.328
REMARK  8 active torsions:
REMARK  status: ('A' for Active; 'I' for Inactive)
REMARK    1  A    between atoms: C_1  and  O_2 
REMARK    2  A    between atoms: O_2  and  C_3 
REMARK    3  A    between atoms: C_6  and  C_9 
REMARK    4  A    between atoms: C_14  and  C_15 
REMARK    5  A    between atoms: C_18  and  O_22 
REMARK    6  A    between atoms: C_20  and  O_21 
REMARK    7  A    between atoms: O_22  and  C_23 
REMARK    8  A    between atoms: C_23  and  C_24 
ROOT
ATOM      1  C   LIG d   1       5.469  -2.642  -4.175  0.00  0.00     0.043 A 
ATOM      2  C   LIG d   1       4.594  -3.542  -4.785  0.00  0.00    -0.046 A 
ATOM      3  C   LIG d   1       5.085  -4.676  -5.393  0.00  0.00    -0.019 A 
ATOM      4  C   LIG d   1       6.451  -4.933  -5.392  0.00  0.00     0.124 A 
ATOM      5  C   LIG d   1       7.328  -4.046  -4.788  0.00  0.00     0.022 A 
ATOM      6  C   LIG d   1       6.846  -2.901  -4.179  0.00  0.00     0.130 A 
ATOM      7  H   LIG d   1       3.532  -3.346  -4.784  0.00  0.00     0.063 H 
ATOM      8  H   LIG d   1       4.407  -5.368  -5.868  0.00  0.00     0.065 H 
ATOM      9  H   LIG d   1       8.390  -4.248  -4.793  0.00  0.00     0.069 H 
ENDROOT
BRANCH   1  10
ATOM     10  C   LIG d   1       4.945  -1.420  -3.527  0.00  0.00     0.085 A 
ATOM     11  C   LIG d   1       4.512  -0.326  -4.301  0.00  0.00     0.026 A 
ATOM     12  C   LIG d   1       4.022   0.797  -3.633  0.00  0.00     0.039 A 
ATOM     13  N   LIG d   1       3.994   0.796  -2.311  0.00  0.00    -0.243 NA
ATOM     14  H   LIG d   1       3.676   1.656  -4.188  0.00  0.00     0.084 H 
ATOM     15  C   LIG d   1       4.413  -0.246  -1.619  0.00  0.00     0.117 A 
ATOM     16  N   LIG d   1       4.879  -1.332  -2.199  0.00  0.00    -0.235 NA
ATOM     17  H   LIG d   1       4.374  -0.207  -0.540  0.00  0.00     0.105 H 
BRANCH  11  18
ATOM     18  C   LIG d   1       4.569  -0.368  -5.781  0.00  0.00    -0.014 A 
ATOM     19  C   LIG d   1       3.392  -0.448  -6.524  0.00  0.00    -0.051 A 
ATOM     20  C   LIG d   1       3.449  -0.486  -7.901  0.00  0.00    -0.019 A 
ATOM     21  H   LIG d   1       2.436  -0.478  -6.021  0.00  0.00     0.062 H 
ATOM     22  C   LIG d   1       4.677  -0.445  -8.549  0.00  0.00     0.120 A 
ATOM     23  H   LIG d   1       2.537  -0.548  -8.477  0.00  0.00     0.065 H 
ATOM     24  C   LIG d   1       5.851  -0.367  -7.811  0.00  0.00    -0.019 A 
ATOM     25  C   LIG d   1       5.800  -0.322  -6.434  0.00  0.00    -0.051 A 
ATOM     26  H   LIG d   1       6.804  -0.336  -8.317  0.00  0.00     0.065 H 
ATOM     27  H   LIG d   1       6.714  -0.257  -5.862  0.00  0.00     0.062 H 
BRANCH  22  28
ATOM     28  O   LIG d   1       4.729  -0.483  -9.905  0.00  0.00    -0.495 OA
BRANCH  28  29
ATOM     29  C   LIG d   1       4.619   0.765 -10.593  0.00  0.00     0.079 C 
ATOM     30  H   LIG d   1       3.581   1.095 -10.583  0.00  0.00     0.066 H 
ATOM     31  H   LIG d   1       5.242   1.510 -10.098  0.00  0.00     0.066 H 
ATOM     32  H   LIG d   1       4.951   0.642 -11.624  0.00  0.00     0.066 H 
ENDBRANCH  28  29
ENDBRANCH  22  28
ENDBRANCH  11  18
ENDBRANCH   1  10
BRANCH   6  33
ATOM     33  O   LIG d   1       7.704  -2.029  -3.589  0.00  0.00    -0.506 OA
ATOM     34  H   LIG d   1       7.495  -1.834  -2.666  0.00  0.00     0.292 HD
ENDBRANCH   6  33
BRANCH   4  35
ATOM     35  O   LIG d   1       6.928  -6.056  -5.989  0.00  0.00    -0.487 OA
BRANCH  35  36
ATOM     36  C   LIG d   1       5.980  -7.080  -6.297  0.00  0.00     0.115 C 
ATOM     37  H   LIG d   1       6.257  -7.561  -7.234  0.00  0.00     0.075 H 
ATOM     38  H   LIG d   1       4.988  -6.640  -6.392  0.00  0.00     0.075 H 
BRANCH  36  39
ATOM     39  C   LIG d   1       5.970  -8.104  -5.191  0.00  0.00    -0.009 A 
ATOM     40  C   LIG d   1       4.801  -8.767  -4.874  0.00  0.00    -0.036 A 
ATOM     41  C   LIG d   1       4.792  -9.712  -3.863  0.00  0.00     0.060 A 
ATOM     42  H   LIG d   1       3.892  -8.549  -5.416  0.00  0.00     0.064 H 
ATOM     43  C   LIG d   1       5.957  -9.991  -3.169  0.00  0.00     0.059 A 
ATOM     44 CL   LIG d   1       3.323 -10.545  -3.464  0.00  0.00    -0.082 Cl
ATOM     45  C   LIG d   1       7.128  -9.327  -3.487  0.00  0.00    -0.042 A 
ATOM     46 CL   LIG d   1       5.949 -11.175  -1.900  0.00  0.00    -0.082 Cl
ATOM     47  C   LIG d   1       7.134  -8.384  -4.498  0.00  0.00    -0.054 A 
ATOM     48  H   LIG d   1       8.037  -9.544  -2.947  0.00  0.00     0.063 H 
ATOM     49  H   LIG d   1       8.048  -7.865  -4.746  0.00  0.00     0.062 H 
ENDBRANCH  36  39
ENDBRANCH  35  36
ENDBRANCH   4  35
TORSDOF 8
ENDMDL
MODEL 7
REMARK VINA RESULT:      -6.3      3.877      7.608
REMARK  8 active torsions:
REMARK  status: ('A' for Active; 'I' for Inactive)
REMARK    1  A    between atoms: C_1  and  O_2 
REMARK    2  A    between atoms: O_2  and  C_3 
REMARK    3  A    between atoms: C_6  and  C_9 
REMARK    4  A    between atoms: C_14  and  C_15 
REMARK    5  A    between atoms: C_18  and  O_22 
REMARK    6  A    between atoms: C_20  and  O_21 
REMARK    7  A    between atoms: O_22  and  C_23 
REMARK    8  A    between atoms: C_23  and  C_24 
ROOT
ATOM      1  C   LIG d   1       5.693  -2.381  -7.274  0.00  0.00     0.043 A 
ATOM      2  C   LIG d   1       6.231  -1.109  -7.472  0.00  0.00    -0.046 A 
ATOM      3  C   LIG d   1       5.427  -0.084  -7.921  0.00  0.00    -0.019 A 
ATOM      4  C   LIG d   1       4.079  -0.310  -8.168  0.00  0.00     0.124 A 
ATOM      5  C   LIG d   1       3.535  -1.570  -7.975  0.00  0.00     0.022 A 
ATOM      6  C   LIG d   1       4.334  -2.608  -7.528  0.00  0.00     0.130 A 
ATOM      7  H   LIG d   1       7.278  -0.929  -7.278  0.00  0.00     0.063 H 
ATOM      8  H   LIG d   1       5.847   0.898  -8.078  0.00  0.00     0.065 H 
ATOM      9  H   LIG d   1       2.487  -1.743  -8.172  0.00  0.00     0.069 H 
ENDROOT
BRANCH   1  10
ATOM     10  C   LIG d   1       6.553  -3.485  -6.797  0.00  0.00     0.085 A 
ATOM     11  C   LIG d   1       6.760  -3.691  -5.419  0.00  0.00     0.026 A 
ATOM     12  C   LIG d   1       7.578  -4.752  -5.030  0.00  0.00     0.039 A 
ATOM     13  N   LIG d   1       8.132  -5.511  -5.960  0.00  0.00    -0.243 NA
ATOM     14  H   LIG d   1       7.760  -4.948  -3.983  0.00  0.00     0.084 H 
ATOM     15  C   LIG d   1       7.919  -5.285  -7.242  0.00  0.00     0.117 A 
ATOM     16  N   LIG d   1       7.152  -4.302  -7.664  0.00  0.00    -0.235 NA
ATOM     17  H   LIG d   1       8.390  -5.929  -7.972  0.00  0.00     0.105 H 
BRANCH  11  18
ATOM     18  C   LIG d   1       6.123  -2.809  -4.412  0.00  0.00    -0.014 A 
ATOM     19  C   LIG d   1       4.822  -3.064  -3.984  0.00  0.00    -0.051 A 
ATOM     20  C   LIG d   1       4.233  -2.242  -3.047  0.00  0.00    -0.019 A 
ATOM     21  H   LIG d   1       4.275  -3.904  -4.386  0.00  0.00     0.062 H 
ATOM     22  C   LIG d   1       4.935  -1.161  -2.529  0.00  0.00     0.120 A 
ATOM     23  H   LIG d   1       3.223  -2.438  -2.714  0.00  0.00     0.065 H 
ATOM     24  C   LIG d   1       6.232  -0.905  -2.954  0.00  0.00    -0.019 A 
ATOM     25  C   LIG d   1       6.828  -1.727  -3.886  0.00  0.00    -0.051 A 
ATOM     26  H   LIG d   1       6.776  -0.064  -2.550  0.00  0.00     0.065 H 
ATOM     27  H   LIG d   1       7.838  -1.529  -4.213  0.00  0.00     0.062 H 
BRANCH  22  28
ATOM     28  O   LIG d   1       4.352  -0.354  -1.605  0.00  0.00    -0.495 OA
BRANCH  28  29
ATOM     29  C   LIG d   1       4.283   1.040  -1.914  0.00  0.00     0.079 C 
ATOM     30  H   LIG d   1       5.157   1.546  -1.505  0.00  0.00     0.066 H 
ATOM     31  H   LIG d   1       4.259   1.173  -2.995  0.00  0.00     0.066 H 
ATOM     32  H   LIG d   1       3.380   1.464  -1.477  0.00  0.00     0.066 H 
ENDBRANCH  28  29
ENDBRANCH  22  28
ENDBRANCH  11  18
ENDBRANCH   1  10
BRANCH   6  33
ATOM     33  O   LIG d   1       3.804  -3.844  -7.340  0.00  0.00    -0.506 OA
ATOM     34  H   LIG d   1       2.872  -3.838  -7.083  0.00  0.00     0.292 HD
ENDBRANCH   6  33
BRANCH   4  35
ATOM     35  O   LIG d   1       3.292   0.706  -8.607  0.00  0.00    -0.487 OA
BRANCH  35  36
ATOM     36  C   LIG d   1       3.650   1.314  -9.850  0.00  0.00     0.115 C 
ATOM     37  H   LIG d   1       4.709   1.571  -9.837  0.00  0.00     0.075 H 
ATOM     38  H   LIG d   1       3.058   2.216  -9.998  0.00  0.00     0.075 H 
BRANCH  36  39
ATOM     39  C   LIG d   1       3.382   0.348 -10.976  0.00  0.00    -0.009 A 
ATOM     40  C   LIG d   1       4.337   0.145 -11.953  0.00  0.00    -0.036 A 
ATOM     41  C   LIG d   1       4.094  -0.746 -12.984  0.00  0.00     0.060 A 
ATOM     42  H   LIG d   1       5.273   0.680 -11.913  0.00  0.00     0.064 H 
ATOM     43  C   LIG d   1       2.892  -1.433 -13.035  0.00  0.00     0.059 A 
ATOM     44 CL   LIG d   1       5.292  -1.001 -14.213  0.00  0.00    -0.082 Cl
ATOM     45  C   LIG d   1       1.937  -1.228 -12.056  0.00  0.00    -0.042 A 
ATOM     46 CL   LIG d   1       2.585  -2.550 -14.327  0.00  0.00    -0.082 Cl
ATOM     47  C   LIG d   1       2.182  -0.338 -11.027  0.00  0.00    -0.054 A 
ATOM     48  H   LIG d   1       1.000  -1.764 -12.094  0.00  0.00     0.063 H 
ATOM     49  H   LIG d   1       1.436  -0.179 -10.262  0.00  0.00     0.062 H 
ENDBRANCH  36  39
ENDBRANCH  35  36
ENDBRANCH   4  35
TORSDOF 8
ENDMDL
MODEL 8
REMARK VINA RESULT:      -6.2     11.767     15.629
REMARK  8 active torsions:
REMARK  status: ('A' for Active; 'I' for Inactive)
REMARK    1  A    between atoms: C_1  and  O_2 
REMARK    2  A    between atoms: O_2  and  C_3 
REMARK    3  A    between atoms: C_6  and  C_9 
REMARK    4  A    between atoms: C_14  and  C_15 
REMARK    5  A    between atoms: C_18  and  O_22 
REMARK    6  A    between atoms: C_20  and  O_21 
REMARK    7  A    between atoms: O_22  and  C_23 
REMARK    8  A    between atoms: C_23  and  C_24 
ROOT
ATOM      1  C   LIG d   1      10.225  11.408  -2.936  0.00  0.00     0.043 A 
ATOM      2  C   LIG d   1      11.417  10.952  -3.499  0.00  0.00    -0.046 A 
ATOM      3  C   LIG d   1      11.418  10.421  -4.771  0.00  0.00    -0.019 A 
ATOM      4  C   LIG d   1      10.237  10.348  -5.499  0.00  0.00     0.124 A 
ATOM      5  C   LIG d   1       9.048  10.799  -4.947  0.00  0.00     0.022 A 
ATOM      6  C   LIG d   1       9.034  11.330  -3.669  0.00  0.00     0.130 A 
ATOM      7  H   LIG d   1      12.337  11.010  -2.937  0.00  0.00     0.063 H 
ATOM      8  H   LIG d   1      12.341  10.064  -5.203  0.00  0.00     0.065 H 
ATOM      9  H   LIG d   1       8.131  10.737  -5.516  0.00  0.00     0.069 H 
ENDROOT
BRANCH   1  10
ATOM     10  C   LIG d   1      10.219  11.974  -1.569  0.00  0.00     0.085 A 
ATOM     11  C   LIG d   1      10.249  11.129  -0.442  0.00  0.00     0.026 A 
ATOM     12  C   LIG d   1      10.247  11.720   0.822  0.00  0.00     0.039 A 
ATOM     13  N   LIG d   1      10.206  13.039   0.913  0.00  0.00    -0.243 NA
ATOM     14  H   LIG d   1      10.274  11.110   1.712  0.00  0.00     0.084 H 
ATOM     15  C   LIG d   1      10.174  13.798  -0.165  0.00  0.00     0.117 A 
ATOM     16  N   LIG d   1      10.180  13.292  -1.380  0.00  0.00    -0.235 NA
ATOM     17  H   LIG d   1      10.141  14.872  -0.047  0.00  0.00     0.105 H 
BRANCH  11  18
ATOM     18  C   LIG d   1      10.287   9.655  -0.594  0.00  0.00    -0.014 A 
ATOM     19  C   LIG d   1       9.136   8.960  -0.963  0.00  0.00    -0.051 A 
ATOM     20  C   LIG d   1       9.176   7.589  -1.104  0.00  0.00    -0.019 A 
ATOM     21  H   LIG d   1       8.214   9.496  -1.139  0.00  0.00     0.062 H 
ATOM     22  C   LIG d   1      10.361   6.900  -0.879  0.00  0.00     0.120 A 
ATOM     23  H   LIG d   1       8.284   7.050  -1.390  0.00  0.00     0.065 H 
ATOM     24  C   LIG d   1      11.508   7.589  -0.510  0.00  0.00    -0.019 A 
ATOM     25  C   LIG d   1      11.476   8.961  -0.374  0.00  0.00    -0.051 A 
ATOM     26  H   LIG d   1      12.427   7.051  -0.336  0.00  0.00     0.065 H 
ATOM     27  H   LIG d   1      12.371   9.496  -0.092  0.00  0.00     0.062 H 
BRANCH  22  28
ATOM     28  O   LIG d   1      10.396   5.549  -1.018  0.00  0.00    -0.495 OA
BRANCH  28  29
ATOM     29  C   LIG d   1      11.586   4.986  -1.574  0.00  0.00     0.079 C 
ATOM     30  H   LIG d   1      12.457   5.445  -1.107  0.00  0.00     0.066 H 
ATOM     31  H   LIG d   1      11.600   3.912  -1.393  0.00  0.00     0.066 H 
ATOM     32  H   LIG d   1      11.609   5.173  -2.648  0.00  0.00     0.066 H 
ENDBRANCH  28  29
ENDBRANCH  22  28
ENDBRANCH  11  18
ENDBRANCH   1  10
BRANCH   6  33
ATOM     33  O   LIG d   1       7.870  11.771  -3.126  0.00  0.00    -0.506 OA
ATOM     34  H   LIG d   1       7.983  12.457  -2.456  0.00  0.00     0.292 HD
ENDBRANCH   6  33
BRANCH   4  35
ATOM     35  O   LIG d   1      10.247   9.827  -6.753  0.00  0.00    -0.487 OA
BRANCH  35  36
ATOM     36  C   LIG d   1       9.216   8.890  -7.073  0.00  0.00     0.115 C 
ATOM     37  H   LIG d   1       9.121   8.810  -8.156  0.00  0.00     0.075 H 
ATOM     38  H   LIG d   1       8.272   9.228  -6.649  0.00  0.00     0.075 H 
BRANCH  36  39
ATOM     39  C   LIG d   1       9.569   7.541  -6.501  0.00  0.00    -0.009 A 
ATOM     40  C   LIG d   1      10.242   6.616  -7.276  0.00  0.00    -0.036 A 
ATOM     41  C   LIG d   1      10.571   5.380  -6.749  0.00  0.00     0.060 A 
ATOM     42  H   LIG d   1      10.510   6.857  -8.293  0.00  0.00     0.064 H 
ATOM     43  C   LIG d   1      10.226   5.071  -5.444  0.00  0.00     0.059 A 
ATOM     44 CL   LIG d   1      11.414   4.217  -7.723  0.00  0.00    -0.082 Cl
ATOM     45  C   LIG d   1       9.554   5.998  -4.669  0.00  0.00    -0.042 A 
ATOM     46 CL   LIG d   1      10.638   3.521  -4.781  0.00  0.00    -0.082 Cl
ATOM     47  C   LIG d   1       9.226   7.232  -5.197  0.00  0.00    -0.054 A 
ATOM     48  H   LIG d   1       9.285   5.758  -3.650  0.00  0.00     0.063 H 
ATOM     49  H   LIG d   1       8.700   7.956  -4.591  0.00  0.00     0.062 H 
ENDBRANCH  36  39
ENDBRANCH  35  36
ENDBRANCH   4  35
TORSDOF 8
ENDMDL
MODEL 9
REMARK VINA RESULT:      -6.2      5.926      7.905
REMARK  8 active torsions:
REMARK  status: ('A' for Active; 'I' for Inactive)
REMARK    1  A    between atoms: C_1  and  O_2 
REMARK    2  A    between atoms: O_2  and  C_3 
REMARK    3  A    between atoms: C_6  and  C_9 
REMARK    4  A    between atoms: C_14  and  C_15 
REMARK    5  A    between atoms: C_18  and  O_22 
REMARK    6  A    between atoms: C_20  and  O_21 
REMARK    7  A    between atoms: O_22  and  C_23 
REMARK    8  A    between atoms: C_23  and  C_24 
ROOT
ATOM      1  C   LIG d   1       6.015  -2.458  -4.045  0.00  0.00     0.043 A 
ATOM      2  C   LIG d   1       7.316  -2.960  -3.988  0.00  0.00    -0.046 A 
ATOM      3  C   LIG d   1       7.627  -4.141  -4.625  0.00  0.00    -0.019 A 
ATOM      4  C   LIG d   1       6.652  -4.830  -5.334  0.00  0.00     0.124 A 
ATOM      5  C   LIG d   1       5.356  -4.340  -5.397  0.00  0.00     0.022 A 
ATOM      6  C   LIG d   1       5.031  -3.157  -4.757  0.00  0.00     0.130 A 
ATOM      7  H   LIG d   1       8.077  -2.424  -3.440  0.00  0.00     0.063 H 
ATOM      8  H   LIG d   1       8.633  -4.529  -4.575  0.00  0.00     0.065 H 
ATOM      9  H   LIG d   1       4.600  -4.882  -5.947  0.00  0.00     0.069 H 
ENDROOT
BRANCH   1  10
ATOM     10  C   LIG d   1       5.675  -1.194  -3.358  0.00  0.00     0.085 A 
ATOM     11  C   LIG d   1       6.196   0.033  -3.814  0.00  0.00     0.026 A 
ATOM     12  C   LIG d   1       5.836   1.194  -3.128  0.00  0.00     0.039 A 
ATOM     13  N   LIG d   1       5.036   1.098  -2.079  0.00  0.00    -0.243 NA
ATOM     14  H   LIG d   1       6.208   2.156  -3.447  0.00  0.00     0.084 H 
ATOM     15  C   LIG d   1       4.572  -0.070  -1.678  0.00  0.00     0.117 A 
ATOM     16  N   LIG d   1       4.876  -1.194  -2.292  0.00  0.00    -0.235 NA
ATOM     17  H   LIG d   1       3.921  -0.105  -0.816  0.00  0.00     0.105 H 
BRANCH  11  18
ATOM     18  C   LIG d   1       7.095   0.091  -4.991  0.00  0.00    -0.014 A 
ATOM     19  C   LIG d   1       8.465   0.278  -4.815  0.00  0.00    -0.051 A 
ATOM     20  C   LIG d   1       9.298   0.331  -5.913  0.00  0.00    -0.019 A 
ATOM     21  H   LIG d   1       8.873   0.381  -3.820  0.00  0.00     0.062 H 
ATOM     22  C   LIG d   1       8.774   0.198  -7.192  0.00  0.00     0.120 A 
ATOM     23  H   LIG d   1      10.360   0.476  -5.777  0.00  0.00     0.065 H 
ATOM     24  C   LIG d   1       7.410   0.012  -7.370  0.00  0.00    -0.019 A 
ATOM     25  C   LIG d   1       6.572  -0.047  -6.276  0.00  0.00    -0.051 A 
ATOM     26  H   LIG d   1       7.004  -0.091  -8.365  0.00  0.00     0.065 H 
ATOM     27  H   LIG d   1       5.511  -0.196  -6.415  0.00  0.00     0.062 H 
BRANCH  22  28
ATOM     28  O   LIG d   1       9.598   0.250  -8.271  0.00  0.00    -0.495 OA
BRANCH  28  29
ATOM     29  C   LIG d   1      10.345   1.454  -8.457  0.00  0.00     0.079 C 
ATOM     30  H   LIG d   1      10.701   1.814  -7.492  0.00  0.00     0.066 H 
ATOM     31  H   LIG d   1      11.196   1.258  -9.108  0.00  0.00     0.066 H 
ATOM     32  H   LIG d   1       9.707   2.211  -8.913  0.00  0.00     0.066 H 
ENDBRANCH  28  29
ENDBRANCH  22  28
ENDBRANCH  11  18
ENDBRANCH   1  10
BRANCH   6  33
ATOM     33  O   LIG d   1       3.763  -2.676  -4.816  0.00  0.00    -0.506 OA
ATOM     34  H   LIG d   1       3.266  -2.970  -5.591  0.00  0.00     0.292 HD
ENDBRANCH   6  33
BRANCH   4  35
ATOM     35  O   LIG d   1       6.967  -5.992  -5.964  0.00  0.00    -0.487 OA
BRANCH  35  36
ATOM     36  C   LIG d   1       5.895  -6.903  -6.218  0.00  0.00     0.115 C 
ATOM     37  H   LIG d   1       6.007  -7.326  -7.216  0.00  0.00     0.075 H 
ATOM     38  H   LIG d   1       4.945  -6.374  -6.152  0.00  0.00     0.075 H 
BRANCH  36  39
ATOM     39  C   LIG d   1       5.925  -8.011  -5.197  0.00  0.00    -0.009 A 
ATOM     40  C   LIG d   1       4.761  -8.680  -4.870  0.00  0.00    -0.036 A 
ATOM     41  C   LIG d   1       4.789  -9.701  -3.937  0.00  0.00     0.060 A 
ATOM     42  H   LIG d   1       3.830  -8.405  -5.342  0.00  0.00     0.064 H 
ATOM     43  C   LIG d   1       5.984 -10.052  -3.331  0.00  0.00     0.059 A 
ATOM     44 CL   LIG d   1       3.327 -10.541  -3.524  0.00  0.00    -0.082 Cl
ATOM     45  C   LIG d   1       7.148  -9.381  -3.660  0.00  0.00    -0.042 A 
ATOM     46 CL   LIG d   1       6.021 -11.332  -2.160  0.00  0.00    -0.082 Cl
ATOM     47  C   LIG d   1       7.118  -8.362  -4.593  0.00  0.00    -0.054 A 
ATOM     48  H   LIG d   1       8.081  -9.655  -3.189  0.00  0.00     0.063 H 
ATOM     49  H   LIG d   1       8.028  -7.839  -4.849  0.00  0.00     0.062 H 
ENDBRANCH  36  39
ENDBRANCH  35  36
ENDBRANCH   4  35
TORSDOF 8
ENDMDL
