MODEL 1
REMARK VINA RESULT:      -6.4      0.000      0.000
REMARK  14 active torsions:
REMARK  status: ('A' for Active; 'I' for Inactive)
REMARK    1  A    between atoms: C_3  and  O_50 
REMARK    2  A    between atoms: C_6  and  C_7 
REMARK    3  A    between atoms: C_15  and  O_48 
REMARK    4  A    between atoms: C_16  and  C_19 
REMARK    5  A    between atoms: C_17  and  O_18 
REMARK    6  A    between atoms: C_21  and  O_34 
REMARK    7  A    between atoms: C_23  and  O_33 
REMARK    8  A    between atoms: C_25  and  O_32 
REMARK    9  A    between atoms: C_27  and  C_30 
REMARK   10  A    between atoms: C_30  and  O_31 
REMARK   11  A    between atoms: O_34  and  C_35 
REMARK   12  A    between atoms: C_37  and  O_47 
REMARK   13  A    between atoms: C_39  and  O_46 
REMARK   14  A    between atoms: C_41  and  O_45 
ROOT
ATOM      1  C   LIG d   1       5.470  -3.197  -5.791  0.00  0.00     0.120 C 
ATOM      2  H   LIG d   1       4.688  -3.487  -5.090  0.00  0.00     0.068 H 
ATOM      3  C   LIG d   1       4.857  -2.977  -7.177  0.00  0.00     0.120 C 
ATOM      4  H   LIG d   1       5.631  -2.648  -7.869  0.00  0.00     0.065 H 
ATOM      5  C   LIG d   1       4.252  -4.294  -7.674  0.00  0.00     0.112 C 
ATOM      6  H   LIG d   1       3.863  -4.159  -8.683  0.00  0.00     0.065 H 
ATOM      7  C   LIG d   1       5.341  -5.371  -7.684  0.00  0.00     0.112 C 
ATOM      8  H   LIG d   1       6.125  -5.091  -8.388  0.00  0.00     0.065 H 
ATOM      9  C   LIG d   1       5.935  -5.499  -6.280  0.00  0.00     0.111 C 
ATOM     10  H   LIG d   1       6.739  -6.234  -6.290  0.00  0.00     0.065 H 
ATOM     11  O   LIG d   1       6.452  -4.233  -5.864  0.00  0.00    -0.361 OA
ENDROOT
BRANCH   1  12
ATOM     12  C   LIG d   1       6.119  -1.922  -5.320  0.00  0.00     0.067 A 
ATOM     13  C   LIG d   1       5.551  -1.198  -4.278  0.00  0.00     0.130 A 
ATOM     14  C   LIG d   1       6.138  -0.022  -3.830  0.00  0.00     0.023 A 
ATOM     15  C   LIG d   1       7.299   0.445  -4.419  0.00  0.00     0.139 A 
ATOM     16  H   LIG d   1       5.686   0.529  -3.018  0.00  0.00     0.069 H 
ATOM     17  C   LIG d   1       7.874  -0.281  -5.479  0.00  0.00     0.101 A 
ATOM     18  O   LIG d   1       7.873   1.587  -3.970  0.00  0.00    -0.483 OA
ATOM     19  C   LIG d   1       9.098   0.225  -6.108  0.00  0.00     0.174 C 
ATOM     20  C   LIG d   1       7.278  -1.471  -5.925  0.00  0.00     0.140 A 
ATOM     21  C   LIG d   1       9.820   1.348  -5.384  0.00  0.00     0.052 C 
ATOM     22  O   LIG d   1       9.513  -0.229  -7.154  0.00  0.00    -0.292 OA
ATOM     23  C   LIG d   1       8.747   2.303  -4.841  0.00  0.00     0.132 C 
ATOM     24  H   LIG d   1      10.473   1.878  -6.077  0.00  0.00     0.038 H 
ATOM     25  H   LIG d   1      10.406   0.941  -4.559  0.00  0.00     0.038 H 
ATOM     26  H   LIG d   1       8.174   2.715  -5.673  0.00  0.00     0.079 H 
BRANCH  13  27
ATOM     27  O   LIG d   1       4.411  -1.646  -3.694  0.00  0.00    -0.506 OA
ATOM     28  H   LIG d   1       3.966  -2.348  -4.186  0.00  0.00     0.292 HD
ENDBRANCH  13  27
BRANCH  23  29
ATOM     29  C   LIG d   1       9.408   3.424  -4.082  0.00  0.00    -0.007 A 
ATOM     30  C   LIG d   1      10.144   3.147  -2.946  0.00  0.00    -0.052 A 
ATOM     31  C   LIG d   1      10.752   4.174  -2.249  0.00  0.00    -0.020 A 
ATOM     32  H   LIG d   1      10.249   2.127  -2.605  0.00  0.00     0.062 H 
ATOM     33  C   LIG d   1      10.623   5.482  -2.690  0.00  0.00     0.117 A 
ATOM     34  H   LIG d   1      11.328   3.957  -1.360  0.00  0.00     0.065 H 
ATOM     35  C   LIG d   1       9.883   5.757  -3.831  0.00  0.00    -0.020 A 
ATOM     36  C   LIG d   1       9.278   4.728  -4.524  0.00  0.00    -0.052 A 
ATOM     37  H   LIG d   1       9.780   6.776  -4.176  0.00  0.00     0.065 H 
ATOM     38  H   LIG d   1       8.701   4.940  -5.413  0.00  0.00     0.062 H 
BRANCH  33  39
ATOM     39  O   LIG d   1      11.220   6.493  -2.005  0.00  0.00    -0.507 OA
ATOM     40  H   LIG d   1      12.040   6.810  -2.407  0.00  0.00     0.292 HD
ENDBRANCH  33  39
ENDBRANCH  23  29
BRANCH  20  41
ATOM     41  O   LIG d   1       7.836  -2.174  -6.941  0.00  0.00    -0.505 OA
ATOM     42  H   LIG d   1       7.436  -3.042  -7.085  0.00  0.00     0.292 HD
ENDBRANCH  20  41
ENDBRANCH   1  12
BRANCH   3  43
ATOM     43  O   LIG d   1       3.835  -1.983  -7.095  0.00  0.00    -0.340 OA
BRANCH  43  44
ATOM     44  C   LIG d   1       3.695  -1.194  -8.278  0.00  0.00     0.188 C 
ATOM     45  H   LIG d   1       3.744  -1.841  -9.154  0.00  0.00     0.094 H 
ATOM     46  O   LIG d   1       2.437  -0.518  -8.254  0.00  0.00    -0.346 OA
ATOM     47  C   LIG d   1       2.183   0.283  -9.409  0.00  0.00     0.079 C 
ATOM     48  C   LIG d   1       3.252   1.373  -9.519  0.00  0.00     0.107 C 
ATOM     49  H   LIG d   1       1.199   0.746  -9.323  0.00  0.00     0.059 H 
ATOM     50  H   LIG d   1       2.211  -0.344 -10.300  0.00  0.00     0.059 H 
ATOM     51  C   LIG d   1       4.635   0.717  -9.581  0.00  0.00     0.114 C 
ATOM     52  H   LIG d   1       3.085   1.958 -10.424  0.00  0.00     0.064 H 
ATOM     53  C   LIG d   1       4.826  -0.163  -8.342  0.00  0.00     0.134 C 
ATOM     54  H   LIG d   1       4.707   0.103 -10.479  0.00  0.00     0.065 H 
ATOM     55  H   LIG d   1       5.784  -0.677  -8.405  0.00  0.00     0.067 H 
BRANCH  48  56
ATOM     56  O   LIG d   1       3.181   2.229  -8.377  0.00  0.00    -0.387 OA
ATOM     57  H   LIG d   1       3.274   1.768  -7.532  0.00  0.00     0.210 HD
ENDBRANCH  48  56
BRANCH  51  58
ATOM     58  O   LIG d   1       5.644   1.728  -9.610  0.00  0.00    -0.386 OA
ATOM     59  H   LIG d   1       5.521   2.426  -8.951  0.00  0.00     0.210 HD
ENDBRANCH  51  58
BRANCH  53  60
ATOM     60  O   LIG d   1       4.796   0.650  -7.168  0.00  0.00    -0.384 OA
ATOM     61  H   LIG d   1       5.610   0.619  -6.646  0.00  0.00     0.210 HD
ENDBRANCH  53  60
ENDBRANCH  43  44
ENDBRANCH   3  43
BRANCH   9  62
ATOM     62  C   LIG d   1       4.845  -5.949  -5.304  0.00  0.00     0.073 C 
ATOM     63  H   LIG d   1       5.175  -5.768  -4.281  0.00  0.00     0.058 H 
ATOM     64  H   LIG d   1       3.931  -5.387  -5.496  0.00  0.00     0.058 H 
BRANCH  62  65
ATOM     65  O   LIG d   1       4.592  -7.345  -5.483  0.00  0.00    -0.392 OA
ATOM     66  H   LIG d   1       3.836  -7.676  -4.979  0.00  0.00     0.209 HD
ENDBRANCH  62  65
ENDBRANCH   9  62
BRANCH   5  67
ATOM     67  O   LIG d   1       3.192  -4.691  -6.803  0.00  0.00    -0.387 OA
ATOM     68  H   LIG d   1       2.310  -4.610  -7.193  0.00  0.00     0.210 HD
ENDBRANCH   5  67
BRANCH   7  69
ATOM     69  O   LIG d   1       4.772  -6.621  -8.079  0.00  0.00    -0.387 OA
ATOM     70  H   LIG d   1       5.363  -7.378  -7.962  0.00  0.00     0.210 HD
ENDBRANCH   7  69
TORSDOF 14
ENDMDL
MODEL 2
REMARK VINA RESULT:      -6.4      5.132      8.297
REMARK  14 active torsions:
REMARK  status: ('A' for Active; 'I' for Inactive)
REMARK    1  A    between atoms: C_3  and  O_50 
REMARK    2  A    between atoms: C_6  and  C_7 
REMARK    3  A    between atoms: C_15  and  O_48 
REMARK    4  A    between atoms: C_16  and  C_19 
REMARK    5  A    between atoms: C_17  and  O_18 
REMARK    6  A    between atoms: C_21  and  O_34 
REMARK    7  A    between atoms: C_23  and  O_33 
REMARK    8  A    between atoms: C_25  and  O_32 
REMARK    9  A    between atoms: C_27  and  C_30 
REMARK   10  A    between atoms: C_30  and  O_31 
REMARK   11  A    between atoms: O_34  and  C_35 
REMARK   12  A    between atoms: C_37  and  O_47 
REMARK   13  A    between atoms: C_39  and  O_46 
REMARK   14  A    between atoms: C_41  and  O_45 
ROOT
ATOM      1  C   LIG d   1       1.850  -3.162 -12.971  0.00  0.00     0.120 C 
ATOM      2  H   LIG d   1       2.739  -3.719 -13.265  0.00  0.00     0.068 H 
ATOM      3  C   LIG d   1       0.653  -4.114 -12.892  0.00  0.00     0.120 C 
ATOM      4  H   LIG d   1      -0.226  -3.565 -12.558  0.00  0.00     0.065 H 
ATOM      5  C   LIG d   1       0.391  -4.707 -14.279  0.00  0.00     0.112 C 
ATOM      6  H   LIG d   1      -0.493  -5.343 -14.243  0.00  0.00     0.065 H 
ATOM      7  C   LIG d   1       0.162  -3.567 -15.275  0.00  0.00     0.112 C 
ATOM      8  H   LIG d   1      -0.729  -3.007 -14.990  0.00  0.00     0.065 H 
ATOM      9  C   LIG d   1       1.376  -2.636 -15.262  0.00  0.00     0.111 C 
ATOM     10  H   LIG d   1       1.201  -1.799 -15.938  0.00  0.00     0.065 H 
ATOM     11  O   LIG d   1       1.585  -2.143 -13.937  0.00  0.00    -0.361 OA
ENDROOT
BRANCH   1  12
ATOM     12  C   LIG d   1       2.078  -2.529 -11.623  0.00  0.00     0.067 A 
ATOM     13  C   LIG d   1       1.245  -1.505 -11.186  0.00  0.00     0.130 A 
ATOM     14  C   LIG d   1       1.441  -0.913  -9.945  0.00  0.00     0.023 A 
ATOM     15  C   LIG d   1       2.471  -1.337  -9.126  0.00  0.00     0.139 A 
ATOM     16  H   LIG d   1       0.784  -0.120  -9.618  0.00  0.00     0.069 H 
ATOM     17  C   LIG d   1       3.321  -2.368  -9.566  0.00  0.00     0.101 A 
ATOM     18  O   LIG d   1       2.649  -0.763  -7.912  0.00  0.00    -0.483 OA
ATOM     19  C   LIG d   1       4.421  -2.805  -8.699  0.00  0.00     0.174 C 
ATOM     20  C   LIG d   1       3.117  -2.966 -10.820  0.00  0.00     0.140 A 
ATOM     21  C   LIG d   1       4.391  -2.310  -7.264  0.00  0.00     0.052 C 
ATOM     22  O   LIG d   1       5.307  -3.526  -9.107  0.00  0.00    -0.292 OA
ATOM     23  C   LIG d   1       3.935  -0.844  -7.298  0.00  0.00     0.132 C 
ATOM     24  H   LIG d   1       5.388  -2.379  -6.827  0.00  0.00     0.038 H 
ATOM     25  H   LIG d   1       3.688  -2.904  -6.681  0.00  0.00     0.038 H 
ATOM     26  H   LIG d   1       4.650  -0.254  -7.873  0.00  0.00     0.079 H 
BRANCH  13  27
ATOM     27  O   LIG d   1       0.232  -1.080 -11.981  0.00  0.00    -0.506 OA
ATOM     28  H   LIG d   1       0.354  -1.284 -12.918  0.00  0.00     0.292 HD
ENDBRANCH  13  27
BRANCH  23  29
ATOM     29  C   LIG d   1       3.856  -0.309  -5.892  0.00  0.00    -0.007 A 
ATOM     30  C   LIG d   1       2.719   0.351  -5.468  0.00  0.00    -0.052 A 
ATOM     31  C   LIG d   1       2.645   0.842  -4.178  0.00  0.00    -0.020 A 
ATOM     32  H   LIG d   1       1.885   0.479  -6.142  0.00  0.00     0.062 H 
ATOM     33  C   LIG d   1       3.713   0.672  -3.309  0.00  0.00     0.117 A 
ATOM     34  H   LIG d   1       1.755   1.358  -3.846  0.00  0.00     0.065 H 
ATOM     35  C   LIG d   1       4.854   0.009  -3.739  0.00  0.00    -0.020 A 
ATOM     36  C   LIG d   1       4.923  -0.480  -5.028  0.00  0.00    -0.052 A 
ATOM     37  H   LIG d   1       5.687  -0.123  -3.064  0.00  0.00     0.065 H 
ATOM     38  H   LIG d   1       5.811  -0.996  -5.364  0.00  0.00     0.062 H 
BRANCH  33  39
ATOM     39  O   LIG d   1       3.642   1.155  -2.041  0.00  0.00    -0.507 OA
ATOM     40  H   LIG d   1       3.174   1.998  -1.967  0.00  0.00     0.292 HD
ENDBRANCH  33  39
ENDBRANCH  23  29
BRANCH  20  41
ATOM     41  O   LIG d   1       3.932  -3.964 -11.241  0.00  0.00    -0.505 OA
ATOM     42  H   LIG d   1       4.755  -4.037 -10.740  0.00  0.00     0.292 HD
ENDBRANCH  20  41
ENDBRANCH   1  12
BRANCH   3  43
ATOM     43  O   LIG d   1       0.940  -5.165 -11.968  0.00  0.00    -0.340 OA
BRANCH  43  44
ATOM     44  C   LIG d   1      -0.212  -5.899 -11.547  0.00  0.00     0.188 C 
ATOM     45  H   LIG d   1      -0.650  -6.410 -12.404  0.00  0.00     0.094 H 
ATOM     46  O   LIG d   1       0.170  -6.861 -10.562  0.00  0.00    -0.346 OA
ATOM     47  C   LIG d   1      -0.908  -7.670 -10.089  0.00  0.00     0.079 C 
ATOM     48  C   LIG d   1      -1.964  -6.779  -9.430  0.00  0.00     0.107 C 
ATOM     49  H   LIG d   1      -0.531  -8.388  -9.359  0.00  0.00     0.059 H 
ATOM     50  H   LIG d   1      -1.355  -8.206 -10.926  0.00  0.00     0.059 H 
ATOM     51  C   LIG d   1      -2.446  -5.736 -10.444  0.00  0.00     0.114 C 
ATOM     52  H   LIG d   1      -2.807  -7.390  -9.108  0.00  0.00     0.064 H 
ATOM     53  C   LIG d   1      -1.240  -4.935 -10.947  0.00  0.00     0.134 C 
ATOM     54  H   LIG d   1      -2.925  -6.239 -11.284  0.00  0.00     0.065 H 
ATOM     55  H   LIG d   1      -1.566  -4.229 -11.710  0.00  0.00     0.067 H 
BRANCH  48  56
ATOM     56  O   LIG d   1      -1.394  -6.118  -8.299  0.00  0.00    -0.387 OA
ATOM     57  H   LIG d   1      -1.174  -6.709  -7.567  0.00  0.00     0.210 HD
ENDBRANCH  48  56
BRANCH  51  58
ATOM     58  O   LIG d   1      -3.378  -4.853  -9.818  0.00  0.00    -0.386 OA
ATOM     59  H   LIG d   1      -3.916  -5.272  -9.132  0.00  0.00     0.210 HD
ENDBRANCH  51  58
BRANCH  53  60
ATOM     60  O   LIG d   1      -0.649  -4.225  -9.858  0.00  0.00    -0.384 OA
ATOM     61  H   LIG d   1       0.257  -3.931 -10.025  0.00  0.00     0.210 HD
ENDBRANCH  53  60
ENDBRANCH  43  44
ENDBRANCH   3  43
BRANCH   9  62
ATOM     62  C   LIG d   1       2.616  -3.409 -15.719  0.00  0.00     0.073 C 
ATOM     63  H   LIG d   1       3.513  -2.853 -15.443  0.00  0.00     0.058 H 
ATOM     64  H   LIG d   1       2.631  -4.386 -15.238  0.00  0.00     0.058 H 
BRANCH  62  65
ATOM     65  O   LIG d   1       2.577  -3.577 -17.138  0.00  0.00    -0.392 OA
ATOM     66  H   LIG d   1       1.713  -3.397 -17.532  0.00  0.00     0.209 HD
ENDBRANCH  62  65
ENDBRANCH   9  62
BRANCH   5  67
ATOM     67  O   LIG d   1       1.520  -5.482 -14.689  0.00  0.00    -0.387 OA
ATOM     68  H   LIG d   1       2.371  -5.112 -14.416  0.00  0.00     0.210 HD
ENDBRANCH   5  67
BRANCH   7  69
ATOM     69  O   LIG d   1      -0.014  -4.106 -16.587  0.00  0.00    -0.387 OA
ATOM     70  H   LIG d   1      -0.867  -4.541 -16.723  0.00  0.00     0.210 HD
ENDBRANCH   7  69
TORSDOF 14
ENDMDL
MODEL 3
REMARK VINA RESULT:      -6.3      0.921      1.945
REMARK  14 active torsions:
REMARK  status: ('A' for Active; 'I' for Inactive)
REMARK    1  A    between atoms: C_3  and  O_50 
REMARK    2  A    between atoms: C_6  and  C_7 
REMARK    3  A    between atoms: C_15  and  O_48 
REMARK    4  A    between atoms: C_16  and  C_19 
REMARK    5  A    between atoms: C_17  and  O_18 
REMARK    6  A    between atoms: C_21  and  O_34 
REMARK    7  A    between atoms: C_23  and  O_33 
REMARK    8  A    between atoms: C_25  and  O_32 
REMARK    9  A    between atoms: C_27  and  C_30 
REMARK   10  A    between atoms: C_30  and  O_31 
REMARK   11  A    between atoms: O_34  and  C_35 
REMARK   12  A    between atoms: C_37  and  O_47 
REMARK   13  A    between atoms: C_39  and  O_46 
REMARK   14  A    between atoms: C_41  and  O_45 
ROOT
ATOM      1  C   LIG d   1       5.692  -3.586  -6.258  0.00  0.00     0.120 C 
ATOM      2  H   LIG d   1       5.037  -3.789  -5.411  0.00  0.00     0.068 H 
ATOM      3  C   LIG d   1       4.846  -3.323  -7.507  0.00  0.00     0.120 C 
ATOM      4  H   LIG d   1       5.500  -3.079  -8.344  0.00  0.00     0.065 H 
ATOM      5  C   LIG d   1       4.035  -4.579  -7.838  0.00  0.00     0.112 C 
ATOM      6  H   LIG d   1       3.473  -4.418  -8.758  0.00  0.00     0.065 H 
ATOM      7  C   LIG d   1       4.995  -5.758  -8.024  0.00  0.00     0.112 C 
ATOM      8  H   LIG d   1       5.651  -5.564  -8.873  0.00  0.00     0.065 H 
ATOM      9  C   LIG d   1       5.835  -5.927  -6.756  0.00  0.00     0.111 C 
ATOM     10  H   LIG d   1       6.549  -6.738  -6.898  0.00  0.00     0.065 H 
ATOM     11  O   LIG d   1       6.539  -4.713  -6.486  0.00  0.00    -0.361 OA
ENDROOT
BRANCH   1  12
ATOM     12  C   LIG d   1       6.537  -2.375  -5.959  0.00  0.00     0.067 A 
ATOM     13  C   LIG d   1       7.677  -2.121  -6.711  0.00  0.00     0.130 A 
ATOM     14  C   LIG d   1       8.466  -1.008  -6.450  0.00  0.00     0.023 A 
ATOM     15  C   LIG d   1       8.123  -0.135  -5.434  0.00  0.00     0.139 A 
ATOM     16  H   LIG d   1       9.349  -0.822  -7.045  0.00  0.00     0.069 H 
ATOM     17  C   LIG d   1       6.973  -0.391  -4.664  0.00  0.00     0.101 A 
ATOM     18  O   LIG d   1       8.890   0.955  -5.191  0.00  0.00    -0.483 OA
ATOM     19  C   LIG d   1       6.621   0.530  -3.579  0.00  0.00     0.174 C 
ATOM     20  C   LIG d   1       6.178  -1.516  -4.935  0.00  0.00     0.140 A 
ATOM     21  C   LIG d   1       7.364   1.854  -3.544  0.00  0.00     0.052 C 
ATOM     22  O   LIG d   1       5.779   0.249  -2.751  0.00  0.00    -0.292 OA
ATOM     23  C   LIG d   1       8.829   1.562  -3.901  0.00  0.00     0.132 C 
ATOM     24  H   LIG d   1       7.304   2.287  -2.545  0.00  0.00     0.038 H 
ATOM     25  H   LIG d   1       6.934   2.540  -4.273  0.00  0.00     0.038 H 
ATOM     26  H   LIG d   1       9.256   0.885  -3.160  0.00  0.00     0.079 H 
BRANCH  13  27
ATOM     27  O   LIG d   1       8.024  -2.970  -7.711  0.00  0.00    -0.506 OA
ATOM     28  H   LIG d   1       8.614  -3.684  -7.434  0.00  0.00     0.292 HD
ENDBRANCH  13  27
BRANCH  23  29
ATOM     29  C   LIG d   1       9.610   2.851  -3.914  0.00  0.00    -0.007 A 
ATOM     30  C   LIG d   1      10.520   3.116  -2.908  0.00  0.00    -0.052 A 
ATOM     31  C   LIG d   1      11.237   4.296  -2.918  0.00  0.00    -0.020 A 
ATOM     32  H   LIG d   1      10.674   2.397  -2.116  0.00  0.00     0.062 H 
ATOM     33  C   LIG d   1      11.044   5.216  -3.939  0.00  0.00     0.117 A 
ATOM     34  H   LIG d   1      11.949   4.504  -2.132  0.00  0.00     0.065 H 
ATOM     35  C   LIG d   1      10.129   4.948  -4.947  0.00  0.00    -0.020 A 
ATOM     36  C   LIG d   1       9.415   3.766  -4.932  0.00  0.00    -0.052 A 
ATOM     37  H   LIG d   1       9.976   5.663  -5.742  0.00  0.00     0.065 H 
ATOM     38  H   LIG d   1       8.702   3.556  -5.717  0.00  0.00     0.062 H 
BRANCH  33  39
ATOM     39  O   LIG d   1      11.748   6.378  -3.950  0.00  0.00    -0.507 OA
ATOM     40  H   LIG d   1      12.258   6.521  -4.759  0.00  0.00     0.292 HD
ENDBRANCH  33  39
ENDBRANCH  23  29
BRANCH  20  41
ATOM     41  O   LIG d   1       5.066  -1.759  -4.199  0.00  0.00    -0.505 OA
ATOM     42  H   LIG d   1       5.248  -2.116  -3.319  0.00  0.00     0.292 HD
ENDBRANCH  20  41
ENDBRANCH   1  12
BRANCH   3  43
ATOM     43  O   LIG d   1       3.958  -2.231  -7.261  0.00  0.00    -0.340 OA
BRANCH  43  44
ATOM     44  C   LIG d   1       3.733  -1.397  -8.399  0.00  0.00     0.188 C 
ATOM     45  H   LIG d   1       3.734  -2.006  -9.302  0.00  0.00     0.094 H 
ATOM     46  O   LIG d   1       2.470  -0.743  -8.268  0.00  0.00    -0.346 OA
ATOM     47  C   LIG d   1       2.133   0.102  -9.370  0.00  0.00     0.079 C 
ATOM     48  C   LIG d   1       3.179   1.212  -9.501  0.00  0.00     0.107 C 
ATOM     49  H   LIG d   1       1.150   0.545  -9.202  0.00  0.00     0.059 H 
ATOM     50  H   LIG d   1       2.112  -0.489 -10.287  0.00  0.00     0.059 H 
ATOM     51  C   LIG d   1       4.563   0.580  -9.677  0.00  0.00     0.114 C 
ATOM     52  H   LIG d   1       2.947   1.830 -10.369  0.00  0.00     0.064 H 
ATOM     53  C   LIG d   1       4.844  -0.347  -8.490  0.00  0.00     0.134 C 
ATOM     54  H   LIG d   1       4.586   0.005 -10.603  0.00  0.00     0.065 H 
ATOM     55  H   LIG d   1       5.803  -0.843  -8.636  0.00  0.00     0.067 H 
BRANCH  48  56
ATOM     56  O   LIG d   1       3.169   2.019  -8.322  0.00  0.00    -0.387 OA
ATOM     57  H   LIG d   1       2.310   2.056  -7.877  0.00  0.00     0.210 HD
ENDBRANCH  48  56
BRANCH  51  58
ATOM     58  O   LIG d   1       5.555   1.607  -9.727  0.00  0.00    -0.386 OA
ATOM     59  H   LIG d   1       5.938   1.827  -8.866  0.00  0.00     0.210 HD
ENDBRANCH  51  58
BRANCH  53  60
ATOM     60  O   LIG d   1       4.878   0.417  -7.284  0.00  0.00    -0.384 OA
ATOM     61  H   LIG d   1       5.605   1.053  -7.241  0.00  0.00     0.210 HD
ENDBRANCH  53  60
ENDBRANCH  43  44
ENDBRANCH   3  43
BRANCH   9  62
ATOM     62  C   LIG d   1       4.916  -6.257  -5.577  0.00  0.00     0.073 C 
ATOM     63  H   LIG d   1       5.453  -6.092  -4.642  0.00  0.00     0.058 H 
ATOM     64  H   LIG d   1       4.038  -5.613  -5.610  0.00  0.00     0.058 H 
BRANCH  62  65
ATOM     65  O   LIG d   1       4.508  -7.625  -5.658  0.00  0.00    -0.392 OA
ATOM     66  H   LIG d   1       4.203  -7.994  -4.819  0.00  0.00     0.209 HD
ENDBRANCH  62  65
ENDBRANCH   9  62
BRANCH   5  67
ATOM     67  O   LIG d   1       3.131  -4.860  -6.769  0.00  0.00    -0.387 OA
ATOM     68  H   LIG d   1       2.857  -5.787  -6.718  0.00  0.00     0.210 HD
ENDBRANCH   5  67
BRANCH   7  69
ATOM     69  O   LIG d   1       4.245  -6.951  -8.264  0.00  0.00    -0.387 OA
ATOM     70  H   LIG d   1       4.046  -7.110  -9.197  0.00  0.00     0.210 HD
ENDBRANCH   7  69
TORSDOF 14
ENDMDL
MODEL 4
REMARK VINA RESULT:      -6.3      2.898      9.002
REMARK  14 active torsions:
REMARK  status: ('A' for Active; 'I' for Inactive)
REMARK    1  A    between atoms: C_3  and  O_50 
REMARK    2  A    between atoms: C_6  and  C_7 
REMARK    3  A    between atoms: C_15  and  O_48 
REMARK    4  A    between atoms: C_16  and  C_19 
REMARK    5  A    between atoms: C_17  and  O_18 
REMARK    6  A    between atoms: C_21  and  O_34 
REMARK    7  A    between atoms: C_23  and  O_33 
REMARK    8  A    between atoms: C_25  and  O_32 
REMARK    9  A    between atoms: C_27  and  C_30 
REMARK   10  A    between atoms: C_30  and  O_31 
REMARK   11  A    between atoms: O_34  and  C_35 
REMARK   12  A    between atoms: C_37  and  O_47 
REMARK   13  A    between atoms: C_39  and  O_46 
REMARK   14  A    between atoms: C_41  and  O_45 
ROOT
ATOM      1  C   LIG d   1       7.558   0.080  -7.067  0.00  0.00     0.120 C 
ATOM      2  H   LIG d   1       7.618   1.137  -7.324  0.00  0.00     0.068 H 
ATOM      3  C   LIG d   1       7.307  -0.068  -5.564  0.00  0.00     0.120 C 
ATOM      4  H   LIG d   1       7.206  -1.123  -5.314  0.00  0.00     0.065 H 
ATOM      5  C   LIG d   1       8.490   0.531  -4.796  0.00  0.00     0.112 C 
ATOM      6  H   LIG d   1       8.344   0.380  -3.727  0.00  0.00     0.065 H 
ATOM      7  C   LIG d   1       9.778  -0.167  -5.242  0.00  0.00     0.112 C 
ATOM      8  H   LIG d   1       9.728  -1.225  -4.984  0.00  0.00     0.065 H 
ATOM      9  C   LIG d   1       9.934  -0.017  -6.756  0.00  0.00     0.111 C 
ATOM     10  H   LIG d   1      10.827  -0.547  -7.085  0.00  0.00     0.065 H 
ATOM     11  O   LIG d   1       8.787  -0.564  -7.410  0.00  0.00    -0.361 OA
ENDROOT
BRANCH   1  12
ATOM     12  C   LIG d   1       6.427  -0.558  -7.830  0.00  0.00     0.067 A 
ATOM     13  C   LIG d   1       6.390  -1.938  -7.993  0.00  0.00     0.130 A 
ATOM     14  C   LIG d   1       5.353  -2.543  -8.692  0.00  0.00     0.023 A 
ATOM     15  C   LIG d   1       4.340  -1.775  -9.236  0.00  0.00     0.139 A 
ATOM     16  H   LIG d   1       5.336  -3.617  -8.808  0.00  0.00     0.069 H 
ATOM     17  C   LIG d   1       4.376  -0.376  -9.080  0.00  0.00     0.101 A 
ATOM     18  O   LIG d   1       3.325  -2.371  -9.907  0.00  0.00    -0.483 OA
ATOM     19  C   LIG d   1       3.306   0.435  -9.671  0.00  0.00     0.174 C 
ATOM     20  C   LIG d   1       5.425   0.228  -8.370  0.00  0.00     0.140 A 
ATOM     21  C   LIG d   1       2.081  -0.313 -10.166  0.00  0.00     0.052 C 
ATOM     22  O   LIG d   1       3.395   1.641  -9.759  0.00  0.00    -0.292 OA
ATOM     23  C   LIG d   1       2.577  -1.599 -10.844  0.00  0.00     0.132 C 
ATOM     24  H   LIG d   1       1.536   0.300 -10.884  0.00  0.00     0.038 H 
ATOM     25  H   LIG d   1       1.434  -0.563  -9.325  0.00  0.00     0.038 H 
ATOM     26  H   LIG d   1       3.213  -1.340 -11.692  0.00  0.00     0.079 H 
BRANCH  13  27
ATOM     27  O   LIG d   1       7.379  -2.703  -7.464  0.00  0.00    -0.506 OA
ATOM     28  H   LIG d   1       7.093  -3.588  -7.200  0.00  0.00     0.292 HD
ENDBRANCH  13  27
BRANCH  23  29
ATOM     29  C   LIG d   1       1.396  -2.400 -11.328  0.00  0.00    -0.007 A 
ATOM     30  C   LIG d   1       0.712  -2.004 -12.461  0.00  0.00    -0.052 A 
ATOM     31  C   LIG d   1      -0.371  -2.738 -12.907  0.00  0.00    -0.020 A 
ATOM     32  H   LIG d   1       1.026  -1.124 -13.003  0.00  0.00     0.062 H 
ATOM     33  C   LIG d   1      -0.771  -3.872 -12.216  0.00  0.00     0.117 A 
ATOM     34  H   LIG d   1      -0.906  -2.429 -13.794  0.00  0.00     0.065 H 
ATOM     35  C   LIG d   1      -0.082  -4.267 -11.078  0.00  0.00    -0.020 A 
ATOM     36  C   LIG d   1       0.999  -3.530 -10.637  0.00  0.00    -0.052 A 
ATOM     37  H   LIG d   1      -0.393  -5.149 -10.537  0.00  0.00     0.065 H 
ATOM     38  H   LIG d   1       1.536  -3.836  -9.750  0.00  0.00     0.062 H 
BRANCH  33  39
ATOM     39  O   LIG d   1      -1.836  -4.595 -12.652  0.00  0.00    -0.507 OA
ATOM     40  H   LIG d   1      -1.732  -4.949 -13.546  0.00  0.00     0.292 HD
ENDBRANCH  33  39
ENDBRANCH  23  29
BRANCH  20  41
ATOM     41  O   LIG d   1       5.456   1.575  -8.214  0.00  0.00    -0.505 OA
ATOM     42  H   LIG d   1       5.529   2.065  -9.044  0.00  0.00     0.292 HD
ENDBRANCH  20  41
ENDBRANCH   1  12
BRANCH   3  43
ATOM     43  O   LIG d   1       6.108   0.624  -5.210  0.00  0.00    -0.340 OA
BRANCH  43  44
ATOM     44  C   LIG d   1       5.494   0.147  -4.011  0.00  0.00     0.188 C 
ATOM     45  H   LIG d   1       6.211   0.197  -3.192  0.00  0.00     0.094 H 
ATOM     46  O   LIG d   1       4.360   0.959  -3.702  0.00  0.00    -0.346 OA
ATOM     47  C   LIG d   1       3.684   0.582  -2.501  0.00  0.00     0.079 C 
ATOM     48  C   LIG d   1       3.162  -0.850  -2.637  0.00  0.00     0.107 C 
ATOM     49  H   LIG d   1       2.847   1.260  -2.326  0.00  0.00     0.059 H 
ATOM     50  H   LIG d   1       4.377   0.638  -1.660  0.00  0.00     0.059 H 
ATOM     51  C   LIG d   1       4.335  -1.787  -2.940  0.00  0.00     0.114 C 
ATOM     52  H   LIG d   1       2.684  -1.154  -1.705  0.00  0.00     0.064 H 
ATOM     53  C   LIG d   1       5.045  -1.303  -4.209  0.00  0.00     0.134 C 
ATOM     54  H   LIG d   1       5.035  -1.777  -2.105  0.00  0.00     0.065 H 
ATOM     55  H   LIG d   1       5.915  -1.931  -4.400  0.00  0.00     0.067 H 
BRANCH  48  56
ATOM     56  O   LIG d   1       2.212  -0.913  -3.703  0.00  0.00    -0.387 OA
ATOM     57  H   LIG d   1       1.988  -1.813  -3.978  0.00  0.00     0.210 HD
ENDBRANCH  48  56
BRANCH  51  58
ATOM     58  O   LIG d   1       3.849  -3.115  -3.142  0.00  0.00    -0.386 OA
ATOM     59  H   LIG d   1       3.528  -3.285  -4.038  0.00  0.00     0.210 HD
ENDBRANCH  51  58
BRANCH  53  60
ATOM     60  O   LIG d   1       4.147  -1.377  -5.318  0.00  0.00    -0.384 OA
ATOM     61  H   LIG d   1       4.243  -0.653  -5.951  0.00  0.00     0.210 HD
ENDBRANCH  53  60
ENDBRANCH  43  44
ENDBRANCH   3  43
BRANCH   9  62
ATOM     62  C   LIG d   1      10.063   1.467  -7.111  0.00  0.00     0.073 C 
ATOM     63  H   LIG d   1       9.887   1.602  -8.178  0.00  0.00     0.058 H 
ATOM     64  H   LIG d   1       9.328   2.040  -6.546  0.00  0.00     0.058 H 
BRANCH  62  65
ATOM     65  O   LIG d   1      11.377   1.923  -6.782  0.00  0.00    -0.392 OA
ATOM     66  H   LIG d   1      11.986   1.218  -6.527  0.00  0.00     0.209 HD
ENDBRANCH  62  65
ENDBRANCH   9  62
BRANCH   5  67
ATOM     67  O   LIG d   1       8.581   1.929  -5.073  0.00  0.00    -0.387 OA
ATOM     68  H   LIG d   1       8.384   2.163  -5.991  0.00  0.00     0.210 HD
ENDBRANCH   5  67
BRANCH   7  69
ATOM     69  O   LIG d   1      10.897   0.431  -4.584  0.00  0.00    -0.387 OA
ATOM     70  H   LIG d   1      11.657   0.588  -5.161  0.00  0.00     0.210 HD
ENDBRANCH   7  69
TORSDOF 14
ENDMDL
MODEL 5
REMARK VINA RESULT:      -6.2      3.339      5.417
REMARK  14 active torsions:
REMARK  status: ('A' for Active; 'I' for Inactive)
REMARK    1  A    between atoms: C_3  and  O_50 
REMARK    2  A    between atoms: C_6  and  C_7 
REMARK    3  A    between atoms: C_15  and  O_48 
REMARK    4  A    between atoms: C_16  and  C_19 
REMARK    5  A    between atoms: C_17  and  O_18 
REMARK    6  A    between atoms: C_21  and  O_34 
REMARK    7  A    between atoms: C_23  and  O_33 
REMARK    8  A    between atoms: C_25  and  O_32 
REMARK    9  A    between atoms: C_27  and  C_30 
REMARK   10  A    between atoms: C_30  and  O_31 
REMARK   11  A    between atoms: O_34  and  C_35 
REMARK   12  A    between atoms: C_37  and  O_47 
REMARK   13  A    between atoms: C_39  and  O_46 
REMARK   14  A    between atoms: C_41  and  O_45 
ROOT
ATOM      1  C   LIG d   1       9.382  -0.739  -4.982  0.00  0.00     0.120 C 
ATOM      2  H   LIG d   1       9.843  -0.839  -3.999  0.00  0.00     0.068 H 
ATOM      3  C   LIG d   1       7.922  -1.195  -4.912  0.00  0.00     0.120 C 
ATOM      4  H   LIG d   1       7.451  -1.057  -5.884  0.00  0.00     0.065 H 
ATOM      5  C   LIG d   1       7.877  -2.677  -4.526  0.00  0.00     0.112 C 
ATOM      6  H   LIG d   1       6.843  -3.023  -4.528  0.00  0.00     0.065 H 
ATOM      7  C   LIG d   1       8.689  -3.483  -5.544  0.00  0.00     0.112 C 
ATOM      8  H   LIG d   1       8.232  -3.392  -6.530  0.00  0.00     0.065 H 
ATOM      9  C   LIG d   1      10.119  -2.939  -5.591  0.00  0.00     0.111 C 
ATOM     10  H   LIG d   1      10.690  -3.481  -6.344  0.00  0.00     0.065 H 
ATOM     11  O   LIG d   1      10.089  -1.549  -5.923  0.00  0.00    -0.361 OA
ENDROOT
BRANCH   1  12
ATOM     12  C   LIG d   1       9.438   0.702  -5.418  0.00  0.00     0.067 A 
ATOM     13  C   LIG d   1       9.387   1.021  -6.769  0.00  0.00     0.130 A 
ATOM     14  C   LIG d   1       9.435   2.345  -7.188  0.00  0.00     0.023 A 
ATOM     15  C   LIG d   1       9.534   3.365  -6.259  0.00  0.00     0.139 A 
ATOM     16  H   LIG d   1       9.392   2.578  -8.242  0.00  0.00     0.069 H 
ATOM     17  C   LIG d   1       9.593   3.046  -4.889  0.00  0.00     0.101 A 
ATOM     18  O   LIG d   1       9.569   4.654  -6.672  0.00  0.00    -0.483 OA
ATOM     19  C   LIG d   1       9.712   4.131  -3.909  0.00  0.00     0.174 C 
ATOM     20  C   LIG d   1       9.541   1.707  -4.473  0.00  0.00     0.140 A 
ATOM     21  C   LIG d   1       9.475   5.540  -4.424  0.00  0.00     0.052 C 
ATOM     22  O   LIG d   1       9.985   3.914  -2.747  0.00  0.00    -0.292 OA
ATOM     23  C   LIG d   1      10.137   5.636  -5.807  0.00  0.00     0.132 C 
ATOM     24  H   LIG d   1       9.926   6.264  -3.745  0.00  0.00     0.038 H 
ATOM     25  H   LIG d   1       8.405   5.728  -4.511  0.00  0.00     0.038 H 
ATOM     26  H   LIG d   1      11.209   5.459  -5.709  0.00  0.00     0.079 H 
BRANCH  13  27
ATOM     27  O   LIG d   1       9.290   0.029  -7.690  0.00  0.00    -0.506 OA
ATOM     28  H   LIG d   1       8.383  -0.174  -7.956  0.00  0.00     0.292 HD
ENDBRANCH  13  27
BRANCH  23  29
ATOM     29  C   LIG d   1       9.904   7.010  -6.381  0.00  0.00    -0.007 A 
ATOM     30  C   LIG d   1       9.739   8.091  -5.538  0.00  0.00    -0.052 A 
ATOM     31  C   LIG d   1       9.527   9.352  -6.063  0.00  0.00    -0.020 A 
ATOM     32  H   LIG d   1       9.782   7.953  -4.467  0.00  0.00     0.062 H 
ATOM     33  C   LIG d   1       9.479   9.530  -7.438  0.00  0.00     0.117 A 
ATOM     34  H   LIG d   1       9.398  10.198  -5.403  0.00  0.00     0.065 H 
ATOM     35  C   LIG d   1       9.645   8.442  -8.282  0.00  0.00    -0.020 A 
ATOM     36  C   LIG d   1       9.857   7.185  -7.753  0.00  0.00    -0.052 A 
ATOM     37  H   LIG d   1       9.606   8.579  -9.353  0.00  0.00     0.065 H 
ATOM     38  H   LIG d   1       9.986   6.336  -8.409  0.00  0.00     0.062 H 
BRANCH  33  39
ATOM     39  O   LIG d   1       9.269  10.769  -7.956  0.00  0.00    -0.507 OA
ATOM     40  H   LIG d   1       8.335  11.000  -8.055  0.00  0.00     0.292 HD
ENDBRANCH  33  39
ENDBRANCH  23  29
BRANCH  20  41
ATOM     41  O   LIG d   1       9.591   1.401  -3.153  0.00  0.00    -0.505 OA
ATOM     42  H   LIG d   1       8.732   1.175  -2.769  0.00  0.00     0.292 HD
ENDBRANCH  20  41
ENDBRANCH   1  12
BRANCH   3  43
ATOM     43  O   LIG d   1       7.229  -0.424  -3.930  0.00  0.00    -0.340 OA
BRANCH  43  44
ATOM     44  C   LIG d   1       5.833  -0.717  -3.840  0.00  0.00     0.188 C 
ATOM     45  H   LIG d   1       5.599  -1.570  -4.477  0.00  0.00     0.094 H 
ATOM     46  O   LIG d   1       5.497  -1.027  -2.487  0.00  0.00    -0.346 OA
ATOM     47  C   LIG d   1       4.122  -1.362  -2.289  0.00  0.00     0.079 C 
ATOM     48  C   LIG d   1       3.245  -0.172  -2.686  0.00  0.00     0.107 C 
ATOM     49  H   LIG d   1       3.953  -1.604  -1.239  0.00  0.00     0.059 H 
ATOM     50  H   LIG d   1       3.866  -2.224  -2.905  0.00  0.00     0.059 H 
ATOM     51  C   LIG d   1       3.531   0.199  -4.145  0.00  0.00     0.114 C 
ATOM     52  H   LIG d   1       2.194  -0.442  -2.578  0.00  0.00     0.064 H 
ATOM     53  C   LIG d   1       5.025   0.499  -4.300  0.00  0.00     0.134 C 
ATOM     54  H   LIG d   1       3.257  -0.634  -4.793  0.00  0.00     0.065 H 
ATOM     55  H   LIG d   1       5.246   0.709  -5.346  0.00  0.00     0.067 H 
BRANCH  48  56
ATOM     56  O   LIG d   1       3.541   0.943  -1.844  0.00  0.00    -0.387 OA
ATOM     57  H   LIG d   1       3.465   0.753  -0.898  0.00  0.00     0.210 HD
ENDBRANCH  48  56
BRANCH  51  58
ATOM     58  O   LIG d   1       2.771   1.354  -4.504  0.00  0.00    -0.386 OA
ATOM     59  H   LIG d   1       3.186   1.903  -5.183  0.00  0.00     0.210 HD
ENDBRANCH  51  58
BRANCH  53  60
ATOM     60  O   LIG d   1       5.371   1.631  -3.501  0.00  0.00    -0.384 OA
ATOM     61  H   LIG d   1       6.161   2.099  -3.802  0.00  0.00     0.210 HD
ENDBRANCH  53  60
ENDBRANCH  43  44
ENDBRANCH   3  43
BRANCH   9  62
ATOM     62  C   LIG d   1      10.778  -3.121  -4.222  0.00  0.00     0.073 C 
ATOM     63  H   LIG d   1      11.668  -2.493  -4.160  0.00  0.00     0.058 H 
ATOM     64  H   LIG d   1      10.076  -2.835  -3.440  0.00  0.00     0.058 H 
BRANCH  62  65
ATOM     65  O   LIG d   1      11.149  -4.491  -4.050  0.00  0.00    -0.392 OA
ATOM     66  H   LIG d   1      10.441  -5.050  -3.705  0.00  0.00     0.209 HD
ENDBRANCH  62  65
ENDBRANCH   9  62
BRANCH   5  67
ATOM     67  O   LIG d   1       8.436  -2.849  -3.222  0.00  0.00    -0.387 OA
ATOM     68  H   LIG d   1       8.252  -2.118  -2.615  0.00  0.00     0.210 HD
ENDBRANCH   5  67
BRANCH   7  69
ATOM     69  O   LIG d   1       8.713  -4.858  -5.155  0.00  0.00    -0.387 OA
ATOM     70  H   LIG d   1       8.070  -5.410  -5.621  0.00  0.00     0.210 HD
ENDBRANCH   7  69
TORSDOF 14
ENDMDL
MODEL 6
REMARK VINA RESULT:      -6.2      2.986      8.520
REMARK  14 active torsions:
REMARK  status: ('A' for Active; 'I' for Inactive)
REMARK    1  A    between atoms: C_3  and  O_50 
REMARK    2  A    between atoms: C_6  and  C_7 
REMARK    3  A    between atoms: C_15  and  O_48 
REMARK    4  A    between atoms: C_16  and  C_19 
REMARK    5  A    between atoms: C_17  and  O_18 
REMARK    6  A    between atoms: C_21  and  O_34 
REMARK    7  A    between atoms: C_23  and  O_33 
REMARK    8  A    between atoms: C_25  and  O_32 
REMARK    9  A    between atoms: C_27  and  C_30 
REMARK   10  A    between atoms: C_30  and  O_31 
REMARK   11  A    between atoms: O_34  and  C_35 
REMARK   12  A    between atoms: C_37  and  O_47 
REMARK   13  A    between atoms: C_39  and  O_46 
REMARK   14  A    between atoms: C_41  and  O_45 
ROOT
ATOM      1  C   LIG d   1       4.633  -0.970  -4.884  0.00  0.00     0.120 C 
ATOM      2  H   LIG d   1       5.015  -1.882  -4.425  0.00  0.00     0.068 H 
ATOM      3  C   LIG d   1       5.714   0.114  -4.842  0.00  0.00     0.120 C 
ATOM      4  H   LIG d   1       5.347   1.012  -5.337  0.00  0.00     0.065 H 
ATOM      5  C   LIG d   1       6.049   0.433  -3.382  0.00  0.00     0.112 C 
ATOM      6  H   LIG d   1       6.777   1.243  -3.344  0.00  0.00     0.065 H 
ATOM      7  C   LIG d   1       4.769   0.860  -2.658  0.00  0.00     0.112 C 
ATOM      8  H   LIG d   1       4.383   1.776  -3.108  0.00  0.00     0.065 H 
ATOM      9  C   LIG d   1       3.725  -0.251  -2.784  0.00  0.00     0.111 C 
ATOM     10  H   LIG d   1       2.798   0.065  -2.307  0.00  0.00     0.065 H 
ATOM     11  O   LIG d   1       3.482  -0.522  -4.166  0.00  0.00    -0.361 OA
ENDROOT
BRANCH   1  12
ATOM     12  C   LIG d   1       4.256  -1.249  -6.315  0.00  0.00     0.067 A 
ATOM     13  C   LIG d   1       4.587  -2.467  -6.896  0.00  0.00     0.130 A 
ATOM     14  C   LIG d   1       4.244  -2.741  -8.214  0.00  0.00     0.023 A 
ATOM     15  C   LIG d   1       3.566  -1.800  -8.967  0.00  0.00     0.139 A 
ATOM     16  H   LIG d   1       4.506  -3.694  -8.651  0.00  0.00     0.069 H 
ATOM     17  C   LIG d   1       3.234  -0.562  -8.386  0.00  0.00     0.101 A 
ATOM     18  O   LIG d   1       3.224  -2.077 -10.248  0.00  0.00    -0.483 OA
ATOM     19  C   LIG d   1       2.527   0.438  -9.192  0.00  0.00     0.174 C 
ATOM     20  C   LIG d   1       3.580  -0.292  -7.052  0.00  0.00     0.140 A 
ATOM     21  C   LIG d   1       1.948  -0.040 -10.512  0.00  0.00     0.052 C 
ATOM     22  O   LIG d   1       2.410   1.588  -8.824  0.00  0.00    -0.292 OA
ATOM     23  C   LIG d   1       2.976  -0.992 -11.141  0.00  0.00     0.132 C 
ATOM     24  H   LIG d   1       1.777   0.810 -11.172  0.00  0.00     0.038 H 
ATOM     25  H   LIG d   1       1.011  -0.569 -10.336  0.00  0.00     0.038 H 
ATOM     26  H   LIG d   1       3.906  -0.453 -11.325  0.00  0.00     0.079 H 
BRANCH  13  27
ATOM     27  O   LIG d   1       5.252  -3.399  -6.168  0.00  0.00    -0.506 OA
ATOM     28  H   LIG d   1       6.022  -3.774  -6.617  0.00  0.00     0.292 HD
ENDBRANCH  13  27
BRANCH  23  29
ATOM     29  C   LIG d   1       2.437  -1.525 -12.443  0.00  0.00    -0.007 A 
ATOM     30  C   LIG d   1       1.133  -1.976 -12.518  0.00  0.00    -0.052 A 
ATOM     31  C   LIG d   1       0.638  -2.464 -13.711  0.00  0.00    -0.020 A 
ATOM     32  H   LIG d   1       0.499  -1.943 -11.644  0.00  0.00     0.062 H 
ATOM     33  C   LIG d   1       1.449  -2.502 -14.835  0.00  0.00     0.117 A 
ATOM     34  H   LIG d   1      -0.382  -2.817 -13.770  0.00  0.00     0.065 H 
ATOM     35  C   LIG d   1       2.759  -2.049 -14.758  0.00  0.00    -0.020 A 
ATOM     36  C   LIG d   1       3.249  -1.561 -13.563  0.00  0.00    -0.052 A 
ATOM     37  H   LIG d   1       3.393  -2.078 -15.631  0.00  0.00     0.065 H 
ATOM     38  H   LIG d   1       4.269  -1.209 -13.500  0.00  0.00     0.062 H 
BRANCH  33  39
ATOM     39  O   LIG d   1       0.964  -2.982 -16.010  0.00  0.00    -0.507 OA
ATOM     40  H   LIG d   1       1.576  -3.566 -16.479  0.00  0.00     0.292 HD
ENDBRANCH  33  39
ENDBRANCH  23  29
BRANCH  20  41
ATOM     41  O   LIG d   1       3.255   0.898  -6.490  0.00  0.00    -0.505 OA
ATOM     42  H   LIG d   1       2.316   0.988  -6.276  0.00  0.00     0.292 HD
ENDBRANCH  20  41
ENDBRANCH   1  12
BRANCH   3  43
ATOM     43  O   LIG d   1       6.886  -0.355  -5.511  0.00  0.00    -0.340 OA
BRANCH  43  44
ATOM     44  C   LIG d   1       7.655   0.679  -6.130  0.00  0.00     0.188 C 
ATOM     45  H   LIG d   1       7.628   1.573  -5.508  0.00  0.00     0.094 H 
ATOM     46  O   LIG d   1       9.007   0.242  -6.279  0.00  0.00    -0.346 OA
ATOM     47  C   LIG d   1       9.872   1.215  -6.869  0.00  0.00     0.079 C 
ATOM     48  C   LIG d   1       9.373   1.555  -8.276  0.00  0.00     0.107 C 
ATOM     49  H   LIG d   1      10.884   0.813  -6.929  0.00  0.00     0.059 H 
ATOM     50  H   LIG d   1       9.875   2.117  -6.256  0.00  0.00     0.059 H 
ATOM     51  C   LIG d   1       7.930   2.063  -8.189  0.00  0.00     0.114 C 
ATOM     52  H   LIG d   1      10.006   2.330  -8.709  0.00  0.00     0.064 H 
ATOM     53  C   LIG d   1       7.066   0.997  -7.507  0.00  0.00     0.134 C 
ATOM     54  H   LIG d   1       7.902   2.983  -7.605  0.00  0.00     0.065 H 
ATOM     55  H   LIG d   1       6.050   1.373  -7.391  0.00  0.00     0.067 H 
BRANCH  48  56
ATOM     56  O   LIG d   1       9.419   0.386  -9.095  0.00  0.00    -0.387 OA
ATOM     57  H   LIG d   1       8.682  -0.224  -8.953  0.00  0.00     0.210 HD
ENDBRANCH  48  56
BRANCH  51  58
ATOM     58  O   LIG d   1       7.431   2.314  -9.503  0.00  0.00    -0.386 OA
ATOM     59  H   LIG d   1       7.319   1.518 -10.041  0.00  0.00     0.210 HD
ENDBRANCH  51  58
BRANCH  53  60
ATOM     60  O   LIG d   1       7.050  -0.188  -8.305  0.00  0.00    -0.384 OA
ATOM     61  H   LIG d   1       7.862  -0.709  -8.251  0.00  0.00     0.210 HD
ENDBRANCH  53  60
ENDBRANCH  43  44
ENDBRANCH   3  43
BRANCH   9  62
ATOM     62  C   LIG d   1       4.245  -1.518  -2.100  0.00  0.00     0.073 C 
ATOM     63  H   LIG d   1       5.267  -1.713  -2.426  0.00  0.00     0.058 H 
ATOM     64  H   LIG d   1       4.227  -1.381  -1.020  0.00  0.00     0.058 H 
BRANCH  62  65
ATOM     65  O   LIG d   1       3.413  -2.626  -2.454  0.00  0.00    -0.392 OA
ATOM     66  H   LIG d   1       3.845  -3.486  -2.369  0.00  0.00     0.209 HD
ENDBRANCH  62  65
ENDBRANCH   9  62
BRANCH   5  67
ATOM     67  O   LIG d   1       6.593  -0.728  -2.752  0.00  0.00    -0.387 OA
ATOM     68  H   LIG d   1       7.223  -0.533  -2.044  0.00  0.00     0.210 HD
ENDBRANCH   5  67
BRANCH   7  69
ATOM     69  O   LIG d   1       5.056   1.093  -1.278  0.00  0.00    -0.387 OA
ATOM     70  H   LIG d   1       5.256   2.016  -1.067  0.00  0.00     0.210 HD
ENDBRANCH   7  69
TORSDOF 14
ENDMDL
MODEL 7
REMARK VINA RESULT:      -6.0      3.817      6.460
REMARK  14 active torsions:
REMARK  status: ('A' for Active; 'I' for Inactive)
REMARK    1  A    between atoms: C_3  and  O_50 
REMARK    2  A    between atoms: C_6  and  C_7 
REMARK    3  A    between atoms: C_15  and  O_48 
REMARK    4  A    between atoms: C_16  and  C_19 
REMARK    5  A    between atoms: C_17  and  O_18 
REMARK    6  A    between atoms: C_21  and  O_34 
REMARK    7  A    between atoms: C_23  and  O_33 
REMARK    8  A    between atoms: C_25  and  O_32 
REMARK    9  A    between atoms: C_27  and  C_30 
REMARK   10  A    between atoms: C_30  and  O_31 
REMARK   11  A    between atoms: O_34  and  C_35 
REMARK   12  A    between atoms: C_37  and  O_47 
REMARK   13  A    between atoms: C_39  and  O_46 
REMARK   14  A    between atoms: C_41  and  O_45 
ROOT
ATOM      1  C   LIG d   1      10.176   1.023  -4.860  0.00  0.00     0.120 C 
ATOM      2  H   LIG d   1      10.590   0.548  -3.970  0.00  0.00     0.068 H 
ATOM      3  C   LIG d   1       8.791   0.440  -5.152  0.00  0.00     0.120 C 
ATOM      4  H   LIG d   1       8.360   0.944  -6.017  0.00  0.00     0.065 H 
ATOM      5  C   LIG d   1       8.927  -1.057  -5.446  0.00  0.00     0.112 C 
ATOM      6  H   LIG d   1       7.953  -1.467  -5.710  0.00  0.00     0.065 H 
ATOM      7  C   LIG d   1       9.898  -1.249  -6.615  0.00  0.00     0.112 C 
ATOM      8  H   LIG d   1       9.489  -0.781  -7.511  0.00  0.00     0.065 H 
ATOM      9  C   LIG d   1      11.240  -0.602  -6.267  0.00  0.00     0.111 C 
ATOM     10  H   LIG d   1      11.921  -0.698  -7.112  0.00  0.00     0.065 H 
ATOM     11  O   LIG d   1      11.038   0.782  -5.973  0.00  0.00    -0.361 OA
ENDROOT
BRANCH   1  12
ATOM     12  C   LIG d   1      10.058   2.507  -4.627  0.00  0.00     0.067 A 
ATOM     13  C   LIG d   1       9.587   3.333  -5.640  0.00  0.00     0.130 A 
ATOM     14  C   LIG d   1       9.470   4.703  -5.441  0.00  0.00     0.023 A 
ATOM     15  C   LIG d   1       9.822   5.263  -4.226  0.00  0.00     0.139 A 
ATOM     16  H   LIG d   1       9.099   5.333  -6.237  0.00  0.00     0.069 H 
ATOM     17  C   LIG d   1      10.306   4.431  -3.199  0.00  0.00     0.101 A 
ATOM     18  O   LIG d   1       9.694   6.597  -4.034  0.00  0.00    -0.483 OA
ATOM     19  C   LIG d   1      10.690   5.030  -1.917  0.00  0.00     0.174 C 
ATOM     20  C   LIG d   1      10.418   3.047  -3.405  0.00  0.00     0.140 A 
ATOM     21  C   LIG d   1      10.270   6.472  -1.689  0.00  0.00     0.052 C 
ATOM     22  O   LIG d   1      11.312   4.407  -1.082  0.00  0.00    -0.292 OA
ATOM     23  C   LIG d   1      10.474   7.220  -3.014  0.00  0.00     0.132 C 
ATOM     24  H   LIG d   1      10.888   6.920  -0.910  0.00  0.00     0.038 H 
ATOM     25  H   LIG d   1       9.221   6.511  -1.398  0.00  0.00     0.038 H 
ATOM     26  H   LIG d   1      11.528   7.187  -3.292  0.00  0.00     0.079 H 
BRANCH  13  27
ATOM     27  O   LIG d   1       9.239   2.796  -6.836  0.00  0.00    -0.506 OA
ATOM     28  H   LIG d   1       9.890   2.179  -7.195  0.00  0.00     0.292 HD
ENDBRANCH  13  27
BRANCH  23  29
ATOM     29  C   LIG d   1      10.041   8.654  -2.854  0.00  0.00    -0.007 A 
ATOM     30  C   LIG d   1      10.013   9.493  -3.952  0.00  0.00    -0.052 A 
ATOM     31  C   LIG d   1       9.615  10.809  -3.807  0.00  0.00    -0.020 A 
ATOM     32  H   LIG d   1      10.298   9.120  -4.925  0.00  0.00     0.062 H 
ATOM     33  C   LIG d   1       9.244  11.287  -2.559  0.00  0.00     0.117 A 
ATOM     34  H   LIG d   1       9.594  11.465  -4.665  0.00  0.00     0.065 H 
ATOM     35  C   LIG d   1       9.273  10.442  -1.458  0.00  0.00    -0.020 A 
ATOM     36  C   LIG d   1       9.671   9.128  -1.609  0.00  0.00    -0.052 A 
ATOM     37  H   LIG d   1       8.985  10.812  -0.485  0.00  0.00     0.065 H 
ATOM     38  H   LIG d   1       9.695   8.469  -0.752  0.00  0.00     0.062 H 
BRANCH  33  39
ATOM     39  O   LIG d   1       8.853  12.580  -2.414  0.00  0.00    -0.507 OA
ATOM     40  H   LIG d   1       9.566  13.179  -2.152  0.00  0.00     0.292 HD
ENDBRANCH  33  39
ENDBRANCH  23  29
BRANCH  20  41
ATOM     41  O   LIG d   1      10.878   2.245  -2.413  0.00  0.00    -0.505 OA
ATOM     42  H   LIG d   1      11.833   2.096  -2.438  0.00  0.00     0.292 HD
ENDBRANCH  20  41
ENDBRANCH   1  12
BRANCH   3  43
ATOM     43  O   LIG d   1       7.944   0.630  -4.018  0.00  0.00    -0.340 OA
BRANCH  43  44
ATOM     44  C   LIG d   1       6.708  -0.085  -4.089  0.00  0.00     0.188 C 
ATOM     45  H   LIG d   1       6.584  -0.496  -5.091  0.00  0.00     0.094 H 
ATOM     46  O   LIG d   1       6.716  -1.147  -3.135  0.00  0.00    -0.346 OA
ATOM     47  C   LIG d   1       5.530  -1.944  -3.140  0.00  0.00     0.079 C 
ATOM     48  C   LIG d   1       4.324  -1.067  -2.795  0.00  0.00     0.107 C 
ATOM     49  H   LIG d   1       5.624  -2.741  -2.401  0.00  0.00     0.059 H 
ATOM     50  H   LIG d   1       5.391  -2.382  -4.129  0.00  0.00     0.059 H 
ATOM     51  C   LIG d   1       4.233   0.083  -3.803  0.00  0.00     0.114 C 
ATOM     52  H   LIG d   1       3.413  -1.665  -2.842  0.00  0.00     0.064 H 
ATOM     53  C   LIG d   1       5.549   0.868  -3.782  0.00  0.00     0.134 C 
ATOM     54  H   LIG d   1       4.065  -0.320  -4.801  0.00  0.00     0.065 H 
ATOM     55  H   LIG d   1       5.514   1.654  -4.536  0.00  0.00     0.067 H 
BRANCH  48  56
ATOM     56  O   LIG d   1       4.479  -0.537  -1.477  0.00  0.00    -0.387 OA
ATOM     57  H   LIG d   1       4.694  -1.202  -0.808  0.00  0.00     0.210 HD
ENDBRANCH  48  56
BRANCH  51  58
ATOM     58  O   LIG d   1       3.155   0.949  -3.446  0.00  0.00    -0.386 OA
ATOM     59  H   LIG d   1       3.096   1.135  -2.499  0.00  0.00     0.210 HD
ENDBRANCH  51  58
BRANCH  53  60
ATOM     60  O   LIG d   1       5.739   1.450  -2.492  0.00  0.00    -0.384 OA
ATOM     61  H   LIG d   1       4.946   1.864  -2.126  0.00  0.00     0.210 HD
ENDBRANCH  53  60
ENDBRANCH  43  44
ENDBRANCH   3  43
BRANCH   9  62
ATOM     62  C   LIG d   1      11.840  -1.300  -5.044  0.00  0.00     0.073 C 
ATOM     63  H   LIG d   1      12.483  -0.602  -4.506  0.00  0.00     0.058 H 
ATOM     64  H   LIG d   1      11.038  -1.636  -4.387  0.00  0.00     0.058 H 
BRANCH  62  65
ATOM     65  O   LIG d   1      12.611  -2.426  -5.469  0.00  0.00    -0.392 OA
ATOM     66  H   LIG d   1      12.703  -3.116  -4.798  0.00  0.00     0.209 HD
ENDBRANCH  62  65
ENDBRANCH   9  62
BRANCH   5  67
ATOM     67  O   LIG d   1       9.430  -1.727  -4.289  0.00  0.00    -0.387 OA
ATOM     68  H   LIG d   1       8.978  -1.489  -3.468  0.00  0.00     0.210 HD
ENDBRANCH   5  67
BRANCH   7  69
ATOM     69  O   LIG d   1      10.088  -2.646  -6.853  0.00  0.00    -0.387 OA
ATOM     70  H   LIG d   1       9.687  -2.964  -7.674  0.00  0.00     0.210 HD
ENDBRANCH   7  69
TORSDOF 14
ENDMDL
MODEL 8
REMARK VINA RESULT:      -6.0      7.545     11.775
REMARK  14 active torsions:
REMARK  status: ('A' for Active; 'I' for Inactive)
REMARK    1  A    between atoms: C_3  and  O_50 
REMARK    2  A    between atoms: C_6  and  C_7 
REMARK    3  A    between atoms: C_15  and  O_48 
REMARK    4  A    between atoms: C_16  and  C_19 
REMARK    5  A    between atoms: C_17  and  O_18 
REMARK    6  A    between atoms: C_21  and  O_34 
REMARK    7  A    between atoms: C_23  and  O_33 
REMARK    8  A    between atoms: C_25  and  O_32 
REMARK    9  A    between atoms: C_27  and  C_30 
REMARK   10  A    between atoms: C_30  and  O_31 
REMARK   11  A    between atoms: O_34  and  C_35 
REMARK   12  A    between atoms: C_37  and  O_47 
REMARK   13  A    between atoms: C_39  and  O_46 
REMARK   14  A    between atoms: C_41  and  O_45 
ROOT
ATOM      1  C   LIG d   1      10.794   9.577  -3.128  0.00  0.00     0.120 C 
ATOM      2  H   LIG d   1      11.570  10.307  -2.897  0.00  0.00     0.068 H 
ATOM      3  C   LIG d   1      10.146   9.929  -4.470  0.00  0.00     0.120 C 
ATOM      4  H   LIG d   1       9.399   9.177  -4.721  0.00  0.00     0.065 H 
ATOM      5  C   LIG d   1       9.475  11.302  -4.360  0.00  0.00     0.112 C 
ATOM      6  H   LIG d   1       8.964  11.534  -5.295  0.00  0.00     0.065 H 
ATOM      7  C   LIG d   1       8.459  11.270  -3.215  0.00  0.00     0.112 C 
ATOM      8  H   LIG d   1       7.676  10.546  -3.441  0.00  0.00     0.065 H 
ATOM      9  C   LIG d   1       9.171  10.867  -1.922  0.00  0.00     0.111 C 
ATOM     10  H   LIG d   1       8.445  10.802  -1.111  0.00  0.00     0.065 H 
ATOM     11  O   LIG d   1       9.801   9.597  -2.101  0.00  0.00    -0.361 OA
ENDROOT
BRANCH   1  12
ATOM     12  C   LIG d   1      11.406   8.203  -3.210  0.00  0.00     0.067 A 
ATOM     13  C   LIG d   1      12.781   8.047  -3.082  0.00  0.00     0.130 A 
ATOM     14  C   LIG d   1      13.361   6.787  -3.153  0.00  0.00     0.023 A 
ATOM     15  C   LIG d   1      12.572   5.668  -3.352  0.00  0.00     0.139 A 
ATOM     16  H   LIG d   1      14.431   6.680  -3.049  0.00  0.00     0.069 H 
ATOM     17  C   LIG d   1      11.180   5.822  -3.489  0.00  0.00     0.101 A 
ATOM     18  O   LIG d   1      13.143   4.441  -3.408  0.00  0.00    -0.483 OA
ATOM     19  C   LIG d   1      10.350   4.634  -3.714  0.00  0.00     0.174 C 
ATOM     20  C   LIG d   1      10.599   7.098  -3.413  0.00  0.00     0.140 A 
ATOM     21  C   LIG d   1      11.019   3.288  -3.498  0.00  0.00     0.052 C 
ATOM     22  O   LIG d   1       9.189   4.722  -4.055  0.00  0.00    -0.292 OA
ATOM     23  C   LIG d   1      12.440   3.389  -4.070  0.00  0.00     0.132 C 
ATOM     24  H   LIG d   1      10.463   2.508  -4.019  0.00  0.00     0.038 H 
ATOM     25  H   LIG d   1      11.063   3.062  -2.432  0.00  0.00     0.038 H 
ATOM     26  H   LIG d   1      12.388   3.602  -5.138  0.00  0.00     0.079 H 
BRANCH  13  27
ATOM     27  O   LIG d   1      13.564   9.137  -2.887  0.00  0.00    -0.506 OA
ATOM     28  H   LIG d   1      13.502   9.513  -1.998  0.00  0.00     0.292 HD
ENDBRANCH  13  27
BRANCH  23  29
ATOM     29  C   LIG d   1      13.164   2.085  -3.852  0.00  0.00    -0.007 A 
ATOM     30  C   LIG d   1      14.496   2.089  -3.483  0.00  0.00    -0.052 A 
ATOM     31  C   LIG d   1      15.161   0.895  -3.282  0.00  0.00    -0.020 A 
ATOM     32  H   LIG d   1      15.016   3.026  -3.345  0.00  0.00     0.062 H 
ATOM     33  C   LIG d   1      14.492  -0.308  -3.452  0.00  0.00     0.117 A 
ATOM     34  H   LIG d   1      16.202   0.897  -2.993  0.00  0.00     0.065 H 
ATOM     35  C   LIG d   1      13.155  -0.309  -3.823  0.00  0.00    -0.020 A 
ATOM     36  C   LIG d   1      12.494   0.887  -4.022  0.00  0.00    -0.052 A 
ATOM     37  H   LIG d   1      12.632  -1.244  -3.957  0.00  0.00     0.065 H 
ATOM     38  H   LIG d   1      11.453   0.889  -4.312  0.00  0.00     0.062 H 
BRANCH  33  39
ATOM     39  O   LIG d   1      15.144  -1.484  -3.256  0.00  0.00    -0.507 OA
ATOM     40  H   LIG d   1      16.101  -1.430  -3.392  0.00  0.00     0.292 HD
ENDBRANCH  33  39
ENDBRANCH  23  29
BRANCH  20  41
ATOM     41  O   LIG d   1       9.257   7.245  -3.539  0.00  0.00    -0.505 OA
ATOM     42  H   LIG d   1       8.979   8.146  -3.751  0.00  0.00     0.292 HD
ENDBRANCH  20  41
ENDBRANCH   1  12
BRANCH   3  43
ATOM     43  O   LIG d   1      11.147   9.966  -5.488  0.00  0.00    -0.340 OA
BRANCH  43  44
ATOM     44  C   LIG d   1      10.942   9.020  -6.540  0.00  0.00     0.188 C 
ATOM     45  H   LIG d   1      11.752   8.292  -6.536  0.00  0.00     0.094 H 
ATOM     46  O   LIG d   1       9.697   8.349  -6.341  0.00  0.00    -0.346 OA
ATOM     47  C   LIG d   1       9.404   7.359  -7.329  0.00  0.00     0.079 C 
ATOM     48  C   LIG d   1       9.319   8.021  -8.706  0.00  0.00     0.107 C 
ATOM     49  H   LIG d   1       8.451   6.882  -7.095  0.00  0.00     0.059 H 
ATOM     50  H   LIG d   1      10.194   6.607  -7.335  0.00  0.00     0.059 H 
ATOM     51  C   LIG d   1      10.640   8.739  -9.002  0.00  0.00     0.114 C 
ATOM     52  H   LIG d   1       9.139   7.260  -9.466  0.00  0.00     0.064 H 
ATOM     53  C   LIG d   1      10.919   9.750  -7.886  0.00  0.00     0.134 C 
ATOM     54  H   LIG d   1      11.449   8.009  -9.044  0.00  0.00     0.065 H 
ATOM     55  H   LIG d   1      11.884  10.225  -8.059  0.00  0.00     0.067 H 
BRANCH  48  56
ATOM     56  O   LIG d   1       8.249   8.968  -8.716  0.00  0.00    -0.387 OA
ATOM     57  H   LIG d   1       8.376   9.713  -8.112  0.00  0.00     0.210 HD
ENDBRANCH  48  56
BRANCH  51  58
ATOM     58  O   LIG d   1      10.544   9.421 -10.253  0.00  0.00    -0.386 OA
ATOM     59  H   LIG d   1      10.989  10.280 -10.268  0.00  0.00     0.210 HD
ENDBRANCH  51  58
BRANCH  53  60
ATOM     60  O   LIG d   1       9.892  10.743  -7.872  0.00  0.00    -0.384 OA
ATOM     61  H   LIG d   1       9.872  11.300  -8.662  0.00  0.00     0.210 HD
ENDBRANCH  53  60
ENDBRANCH  43  44
ENDBRANCH   3  43
BRANCH   9  62
ATOM     62  C   LIG d   1      10.231  11.916  -1.575  0.00  0.00     0.073 C 
ATOM     63  H   LIG d   1      10.921  11.506  -0.837  0.00  0.00     0.058 H 
ATOM     64  H   LIG d   1      10.780  12.188  -2.475  0.00  0.00     0.058 H 
BRANCH  62  65
ATOM     65  O   LIG d   1       9.593  13.077  -1.037  0.00  0.00    -0.392 OA
ATOM     66  H   LIG d   1       9.620  13.130  -0.072  0.00  0.00     0.209 HD
ENDBRANCH  62  65
ENDBRANCH   9  62
BRANCH   5  67
ATOM     67  O   LIG d   1      10.465  12.298  -4.097  0.00  0.00    -0.387 OA
ATOM     68  H   LIG d   1      11.351  11.941  -3.944  0.00  0.00     0.210 HD
ENDBRANCH   5  67
BRANCH   7  69
ATOM     69  O   LIG d   1       7.877  12.566  -3.057  0.00  0.00    -0.387 OA
ATOM     70  H   LIG d   1       7.018  12.668  -3.488  0.00  0.00     0.210 HD
ENDBRANCH   7  69
TORSDOF 14
ENDMDL
MODEL 9
REMARK VINA RESULT:      -5.9      4.596     12.884
REMARK  14 active torsions:
REMARK  status: ('A' for Active; 'I' for Inactive)
REMARK    1  A    between atoms: C_3  and  O_50 
REMARK    2  A    between atoms: C_6  and  C_7 
REMARK    3  A    between atoms: C_15  and  O_48 
REMARK    4  A    between atoms: C_16  and  C_19 
REMARK    5  A    between atoms: C_17  and  O_18 
REMARK    6  A    between atoms: C_21  and  O_34 
REMARK    7  A    between atoms: C_23  and  O_33 
REMARK    8  A    between atoms: C_25  and  O_32 
REMARK    9  A    between atoms: C_27  and  C_30 
REMARK   10  A    between atoms: C_30  and  O_31 
REMARK   11  A    between atoms: O_34  and  C_35 
REMARK   12  A    between atoms: C_37  and  O_47 
REMARK   13  A    between atoms: C_39  and  O_46 
REMARK   14  A    between atoms: C_41  and  O_45 
ROOT
ATOM      1  C   LIG d   1      12.218   8.737   0.041  0.00  0.00     0.120 C 
ATOM      2  H   LIG d   1      13.295   8.774  -0.126  0.00  0.00     0.068 H 
ATOM      3  C   LIG d   1      11.574  10.018  -0.497  0.00  0.00     0.120 C 
ATOM      4  H   LIG d   1      10.494   9.964  -0.367  0.00  0.00     0.065 H 
ATOM      5  C   LIG d   1      12.124  11.220   0.276  0.00  0.00     0.112 C 
ATOM      6  H   LIG d   1      11.629  12.130  -0.064  0.00  0.00     0.065 H 
ATOM      7  C   LIG d   1      11.856  11.018   1.770  0.00  0.00     0.112 C 
ATOM      8  H   LIG d   1      10.780  10.986   1.947  0.00  0.00     0.065 H 
ATOM      9  C   LIG d   1      12.489   9.700   2.221  0.00  0.00     0.111 C 
ATOM     10  H   LIG d   1      12.265   9.530   3.274  0.00  0.00     0.065 H 
ATOM     11  O   LIG d   1      11.958   8.626   1.441  0.00  0.00    -0.361 OA
ENDROOT
BRANCH   1  12
ATOM     12  C   LIG d   1      11.639   7.545  -0.674  0.00  0.00     0.067 A 
ATOM     13  C   LIG d   1      10.262   7.360  -0.715  0.00  0.00     0.130 A 
ATOM     14  C   LIG d   1       9.712   6.267  -1.372  0.00  0.00     0.023 A 
ATOM     15  C   LIG d   1      10.533   5.346  -1.997  0.00  0.00     0.139 A 
ATOM     16  H   LIG d   1       8.640   6.138  -1.398  0.00  0.00     0.069 H 
ATOM     17  C   LIG d   1      11.928   5.524  -1.953  0.00  0.00     0.101 A 
ATOM     18  O   LIG d   1       9.990   4.288  -2.647  0.00  0.00    -0.483 OA
ATOM     19  C   LIG d   1      12.794   4.537  -2.606  0.00  0.00     0.174 C 
ATOM     20  C   LIG d   1      12.478   6.633  -1.290  0.00  0.00     0.140 A 
ATOM     21  C   LIG d   1      12.114   3.542  -3.530  0.00  0.00     0.052 C 
ATOM     22  O   LIG d   1      13.993   4.516  -2.418  0.00  0.00    -0.292 OA
ATOM     23  C   LIG d   1      10.794   3.130  -2.861  0.00  0.00     0.132 C 
ATOM     24  H   LIG d   1      12.750   2.668  -3.668  0.00  0.00     0.038 H 
ATOM     25  H   LIG d   1      11.911   4.010  -4.493  0.00  0.00     0.038 H 
ATOM     26  H   LIG d   1      11.007   2.652  -1.904  0.00  0.00     0.079 H 
BRANCH  13  27
ATOM     27  O   LIG d   1       9.447   8.257  -0.105  0.00  0.00    -0.506 OA
ATOM     28  H   LIG d   1       8.515   8.171  -0.347  0.00  0.00     0.292 HD
ENDBRANCH  13  27
BRANCH  23  29
ATOM     29  C   LIG d   1      10.059   2.163  -3.753  0.00  0.00    -0.007 A 
ATOM     30  C   LIG d   1      10.767   1.301  -4.568  0.00  0.00    -0.052 A 
ATOM     31  C   LIG d   1      10.094   0.414  -5.386  0.00  0.00    -0.020 A 
ATOM     32  H   LIG d   1      11.847   1.317  -4.563  0.00  0.00     0.062 H 
ATOM     33  C   LIG d   1       8.707   0.389  -5.389  0.00  0.00     0.117 A 
ATOM     34  H   LIG d   1      10.648  -0.260  -6.024  0.00  0.00     0.065 H 
ATOM     35  C   LIG d   1       7.999   1.257  -4.570  0.00  0.00    -0.020 A 
ATOM     36  C   LIG d   1       8.676   2.141  -3.754  0.00  0.00    -0.052 A 
ATOM     37  H   LIG d   1       6.919   1.240  -4.571  0.00  0.00     0.065 H 
ATOM     38  H   LIG d   1       8.126   2.817  -3.115  0.00  0.00     0.062 H 
BRANCH  33  39
ATOM     39  O   LIG d   1       8.043  -0.482  -6.194  0.00  0.00    -0.507 OA
ATOM     40  H   LIG d   1       7.814  -1.317  -5.764  0.00  0.00     0.292 HD
ENDBRANCH  33  39
ENDBRANCH  23  29
BRANCH  20  41
ATOM     41  O   LIG d   1      13.822   6.808  -1.254  0.00  0.00    -0.505 OA
ATOM     42  H   LIG d   1      14.316   6.012  -1.017  0.00  0.00     0.292 HD
ENDBRANCH  20  41
ENDBRANCH   1  12
BRANCH   3  43
ATOM     43  O   LIG d   1      11.882  10.160  -1.885  0.00  0.00    -0.340 OA
BRANCH  43  44
ATOM     44  C   LIG d   1      11.132  11.182  -2.545  0.00  0.00     0.188 C 
ATOM     45  H   LIG d   1      11.349  12.146  -2.085  0.00  0.00     0.094 H 
ATOM     46  O   LIG d   1      11.492  11.220  -3.926  0.00  0.00    -0.346 OA
ATOM     47  C   LIG d   1      10.815  12.230  -4.678  0.00  0.00     0.079 C 
ATOM     48  C   LIG d   1       9.307  11.971  -4.636  0.00  0.00     0.107 C 
ATOM     49  H   LIG d   1      11.160  12.206  -5.713  0.00  0.00     0.059 H 
ATOM     50  H   LIG d   1      11.029  13.208  -4.247  0.00  0.00     0.059 H 
ATOM     51  C   LIG d   1       8.841  11.948  -3.176  0.00  0.00     0.114 C 
ATOM     52  H   LIG d   1       8.786  12.766  -5.172  0.00  0.00     0.064 H 
ATOM     53  C   LIG d   1       9.636  10.881  -2.416  0.00  0.00     0.134 C 
ATOM     54  H   LIG d   1       9.014  12.924  -2.723  0.00  0.00     0.065 H 
ATOM     55  H   LIG d   1       9.350  10.896  -1.365  0.00  0.00     0.067 H 
BRANCH  48  56
ATOM     56  O   LIG d   1       9.020  10.713  -5.249  0.00  0.00    -0.387 OA
ATOM     57  H   LIG d   1       9.660  10.018  -5.040  0.00  0.00     0.210 HD
ENDBRANCH  48  56
BRANCH  51  58
ATOM     58  O   LIG d   1       7.449  11.635  -3.123  0.00  0.00    -0.386 OA
ATOM     59  H   LIG d   1       7.250  10.697  -3.254  0.00  0.00     0.210 HD
ENDBRANCH  51  58
BRANCH  53  60
ATOM     60  O   LIG d   1       9.359   9.593  -2.969  0.00  0.00    -0.384 OA
ATOM     61  H   LIG d   1       8.667   9.105  -2.503  0.00  0.00     0.210 HD
ENDBRANCH  53  60
ENDBRANCH  43  44
ENDBRANCH   3  43
BRANCH   9  62
ATOM     62  C   LIG d   1      14.005   9.769   2.026  0.00  0.00     0.073 C 
ATOM     63  H   LIG d   1      14.342   8.888   1.481  0.00  0.00     0.058 H 
ATOM     64  H   LIG d   1      14.258  10.666   1.461  0.00  0.00     0.058 H 
BRANCH  62  65
ATOM     65  O   LIG d   1      14.648   9.814   3.303  0.00  0.00    -0.392 OA
ATOM     66  H   LIG d   1      14.591  10.673   3.742  0.00  0.00     0.209 HD
ENDBRANCH  62  65
ENDBRANCH   9  62
BRANCH   5  67
ATOM     67  O   LIG d   1      13.531  11.330   0.052  0.00  0.00    -0.387 OA
ATOM     68  H   LIG d   1      14.030  10.535   0.288  0.00  0.00     0.210 HD
ENDBRANCH   5  67
BRANCH   7  69
ATOM     69  O   LIG d   1      12.427  12.100   2.509  0.00  0.00    -0.387 OA
ATOM     70  H   LIG d   1      12.304  12.033   3.465  0.00  0.00     0.210 HD
ENDBRANCH   7  69
TORSDOF 14
ENDMDL
