MODEL 1
REMARK VINA RESULT:      -7.9      0.000      0.000
REMARK  5 active torsions:
REMARK  status: ('A' for Active; 'I' for Inactive)
REMARK    1  A    between atoms: C_4  and  N_7 
REMARK    2  A    between atoms: N_7  and  C_8 
REMARK    3  A    between atoms: N_10  and  N_11 
REMARK    4  A    between atoms: C_12  and  C_13 
REMARK    5  A    between atoms: C_22  and  C_23 
ROOT
ATOM      1  C   LIG d   1       2.720  -3.263  -9.632  0.00  0.00     0.028 A 
ATOM      2  C   LIG d   1       1.852  -4.373 -10.056  0.00  0.00     0.009 A 
ATOM      3  C   LIG d   1       1.937  -5.760  -9.939  0.00  0.00    -0.052 A 
ATOM      4  C   LIG d   1       0.931  -6.551 -10.446  0.00  0.00    -0.061 A 
ATOM      5  C   LIG d   1      -0.168  -5.975 -11.067  0.00  0.00    -0.060 A 
ATOM      6  C   LIG d   1      -0.269  -4.606 -11.185  0.00  0.00    -0.038 A 
ATOM      7  C   LIG d   1       0.737  -3.788 -10.679  0.00  0.00     0.048 A 
ATOM      8  N   LIG d   1       0.907  -2.419 -10.653  0.00  0.00    -0.354 N 
ATOM      9  H   LIG d   1       0.281  -1.776 -11.022  0.00  0.00     0.166 HD
ATOM     10  C   LIG d   1       2.086  -2.098 -10.030  0.00  0.00     0.056 A 
ATOM     11  H   LIG d   1       2.791  -6.212  -9.456  0.00  0.00     0.062 H 
ATOM     12  H   LIG d   1       0.996  -7.627 -10.359  0.00  0.00     0.062 H 
ATOM     13  H   LIG d   1      -0.952  -6.605 -11.461  0.00  0.00     0.062 H 
ATOM     14  H   LIG d   1      -1.128  -4.168 -11.671  0.00  0.00     0.064 H 
ENDROOT
BRANCH   1  15
ATOM     15  C   LIG d   1       4.006  -3.369  -8.933  0.00  0.00     0.055 C 
ATOM     16  N   LIG d   1       4.052  -3.271  -7.637  0.00  0.00    -0.188 NA
ATOM     17  H   LIG d   1       4.915  -3.529  -9.494  0.00  0.00     0.085 H 
BRANCH  16  18
ATOM     18  N   LIG d   1       5.279  -3.373  -6.969  0.00  0.00    -0.218 N 
ATOM     19  C   LIG d   1       5.329  -3.252  -5.627  0.00  0.00     0.154 C 
ATOM     20  S   LIG d   1       6.830  -3.375  -4.812  0.00  0.00    -0.017 SA
ATOM     21  H   LIG d   1       6.093  -3.530  -7.472  0.00  0.00     0.176 HD
BRANCH  19  22
ATOM     22  N   LIG d   1       4.198  -3.033  -4.928  0.00  0.00    -0.296 N 
ATOM     23  H   LIG d   1       3.445  -3.637  -5.023  0.00  0.00     0.154 HD
BRANCH  22  24
ATOM     24  C   LIG d   1       4.109  -1.936  -4.066  0.00  0.00     0.033 A 
ATOM     25  C   LIG d   1       4.268  -2.111  -2.697  0.00  0.00    -0.041 A 
ATOM     26  C   LIG d   1       4.186  -1.023  -1.850  0.00  0.00    -0.060 A 
ATOM     27  H   LIG d   1       4.459  -3.096  -2.297  0.00  0.00     0.064 H 
ATOM     28  C   LIG d   1       3.936   0.237  -2.361  0.00  0.00    -0.062 A 
ATOM     29  H   LIG d   1       4.314  -1.159  -0.786  0.00  0.00     0.062 H 
ATOM     30  C   LIG d   1       3.778   0.414  -3.723  0.00  0.00    -0.060 A 
ATOM     31  H   LIG d   1       3.868   1.085  -1.695  0.00  0.00     0.062 H 
ATOM     32  C   LIG d   1       3.863  -0.667  -4.577  0.00  0.00    -0.041 A 
ATOM     33  H   LIG d   1       3.587   1.400  -4.120  0.00  0.00     0.062 H 
ATOM     34  H   LIG d   1       3.740  -0.528  -5.641  0.00  0.00     0.064 H 
ENDBRANCH  22  24
ENDBRANCH  19  22
ENDBRANCH  16  18
ENDBRANCH   1  15
BRANCH  10  35
ATOM     35  C   LIG d   1       2.597  -0.730  -9.818  0.00  0.00    -0.001 A 
ATOM     36  C   LIG d   1       2.417  -0.097  -8.586  0.00  0.00    -0.051 A 
ATOM     37  C   LIG d   1       2.897   1.182  -8.395  0.00  0.00    -0.043 A 
ATOM     38  H   LIG d   1       1.902  -0.607  -7.785  0.00  0.00     0.062 H 
ATOM     39  C   LIG d   1       3.556   1.838  -9.421  0.00  0.00     0.041 A 
ATOM     40  H   LIG d   1       2.757   1.673  -7.444  0.00  0.00     0.063 H 
ATOM     41  C   LIG d   1       3.739   1.215 -10.644  0.00  0.00    -0.043 A 
ATOM     42 CL   LIG d   1       4.159   3.447  -9.172  0.00  0.00    -0.084 Cl
ATOM     43  C   LIG d   1       3.269  -0.066 -10.847  0.00  0.00    -0.051 A 
ATOM     44  H   LIG d   1       4.254   1.732 -11.441  0.00  0.00     0.063 H 
ATOM     45  H   LIG d   1       3.416  -0.551 -11.800  0.00  0.00     0.062 H 
ENDBRANCH  10  35
TORSDOF 5
ENDMDL
MODEL 2
REMARK VINA RESULT:      -7.6      3.096      6.855
REMARK  5 active torsions:
REMARK  status: ('A' for Active; 'I' for Inactive)
REMARK    1  A    between atoms: C_4  and  N_7 
REMARK    2  A    between atoms: N_7  and  C_8 
REMARK    3  A    between atoms: N_10  and  N_11 
REMARK    4  A    between atoms: C_12  and  C_13 
REMARK    5  A    between atoms: C_22  and  C_23 
ROOT
ATOM      1  C   LIG d   1       5.660  -1.101  -5.745  0.00  0.00     0.028 A 
ATOM      2  C   LIG d   1       5.092  -1.221  -4.393  0.00  0.00     0.009 A 
ATOM      3  C   LIG d   1       4.239  -2.142  -3.786  0.00  0.00    -0.052 A 
ATOM      4  C   LIG d   1       3.889  -1.979  -2.465  0.00  0.00    -0.061 A 
ATOM      5  C   LIG d   1       4.383  -0.907  -1.735  0.00  0.00    -0.060 A 
ATOM      6  C   LIG d   1       5.231   0.007  -2.320  0.00  0.00    -0.038 A 
ATOM      7  C   LIG d   1       5.598  -0.138  -3.654  0.00  0.00     0.048 A 
ATOM      8  N   LIG d   1       6.410   0.602  -4.489  0.00  0.00    -0.354 N 
ATOM      9  H   LIG d   1       6.883   1.408  -4.229  0.00  0.00     0.166 HD
ATOM     10  C   LIG d   1       6.452   0.035  -5.737  0.00  0.00     0.056 A 
ATOM     11  H   LIG d   1       3.853  -2.977  -4.351  0.00  0.00     0.062 H 
ATOM     12  H   LIG d   1       3.225  -2.690  -1.993  0.00  0.00     0.062 H 
ATOM     13  H   LIG d   1       4.101  -0.790  -0.699  0.00  0.00     0.062 H 
ATOM     14  H   LIG d   1       5.609   0.838  -1.743  0.00  0.00     0.064 H 
ENDROOT
BRANCH   1  15
ATOM     15  C   LIG d   1       5.427  -2.002  -6.881  0.00  0.00     0.055 C 
ATOM     16  N   LIG d   1       4.263  -2.030  -7.460  0.00  0.00    -0.188 NA
ATOM     17  H   LIG d   1       6.221  -2.642  -7.235  0.00  0.00     0.085 H 
BRANCH  16  18
ATOM     18  N   LIG d   1       4.040  -2.890  -8.544  0.00  0.00    -0.218 N 
ATOM     19  C   LIG d   1       3.040  -2.636  -9.412  0.00  0.00     0.154 C 
ATOM     20  S   LIG d   1       2.767  -3.688 -10.735  0.00  0.00    -0.017 SA
ATOM     21  H   LIG d   1       4.605  -3.668  -8.669  0.00  0.00     0.176 HD
BRANCH  19  22
ATOM     22  N   LIG d   1       2.255  -1.554  -9.237  0.00  0.00    -0.296 N 
ATOM     23  H   LIG d   1       1.348  -1.661  -8.910  0.00  0.00     0.154 HD
BRANCH  22  24
ATOM     24  C   LIG d   1       2.749  -0.279  -9.526  0.00  0.00     0.033 A 
ATOM     25  C   LIG d   1       2.552   0.764  -8.629  0.00  0.00    -0.041 A 
ATOM     26  C   LIG d   1       3.046   2.022  -8.916  0.00  0.00    -0.060 A 
ATOM     27  H   LIG d   1       2.016   0.590  -7.708  0.00  0.00     0.064 H 
ATOM     28  C   LIG d   1       3.728   2.246 -10.097  0.00  0.00    -0.062 A 
ATOM     29  H   LIG d   1       2.897   2.831  -8.217  0.00  0.00     0.062 H 
ATOM     30  C   LIG d   1       3.925   1.210 -10.992  0.00  0.00    -0.060 A 
ATOM     31  H   LIG d   1       4.110   3.232 -10.321  0.00  0.00     0.062 H 
ATOM     32  C   LIG d   1       3.439  -0.050 -10.710  0.00  0.00    -0.041 A 
ATOM     33  H   LIG d   1       4.462   1.388 -11.912  0.00  0.00     0.062 H 
ATOM     34  H   LIG d   1       3.594  -0.859 -11.409  0.00  0.00     0.064 H 
ENDBRANCH  22  24
ENDBRANCH  19  22
ENDBRANCH  16  18
ENDBRANCH   1  15
BRANCH  10  35
ATOM     35  C   LIG d   1       7.219   0.552  -6.886  0.00  0.00    -0.001 A 
ATOM     36  C   LIG d   1       8.615   0.492  -6.883  0.00  0.00    -0.051 A 
ATOM     37  C   LIG d   1       9.326   0.978  -7.961  0.00  0.00    -0.043 A 
ATOM     38  H   LIG d   1       9.136   0.067  -6.038  0.00  0.00     0.062 H 
ATOM     39  C   LIG d   1       8.659   1.523  -9.045  0.00  0.00     0.041 A 
ATOM     40  H   LIG d   1      10.404   0.932  -7.959  0.00  0.00     0.063 H 
ATOM     41  C   LIG d   1       7.275   1.585  -9.055  0.00  0.00    -0.043 A 
ATOM     42 CL   LIG d   1       9.561   2.131 -10.398  0.00  0.00    -0.084 Cl
ATOM     43  C   LIG d   1       6.552   1.098  -7.986  0.00  0.00    -0.051 A 
ATOM     44  H   LIG d   1       6.761   2.012  -9.903  0.00  0.00     0.063 H 
ATOM     45  H   LIG d   1       5.474   1.143  -7.997  0.00  0.00     0.062 H 
ENDBRANCH  10  35
TORSDOF 5
ENDMDL
MODEL 3
REMARK VINA RESULT:      -7.6      2.238      6.560
REMARK  5 active torsions:
REMARK  status: ('A' for Active; 'I' for Inactive)
REMARK    1  A    between atoms: C_4  and  N_7 
REMARK    2  A    between atoms: N_7  and  C_8 
REMARK    3  A    between atoms: N_10  and  N_11 
REMARK    4  A    between atoms: C_12  and  C_13 
REMARK    5  A    between atoms: C_22  and  C_23 
ROOT
ATOM      1  C   LIG d   1       4.407  -1.436  -5.308  0.00  0.00     0.028 A 
ATOM      2  C   LIG d   1       4.405  -0.944  -3.921  0.00  0.00     0.009 A 
ATOM      3  C   LIG d   1       4.732  -1.522  -2.694  0.00  0.00    -0.052 A 
ATOM      4  C   LIG d   1       4.632  -0.777  -1.541  0.00  0.00    -0.061 A 
ATOM      5  C   LIG d   1       4.213   0.545  -1.594  0.00  0.00    -0.060 A 
ATOM      6  C   LIG d   1       3.893   1.131  -2.799  0.00  0.00    -0.038 A 
ATOM      7  C   LIG d   1       3.988   0.396  -3.977  0.00  0.00     0.048 A 
ATOM      8  N   LIG d   1       3.738   0.707  -5.298  0.00  0.00    -0.354 N 
ATOM      9  H   LIG d   1       3.432   1.571  -5.616  0.00  0.00     0.166 HD
ATOM     10  C   LIG d   1       3.986  -0.380  -6.097  0.00  0.00     0.056 A 
ATOM     11  H   LIG d   1       5.058  -2.551  -2.650  0.00  0.00     0.062 H 
ATOM     12  H   LIG d   1       4.881  -1.224  -0.589  0.00  0.00     0.062 H 
ATOM     13  H   LIG d   1       4.138   1.120  -0.683  0.00  0.00     0.062 H 
ATOM     14  H   LIG d   1       3.568   2.160  -2.829  0.00  0.00     0.064 H 
ENDROOT
BRANCH   1  15
ATOM     15  C   LIG d   1       4.774  -2.783  -5.763  0.00  0.00     0.055 C 
ATOM     16  N   LIG d   1       4.190  -3.825  -5.249  0.00  0.00    -0.188 NA
ATOM     17  H   LIG d   1       5.529  -2.909  -6.524  0.00  0.00     0.085 H 
BRANCH  16  18
ATOM     18  N   LIG d   1       4.540  -5.110  -5.683  0.00  0.00    -0.218 N 
ATOM     19  C   LIG d   1       4.066  -5.578  -6.856  0.00  0.00     0.154 C 
ATOM     20  S   LIG d   1       4.492  -7.149  -7.385  0.00  0.00    -0.017 SA
ATOM     21  H   LIG d   1       5.122  -5.664  -5.140  0.00  0.00     0.176 HD
BRANCH  19  22
ATOM     22  N   LIG d   1       3.256  -4.808  -7.610  0.00  0.00    -0.296 N 
ATOM     23  H   LIG d   1       2.414  -4.491  -7.248  0.00  0.00     0.154 HD
BRANCH  22  24
ATOM     24  C   LIG d   1       3.631  -4.467  -8.913  0.00  0.00     0.033 A 
ATOM     25  C   LIG d   1       4.946  -4.117  -9.190  0.00  0.00    -0.041 A 
ATOM     26  C   LIG d   1       5.314  -3.786 -10.480  0.00  0.00    -0.060 A 
ATOM     27  H   LIG d   1       5.681  -4.107  -8.399  0.00  0.00     0.064 H 
ATOM     28  C   LIG d   1       4.372  -3.794 -11.493  0.00  0.00    -0.062 A 
ATOM     29  H   LIG d   1       6.337  -3.517 -10.696  0.00  0.00     0.062 H 
ATOM     30  C   LIG d   1       3.062  -4.142 -11.219  0.00  0.00    -0.060 A 
ATOM     31  H   LIG d   1       4.661  -3.530 -12.500  0.00  0.00     0.062 H 
ATOM     32  C   LIG d   1       2.688  -4.478  -9.934  0.00  0.00    -0.041 A 
ATOM     33  H   LIG d   1       2.330  -4.151 -12.013  0.00  0.00     0.062 H 
ATOM     34  H   LIG d   1       1.665  -4.751  -9.722  0.00  0.00     0.064 H 
ENDBRANCH  22  24
ENDBRANCH  19  22
ENDBRANCH  16  18
ENDBRANCH   1  15
BRANCH  10  35
ATOM     35  C   LIG d   1       3.830  -0.417  -7.564  0.00  0.00    -0.001 A 
ATOM     36  C   LIG d   1       2.582  -0.687  -8.131  0.00  0.00    -0.051 A 
ATOM     37  C   LIG d   1       2.443  -0.720  -9.503  0.00  0.00    -0.043 A 
ATOM     38  H   LIG d   1       1.728  -0.870  -7.496  0.00  0.00     0.062 H 
ATOM     39  C   LIG d   1       3.537  -0.485 -10.318  0.00  0.00     0.041 A 
ATOM     40  H   LIG d   1       1.479  -0.929  -9.941  0.00  0.00     0.063 H 
ATOM     41  C   LIG d   1       4.778  -0.216  -9.762  0.00  0.00    -0.043 A 
ATOM     42 CL   LIG d   1       3.354  -0.526 -12.044  0.00  0.00    -0.084 Cl
ATOM     43  C   LIG d   1       4.929  -0.174  -8.393  0.00  0.00    -0.051 A 
ATOM     44  H   LIG d   1       5.627  -0.034 -10.404  0.00  0.00     0.063 H 
ATOM     45  H   LIG d   1       5.895   0.039  -7.961  0.00  0.00     0.062 H 
ENDBRANCH  10  35
TORSDOF 5
ENDMDL
MODEL 4
REMARK VINA RESULT:      -7.4      4.525      7.818
REMARK  5 active torsions:
REMARK  status: ('A' for Active; 'I' for Inactive)
REMARK    1  A    between atoms: C_4  and  N_7 
REMARK    2  A    between atoms: N_7  and  C_8 
REMARK    3  A    between atoms: N_10  and  N_11 
REMARK    4  A    between atoms: C_12  and  C_13 
REMARK    5  A    between atoms: C_22  and  C_23 
ROOT
ATOM      1  C   LIG d   1       5.732  -1.860  -4.583  0.00  0.00     0.028 A 
ATOM      2  C   LIG d   1       5.260  -0.760  -3.727  0.00  0.00     0.009 A 
ATOM      3  C   LIG d   1       5.882   0.347  -3.152  0.00  0.00    -0.052 A 
ATOM      4  C   LIG d   1       5.145   1.224  -2.389  0.00  0.00    -0.061 A 
ATOM      5  C   LIG d   1       3.787   1.014  -2.194  0.00  0.00    -0.060 A 
ATOM      6  C   LIG d   1       3.158  -0.072  -2.760  0.00  0.00    -0.038 A 
ATOM      7  C   LIG d   1       3.884  -0.971  -3.536  0.00  0.00     0.048 A 
ATOM      8  N   LIG d   1       3.533  -2.121  -4.213  0.00  0.00    -0.354 N 
ATOM      9  H   LIG d   1       2.639  -2.497  -4.242  0.00  0.00     0.166 HD
ATOM     10  C   LIG d   1       4.630  -2.657  -4.839  0.00  0.00     0.056 A 
ATOM     11  H   LIG d   1       6.939   0.514  -3.302  0.00  0.00     0.062 H 
ATOM     12  H   LIG d   1       5.626   2.081  -1.939  0.00  0.00     0.062 H 
ATOM     13  H   LIG d   1       3.219   1.708  -1.593  0.00  0.00     0.062 H 
ATOM     14  H   LIG d   1       2.101  -0.227  -2.602  0.00  0.00     0.064 H 
ENDROOT
BRANCH   1  15
ATOM     15  C   LIG d   1       7.103  -2.076  -5.062  0.00  0.00     0.055 C 
ATOM     16  N   LIG d   1       8.097  -2.047  -4.224  0.00  0.00    -0.188 NA
ATOM     17  H   LIG d   1       7.287  -2.256  -6.111  0.00  0.00     0.085 H 
BRANCH  16  18
ATOM     18  N   LIG d   1       9.405  -2.253  -4.681  0.00  0.00    -0.218 N 
ATOM     19  C   LIG d   1      10.215  -3.121  -4.042  0.00  0.00     0.154 C 
ATOM     20  S   LIG d   1      11.814  -3.371  -4.599  0.00  0.00    -0.017 SA
ATOM     21  H   LIG d   1       9.729  -1.769  -5.457  0.00  0.00     0.176 HD
BRANCH  19  22
ATOM     22  N   LIG d   1       9.764  -3.792  -2.963  0.00  0.00    -0.296 N 
ATOM     23  H   LIG d   1       9.655  -3.332  -2.116  0.00  0.00     0.154 HD
BRANCH  22  24
ATOM     24  C   LIG d   1       9.454  -5.152  -3.065  0.00  0.00     0.033 A 
ATOM     25  C   LIG d   1       8.843  -5.643  -4.212  0.00  0.00    -0.041 A 
ATOM     26  C   LIG d   1       8.543  -6.987  -4.312  0.00  0.00    -0.060 A 
ATOM     27  H   LIG d   1       8.605  -4.973  -5.026  0.00  0.00     0.064 H 
ATOM     28  C   LIG d   1       8.841  -7.843  -3.268  0.00  0.00    -0.062 A 
ATOM     29  H   LIG d   1       8.071  -7.370  -5.205  0.00  0.00     0.062 H 
ATOM     30  C   LIG d   1       9.450  -7.358  -2.125  0.00  0.00    -0.060 A 
ATOM     31  H   LIG d   1       8.602  -8.894  -3.346  0.00  0.00     0.062 H 
ATOM     32  C   LIG d   1       9.757  -6.016  -2.020  0.00  0.00    -0.041 A 
ATOM     33  H   LIG d   1       9.686  -8.030  -1.313  0.00  0.00     0.062 H 
ATOM     34  H   LIG d   1      10.233  -5.638  -1.127  0.00  0.00     0.064 H 
ENDBRANCH  22  24
ENDBRANCH  19  22
ENDBRANCH  16  18
ENDBRANCH   1  15
BRANCH  10  35
ATOM     35  C   LIG d   1       4.633  -3.886  -5.656  0.00  0.00    -0.001 A 
ATOM     36  C   LIG d   1       4.943  -5.116  -5.073  0.00  0.00    -0.051 A 
ATOM     37  C   LIG d   1       4.944  -6.261  -5.843  0.00  0.00    -0.043 A 
ATOM     38  H   LIG d   1       5.183  -5.171  -4.021  0.00  0.00     0.062 H 
ATOM     39  C   LIG d   1       4.637  -6.192  -7.191  0.00  0.00     0.041 A 
ATOM     40  H   LIG d   1       5.185  -7.212  -5.393  0.00  0.00     0.063 H 
ATOM     41  C   LIG d   1       4.328  -4.975  -7.776  0.00  0.00    -0.043 A 
ATOM     42 CL   LIG d   1       4.639  -7.637  -8.153  0.00  0.00    -0.084 Cl
ATOM     43  C   LIG d   1       4.317  -3.824  -7.017  0.00  0.00    -0.051 A 
ATOM     44  H   LIG d   1       4.089  -4.928  -8.828  0.00  0.00     0.063 H 
ATOM     45  H   LIG d   1       4.072  -2.877  -7.473  0.00  0.00     0.062 H 
ENDBRANCH  10  35
TORSDOF 5
ENDMDL
MODEL 5
REMARK VINA RESULT:      -7.4      5.041      8.335
REMARK  5 active torsions:
REMARK  status: ('A' for Active; 'I' for Inactive)
REMARK    1  A    between atoms: C_4  and  N_7 
REMARK    2  A    between atoms: N_7  and  C_8 
REMARK    3  A    between atoms: N_10  and  N_11 
REMARK    4  A    between atoms: C_12  and  C_13 
REMARK    5  A    between atoms: C_22  and  C_23 
ROOT
ATOM      1  C   LIG d   1       5.581  -2.378  -3.957  0.00  0.00     0.028 A 
ATOM      2  C   LIG d   1       4.791  -1.276  -3.385  0.00  0.00     0.009 A 
ATOM      3  C   LIG d   1       3.423  -1.054  -3.227  0.00  0.00    -0.052 A 
ATOM      4  C   LIG d   1       2.985   0.105  -2.628  0.00  0.00    -0.061 A 
ATOM      5  C   LIG d   1       3.897   1.049  -2.177  0.00  0.00    -0.060 A 
ATOM      6  C   LIG d   1       5.251   0.841  -2.321  0.00  0.00    -0.038 A 
ATOM      7  C   LIG d   1       5.716  -0.325  -2.923  0.00  0.00     0.048 A 
ATOM      8  N   LIG d   1       6.982  -0.796  -3.199  0.00  0.00    -0.354 N 
ATOM      9  H   LIG d   1       7.806  -0.329  -2.987  0.00  0.00     0.166 HD
ATOM     10  C   LIG d   1       6.911  -2.020  -3.815  0.00  0.00     0.056 A 
ATOM     11  H   LIG d   1       2.711  -1.787  -3.577  0.00  0.00     0.062 H 
ATOM     12  H   LIG d   1       1.925   0.281  -2.508  0.00  0.00     0.062 H 
ATOM     13  H   LIG d   1       3.542   1.955  -1.709  0.00  0.00     0.062 H 
ATOM     14  H   LIG d   1       5.952   1.582  -1.967  0.00  0.00     0.064 H 
ENDROOT
BRANCH   1  15
ATOM     15  C   LIG d   1       5.063  -3.609  -4.566  0.00  0.00     0.055 C 
ATOM     16  N   LIG d   1       4.441  -3.558  -5.707  0.00  0.00    -0.188 NA
ATOM     17  H   LIG d   1       5.196  -4.557  -4.067  0.00  0.00     0.085 H 
BRANCH  16  18
ATOM     18  N   LIG d   1       3.946  -4.733  -6.289  0.00  0.00    -0.218 N 
ATOM     19  C   LIG d   1       4.768  -5.531  -7.000  0.00  0.00     0.154 C 
ATOM     20  S   LIG d   1       4.162  -6.966  -7.712  0.00  0.00    -0.017 SA
ATOM     21  H   LIG d   1       3.013  -4.972  -6.180  0.00  0.00     0.176 HD
BRANCH  19  22
ATOM     22  N   LIG d   1       6.065  -5.199  -7.152  0.00  0.00    -0.296 N 
ATOM     23  H   LIG d   1       6.304  -4.354  -7.564  0.00  0.00     0.154 HD
BRANCH  22  24
ATOM     24  C   LIG d   1       7.066  -6.071  -6.714  0.00  0.00     0.033 A 
ATOM     25  C   LIG d   1       7.074  -6.518  -5.398  0.00  0.00    -0.041 A 
ATOM     26  C   LIG d   1       8.061  -7.384  -4.971  0.00  0.00    -0.060 A 
ATOM     27  H   LIG d   1       6.308  -6.189  -4.712  0.00  0.00     0.064 H 
ATOM     28  C   LIG d   1       9.046  -7.800  -5.848  0.00  0.00    -0.062 A 
ATOM     29  H   LIG d   1       8.066  -7.734  -3.949  0.00  0.00     0.062 H 
ATOM     30  C   LIG d   1       9.040  -7.357  -7.158  0.00  0.00    -0.060 A 
ATOM     31  H   LIG d   1       9.819  -8.474  -5.510  0.00  0.00     0.062 H 
ATOM     32  C   LIG d   1       8.054  -6.495  -7.594  0.00  0.00    -0.041 A 
ATOM     33  H   LIG d   1       9.808  -7.688  -7.842  0.00  0.00     0.062 H 
ATOM     34  H   LIG d   1       8.050  -6.151  -8.617  0.00  0.00     0.064 H 
ENDBRANCH  22  24
ENDBRANCH  19  22
ENDBRANCH  16  18
ENDBRANCH   1  15
BRANCH  10  35
ATOM     35  C   LIG d   1       8.066  -2.825  -4.255  0.00  0.00    -0.001 A 
ATOM     36  C   LIG d   1       8.510  -2.752  -5.577  0.00  0.00    -0.051 A 
ATOM     37  C   LIG d   1       9.591  -3.507  -5.982  0.00  0.00    -0.043 A 
ATOM     38  H   LIG d   1       8.008  -2.105  -6.282  0.00  0.00     0.062 H 
ATOM     39  C   LIG d   1      10.236  -4.336  -5.080  0.00  0.00     0.041 A 
ATOM     40  H   LIG d   1       9.935  -3.452  -7.004  0.00  0.00     0.063 H 
ATOM     41  C   LIG d   1       9.801  -4.413  -3.767  0.00  0.00    -0.043 A 
ATOM     42 CL   LIG d   1      11.597  -5.283  -5.596  0.00  0.00    -0.084 Cl
ATOM     43  C   LIG d   1       8.726  -3.659  -3.348  0.00  0.00    -0.051 A 
ATOM     44  H   LIG d   1      10.309  -5.062  -3.068  0.00  0.00     0.063 H 
ATOM     45  H   LIG d   1       8.391  -3.717  -2.324  0.00  0.00     0.062 H 
ENDBRANCH  10  35
TORSDOF 5
ENDMDL
MODEL 6
REMARK VINA RESULT:      -7.3      3.482      7.918
REMARK  5 active torsions:
REMARK  status: ('A' for Active; 'I' for Inactive)
REMARK    1  A    between atoms: C_4  and  N_7 
REMARK    2  A    between atoms: N_7  and  C_8 
REMARK    3  A    between atoms: N_10  and  N_11 
REMARK    4  A    between atoms: C_12  and  C_13 
REMARK    5  A    between atoms: C_22  and  C_23 
ROOT
ATOM      1  C   LIG d   1       5.630  -1.661  -4.718  0.00  0.00     0.028 A 
ATOM      2  C   LIG d   1       4.819  -0.677  -3.982  0.00  0.00     0.009 A 
ATOM      3  C   LIG d   1       3.494  -0.253  -4.083  0.00  0.00    -0.052 A 
ATOM      4  C   LIG d   1       3.017   0.704  -3.217  0.00  0.00    -0.061 A 
ATOM      5  C   LIG d   1       3.845   1.245  -2.243  0.00  0.00    -0.060 A 
ATOM      6  C   LIG d   1       5.154   0.832  -2.128  0.00  0.00    -0.038 A 
ATOM      7  C   LIG d   1       5.657  -0.136  -2.992  0.00  0.00     0.048 A 
ATOM      8  N   LIG d   1       6.896  -0.730  -3.114  0.00  0.00    -0.354 N 
ATOM      9  H   LIG d   1       7.663  -0.533  -2.554  0.00  0.00     0.166 HD
ATOM     10  C   LIG d   1       6.888  -1.641  -4.140  0.00  0.00     0.056 A 
ATOM     11  H   LIG d   1       2.847  -0.673  -4.839  0.00  0.00     0.062 H 
ATOM     12  H   LIG d   1       1.991   1.037  -3.295  0.00  0.00     0.062 H 
ATOM     13  H   LIG d   1       3.460   1.996  -1.570  0.00  0.00     0.062 H 
ATOM     14  H   LIG d   1       5.790   1.259  -1.367  0.00  0.00     0.064 H 
ENDROOT
BRANCH   1  15
ATOM     15  C   LIG d   1       5.193  -2.492  -5.847  0.00  0.00     0.055 C 
ATOM     16  N   LIG d   1       5.081  -1.971  -7.033  0.00  0.00    -0.188 NA
ATOM     17  H   LIG d   1       4.964  -3.536  -5.692  0.00  0.00     0.085 H 
BRANCH  16  18
ATOM     18  N   LIG d   1       4.665  -2.764  -8.110  0.00  0.00    -0.218 N 
ATOM     19  C   LIG d   1       3.521  -2.471  -8.762  0.00  0.00     0.154 C 
ATOM     20  S   LIG d   1       3.012  -3.442 -10.077  0.00  0.00    -0.017 SA
ATOM     21  H   LIG d   1       5.199  -3.525  -8.386  0.00  0.00     0.176 HD
BRANCH  19  22
ATOM     22  N   LIG d   1       2.780  -1.414  -8.377  0.00  0.00    -0.296 N 
ATOM     23  H   LIG d   1       2.048  -1.536  -7.752  0.00  0.00     0.154 HD
BRANCH  22  24
ATOM     24  C   LIG d   1       3.064  -0.140  -8.879  0.00  0.00     0.033 A 
ATOM     25  C   LIG d   1       2.852   0.983  -8.090  0.00  0.00    -0.041 A 
ATOM     26  C   LIG d   1       3.140   2.239  -8.588  0.00  0.00    -0.060 A 
ATOM     27  H   LIG d   1       2.466   0.874  -7.087  0.00  0.00     0.064 H 
ATOM     28  C   LIG d   1       3.629   2.380  -9.873  0.00  0.00    -0.062 A 
ATOM     29  H   LIG d   1       2.979   3.112  -7.973  0.00  0.00     0.062 H 
ATOM     30  C   LIG d   1       3.841   1.264 -10.661  0.00  0.00    -0.060 A 
ATOM     31  H   LIG d   1       3.850   3.364 -10.262  0.00  0.00     0.062 H 
ATOM     32  C   LIG d   1       3.561   0.005 -10.169  0.00  0.00    -0.041 A 
ATOM     33  H   LIG d   1       4.228   1.376 -11.663  0.00  0.00     0.062 H 
ATOM     34  H   LIG d   1       3.728  -0.867 -10.785  0.00  0.00     0.064 H 
ENDBRANCH  22  24
ENDBRANCH  19  22
ENDBRANCH  16  18
ENDBRANCH   1  15
BRANCH  10  35
ATOM     35  C   LIG d   1       8.036  -2.467  -4.560  0.00  0.00    -0.001 A 
ATOM     36  C   LIG d   1       8.202  -3.753  -4.043  0.00  0.00    -0.051 A 
ATOM     37  C   LIG d   1       9.278  -4.520  -4.440  0.00  0.00    -0.043 A 
ATOM     38  H   LIG d   1       7.490  -4.147  -3.333  0.00  0.00     0.062 H 
ATOM     39  C   LIG d   1      10.192  -4.016  -5.350  0.00  0.00     0.041 A 
ATOM     40  H   LIG d   1       9.407  -5.514  -4.040  0.00  0.00     0.063 H 
ATOM     41  C   LIG d   1      10.032  -2.741  -5.868  0.00  0.00    -0.043 A 
ATOM     42 CL   LIG d   1      11.543  -4.988  -5.847  0.00  0.00    -0.084 Cl
ATOM     43  C   LIG d   1       8.958  -1.967  -5.484  0.00  0.00    -0.051 A 
ATOM     44  H   LIG d   1      10.749  -2.355  -6.578  0.00  0.00     0.063 H 
ATOM     45  H   LIG d   1       8.834  -0.975  -5.891  0.00  0.00     0.062 H 
ENDBRANCH  10  35
TORSDOF 5
ENDMDL
MODEL 7
REMARK VINA RESULT:      -7.1      3.617      7.476
REMARK  5 active torsions:
REMARK  status: ('A' for Active; 'I' for Inactive)
REMARK    1  A    between atoms: C_4  and  N_7 
REMARK    2  A    between atoms: N_7  and  C_8 
REMARK    3  A    between atoms: N_10  and  N_11 
REMARK    4  A    between atoms: C_12  and  C_13 
REMARK    5  A    between atoms: C_22  and  C_23 
ROOT
ATOM      1  C   LIG d   1       5.586  -1.935  -5.196  0.00  0.00     0.028 A 
ATOM      2  C   LIG d   1       5.376  -0.998  -4.080  0.00  0.00     0.009 A 
ATOM      3  C   LIG d   1       5.953   0.220  -3.725  0.00  0.00    -0.052 A 
ATOM      4  C   LIG d   1       5.520   0.876  -2.594  0.00  0.00    -0.061 A 
ATOM      5  C   LIG d   1       4.512   0.332  -1.811  0.00  0.00    -0.060 A 
ATOM      6  C   LIG d   1       3.929  -0.868  -2.152  0.00  0.00    -0.038 A 
ATOM      7  C   LIG d   1       4.350  -1.547  -3.291  0.00  0.00     0.048 A 
ATOM      8  N   LIG d   1       3.963  -2.739  -3.869  0.00  0.00    -0.354 N 
ATOM      9  H   LIG d   1       3.272  -3.324  -3.521  0.00  0.00     0.166 HD
ATOM     10  C   LIG d   1       4.695  -2.977  -5.005  0.00  0.00     0.056 A 
ATOM     11  H   LIG d   1       6.737   0.646  -4.333  0.00  0.00     0.062 H 
ATOM     12  H   LIG d   1       5.969   1.819  -2.315  0.00  0.00     0.062 H 
ATOM     13  H   LIG d   1       4.182   0.855  -0.926  0.00  0.00     0.062 H 
ATOM     14  H   LIG d   1       3.146  -1.282  -1.535  0.00  0.00     0.064 H 
ENDROOT
BRANCH   1  15
ATOM     15  C   LIG d   1       6.555  -1.796  -6.290  0.00  0.00     0.055 C 
ATOM     16  N   LIG d   1       6.477  -0.784  -7.103  0.00  0.00    -0.188 NA
ATOM     17  H   LIG d   1       7.332  -2.535  -6.422  0.00  0.00     0.085 H 
BRANCH  16  18
ATOM     18  N   LIG d   1       7.402  -0.651  -8.147  0.00  0.00    -0.218 N 
ATOM     19  C   LIG d   1       6.981  -0.678  -9.428  0.00  0.00     0.154 C 
ATOM     20  S   LIG d   1       8.112  -0.517 -10.703  0.00  0.00    -0.017 SA
ATOM     21  H   LIG d   1       8.345  -0.541  -7.948  0.00  0.00     0.176 HD
BRANCH  19  22
ATOM     22  N   LIG d   1       5.671  -0.832  -9.703  0.00  0.00    -0.296 N 
ATOM     23  H   LIG d   1       5.353  -1.655 -10.104  0.00  0.00     0.154 HD
BRANCH  22  24
ATOM     24  C   LIG d   1       4.770   0.197  -9.410  0.00  0.00     0.033 A 
ATOM     25  C   LIG d   1       5.133   1.521  -9.619  0.00  0.00    -0.041 A 
ATOM     26  C   LIG d   1       4.238   2.534  -9.334  0.00  0.00    -0.060 A 
ATOM     27  H   LIG d   1       6.113   1.758 -10.007  0.00  0.00     0.064 H 
ATOM     28  C   LIG d   1       2.986   2.232  -8.833  0.00  0.00    -0.062 A 
ATOM     29  H   LIG d   1       4.519   3.564  -9.501  0.00  0.00     0.062 H 
ATOM     30  C   LIG d   1       2.622   0.915  -8.624  0.00  0.00    -0.060 A 
ATOM     31  H   LIG d   1       2.289   3.026  -8.607  0.00  0.00     0.062 H 
ATOM     32  C   LIG d   1       3.509  -0.103  -8.910  0.00  0.00    -0.041 A 
ATOM     33  H   LIG d   1       1.641   0.681  -8.235  0.00  0.00     0.062 H 
ATOM     34  H   LIG d   1       3.223  -1.132  -8.747  0.00  0.00     0.064 H 
ENDBRANCH  22  24
ENDBRANCH  19  22
ENDBRANCH  16  18
ENDBRANCH   1  15
BRANCH  10  35
ATOM     35  C   LIG d   1       4.553  -4.154  -5.882  0.00  0.00    -0.001 A 
ATOM     36  C   LIG d   1       4.067  -4.007  -7.183  0.00  0.00    -0.051 A 
ATOM     37  C   LIG d   1       3.937  -5.112  -7.997  0.00  0.00    -0.043 A 
ATOM     38  H   LIG d   1       3.792  -3.029  -7.550  0.00  0.00     0.062 H 
ATOM     39  C   LIG d   1       4.289  -6.367  -7.528  0.00  0.00     0.041 A 
ATOM     40  H   LIG d   1       3.561  -4.999  -9.003  0.00  0.00     0.063 H 
ATOM     41  C   LIG d   1       4.773  -6.520  -6.239  0.00  0.00    -0.043 A 
ATOM     42 CL   LIG d   1       4.124  -7.754  -8.560  0.00  0.00    -0.084 Cl
ATOM     43  C   LIG d   1       4.913  -5.423  -5.417  0.00  0.00    -0.051 A 
ATOM     44  H   LIG d   1       5.045  -7.502  -5.879  0.00  0.00     0.063 H 
ATOM     45  H   LIG d   1       5.293  -5.543  -4.414  0.00  0.00     0.062 H 
ENDBRANCH  10  35
TORSDOF 5
ENDMDL
MODEL 8
REMARK VINA RESULT:      -7.1      3.251      7.050
REMARK  5 active torsions:
REMARK  status: ('A' for Active; 'I' for Inactive)
REMARK    1  A    between atoms: C_4  and  N_7 
REMARK    2  A    between atoms: N_7  and  C_8 
REMARK    3  A    between atoms: N_10  and  N_11 
REMARK    4  A    between atoms: C_12  and  C_13 
REMARK    5  A    between atoms: C_22  and  C_23 
ROOT
ATOM      1  C   LIG d   1       4.931  -0.210  -6.083  0.00  0.00     0.028 A 
ATOM      2  C   LIG d   1       4.799  -0.057  -4.625  0.00  0.00     0.009 A 
ATOM      3  C   LIG d   1       5.710   0.176  -3.596  0.00  0.00    -0.052 A 
ATOM      4  C   LIG d   1       5.261   0.280  -2.298  0.00  0.00    -0.061 A 
ATOM      5  C   LIG d   1       3.908   0.159  -2.013  0.00  0.00    -0.060 A 
ATOM      6  C   LIG d   1       2.996  -0.066  -3.020  0.00  0.00    -0.038 A 
ATOM      7  C   LIG d   1       3.428  -0.174  -4.339  0.00  0.00     0.048 A 
ATOM      8  N   LIG d   1       2.764  -0.394  -5.528  0.00  0.00    -0.354 N 
ATOM      9  H   LIG d   1       1.805  -0.515  -5.612  0.00  0.00     0.166 HD
ATOM     10  C   LIG d   1       3.653  -0.416  -6.572  0.00  0.00     0.056 A 
ATOM     11  H   LIG d   1       6.763   0.271  -3.815  0.00  0.00     0.062 H 
ATOM     12  H   LIG d   1       5.965   0.458  -1.498  0.00  0.00     0.062 H 
ATOM     13  H   LIG d   1       3.567   0.242  -0.991  0.00  0.00     0.062 H 
ATOM     14  H   LIG d   1       1.946  -0.159  -2.787  0.00  0.00     0.064 H 
ENDROOT
BRANCH   1  15
ATOM     15  C   LIG d   1       6.174  -0.162  -6.864  0.00  0.00     0.055 C 
ATOM     16  N   LIG d   1       6.535   0.944  -7.443  0.00  0.00    -0.188 NA
ATOM     17  H   LIG d   1       6.788  -1.046  -6.957  0.00  0.00     0.085 H 
BRANCH  16  18
ATOM     18  N   LIG d   1       7.721   0.991  -8.187  0.00  0.00    -0.218 N 
ATOM     19  C   LIG d   1       7.692   0.770  -9.517  0.00  0.00     0.154 C 
ATOM     20  S   LIG d   1       9.142   0.825 -10.426  0.00  0.00    -0.017 SA
ATOM     21  H   LIG d   1       8.564   1.181  -7.746  0.00  0.00     0.176 HD
BRANCH  19  22
ATOM     22  N   LIG d   1       6.522   0.505 -10.130  0.00  0.00    -0.296 N 
ATOM     23  H   LIG d   1       5.814   1.169 -10.131  0.00  0.00     0.154 HD
BRANCH  22  24
ATOM     24  C   LIG d   1       6.328  -0.725 -10.765  0.00  0.00     0.033 A 
ATOM     25  C   LIG d   1       6.523  -1.909 -10.064  0.00  0.00    -0.041 A 
ATOM     26  C   LIG d   1       6.325  -3.123 -10.692  0.00  0.00    -0.060 A 
ATOM     27  H   LIG d   1       6.826  -1.879  -9.027  0.00  0.00     0.064 H 
ATOM     28  C   LIG d   1       5.942  -3.161 -12.020  0.00  0.00    -0.062 A 
ATOM     29  H   LIG d   1       6.472  -4.042 -10.146  0.00  0.00     0.062 H 
ATOM     30  C   LIG d   1       5.747  -1.985 -12.720  0.00  0.00    -0.060 A 
ATOM     31  H   LIG d   1       5.791  -4.112 -12.510  0.00  0.00     0.062 H 
ATOM     32  C   LIG d   1       5.938  -0.768 -12.098  0.00  0.00    -0.041 A 
ATOM     33  H   LIG d   1       5.443  -2.018 -13.757  0.00  0.00     0.062 H 
ATOM     34  H   LIG d   1       5.785   0.150 -12.645  0.00  0.00     0.064 H 
ENDBRANCH  22  24
ENDBRANCH  19  22
ENDBRANCH  16  18
ENDBRANCH   1  15
BRANCH  10  35
ATOM     35  C   LIG d   1       3.302  -0.626  -7.990  0.00  0.00    -0.001 A 
ATOM     36  C   LIG d   1       3.069   0.468  -8.825  0.00  0.00    -0.051 A 
ATOM     37  C   LIG d   1       2.741   0.264 -10.150  0.00  0.00    -0.043 A 
ATOM     38  H   LIG d   1       3.146   1.472  -8.435  0.00  0.00     0.062 H 
ATOM     39  C   LIG d   1       2.643  -1.022 -10.651  0.00  0.00     0.041 A 
ATOM     40  H   LIG d   1       2.561   1.110 -10.796  0.00  0.00     0.063 H 
ATOM     41  C   LIG d   1       2.873  -2.112  -9.828  0.00  0.00    -0.043 A 
ATOM     42 CL   LIG d   1       2.231  -1.271 -12.320  0.00  0.00    -0.084 Cl
ATOM     43  C   LIG d   1       3.207  -1.923  -8.504  0.00  0.00    -0.051 A 
ATOM     44  H   LIG d   1       2.794  -3.114 -10.226  0.00  0.00     0.063 H 
ATOM     45  H   LIG d   1       3.389  -2.773  -7.865  0.00  0.00     0.062 H 
ENDBRANCH  10  35
TORSDOF 5
ENDMDL
MODEL 9
REMARK VINA RESULT:      -6.9      6.510      8.528
REMARK  5 active torsions:
REMARK  status: ('A' for Active; 'I' for Inactive)
REMARK    1  A    between atoms: C_4  and  N_7 
REMARK    2  A    between atoms: N_7  and  C_8 
REMARK    3  A    between atoms: N_10  and  N_11 
REMARK    4  A    between atoms: C_12  and  C_13 
REMARK    5  A    between atoms: C_22  and  C_23 
ROOT
ATOM      1  C   LIG d   1       7.277  -0.242  -4.009  0.00  0.00     0.028 A 
ATOM      2  C   LIG d   1       5.993  -0.702  -3.455  0.00  0.00     0.009 A 
ATOM      3  C   LIG d   1       5.423  -1.960  -3.264  0.00  0.00    -0.052 A 
ATOM      4  C   LIG d   1       4.173  -2.063  -2.697  0.00  0.00    -0.061 A 
ATOM      5  C   LIG d   1       3.482  -0.923  -2.312  0.00  0.00    -0.060 A 
ATOM      6  C   LIG d   1       4.034   0.326  -2.489  0.00  0.00    -0.038 A 
ATOM      7  C   LIG d   1       5.297   0.453  -3.060  0.00  0.00     0.048 A 
ATOM      8  N   LIG d   1       6.086   1.546  -3.356  0.00  0.00    -0.354 N 
ATOM      9  H   LIG d   1       5.839   2.469  -3.188  0.00  0.00     0.166 HD
ATOM     10  C   LIG d   1       7.268   1.140  -3.921  0.00  0.00     0.056 A 
ATOM     11  H   LIG d   1       5.959  -2.849  -3.563  0.00  0.00     0.062 H 
ATOM     12  H   LIG d   1       3.728  -3.037  -2.552  0.00  0.00     0.062 H 
ATOM     13  H   LIG d   1       2.501  -1.017  -1.869  0.00  0.00     0.062 H 
ATOM     14  H   LIG d   1       3.487   1.206  -2.186  0.00  0.00     0.064 H 
ENDROOT
BRANCH   1  15
ATOM     15  C   LIG d   1       8.352  -1.081  -4.553  0.00  0.00     0.055 C 
ATOM     16  N   LIG d   1       8.434  -1.282  -5.835  0.00  0.00    -0.188 NA
ATOM     17  H   LIG d   1       9.074  -1.533  -3.889  0.00  0.00     0.085 H 
BRANCH  16  18
ATOM     18  N   LIG d   1       9.460  -2.083  -6.354  0.00  0.00    -0.218 N 
ATOM     19  C   LIG d   1      10.599  -1.515  -6.800  0.00  0.00     0.154 C 
ATOM     20  S   LIG d   1      11.851  -2.494  -7.436  0.00  0.00    -0.017 SA
ATOM     21  H   LIG d   1       9.350  -3.046  -6.394  0.00  0.00     0.176 HD
BRANCH  19  22
ATOM     22  N   LIG d   1      10.750  -0.177  -6.745  0.00  0.00    -0.296 N 
ATOM     23  H   LIG d   1      10.161   0.399  -7.255  0.00  0.00     0.154 HD
BRANCH  22  24
ATOM     24  C   LIG d   1      11.758   0.380  -5.951  0.00  0.00     0.033 A 
ATOM     25  C   LIG d   1      12.707   1.220  -6.519  0.00  0.00    -0.041 A 
ATOM     26  C   LIG d   1      13.698   1.773  -5.731  0.00  0.00    -0.060 A 
ATOM     27  H   LIG d   1      12.668   1.443  -7.575  0.00  0.00     0.064 H 
ATOM     28  C   LIG d   1      13.751   1.483  -4.380  0.00  0.00    -0.062 A 
ATOM     29  H   LIG d   1      14.433   2.429  -6.171  0.00  0.00     0.062 H 
ATOM     30  C   LIG d   1      12.808   0.647  -3.812  0.00  0.00    -0.060 A 
ATOM     31  H   LIG d   1      14.529   1.913  -3.766  0.00  0.00     0.062 H 
ATOM     32  C   LIG d   1      11.812   0.094  -4.592  0.00  0.00    -0.041 A 
ATOM     33  H   LIG d   1      12.849   0.426  -2.755  0.00  0.00     0.062 H 
ATOM     34  H   LIG d   1      11.075  -0.558  -4.147  0.00  0.00     0.064 H 
ENDBRANCH  22  24
ENDBRANCH  19  22
ENDBRANCH  16  18
ENDBRANCH   1  15
BRANCH  10  35
ATOM     35  C   LIG d   1       8.355   2.033  -4.365  0.00  0.00    -0.001 A 
ATOM     36  C   LIG d   1       8.471   2.383  -5.712  0.00  0.00    -0.051 A 
ATOM     37  C   LIG d   1       9.490   3.218  -6.120  0.00  0.00    -0.043 A 
ATOM     38  H   LIG d   1       7.765   1.999  -6.433  0.00  0.00     0.062 H 
ATOM     39  C   LIG d   1      10.396   3.711  -5.197  0.00  0.00     0.041 A 
ATOM     40  H   LIG d   1       9.581   3.488  -7.161  0.00  0.00     0.063 H 
ATOM     41  C   LIG d   1      10.287   3.369  -3.859  0.00  0.00    -0.043 A 
ATOM     42 CL   LIG d   1      11.676   4.764  -5.718  0.00  0.00    -0.084 Cl
ATOM     43  C   LIG d   1       9.269   2.539  -3.437  0.00  0.00    -0.051 A 
ATOM     44  H   LIG d   1      10.997   3.757  -3.144  0.00  0.00     0.063 H 
ATOM     45  H   LIG d   1       9.183   2.277  -2.394  0.00  0.00     0.062 H 
ENDBRANCH  10  35
TORSDOF 5
ENDMDL
MODEL 10
REMARK VINA RESULT:      -6.9      4.220      6.658
REMARK  5 active torsions:
REMARK  status: ('A' for Active; 'I' for Inactive)
REMARK    1  A    between atoms: C_4  and  N_7 
REMARK    2  A    between atoms: N_7  and  C_8 
REMARK    3  A    between atoms: N_10  and  N_11 
REMARK    4  A    between atoms: C_12  and  C_13 
REMARK    5  A    between atoms: C_22  and  C_23 
ROOT
ATOM      1  C   LIG d   1       4.894  -0.280  -6.042  0.00  0.00     0.028 A 
ATOM      2  C   LIG d   1       4.792  -0.059  -4.591  0.00  0.00     0.009 A 
ATOM      3  C   LIG d   1       5.732   0.117  -3.576  0.00  0.00    -0.052 A 
ATOM      4  C   LIG d   1       5.309   0.315  -2.281  0.00  0.00    -0.061 A 
ATOM      5  C   LIG d   1       3.954   0.345  -1.983  0.00  0.00    -0.060 A 
ATOM      6  C   LIG d   1       3.014   0.178  -2.975  0.00  0.00    -0.038 A 
ATOM      7  C   LIG d   1       3.420  -0.023  -4.291  0.00  0.00     0.048 A 
ATOM      8  N   LIG d   1       2.724  -0.217  -5.467  0.00  0.00    -0.354 N 
ATOM      9  H   LIG d   1       1.757  -0.241  -5.542  0.00  0.00     0.166 HD
ATOM     10  C   LIG d   1       3.596  -0.370  -6.515  0.00  0.00     0.056 A 
ATOM     11  H   LIG d   1       6.788   0.094  -3.805  0.00  0.00     0.062 H 
ATOM     12  H   LIG d   1       6.036   0.449  -1.492  0.00  0.00     0.062 H 
ATOM     13  H   LIG d   1       3.634   0.501  -0.963  0.00  0.00     0.062 H 
ATOM     14  H   LIG d   1       1.962   0.203  -2.733  0.00  0.00     0.064 H 
ENDROOT
BRANCH   1  15
ATOM     15  C   LIG d   1       6.127  -0.389  -6.831  0.00  0.00     0.055 C 
ATOM     16  N   LIG d   1       6.612   0.659  -7.429  0.00  0.00    -0.188 NA
ATOM     17  H   LIG d   1       6.632  -1.340  -6.916  0.00  0.00     0.085 H 
BRANCH  16  18
ATOM     18  N   LIG d   1       7.789   0.555  -8.182  0.00  0.00    -0.218 N 
ATOM     19  C   LIG d   1       8.730   1.516  -8.099  0.00  0.00     0.154 C 
ATOM     20  S   LIG d   1      10.168   1.389  -9.020  0.00  0.00    -0.017 SA
ATOM     21  H   LIG d   1       7.926  -0.209  -8.764  0.00  0.00     0.176 HD
BRANCH  19  22
ATOM     22  N   LIG d   1       8.538   2.578  -7.290  0.00  0.00    -0.296 N 
ATOM     23  H   LIG d   1       8.023   3.338  -7.602  0.00  0.00     0.154 HD
BRANCH  22  24
ATOM     24  C   LIG d   1       9.082   2.582  -6.002  0.00  0.00     0.033 A 
ATOM     25  C   LIG d   1      10.408   2.948  -5.807  0.00  0.00    -0.041 A 
ATOM     26  C   LIG d   1      10.939   2.957  -4.532  0.00  0.00    -0.060 A 
ATOM     27  H   LIG d   1      11.021   3.228  -6.651  0.00  0.00     0.064 H 
ATOM     28  C   LIG d   1      10.157   2.593  -3.452  0.00  0.00    -0.062 A 
ATOM     29  H   LIG d   1      11.969   3.245  -4.380  0.00  0.00     0.062 H 
ATOM     30  C   LIG d   1       8.837   2.229  -3.643  0.00  0.00    -0.060 A 
ATOM     31  H   LIG d   1      10.576   2.597  -2.456  0.00  0.00     0.062 H 
ATOM     32  C   LIG d   1       8.297   2.222  -4.914  0.00  0.00    -0.041 A 
ATOM     33  H   LIG d   1       8.226   1.949  -2.797  0.00  0.00     0.062 H 
ATOM     34  H   LIG d   1       7.265   1.938  -5.062  0.00  0.00     0.064 H 
ENDBRANCH  22  24
ENDBRANCH  19  22
ENDBRANCH  16  18
ENDBRANCH   1  15
BRANCH  10  35
ATOM     35  C   LIG d   1       3.212  -0.596  -7.922  0.00  0.00    -0.001 A 
ATOM     36  C   LIG d   1       2.720   0.460  -8.693  0.00  0.00    -0.051 A 
ATOM     37  C   LIG d   1       2.362   0.242 -10.007  0.00  0.00    -0.043 A 
ATOM     38  H   LIG d   1       2.621   1.445  -8.262  0.00  0.00     0.062 H 
ATOM     39  C   LIG d   1       2.490  -1.020 -10.562  0.00  0.00     0.041 A 
ATOM     40  H   LIG d   1       1.982   1.058 -10.604  0.00  0.00     0.063 H 
ATOM     41  C   LIG d   1       2.977  -2.071  -9.803  0.00  0.00    -0.043 A 
ATOM     42 CL   LIG d   1       2.039  -1.286 -12.218  0.00  0.00    -0.084 Cl
ATOM     43  C   LIG d   1       3.344  -1.866  -8.490  0.00  0.00    -0.051 A 
ATOM     44  H   LIG d   1       3.074  -3.053 -10.242  0.00  0.00     0.063 H 
ATOM     45  H   LIG d   1       3.727  -2.685  -7.901  0.00  0.00     0.062 H 
ENDBRANCH  10  35
TORSDOF 5
ENDMDL
