MODEL 1
REMARK VINA RESULT:      -6.0      0.000      0.000
REMARK  7 active torsions:
REMARK  status: ('A' for Active; 'I' for Inactive)
REMARK    1  A    between atoms: C_1  and  C_2 
REMARK    2  A    between atoms: C_2  and  C_3 
REMARK    3  A    between atoms: C_3  and  C_5 
REMARK    4  A    between atoms: C_3  and  N_6 
REMARK    5  A    between atoms: N_6  and  C_7 
REMARK    6  A    between atoms: C_7  and  C_8 
REMARK    7  A    between atoms: C_20  and  C_27 
ROOT
ATOM      1  C   LIG d   1       5.822  -0.502  -5.474  0.00  0.00     0.102 C 
ATOM      2  H   LIG d   1       6.211   0.254  -6.155  0.00  0.00     0.047 H 
ATOM      3  C   LIG d   1       4.428  -0.976  -5.926  0.00  0.00     0.015 C 
ATOM      4  H   LIG d   1       3.830  -1.237  -5.053  0.00  0.00     0.035 H 
ATOM      5  C   LIG d   1       3.695   0.046  -6.753  0.00  0.00    -0.039 C 
ATOM      6  C   LIG d   1       4.424   0.360  -8.061  0.00  0.00    -0.014 C 
ATOM      7  H   LIG d   1       5.398   0.809  -7.863  0.00  0.00     0.035 H 
ATOM      8  C   LIG d   1       3.554   1.298  -8.876  0.00  0.00    -0.073 C 
ATOM      9  C   LIG d   1       3.956   2.510  -9.171  0.00  0.00    -0.099 C 
ATOM     10  C   LIG d   1       2.206   0.788  -9.336  0.00  0.00    -0.032 C 
ATOM     11  C   LIG d   1       2.401  -0.554 -10.048  0.00  0.00    -0.049 C 
ATOM     12  C   LIG d   1       3.170  -1.513  -9.135  0.00  0.00    -0.047 C 
ATOM     13  C   LIG d   1       4.577  -0.949  -8.846  0.00  0.00    -0.022 C 
ATOM     14  C   LIG d   1       5.426  -1.922  -8.045  0.00  0.00    -0.009 C 
ATOM     15  C   LIG d   1       4.781  -2.254  -6.713  0.00  0.00     0.107 C 
ATOM     16  H   LIG d   1       3.932  -2.929  -6.822  0.00  0.00     0.074 H 
ATOM     17  O   LIG d   1       5.853  -2.799  -5.892  0.00  0.00    -0.461 OA
ATOM     18  C   LIG d   1       6.660  -1.770  -5.540  0.00  0.00     0.316 C 
ATOM     19  O   LIG d   1       7.845  -1.843  -5.317  0.00  0.00    -0.250 OA
ATOM     20  H   LIG d   1       2.700  -0.333  -6.985  0.00  0.00     0.028 H 
ATOM     21  H   LIG d   1       3.595   0.965  -6.173  0.00  0.00     0.028 H 
ATOM     22  H   LIG d   1       4.921   2.857  -8.832  0.00  0.00     0.053 H 
ATOM     23  H   LIG d   1       3.321   3.163  -9.752  0.00  0.00     0.053 H 
ATOM     24  H   LIG d   1       1.553   0.653  -8.475  0.00  0.00     0.031 H 
ATOM     25  H   LIG d   1       1.760   1.505 -10.026  0.00  0.00     0.031 H 
ATOM     26  H   LIG d   1       1.428  -0.983 -10.286  0.00  0.00     0.027 H 
ATOM     27  H   LIG d   1       2.964  -0.399 -10.967  0.00  0.00     0.027 H 
ATOM     28  H   LIG d   1       2.631  -1.632  -8.195  0.00  0.00     0.027 H 
ATOM     29  H   LIG d   1       3.266  -2.483  -9.624  0.00  0.00     0.027 H 
ATOM     30  H   LIG d   1       5.554  -2.839  -8.620  0.00  0.00     0.031 H 
ATOM     31  H   LIG d   1       6.404  -1.477  -7.867  0.00  0.00     0.031 H 
ENDROOT
BRANCH   1  32
ATOM     32  C   LIG d   1       5.771   0.038  -4.043  0.00  0.00    -0.020 C 
ATOM     33  H   LIG d   1       4.819   0.544  -3.879  0.00  0.00     0.082 H 
ATOM     34  H   LIG d   1       6.588   0.744  -3.892  0.00  0.00     0.082 H 
BRANCH  32  35
ATOM     35  N   LIG d   1       5.904  -1.076  -3.095  0.00  0.00     0.230 N 
ATOM     36  H   LIG d   1       6.811  -1.037  -2.655  0.00  0.00     0.202 HD
ATOM     37  H   LIG d   1       5.807  -1.951  -3.589  0.00  0.00     0.202 HD
BRANCH  35  38
ATOM     38  C   LIG d   1       4.857  -0.974  -2.069  0.00  0.00    -0.026 C 
ATOM     39  H   LIG d   1       5.236  -1.360  -1.123  0.00  0.00     0.085 H 
BRANCH  38  40
ATOM     40  C   LIG d   1       3.639  -1.792  -2.502  0.00  0.00    -0.013 C 
ATOM     41  H   LIG d   1       3.303  -2.410  -1.670  0.00  0.00     0.032 H 
ATOM     42  H   LIG d   1       3.910  -2.430  -3.343  0.00  0.00     0.032 H 
BRANCH  40  43
ATOM     43  C   LIG d   1       2.512  -0.846  -2.923  0.00  0.00    -0.060 C 
ATOM     44  H   LIG d   1       2.926   0.142  -3.130  0.00  0.00     0.023 H 
ATOM     45  H   LIG d   1       2.028  -1.233  -3.819  0.00  0.00     0.023 H 
ATOM     46  H   LIG d   1       1.782  -0.771  -2.117  0.00  0.00     0.023 H 
ENDBRANCH  40  43
ENDBRANCH  38  40
BRANCH  38  47
ATOM     47  C   LIG d   1       4.453   0.491  -1.897  0.00  0.00    -0.022 C 
ATOM     48  H   LIG d   1       3.980   0.847  -2.812  0.00  0.00     0.028 H 
ATOM     49  H   LIG d   1       3.752   0.580  -1.067  0.00  0.00     0.028 H 
ATOM     50  H   LIG d   1       5.339   1.091  -1.690  0.00  0.00     0.028 H 
ENDBRANCH  38  47
ENDBRANCH  35  38
ENDBRANCH  32  35
ENDBRANCH   1  32
BRANCH  13  51
ATOM     51  C   LIG d   1       5.282  -0.662 -10.174  0.00  0.00    -0.059 C 
ATOM     52  H   LIG d   1       5.605  -1.602 -10.623  0.00  0.00     0.024 H 
ATOM     53  H   LIG d   1       4.592  -0.156 -10.850  0.00  0.00     0.024 H 
ATOM     54  H   LIG d   1       6.149  -0.027  -9.996  0.00  0.00     0.024 H 
ENDBRANCH  13  51
TORSDOF 7
ENDMDL
MODEL 2
REMARK VINA RESULT:      -6.0      1.996      3.390
REMARK  7 active torsions:
REMARK  status: ('A' for Active; 'I' for Inactive)
REMARK    1  A    between atoms: C_1  and  C_2 
REMARK    2  A    between atoms: C_2  and  C_3 
REMARK    3  A    between atoms: C_3  and  C_5 
REMARK    4  A    between atoms: C_3  and  N_6 
REMARK    5  A    between atoms: N_6  and  C_7 
REMARK    6  A    between atoms: C_7  and  C_8 
REMARK    7  A    between atoms: C_20  and  C_27 
ROOT
ATOM      1  C   LIG d   1       4.086  -0.656  -6.320  0.00  0.00     0.102 C 
ATOM      2  H   LIG d   1       3.692  -1.650  -6.526  0.00  0.00     0.047 H 
ATOM      3  C   LIG d   1       4.572   0.016  -7.617  0.00  0.00     0.015 C 
ATOM      4  H   LIG d   1       5.420   0.665  -7.398  0.00  0.00     0.035 H 
ATOM      5  C   LIG d   1       4.957  -0.971  -8.687  0.00  0.00    -0.039 C 
ATOM      6  C   LIG d   1       3.770  -1.829  -9.133  0.00  0.00    -0.014 C 
ATOM      7  H   LIG d   1       3.403  -2.440  -8.309  0.00  0.00     0.035 H 
ATOM      8  C   LIG d   1       4.222  -2.699 -10.291  0.00  0.00    -0.073 C 
ATOM      9  C   LIG d   1       4.236  -4.005 -10.190  0.00  0.00    -0.099 C 
ATOM     10  C   LIG d   1       4.658  -2.008 -11.564  0.00  0.00    -0.032 C 
ATOM     11  C   LIG d   1       3.563  -1.028 -11.995  0.00  0.00    -0.049 C 
ATOM     12  C   LIG d   1       3.232  -0.084 -10.836  0.00  0.00    -0.047 C 
ATOM     13  C   LIG d   1       2.671  -0.889  -9.646  0.00  0.00    -0.022 C 
ATOM     14  C   LIG d   1       2.211   0.015  -8.515  0.00  0.00    -0.009 C 
ATOM     15  C   LIG d   1       3.348   0.873  -7.994  0.00  0.00     0.107 C 
ATOM     16  H   LIG d   1       3.597   1.686  -8.676  0.00  0.00     0.074 H 
ATOM     17  O   LIG d   1       2.914   1.331  -6.681  0.00  0.00    -0.461 OA
ATOM     18  C   LIG d   1       2.982   0.273  -5.838  0.00  0.00     0.316 C 
ATOM     19  O   LIG d   1       2.284   0.094  -4.869  0.00  0.00    -0.250 OA
ATOM     20  H   LIG d   1       5.344  -0.428  -9.549  0.00  0.00     0.028 H 
ATOM     21  H   LIG d   1       5.740  -1.624  -8.301  0.00  0.00     0.028 H 
ATOM     22  H   LIG d   1       3.922  -4.480  -9.273  0.00  0.00     0.053 H 
ATOM     23  H   LIG d   1       4.562  -4.607 -11.027  0.00  0.00     0.053 H 
ATOM     24  H   LIG d   1       5.585  -1.464 -11.386  0.00  0.00     0.031 H 
ATOM     25  H   LIG d   1       4.813  -2.750 -12.348  0.00  0.00     0.031 H 
ATOM     26  H   LIG d   1       3.912  -0.447 -12.848  0.00  0.00     0.027 H 
ATOM     27  H   LIG d   1       2.669  -1.583 -12.277  0.00  0.00     0.027 H 
ATOM     28  H   LIG d   1       4.136   0.438 -10.523  0.00  0.00     0.027 H 
ATOM     29  H   LIG d   1       2.487   0.644 -11.161  0.00  0.00     0.027 H 
ATOM     30  H   LIG d   1       1.412   0.661  -8.878  0.00  0.00     0.031 H 
ATOM     31  H   LIG d   1       1.827  -0.600  -7.702  0.00  0.00     0.031 H 
ENDROOT
BRANCH   1  32
ATOM     32  C   LIG d   1       5.218  -0.728  -5.292  0.00  0.00    -0.020 C 
ATOM     33  H   LIG d   1       6.177  -0.624  -5.800  0.00  0.00     0.082 H 
ATOM     34  H   LIG d   1       5.181  -1.688  -4.778  0.00  0.00     0.082 H 
BRANCH  32  35
ATOM     35  N   LIG d   1       5.061   0.358  -4.315  0.00  0.00     0.230 N 
ATOM     36  H   LIG d   1       4.105   0.680  -4.321  0.00  0.00     0.202 HD
ATOM     37  H   LIG d   1       5.674   1.121  -4.559  0.00  0.00     0.202 HD
BRANCH  35  38
ATOM     38  C   LIG d   1       5.403  -0.137  -2.974  0.00  0.00    -0.026 C 
ATOM     39  H   LIG d   1       6.444   0.102  -2.755  0.00  0.00     0.085 H 
BRANCH  38  40
ATOM     40  C   LIG d   1       5.206  -1.653  -2.925  0.00  0.00    -0.013 C 
ATOM     41  H   LIG d   1       6.018  -2.106  -2.356  0.00  0.00     0.032 H 
ATOM     42  H   LIG d   1       5.205  -2.052  -3.939  0.00  0.00     0.032 H 
BRANCH  40  43
ATOM     43  C   LIG d   1       3.870  -1.972  -2.250  0.00  0.00    -0.060 C 
ATOM     44  H   LIG d   1       4.052  -2.325  -1.235  0.00  0.00     0.023 H 
ATOM     45  H   LIG d   1       3.255  -1.073  -2.218  0.00  0.00     0.023 H 
ATOM     46  H   LIG d   1       3.353  -2.746  -2.817  0.00  0.00     0.023 H 
ENDBRANCH  40  43
ENDBRANCH  38  40
BRANCH  38  47
ATOM     47  C   LIG d   1       4.497   0.530  -1.938  0.00  0.00    -0.022 C 
ATOM     48  H   LIG d   1       5.107   1.095  -1.232  0.00  0.00     0.028 H 
ATOM     49  H   LIG d   1       3.804   1.205  -2.440  0.00  0.00     0.028 H 
ATOM     50  H   LIG d   1       3.935  -0.234  -1.401  0.00  0.00     0.028 H 
ENDBRANCH  38  47
ENDBRANCH  35  38
ENDBRANCH  32  35
ENDBRANCH   1  32
BRANCH  13  51
ATOM     51  C   LIG d   1       1.478  -1.720 -10.125  0.00  0.00    -0.059 C 
ATOM     52  H   LIG d   1       1.807  -2.738 -10.335  0.00  0.00     0.024 H 
ATOM     53  H   LIG d   1       0.714  -1.739  -9.348  0.00  0.00     0.024 H 
ATOM     54  H   LIG d   1       1.066  -1.277 -11.031  0.00  0.00     0.024 H 
ENDBRANCH  13  51
TORSDOF 7
ENDMDL
MODEL 3
REMARK VINA RESULT:      -6.0      1.377      1.999
REMARK  7 active torsions:
REMARK  status: ('A' for Active; 'I' for Inactive)
REMARK    1  A    between atoms: C_1  and  C_2 
REMARK    2  A    between atoms: C_2  and  C_3 
REMARK    3  A    between atoms: C_3  and  C_5 
REMARK    4  A    between atoms: C_3  and  N_6 
REMARK    5  A    between atoms: N_6  and  C_7 
REMARK    6  A    between atoms: C_7  and  C_8 
REMARK    7  A    between atoms: C_20  and  C_27 
ROOT
ATOM      1  C   LIG d   1       5.172  -1.195  -5.520  0.00  0.00     0.102 C 
ATOM      2  H   LIG d   1       4.931  -0.134  -5.474  0.00  0.00     0.047 H 
ATOM      3  C   LIG d   1       4.959  -1.740  -6.944  0.00  0.00     0.015 C 
ATOM      4  H   LIG d   1       4.640  -2.781  -6.894  0.00  0.00     0.035 H 
ATOM      5  C   LIG d   1       3.960  -0.944  -7.740  0.00  0.00    -0.039 C 
ATOM      6  C   LIG d   1       4.416   0.500  -7.958  0.00  0.00    -0.014 C 
ATOM      7  H   LIG d   1       4.500   1.028  -7.007  0.00  0.00     0.035 H 
ATOM      8  C   LIG d   1       3.412   1.183  -8.867  0.00  0.00    -0.073 C 
ATOM      9  C   LIG d   1       2.704   2.203  -8.449  0.00  0.00    -0.099 C 
ATOM     10  C   LIG d   1       3.255   0.647 -10.272  0.00  0.00    -0.032 C 
ATOM     11  C   LIG d   1       4.636   0.562 -10.928  0.00  0.00    -0.049 C 
ATOM     12  C   LIG d   1       5.580  -0.249 -10.036  0.00  0.00    -0.047 C 
ATOM     13  C   LIG d   1       5.768   0.467  -8.683  0.00  0.00    -0.022 C 
ATOM     14  C   LIG d   1       6.794  -0.233  -7.807  0.00  0.00    -0.009 C 
ATOM     15  C   LIG d   1       6.389  -1.665  -7.517  0.00  0.00     0.107 C 
ATOM     16  H   LIG d   1       6.532  -2.317  -8.379  0.00  0.00     0.074 H 
ATOM     17  O   LIG d   1       7.175  -2.059  -6.355  0.00  0.00    -0.461 OA
ATOM     18  C   LIG d   1       6.657  -1.421  -5.278  0.00  0.00     0.316 C 
ATOM     19  O   LIG d   1       7.269  -1.086  -4.293  0.00  0.00    -0.250 OA
ATOM     20  H   LIG d   1       3.818  -1.420  -8.709  0.00  0.00     0.028 H 
ATOM     21  H   LIG d   1       3.008  -0.938  -7.208  0.00  0.00     0.028 H 
ATOM     22  H   LIG d   1       2.830   2.572  -7.441  0.00  0.00     0.053 H 
ATOM     23  H   LIG d   1       1.994   2.676  -9.112  0.00  0.00     0.053 H 
ATOM     24  H   LIG d   1       2.806  -0.346 -10.237  0.00  0.00     0.031 H 
ATOM     25  H   LIG d   1       2.617   1.316 -10.850  0.00  0.00     0.031 H 
ATOM     26  H   LIG d   1       4.547   0.075 -11.899  0.00  0.00     0.027 H 
ATOM     27  H   LIG d   1       5.037   1.566 -11.062  0.00  0.00     0.027 H 
ATOM     28  H   LIG d   1       5.157  -1.239  -9.864  0.00  0.00     0.027 H 
ATOM     29  H   LIG d   1       6.549  -0.349 -10.527  0.00  0.00     0.027 H 
ATOM     30  H   LIG d   1       7.758  -0.228  -8.315  0.00  0.00     0.031 H 
ATOM     31  H   LIG d   1       6.887   0.309  -6.866  0.00  0.00     0.031 H 
ENDROOT
BRANCH   1  32
ATOM     32  C   LIG d   1       4.335  -1.983  -4.509  0.00  0.00    -0.020 C 
ATOM     33  H   LIG d   1       4.916  -2.139  -3.600  0.00  0.00     0.082 H 
ATOM     34  H   LIG d   1       4.063  -2.947  -4.937  0.00  0.00     0.082 H 
BRANCH  32  35
ATOM     35  N   LIG d   1       3.117  -1.227  -4.189  0.00  0.00     0.230 N 
ATOM     36  H   LIG d   1       2.307  -1.791  -4.397  0.00  0.00     0.202 HD
ATOM     37  H   LIG d   1       3.090  -0.383  -4.741  0.00  0.00     0.202 HD
BRANCH  35  38
ATOM     38  C   LIG d   1       3.118  -0.879  -2.762  0.00  0.00    -0.026 C 
ATOM     39  H   LIG d   1       2.150  -1.128  -2.327  0.00  0.00     0.085 H 
BRANCH  38  40
ATOM     40  C   LIG d   1       3.378   0.620  -2.603  0.00  0.00    -0.013 C 
ATOM     41  H   LIG d   1       2.509   1.093  -2.145  0.00  0.00     0.032 H 
ATOM     42  H   LIG d   1       3.559   1.062  -3.582  0.00  0.00     0.032 H 
BRANCH  40  43
ATOM     43  C   LIG d   1       4.603   0.834  -1.712  0.00  0.00    -0.060 C 
ATOM     44  H   LIG d   1       4.948   1.864  -1.809  0.00  0.00     0.023 H 
ATOM     45  H   LIG d   1       4.337   0.636  -0.674  0.00  0.00     0.023 H 
ATOM     46  H   LIG d   1       5.399   0.155  -2.019  0.00  0.00     0.023 H 
ENDBRANCH  40  43
ENDBRANCH  38  40
BRANCH  38  47
ATOM     47  C   LIG d   1       4.217  -1.667  -2.045  0.00  0.00    -0.022 C 
ATOM     48  H   LIG d   1       4.895  -2.097  -2.783  0.00  0.00     0.028 H 
ATOM     49  H   LIG d   1       4.772  -0.999  -1.386  0.00  0.00     0.028 H 
ATOM     50  H   LIG d   1       3.766  -2.466  -1.457  0.00  0.00     0.028 H 
ENDBRANCH  38  47
ENDBRANCH  35  38
ENDBRANCH  32  35
ENDBRANCH   1  32
BRANCH  13  51
ATOM     51  C   LIG d   1       6.239   1.901  -8.938  0.00  0.00    -0.059 C 
ATOM     52  H   LIG d   1       6.382   2.411  -7.985  0.00  0.00     0.024 H 
ATOM     53  H   LIG d   1       7.183   1.881  -9.483  0.00  0.00     0.024 H 
ATOM     54  H   LIG d   1       5.490   2.430  -9.526  0.00  0.00     0.024 H 
ENDBRANCH  13  51
TORSDOF 7
ENDMDL
MODEL 4
REMARK VINA RESULT:      -5.9      2.047      5.804
REMARK  7 active torsions:
REMARK  status: ('A' for Active; 'I' for Inactive)
REMARK    1  A    between atoms: C_1  and  C_2 
REMARK    2  A    between atoms: C_2  and  C_3 
REMARK    3  A    between atoms: C_3  and  C_5 
REMARK    4  A    between atoms: C_3  and  N_6 
REMARK    5  A    between atoms: N_6  and  C_7 
REMARK    6  A    between atoms: C_7  and  C_8 
REMARK    7  A    between atoms: C_20  and  C_27 
ROOT
ATOM      1  C   LIG d   1       4.725  -1.757  -7.391  0.00  0.00     0.102 C 
ATOM      2  H   LIG d   1       4.717  -2.561  -6.657  0.00  0.00     0.047 H 
ATOM      3  C   LIG d   1       4.618  -0.386  -6.697  0.00  0.00     0.015 C 
ATOM      4  H   LIG d   1       4.076   0.308  -7.339  0.00  0.00     0.035 H 
ATOM      5  C   LIG d   1       3.950  -0.455  -5.350  0.00  0.00    -0.039 C 
ATOM      6  C   LIG d   1       4.738  -1.315  -4.359  0.00  0.00    -0.014 C 
ATOM      7  H   LIG d   1       4.788  -2.350  -4.699  0.00  0.00     0.035 H 
ATOM      8  C   LIG d   1       4.057  -1.224  -3.006  0.00  0.00    -0.073 C 
ATOM      9  C   LIG d   1       3.534  -2.283  -2.439  0.00  0.00    -0.099 C 
ATOM     10  C   LIG d   1       4.003   0.130  -2.334  0.00  0.00    -0.032 C 
ATOM     11  C   LIG d   1       5.416   0.719  -2.291  0.00  0.00    -0.049 C 
ATOM     12  C   LIG d   1       6.014   0.728  -3.700  0.00  0.00    -0.047 C 
ATOM     13  C   LIG d   1       6.145  -0.717  -4.225  0.00  0.00    -0.022 C 
ATOM     14  C   LIG d   1       6.847  -0.771  -5.571  0.00  0.00    -0.009 C 
ATOM     15  C   LIG d   1       6.100   0.032  -6.618  0.00  0.00     0.107 C 
ATOM     16  H   LIG d   1       6.227   1.107  -6.483  0.00  0.00     0.074 H 
ATOM     17  O   LIG d   1       6.595  -0.453  -7.900  0.00  0.00    -0.461 OA
ATOM     18  C   LIG d   1       6.071  -1.686  -8.098  0.00  0.00     0.316 C 
ATOM     19  O   LIG d   1       6.584  -2.580  -8.727  0.00  0.00    -0.250 OA
ATOM     20  H   LIG d   1       3.857   0.553  -4.948  0.00  0.00     0.028 H 
ATOM     21  H   LIG d   1       2.953  -0.879  -5.472  0.00  0.00     0.028 H 
ATOM     22  H   LIG d   1       3.582  -3.241  -2.935  0.00  0.00     0.053 H 
ATOM     23  H   LIG d   1       3.053  -2.197  -1.475  0.00  0.00     0.053 H 
ATOM     24  H   LIG d   1       3.349   0.793  -2.900  0.00  0.00     0.031 H 
ATOM     25  H   LIG d   1       3.622   0.020  -1.319  0.00  0.00     0.031 H 
ATOM     26  H   LIG d   1       5.372   1.738  -1.909  0.00  0.00     0.027 H 
ATOM     27  H   LIG d   1       6.042   0.113  -1.636  0.00  0.00     0.027 H 
ATOM     28  H   LIG d   1       5.364   1.295  -4.367  0.00  0.00     0.027 H 
ATOM     29  H   LIG d   1       7.000   1.192  -3.674  0.00  0.00     0.027 H 
ATOM     30  H   LIG d   1       7.855  -0.370  -5.463  0.00  0.00     0.031 H 
ATOM     31  H   LIG d   1       6.912  -1.809  -5.897  0.00  0.00     0.031 H 
ENDROOT
BRANCH   1  32
ATOM     32  C   LIG d   1       3.593  -1.939  -8.404  0.00  0.00    -0.020 C 
ATOM     33  H   LIG d   1       2.711  -1.394  -8.065  0.00  0.00     0.082 H 
ATOM     34  H   LIG d   1       3.353  -2.998  -8.494  0.00  0.00     0.082 H 
BRANCH  32  35
ATOM     35  N   LIG d   1       4.017  -1.420  -9.711  0.00  0.00     0.230 N 
ATOM     36  H   LIG d   1       4.060  -2.177 -10.376  0.00  0.00     0.202 HD
ATOM     37  H   LIG d   1       4.929  -0.997  -9.624  0.00  0.00     0.202 HD
BRANCH  35  38
ATOM     38  C   LIG d   1       3.052  -0.414 -10.175  0.00  0.00    -0.026 C 
ATOM     39  H   LIG d   1       2.838  -0.576 -11.231  0.00  0.00     0.085 H 
BRANCH  38  40
ATOM     40  C   LIG d   1       3.642   0.984  -9.983  0.00  0.00    -0.013 C 
ATOM     41  H   LIG d   1       3.661   1.505 -10.940  0.00  0.00     0.032 H 
ATOM     42  H   LIG d   1       4.657   0.900  -9.595  0.00  0.00     0.032 H 
BRANCH  40  43
ATOM     43  C   LIG d   1       2.781   1.770  -8.992  0.00  0.00    -0.060 C 
ATOM     44  H   LIG d   1       2.987   2.836  -9.098  0.00  0.00     0.023 H 
ATOM     45  H   LIG d   1       1.727   1.581  -9.196  0.00  0.00     0.023 H 
ATOM     46  H   LIG d   1       3.018   1.454  -7.976  0.00  0.00     0.023 H 
ENDBRANCH  40  43
ENDBRANCH  38  40
BRANCH  38  47
ATOM     47  C   LIG d   1       1.759  -0.537  -9.367  0.00  0.00    -0.022 C 
ATOM     48  H   LIG d   1       2.001  -0.709  -8.318  0.00  0.00     0.028 H 
ATOM     49  H   LIG d   1       1.182   0.383  -9.462  0.00  0.00     0.028 H 
ATOM     50  H   LIG d   1       1.172  -1.374  -9.747  0.00  0.00     0.028 H 
ENDBRANCH  38  47
ENDBRANCH  35  38
ENDBRANCH  32  35
ENDBRANCH   1  32
BRANCH  13  51
ATOM     51  C   LIG d   1       6.950  -1.542  -3.218  0.00  0.00    -0.059 C 
ATOM     52  H   LIG d   1       7.881  -1.023  -2.987  0.00  0.00     0.024 H 
ATOM     53  H   LIG d   1       6.369  -1.668  -2.305  0.00  0.00     0.024 H 
ATOM     54  H   LIG d   1       7.175  -2.518  -3.645  0.00  0.00     0.024 H 
ENDBRANCH  13  51
TORSDOF 7
ENDMDL
MODEL 5
REMARK VINA RESULT:      -5.9      3.287      5.753
REMARK  7 active torsions:
REMARK  status: ('A' for Active; 'I' for Inactive)
REMARK    1  A    between atoms: C_1  and  C_2 
REMARK    2  A    between atoms: C_2  and  C_3 
REMARK    3  A    between atoms: C_3  and  C_5 
REMARK    4  A    between atoms: C_3  and  N_6 
REMARK    5  A    between atoms: N_6  and  C_7 
REMARK    6  A    between atoms: C_7  and  C_8 
REMARK    7  A    between atoms: C_20  and  C_27 
ROOT
ATOM      1  C   LIG d   1       7.673   0.992  -5.567  0.00  0.00     0.102 C 
ATOM      2  H   LIG d   1       6.936   1.686  -5.167  0.00  0.00     0.047 H 
ATOM      3  C   LIG d   1       7.505  -0.403  -4.936  0.00  0.00     0.015 C 
ATOM      4  H   LIG d   1       8.477  -0.890  -4.859  0.00  0.00     0.035 H 
ATOM      5  C   LIG d   1       6.852  -0.365  -3.580  0.00  0.00    -0.039 C 
ATOM      6  C   LIG d   1       5.428   0.191  -3.641  0.00  0.00    -0.014 C 
ATOM      7  H   LIG d   1       5.431   1.228  -3.979  0.00  0.00     0.035 H 
ATOM      8  C   LIG d   1       4.814   0.075  -2.259  0.00  0.00    -0.073 C 
ATOM      9  C   LIG d   1       4.456   1.141  -1.586  0.00  0.00    -0.099 C 
ATOM     10  C   LIG d   1       4.627  -1.311  -1.684  0.00  0.00    -0.032 C 
ATOM     11  C   LIG d   1       3.878  -2.174  -2.704  0.00  0.00    -0.049 C 
ATOM     12  C   LIG d   1       4.608  -2.132  -4.049  0.00  0.00    -0.047 C 
ATOM     13  C   LIG d   1       4.615  -0.691  -4.599  0.00  0.00    -0.022 C 
ATOM     14  C   LIG d   1       5.219  -0.616  -5.991  0.00  0.00    -0.009 C 
ATOM     15  C   LIG d   1       6.650  -1.119  -6.001  0.00  0.00     0.107 C 
ATOM     16  H   LIG d   1       6.707  -2.205  -5.926  0.00  0.00     0.074 H 
ATOM     17  O   LIG d   1       7.234  -0.591  -7.227  0.00  0.00    -0.461 OA
ATOM     18  C   LIG d   1       7.428   0.737  -7.046  0.00  0.00     0.316 C 
ATOM     19  O   LIG d   1       7.409   1.579  -7.912  0.00  0.00    -0.250 OA
ATOM     20  H   LIG d   1       6.821  -1.374  -3.172  0.00  0.00     0.028 H 
ATOM     21  H   LIG d   1       7.449   0.264  -2.918  0.00  0.00     0.028 H 
ATOM     22  H   LIG d   1       4.598   2.123  -2.013  0.00  0.00     0.053 H 
ATOM     23  H   LIG d   1       4.020   1.037  -0.603  0.00  0.00     0.053 H 
ATOM     24  H   LIG d   1       5.601  -1.755  -1.477  0.00  0.00     0.031 H 
ATOM     25  H   LIG d   1       4.048  -1.250  -0.762  0.00  0.00     0.031 H 
ATOM     26  H   LIG d   1       3.835  -3.202  -2.347  0.00  0.00     0.027 H 
ATOM     27  H   LIG d   1       2.866  -1.791  -2.829  0.00  0.00     0.027 H 
ATOM     28  H   LIG d   1       5.636  -2.471  -3.915  0.00  0.00     0.027 H 
ATOM     29  H   LIG d   1       4.100  -2.785  -4.759  0.00  0.00     0.027 H 
ATOM     30  H   LIG d   1       4.621  -1.222  -6.671  0.00  0.00     0.031 H 
ATOM     31  H   LIG d   1       5.203   0.419  -6.330  0.00  0.00     0.031 H 
ENDROOT
BRANCH   1  32
ATOM     32  C   LIG d   1       9.091   1.521  -5.338  0.00  0.00    -0.020 C 
ATOM     33  H   LIG d   1       9.803   0.896  -5.876  0.00  0.00     0.082 H 
ATOM     34  H   LIG d   1       9.319   1.497  -4.272  0.00  0.00     0.082 H 
BRANCH  32  35
ATOM     35  N   LIG d   1       9.183   2.903  -5.828  0.00  0.00     0.230 N 
ATOM     36  H   LIG d   1       8.255   3.270  -5.976  0.00  0.00     0.202 HD
ATOM     37  H   LIG d   1       9.693   2.917  -6.698  0.00  0.00     0.202 HD
BRANCH  35  38
ATOM     38  C   LIG d   1       9.884   3.729  -4.836  0.00  0.00    -0.026 C 
ATOM     39  H   LIG d   1      10.960   3.645  -4.989  0.00  0.00     0.085 H 
BRANCH  38  40
ATOM     40  C   LIG d   1       9.531   3.244  -3.428  0.00  0.00    -0.013 C 
ATOM     41  H   LIG d   1       9.289   2.181  -3.461  0.00  0.00     0.032 H 
ATOM     42  H   LIG d   1       8.671   3.801  -3.058  0.00  0.00     0.032 H 
BRANCH  40  43
ATOM     43  C   LIG d   1      10.724   3.468  -2.497  0.00  0.00    -0.060 C 
ATOM     44  H   LIG d   1      10.976   2.531  -1.999  0.00  0.00     0.023 H 
ATOM     45  H   LIG d   1      11.579   3.813  -3.078  0.00  0.00     0.023 H 
ATOM     46  H   LIG d   1      10.465   4.217  -1.749  0.00  0.00     0.023 H 
ENDBRANCH  40  43
ENDBRANCH  38  40
BRANCH  38  47
ATOM     47  C   LIG d   1       9.458   5.189  -4.994  0.00  0.00    -0.022 C 
ATOM     48  H   LIG d   1       8.543   5.238  -5.586  0.00  0.00     0.028 H 
ATOM     49  H   LIG d   1       9.279   5.625  -4.011  0.00  0.00     0.028 H 
ATOM     50  H   LIG d   1      10.247   5.745  -5.500  0.00  0.00     0.028 H 
ENDBRANCH  38  47
ENDBRANCH  35  38
ENDBRANCH  32  35
ENDBRANCH   1  32
BRANCH  13  51
ATOM     51  C   LIG d   1       3.175  -0.174  -4.661  0.00  0.00    -0.059 C 
ATOM     52  H   LIG d   1       3.169   0.902  -4.488  0.00  0.00     0.024 H 
ATOM     53  H   LIG d   1       2.756  -0.386  -5.645  0.00  0.00     0.024 H 
ATOM     54  H   LIG d   1       2.578  -0.670  -3.897  0.00  0.00     0.024 H 
ENDBRANCH  13  51
TORSDOF 7
ENDMDL
MODEL 6
REMARK VINA RESULT:      -5.8      1.780      5.352
REMARK  7 active torsions:
REMARK  status: ('A' for Active; 'I' for Inactive)
REMARK    1  A    between atoms: C_1  and  C_2 
REMARK    2  A    between atoms: C_2  and  C_3 
REMARK    3  A    between atoms: C_3  and  C_5 
REMARK    4  A    between atoms: C_3  and  N_6 
REMARK    5  A    between atoms: N_6  and  C_7 
REMARK    6  A    between atoms: C_7  and  C_8 
REMARK    7  A    between atoms: C_20  and  C_27 
ROOT
ATOM      1  C   LIG d   1       6.082  -2.182  -6.529  0.00  0.00     0.102 C 
ATOM      2  H   LIG d   1       5.026  -2.420  -6.411  0.00  0.00     0.047 H 
ATOM      3  C   LIG d   1       6.477  -0.998  -5.626  0.00  0.00     0.015 C 
ATOM      4  H   LIG d   1       7.262  -0.416  -6.108  0.00  0.00     0.035 H 
ATOM      5  C   LIG d   1       5.317  -0.099  -5.288  0.00  0.00    -0.039 C 
ATOM      6  C   LIG d   1       4.234  -0.830  -4.492  0.00  0.00    -0.014 C 
ATOM      7  H   LIG d   1       3.798  -1.637  -5.083  0.00  0.00     0.035 H 
ATOM      8  C   LIG d   1       3.174   0.180  -4.095  0.00  0.00    -0.073 C 
ATOM      9  C   LIG d   1       1.944   0.078  -4.533  0.00  0.00    -0.099 C 
ATOM     10  C   LIG d   1       3.586   1.309  -3.176  0.00  0.00    -0.032 C 
ATOM     11  C   LIG d   1       4.285   0.718  -1.948  0.00  0.00    -0.049 C 
ATOM     12  C   LIG d   1       5.432  -0.192  -2.397  0.00  0.00    -0.047 C 
ATOM     13  C   LIG d   1       4.874  -1.378  -3.210  0.00  0.00    -0.022 C 
ATOM     14  C   LIG d   1       5.958  -2.378  -3.574  0.00  0.00    -0.009 C 
ATOM     15  C   LIG d   1       7.055  -1.731  -4.398  0.00  0.00     0.107 C 
ATOM     16  H   LIG d   1       7.703  -1.094  -3.796  0.00  0.00     0.074 H 
ATOM     17  O   LIG d   1       7.757  -2.834  -5.038  0.00  0.00    -0.461 OA
ATOM     18  C   LIG d   1       6.952  -3.319  -6.013  0.00  0.00     0.316 C 
ATOM     19  O   LIG d   1       6.926  -4.460  -6.408  0.00  0.00    -0.250 OA
ATOM     20  H   LIG d   1       5.681   0.743  -4.699  0.00  0.00     0.028 H 
ATOM     21  H   LIG d   1       4.882   0.280  -6.213  0.00  0.00     0.028 H 
ATOM     22  H   LIG d   1       1.669  -0.734  -5.189  0.00  0.00     0.053 H 
ATOM     23  H   LIG d   1       1.204   0.809  -4.238  0.00  0.00     0.053 H 
ATOM     24  H   LIG d   1       4.271   1.976  -3.700  0.00  0.00     0.031 H 
ATOM     25  H   LIG d   1       2.703   1.865  -2.861  0.00  0.00     0.031 H 
ATOM     26  H   LIG d   1       4.682   1.526  -1.334  0.00  0.00     0.027 H 
ATOM     27  H   LIG d   1       3.569   0.139  -1.366  0.00  0.00     0.027 H 
ATOM     28  H   LIG d   1       6.125   0.376  -3.018  0.00  0.00     0.027 H 
ATOM     29  H   LIG d   1       5.958  -0.572  -1.521  0.00  0.00     0.027 H 
ATOM     30  H   LIG d   1       6.390  -2.783  -2.659  0.00  0.00     0.031 H 
ATOM     31  H   LIG d   1       5.514  -3.191  -4.147  0.00  0.00     0.031 H 
ENDROOT
BRANCH   1  32
ATOM     32  C   LIG d   1       6.406  -1.875  -7.993  0.00  0.00    -0.020 C 
ATOM     33  H   LIG d   1       7.092  -2.630  -8.379  0.00  0.00     0.082 H 
ATOM     34  H   LIG d   1       6.871  -0.892  -8.063  0.00  0.00     0.082 H 
BRANCH  32  35
ATOM     35  N   LIG d   1       5.167  -1.890  -8.781  0.00  0.00     0.230 N 
ATOM     36  H   LIG d   1       4.471  -2.444  -8.305  0.00  0.00     0.202 HD
ATOM     37  H   LIG d   1       5.351  -2.289  -9.690  0.00  0.00     0.202 HD
BRANCH  35  38
ATOM     38  C   LIG d   1       4.672  -0.516  -8.941  0.00  0.00    -0.026 C 
ATOM     39  H   LIG d   1       5.341   0.173  -8.425  0.00  0.00     0.085 H 
BRANCH  38  40
ATOM     40  C   LIG d   1       3.268  -0.407  -8.345  0.00  0.00    -0.013 C 
ATOM     41  H   LIG d   1       3.212  -1.007  -7.436  0.00  0.00     0.032 H 
ATOM     42  H   LIG d   1       2.537  -0.772  -9.067  0.00  0.00     0.032 H 
BRANCH  40  43
ATOM     43  C   LIG d   1       2.968   1.055  -8.009  0.00  0.00    -0.060 C 
ATOM     44  H   LIG d   1       3.665   1.701  -8.544  0.00  0.00     0.023 H 
ATOM     45  H   LIG d   1       1.947   1.295  -8.308  0.00  0.00     0.023 H 
ATOM     46  H   LIG d   1       3.078   1.211  -6.936  0.00  0.00     0.023 H 
ENDBRANCH  40  43
ENDBRANCH  38  40
BRANCH  38  47
ATOM     47  C   LIG d   1       4.624  -0.161 -10.429  0.00  0.00    -0.022 C 
ATOM     48  H   LIG d   1       5.620   0.127 -10.766  0.00  0.00     0.028 H 
ATOM     49  H   LIG d   1       4.282  -1.025 -10.998  0.00  0.00     0.028 H 
ATOM     50  H   LIG d   1       3.935   0.670 -10.582  0.00  0.00     0.028 H 
ENDBRANCH  38  47
ENDBRANCH  35  38
ENDBRANCH  32  35
ENDBRANCH   1  32
BRANCH  13  51
ATOM     51  C   LIG d   1       3.806  -2.094  -2.379  0.00  0.00    -0.059 C 
ATOM     52  H   LIG d   1       4.258  -2.484  -1.466  0.00  0.00     0.024 H 
ATOM     53  H   LIG d   1       3.015  -1.390  -2.120  0.00  0.00     0.024 H 
ATOM     54  H   LIG d   1       3.387  -2.916  -2.957  0.00  0.00     0.024 H 
ENDBRANCH  13  51
TORSDOF 7
ENDMDL
MODEL 7
REMARK VINA RESULT:      -5.6      2.787      5.671
REMARK  7 active torsions:
REMARK  status: ('A' for Active; 'I' for Inactive)
REMARK    1  A    between atoms: C_1  and  C_2 
REMARK    2  A    between atoms: C_2  and  C_3 
REMARK    3  A    between atoms: C_3  and  C_5 
REMARK    4  A    between atoms: C_3  and  N_6 
REMARK    5  A    between atoms: N_6  and  C_7 
REMARK    6  A    between atoms: C_7  and  C_8 
REMARK    7  A    between atoms: C_20  and  C_27 
ROOT
ATOM      1  C   LIG d   1       7.274   0.814  -5.823  0.00  0.00     0.102 C 
ATOM      2  H   LIG d   1       6.641   1.547  -5.324  0.00  0.00     0.047 H 
ATOM      3  C   LIG d   1       7.081  -0.582  -5.204  0.00  0.00     0.015 C 
ATOM      4  H   LIG d   1       8.017  -1.138  -5.255  0.00  0.00     0.035 H 
ATOM      5  C   LIG d   1       6.599  -0.537  -3.778  0.00  0.00    -0.039 C 
ATOM      6  C   LIG d   1       5.221   0.118  -3.656  0.00  0.00    -0.014 C 
ATOM      7  H   LIG d   1       5.260   1.162  -3.971  0.00  0.00     0.035 H 
ATOM      8  C   LIG d   1       4.769   0.007  -2.212  0.00  0.00    -0.073 C 
ATOM      9  C   LIG d   1       4.574   1.076  -1.480  0.00  0.00    -0.099 C 
ATOM     10  C   LIG d   1       4.553  -1.378  -1.646  0.00  0.00    -0.032 C 
ATOM     11  C   LIG d   1       3.626  -2.158  -2.585  0.00  0.00    -0.049 C 
ATOM     12  C   LIG d   1       4.192  -2.129  -4.007  0.00  0.00    -0.047 C 
ATOM     13  C   LIG d   1       4.238  -0.677  -4.525  0.00  0.00    -0.022 C 
ATOM     14  C   LIG d   1       4.676  -0.605  -5.978  0.00  0.00    -0.009 C 
ATOM     15  C   LIG d   1       6.055  -1.207  -6.171  0.00  0.00     0.107 C 
ATOM     16  H   LIG d   1       6.041  -2.296  -6.124  0.00  0.00     0.074 H 
ATOM     17  O   LIG d   1       6.526  -0.687  -7.448  0.00  0.00    -0.461 OA
ATOM     18  C   LIG d   1       6.836   0.619  -7.267  0.00  0.00     0.316 C 
ATOM     19  O   LIG d   1       6.775   1.484  -8.107  0.00  0.00    -0.250 OA
ATOM     20  H   LIG d   1       6.543  -1.553  -3.390  0.00  0.00     0.028 H 
ATOM     21  H   LIG d   1       7.315   0.029  -3.181  0.00  0.00     0.028 H 
ATOM     22  H   LIG d   1       4.734   2.057  -1.902  0.00  0.00     0.053 H 
ATOM     23  H   LIG d   1       4.251   0.975  -0.453  0.00  0.00     0.053 H 
ATOM     24  H   LIG d   1       5.509  -1.895  -1.567  0.00  0.00     0.031 H 
ATOM     25  H   LIG d   1       4.094  -1.303  -0.660  0.00  0.00     0.031 H 
ATOM     26  H   LIG d   1       3.552  -3.191  -2.245  0.00  0.00     0.027 H 
ATOM     27  H   LIG d   1       2.637  -1.702  -2.579  0.00  0.00     0.027 H 
ATOM     28  H   LIG d   1       5.201  -2.543  -4.005  0.00  0.00     0.027 H 
ATOM     29  H   LIG d   1       3.557  -2.725  -4.663  0.00  0.00     0.027 H 
ATOM     30  H   LIG d   1       3.959  -1.149  -6.593  0.00  0.00     0.031 H 
ATOM     31  H   LIG d   1       4.694   0.437  -6.293  0.00  0.00     0.031 H 
ENDROOT
BRANCH   1  32
ATOM     32  C   LIG d   1       8.743   1.237  -5.757  0.00  0.00    -0.020 C 
ATOM     33  H   LIG d   1       9.201   0.819  -4.859  0.00  0.00     0.082 H 
ATOM     34  H   LIG d   1       8.807   2.324  -5.725  0.00  0.00     0.082 H 
BRANCH  32  35
ATOM     35  N   LIG d   1       9.449   0.738  -6.944  0.00  0.00     0.230 N 
ATOM     36  H   LIG d   1       9.696   1.513  -7.540  0.00  0.00     0.202 HD
ATOM     37  H   LIG d   1       8.849   0.103  -7.450  0.00  0.00     0.202 HD
BRANCH  35  38
ATOM     38  C   LIG d   1      10.669   0.032  -6.528  0.00  0.00    -0.026 C 
ATOM     39  H   LIG d   1      11.474   0.255  -7.227  0.00  0.00     0.085 H 
BRANCH  38  40
ATOM     40  C   LIG d   1      10.407  -1.475  -6.517  0.00  0.00    -0.013 C 
ATOM     41  H   LIG d   1      11.054  -1.961  -7.248  0.00  0.00     0.032 H 
ATOM     42  H   LIG d   1       9.364  -1.664  -6.772  0.00  0.00     0.032 H 
BRANCH  40  43
ATOM     43  C   LIG d   1      10.700  -2.035  -5.123  0.00  0.00    -0.060 C 
ATOM     44  H   LIG d   1      10.531  -3.112  -5.121  0.00  0.00     0.023 H 
ATOM     45  H   LIG d   1      11.738  -1.829  -4.860  0.00  0.00     0.023 H 
ATOM     46  H   LIG d   1      10.040  -1.562  -4.396  0.00  0.00     0.023 H 
ENDBRANCH  40  43
ENDBRANCH  38  40
BRANCH  38  47
ATOM     47  C   LIG d   1      11.070   0.490  -5.125  0.00  0.00    -0.022 C 
ATOM     48  H   LIG d   1      10.251   1.056  -4.680  0.00  0.00     0.028 H 
ATOM     49  H   LIG d   1      11.288  -0.380  -4.506  0.00  0.00     0.028 H 
ATOM     50  H   LIG d   1      11.955   1.122  -5.188  0.00  0.00     0.028 H 
ENDBRANCH  38  47
ENDBRANCH  35  38
ENDBRANCH  32  35
ENDBRANCH   1  32
BRANCH  13  51
ATOM     51  C   LIG d   1       2.843  -0.060  -4.403  0.00  0.00    -0.059 C 
ATOM     52  H   LIG d   1       2.201  -0.726  -3.826  0.00  0.00     0.024 H 
ATOM     53  H   LIG d   1       2.915   0.903  -3.897  0.00  0.00     0.024 H 
ATOM     54  H   LIG d   1       2.420   0.081  -5.397  0.00  0.00     0.024 H 
ENDBRANCH  13  51
TORSDOF 7
ENDMDL
MODEL 8
REMARK VINA RESULT:      -5.6      2.645      6.113
REMARK  7 active torsions:
REMARK  status: ('A' for Active; 'I' for Inactive)
REMARK    1  A    between atoms: C_1  and  C_2 
REMARK    2  A    between atoms: C_2  and  C_3 
REMARK    3  A    between atoms: C_3  and  C_5 
REMARK    4  A    between atoms: C_3  and  N_6 
REMARK    5  A    between atoms: N_6  and  C_7 
REMARK    6  A    between atoms: C_7  and  C_8 
REMARK    7  A    between atoms: C_20  and  C_27 
ROOT
ATOM      1  C   LIG d   1       4.745   0.225  -7.756  0.00  0.00     0.102 C 
ATOM      2  H   LIG d   1       5.467   0.668  -7.072  0.00  0.00     0.047 H 
ATOM      3  C   LIG d   1       3.913  -0.857  -7.044  0.00  0.00     0.015 C 
ATOM      4  H   LIG d   1       3.647  -1.641  -7.753  0.00  0.00     0.035 H 
ATOM      5  C   LIG d   1       4.620  -1.466  -5.862  0.00  0.00    -0.039 C 
ATOM      6  C   LIG d   1       4.906  -0.435  -4.768  0.00  0.00    -0.014 C 
ATOM      7  H   LIG d   1       5.584   0.338  -5.132  0.00  0.00     0.035 H 
ATOM      8  C   LIG d   1       5.503  -1.160  -3.577  0.00  0.00    -0.073 C 
ATOM      9  C   LIG d   1       6.721  -0.903  -3.169  0.00  0.00    -0.099 C 
ATOM     10  C   LIG d   1       4.645  -2.189  -2.876  0.00  0.00    -0.032 C 
ATOM     11  C   LIG d   1       3.295  -1.555  -2.526  0.00  0.00    -0.049 C 
ATOM     12  C   LIG d   1       2.669  -0.951  -3.786  0.00  0.00    -0.047 C 
ATOM     13  C   LIG d   1       3.568   0.178  -4.331  0.00  0.00    -0.022 C 
ATOM     14  C   LIG d   1       2.931   0.894  -5.510  0.00  0.00    -0.009 C 
ATOM     15  C   LIG d   1       2.650  -0.063  -6.653  0.00  0.00     0.107 C 
ATOM     16  H   LIG d   1       1.794  -0.707  -6.452  0.00  0.00     0.074 H 
ATOM     17  O   LIG d   1       2.478   0.781  -7.827  0.00  0.00    -0.461 OA
ATOM     18  C   LIG d   1       3.701   1.249  -8.175  0.00  0.00     0.316 C 
ATOM     19  O   LIG d   1       3.926   2.300  -8.724  0.00  0.00    -0.250 OA
ATOM     20  H   LIG d   1       3.999  -2.259  -5.447  0.00  0.00     0.028 H 
ATOM     21  H   LIG d   1       5.564  -1.897  -6.198  0.00  0.00     0.028 H 
ATOM     22  H   LIG d   1       7.319  -0.164  -3.683  0.00  0.00     0.053 H 
ATOM     23  H   LIG d   1       7.128  -1.431  -2.318  0.00  0.00     0.053 H 
ATOM     24  H   LIG d   1       4.487  -3.043  -3.535  0.00  0.00     0.031 H 
ATOM     25  H   LIG d   1       5.141  -2.519  -1.963  0.00  0.00     0.031 H 
ATOM     26  H   LIG d   1       2.631  -2.317  -2.120  0.00  0.00     0.027 H 
ATOM     27  H   LIG d   1       3.444  -0.772  -1.784  0.00  0.00     0.027 H 
ATOM     28  H   LIG d   1       2.563  -1.725  -4.546  0.00  0.00     0.027 H 
ATOM     29  H   LIG d   1       1.687  -0.543  -3.544  0.00  0.00     0.027 H 
ATOM     30  H   LIG d   1       1.996   1.349  -5.185  0.00  0.00     0.031 H 
ATOM     31  H   LIG d   1       3.605   1.676  -5.857  0.00  0.00     0.031 H 
ENDROOT
BRANCH   1  32
ATOM     32  C   LIG d   1       5.452  -0.358  -8.982  0.00  0.00    -0.020 C 
ATOM     33  H   LIG d   1       5.648  -1.418  -8.819  0.00  0.00     0.082 H 
ATOM     34  H   LIG d   1       6.395   0.165  -9.140  0.00  0.00     0.082 H 
BRANCH  32  35
ATOM     35  N   LIG d   1       4.596  -0.194 -10.165  0.00  0.00     0.230 N 
ATOM     36  H   LIG d   1       5.077   0.364 -10.854  0.00  0.00     0.202 HD
ATOM     37  H   LIG d   1       3.739   0.267  -9.897  0.00  0.00     0.202 HD
BRANCH  35  38
ATOM     38  C   LIG d   1       4.286  -1.513 -10.732  0.00  0.00    -0.026 C 
ATOM     39  H   LIG d   1       4.390  -1.476 -11.816  0.00  0.00     0.085 H 
BRANCH  38  40
ATOM     40  C   LIG d   1       2.850  -1.898 -10.371  0.00  0.00    -0.013 C 
ATOM     41  H   LIG d   1       2.759  -1.985  -9.288  0.00  0.00     0.032 H 
ATOM     42  H   LIG d   1       2.603  -2.853 -10.834  0.00  0.00     0.032 H 
BRANCH  40  43
ATOM     43  C   LIG d   1       1.890  -0.820 -10.878  0.00  0.00    -0.060 C 
ATOM     44  H   LIG d   1       1.072  -1.291 -11.425  0.00  0.00     0.023 H 
ATOM     45  H   LIG d   1       1.489  -0.263 -10.032  0.00  0.00     0.023 H 
ATOM     46  H   LIG d   1       2.425  -0.140 -11.541  0.00  0.00     0.023 H 
ENDBRANCH  40  43
ENDBRANCH  38  40
BRANCH  38  47
ATOM     47  C   LIG d   1       5.252  -2.553 -10.161  0.00  0.00    -0.022 C 
ATOM     48  H   LIG d   1       5.922  -2.073  -9.448  0.00  0.00     0.028 H 
ATOM     49  H   LIG d   1       4.686  -3.337  -9.657  0.00  0.00     0.028 H 
ATOM     50  H   LIG d   1       5.835  -2.990 -10.971  0.00  0.00     0.028 H 
ENDBRANCH  38  47
ENDBRANCH  35  38
ENDBRANCH  32  35
ENDBRANCH   1  32
BRANCH  13  51
ATOM     51  C   LIG d   1       3.820   1.197  -3.217  0.00  0.00    -0.059 C 
ATOM     52  H   LIG d   1       4.269   0.694  -2.360  0.00  0.00     0.024 H 
ATOM     53  H   LIG d   1       4.497   1.971  -3.578  0.00  0.00     0.024 H 
ATOM     54  H   LIG d   1       2.875   1.650  -2.918  0.00  0.00     0.024 H 
ENDBRANCH  13  51
TORSDOF 7
ENDMDL
MODEL 9
REMARK VINA RESULT:      -5.6      3.018      5.316
REMARK  7 active torsions:
REMARK  status: ('A' for Active; 'I' for Inactive)
REMARK    1  A    between atoms: C_1  and  C_2 
REMARK    2  A    between atoms: C_2  and  C_3 
REMARK    3  A    between atoms: C_3  and  C_5 
REMARK    4  A    between atoms: C_3  and  N_6 
REMARK    5  A    between atoms: N_6  and  C_7 
REMARK    6  A    between atoms: C_7  and  C_8 
REMARK    7  A    between atoms: C_20  and  C_27 
ROOT
ATOM      1  C   LIG d   1       8.264  -1.024  -5.617  0.00  0.00     0.102 C 
ATOM      2  H   LIG d   1       7.741  -0.072  -5.533  0.00  0.00     0.047 H 
ATOM      3  C   LIG d   1       7.679  -2.055  -4.634  0.00  0.00     0.015 C 
ATOM      4  H   LIG d   1       8.467  -2.729  -4.298  0.00  0.00     0.035 H 
ATOM      5  C   LIG d   1       7.012  -1.424  -3.441  0.00  0.00    -0.039 C 
ATOM      6  C   LIG d   1       5.810  -0.565  -3.840  0.00  0.00    -0.014 C 
ATOM      7  H   LIG d   1       6.123   0.275  -4.461  0.00  0.00     0.035 H 
ATOM      8  C   LIG d   1       5.135  -0.076  -2.572  0.00  0.00    -0.073 C 
ATOM      9  C   LIG d   1       5.072   1.201  -2.288  0.00  0.00    -0.099 C 
ATOM     10  C   LIG d   1       4.537  -1.113  -1.647  0.00  0.00    -0.032 C 
ATOM     11  C   LIG d   1       3.612  -2.026  -2.458  0.00  0.00    -0.049 C 
ATOM     12  C   LIG d   1       4.375  -2.601  -3.654  0.00  0.00    -0.047 C 
ATOM     13  C   LIG d   1       4.816  -1.459  -4.594  0.00  0.00    -0.022 C 
ATOM     14  C   LIG d   1       5.471  -1.986  -5.860  0.00  0.00    -0.009 C 
ATOM     15  C   LIG d   1       6.697  -2.821  -5.544  0.00  0.00     0.107 C 
ATOM     16  H   LIG d   1       6.437  -3.803  -5.149  0.00  0.00     0.074 H 
ATOM     17  O   LIG d   1       7.455  -2.877  -6.786  0.00  0.00    -0.461 OA
ATOM     18  C   LIG d   1       8.014  -1.658  -6.977  0.00  0.00     0.316 C 
ATOM     19  O   LIG d   1       8.270  -1.156  -8.045  0.00  0.00    -0.250 OA
ATOM     20  H   LIG d   1       6.676  -2.210  -2.765  0.00  0.00     0.028 H 
ATOM     21  H   LIG d   1       7.738  -0.798  -2.921  0.00  0.00     0.028 H 
ATOM     22  H   LIG d   1       5.505   1.927  -2.961  0.00  0.00     0.053 H 
ATOM     23  H   LIG d   1       4.587   1.529  -1.380  0.00  0.00     0.053 H 
ATOM     24  H   LIG d   1       5.334  -1.706  -1.199  0.00  0.00     0.031 H 
ATOM     25  H   LIG d   1       3.964  -0.617  -0.863  0.00  0.00     0.031 H 
ATOM     26  H   LIG d   1       3.262  -2.841  -1.825  0.00  0.00     0.027 H 
ATOM     27  H   LIG d   1       2.758  -1.452  -2.815  0.00  0.00     0.027 H 
ATOM     28  H   LIG d   1       5.257  -3.136  -3.300  0.00  0.00     0.027 H 
ATOM     29  H   LIG d   1       3.730  -3.287  -4.202  0.00  0.00     0.027 H 
ATOM     30  H   LIG d   1       4.751  -2.597  -6.404  0.00  0.00     0.031 H 
ATOM     31  H   LIG d   1       5.764  -1.143  -6.485  0.00  0.00     0.031 H 
ENDROOT
BRANCH   1  32
ATOM     32  C   LIG d   1       9.764  -0.838  -5.375  0.00  0.00    -0.020 C 
ATOM     33  H   LIG d   1      10.283  -0.790  -6.333  0.00  0.00     0.082 H 
ATOM     34  H   LIG d   1      10.145  -1.679  -4.797  0.00  0.00     0.082 H 
BRANCH  32  35
ATOM     35  N   LIG d   1       9.989   0.410  -4.633  0.00  0.00     0.230 N 
ATOM     36  H   LIG d   1      10.902   0.774  -4.857  0.00  0.00     0.202 HD
ATOM     37  H   LIG d   1       9.933   0.226  -3.643  0.00  0.00     0.202 HD
BRANCH  35  38
ATOM     38  C   LIG d   1       8.963   1.393  -5.007  0.00  0.00    -0.026 C 
ATOM     39  H   LIG d   1       8.124   0.881  -5.478  0.00  0.00     0.085 H 
BRANCH  38  40
ATOM     40  C   LIG d   1       9.560   2.402  -5.990  0.00  0.00    -0.013 C 
ATOM     41  H   LIG d   1      10.617   2.182  -6.139  0.00  0.00     0.032 H 
ATOM     42  H   LIG d   1       9.452   3.409  -5.586  0.00  0.00     0.032 H 
BRANCH  40  43
ATOM     43  C   LIG d   1       8.825   2.307  -7.328  0.00  0.00    -0.060 C 
ATOM     44  H   LIG d   1       9.532   2.032  -8.112  0.00  0.00     0.023 H 
ATOM     45  H   LIG d   1       8.043   1.551  -7.261  0.00  0.00     0.023 H 
ATOM     46  H   LIG d   1       8.377   3.272  -7.566  0.00  0.00     0.023 H 
ENDBRANCH  40  43
ENDBRANCH  38  40
BRANCH  38  47
ATOM     47  C   LIG d   1       8.478   2.125  -3.755  0.00  0.00    -0.022 C 
ATOM     48  H   LIG d   1       9.093   1.834  -2.903  0.00  0.00     0.028 H 
ATOM     49  H   LIG d   1       8.556   3.201  -3.909  0.00  0.00     0.028 H 
ATOM     50  H   LIG d   1       7.438   1.861  -3.560  0.00  0.00     0.028 H 
ENDBRANCH  38  47
ENDBRANCH  35  38
ENDBRANCH  32  35
ENDBRANCH   1  32
BRANCH  13  51
ATOM     51  C   LIG d   1       3.589  -0.633  -4.984  0.00  0.00    -0.059 C 
ATOM     52  H   LIG d   1       3.510   0.232  -4.325  0.00  0.00     0.024 H 
ATOM     53  H   LIG d   1       3.691  -0.295  -6.015  0.00  0.00     0.024 H 
ATOM     54  H   LIG d   1       2.693  -1.245  -4.889  0.00  0.00     0.024 H 
ENDBRANCH  13  51
TORSDOF 7
ENDMDL
MODEL 10
REMARK VINA RESULT:      -5.5      3.093      5.532
REMARK  7 active torsions:
REMARK  status: ('A' for Active; 'I' for Inactive)
REMARK    1  A    between atoms: C_1  and  C_2 
REMARK    2  A    between atoms: C_2  and  C_3 
REMARK    3  A    between atoms: C_3  and  C_5 
REMARK    4  A    between atoms: C_3  and  N_6 
REMARK    5  A    between atoms: N_6  and  C_7 
REMARK    6  A    between atoms: C_7  and  C_8 
REMARK    7  A    between atoms: C_20  and  C_27 
ROOT
ATOM      1  C   LIG d   1       8.041  -2.638  -5.345  0.00  0.00     0.102 C 
ATOM      2  H   LIG d   1       7.905  -1.577  -5.550  0.00  0.00     0.047 H 
ATOM      3  C   LIG d   1       7.120  -3.092  -4.197  0.00  0.00     0.015 C 
ATOM      4  H   LIG d   1       7.606  -3.886  -3.630  0.00  0.00     0.035 H 
ATOM      5  C   LIG d   1       6.736  -1.971  -3.268  0.00  0.00    -0.039 C 
ATOM      6  C   LIG d   1       5.933  -0.881  -3.981  0.00  0.00    -0.014 C 
ATOM      7  H   LIG d   1       6.531  -0.405  -4.758  0.00  0.00     0.035 H 
ATOM      8  C   LIG d   1       5.489   0.134  -2.945  0.00  0.00    -0.073 C 
ATOM      9  C   LIG d   1       5.901   1.377  -2.995  0.00  0.00    -0.099 C 
ATOM     10  C   LIG d   1       4.554  -0.335  -1.853  0.00  0.00    -0.032 C 
ATOM     11  C   LIG d   1       3.356  -1.041  -2.495  0.00  0.00    -0.049 C 
ATOM     12  C   LIG d   1       3.851  -2.146  -3.432  0.00  0.00    -0.047 C 
ATOM     13  C   LIG d   1       4.678  -1.530  -4.579  0.00  0.00    -0.022 C 
ATOM     14  C   LIG d   1       5.089  -2.572  -5.606  0.00  0.00    -0.009 C 
ATOM     15  C   LIG d   1       5.922  -3.671  -4.977  0.00  0.00     0.107 C 
ATOM     16  H   LIG d   1       5.321  -4.354  -4.377  0.00  0.00     0.074 H 
ATOM     17  O   LIG d   1       6.603  -4.322  -6.088  0.00  0.00    -0.461 OA
ATOM     18  C   LIG d   1       7.571  -3.479  -6.522  0.00  0.00     0.316 C 
ATOM     19  O   LIG d   1       7.990  -3.406  -7.652  0.00  0.00    -0.250 OA
ATOM     20  H   LIG d   1       6.137  -2.376  -2.453  0.00  0.00     0.028 H 
ATOM     21  H   LIG d   1       7.642  -1.530  -2.853  0.00  0.00     0.028 H 
ATOM     22  H   LIG d   1       6.569   1.694  -3.783  0.00  0.00     0.053 H 
ATOM     23  H   LIG d   1       5.573   2.085  -2.248  0.00  0.00     0.053 H 
ATOM     24  H   LIG d   1       5.078  -1.031  -1.197  0.00  0.00     0.031 H 
ATOM     25  H   LIG d   1       4.206   0.522  -1.275  0.00  0.00     0.031 H 
ATOM     26  H   LIG d   1       2.732  -1.478  -1.716  0.00  0.00     0.027 H 
ATOM     27  H   LIG d   1       2.771  -0.318  -3.063  0.00  0.00     0.027 H 
ATOM     28  H   LIG d   1       4.474  -2.844  -2.873  0.00  0.00     0.027 H 
ATOM     29  H   LIG d   1       2.996  -2.678  -3.850  0.00  0.00     0.027 H 
ATOM     30  H   LIG d   1       4.193  -3.009  -6.047  0.00  0.00     0.031 H 
ATOM     31  H   LIG d   1       5.670  -2.088  -6.391  0.00  0.00     0.031 H 
ENDROOT
BRANCH   1  32
ATOM     32  C   LIG d   1       9.504  -2.940  -5.015  0.00  0.00    -0.020 C 
ATOM     33  H   LIG d   1       9.685  -2.750  -3.957  0.00  0.00     0.082 H 
ATOM     34  H   LIG d   1      10.151  -2.299  -5.614  0.00  0.00     0.082 H 
BRANCH  32  35
ATOM     35  N   LIG d   1       9.793  -4.348  -5.318  0.00  0.00     0.230 N 
ATOM     36  H   LIG d   1      10.433  -4.401  -6.096  0.00  0.00     0.202 HD
ATOM     37  H   LIG d   1       8.935  -4.823  -5.555  0.00  0.00     0.202 HD
BRANCH  35  38
ATOM     38  C   LIG d   1      10.398  -4.987  -4.141  0.00  0.00    -0.026 C 
ATOM     39  H   LIG d   1      11.261  -5.576  -4.451  0.00  0.00     0.085 H 
BRANCH  38  40
ATOM     40  C   LIG d   1       9.369  -5.902  -3.473  0.00  0.00    -0.013 C 
ATOM     41  H   LIG d   1       8.663  -5.298  -2.903  0.00  0.00     0.032 H 
ATOM     42  H   LIG d   1       9.880  -6.594  -2.804  0.00  0.00     0.032 H 
BRANCH  40  43
ATOM     43  C   LIG d   1       8.616  -6.691  -4.546  0.00  0.00    -0.060 C 
ATOM     44  H   LIG d   1       7.883  -6.042  -5.026  0.00  0.00     0.023 H 
ATOM     45  H   LIG d   1       9.322  -7.057  -5.292  0.00  0.00     0.023 H 
ATOM     46  H   LIG d   1       8.105  -7.535  -4.084  0.00  0.00     0.023 H 
ENDBRANCH  40  43
ENDBRANCH  38  40
BRANCH  38  47
ATOM     47  C   LIG d   1      10.844  -3.911  -3.149  0.00  0.00    -0.022 C 
ATOM     48  H   LIG d   1      10.407  -4.116  -2.171  0.00  0.00     0.028 H 
ATOM     49  H   LIG d   1      11.931  -3.918  -3.071  0.00  0.00     0.028 H 
ATOM     50  H   LIG d   1      10.511  -2.934  -3.499  0.00  0.00     0.028 H 
ENDBRANCH  38  47
ENDBRANCH  35  38
ENDBRANCH  32  35
ENDBRANCH   1  32
BRANCH  13  51
ATOM     51  C   LIG d   1       3.839  -0.457  -5.278  0.00  0.00    -0.059 C 
ATOM     52  H   LIG d   1       2.867  -0.382  -4.791  0.00  0.00     0.024 H 
ATOM     53  H   LIG d   1       4.352   0.503  -5.216  0.00  0.00     0.024 H 
ATOM     54  H   LIG d   1       3.701  -0.728  -6.325  0.00  0.00     0.024 H 
ENDBRANCH  13  51
TORSDOF 7
ENDMDL
