MODEL 1
REMARK VINA RESULT:      -7.5      0.000      0.000
REMARK  5 active torsions:
REMARK  status: ('A' for Active; 'I' for Inactive)
REMARK    1  A    between atoms: C_4  and  C_7 
REMARK    2  A    between atoms: C_13  and  O_22 
REMARK    3  A    between atoms: C_17  and  C_18 
REMARK    4  A    between atoms: O_22  and  C_23 
REMARK    5  A    between atoms: C_23  and  C_24 
ROOT
ATOM      1  C   LIG d   1       3.797  -1.102  -9.614  0.00  0.00     0.076 A 
ATOM      2  C   LIG d   1       4.305  -2.286  -8.900  0.00  0.00     0.201 A 
ATOM      3  O   LIG d   1       4.053  -3.416  -9.276  0.00  0.00    -0.286 OA
ATOM      4  C   LIG d   1       5.136  -2.035  -7.707  0.00  0.00     0.065 A 
ATOM      5  C   LIG d   1       5.666  -3.088  -6.960  0.00  0.00    -0.044 A 
ATOM      6  C   LIG d   1       6.434  -2.821  -5.864  0.00  0.00    -0.019 A 
ATOM      7  C   LIG d   1       6.683  -1.503  -5.483  0.00  0.00     0.124 A 
ATOM      8  C   LIG d   1       6.163  -0.449  -6.214  0.00  0.00     0.023 A 
ATOM      9  C   LIG d   1       5.384  -0.702  -7.334  0.00  0.00     0.143 A 
ATOM     10  O   LIG d   1       4.871   0.313  -8.057  0.00  0.00    -0.450 OA
ATOM     11  C   LIG d   1       4.115   0.132  -9.143  0.00  0.00     0.219 A 
ATOM     12  H   LIG d   1       5.472  -4.110  -7.251  0.00  0.00     0.063 H 
ATOM     13  H   LIG d   1       6.850  -3.635  -5.287  0.00  0.00     0.065 H 
ATOM     14  H   LIG d   1       6.364   0.569  -5.913  0.00  0.00     0.069 H 
ENDROOT
BRANCH   7  15
ATOM     15  O   LIG d   1       7.445  -1.252  -4.388  0.00  0.00    -0.487 OA
BRANCH  15  16
ATOM     16  C   LIG d   1       6.905  -1.631  -3.120  0.00  0.00     0.117 C 
ATOM     17  H   LIG d   1       6.702  -2.703  -3.118  0.00  0.00     0.075 H 
ATOM     18  H   LIG d   1       7.622  -1.395  -2.334  0.00  0.00     0.075 H 
BRANCH  16  19
ATOM     19  C   LIG d   1       5.623  -0.877  -2.874  0.00  0.00     0.025 A 
ATOM     20  C   LIG d   1       4.412  -1.547  -2.890  0.00  0.00     0.130 A 
ATOM     21  C   LIG d   1       3.235  -0.852  -2.664  0.00  0.00    -0.026 A 
ATOM     22  F   LIG d   1       4.377  -2.876  -3.125  0.00  0.00    -0.205 F 
ATOM     23  C   LIG d   1       3.273   0.508  -2.422  0.00  0.00    -0.059 A 
ATOM     24  H   LIG d   1       2.289  -1.373  -2.675  0.00  0.00     0.065 H 
ATOM     25  C   LIG d   1       4.484   1.175  -2.407  0.00  0.00    -0.061 A 
ATOM     26  H   LIG d   1       2.355   1.050  -2.246  0.00  0.00     0.062 H 
ATOM     27  C   LIG d   1       5.659   0.482  -2.628  0.00  0.00    -0.053 A 
ATOM     28  H   LIG d   1       4.511   2.238  -2.219  0.00  0.00     0.062 H 
ATOM     29  H   LIG d   1       6.604   1.004  -2.611  0.00  0.00     0.062 H 
ENDBRANCH  16  19
ENDBRANCH  15  16
ENDBRANCH   7  15
BRANCH  11  30
ATOM     30  C   LIG d   1       3.594   1.342  -9.874  0.00  0.00     0.451 C 
ATOM     31  F   LIG d   1       4.211   2.492  -9.368  0.00  0.00    -0.163 F 
ATOM     32  F   LIG d   1       3.880   1.222 -11.238  0.00  0.00    -0.163 F 
ATOM     33  F   LIG d   1       2.211   1.437  -9.693  0.00  0.00    -0.163 F 
ENDBRANCH  11  30
BRANCH   1  34
ATOM     34  C   LIG d   1       2.954  -1.254 -10.824  0.00  0.00    -0.011 A 
ATOM     35  C   LIG d   1       3.547  -1.439 -12.072  0.00  0.00    -0.054 A 
ATOM     36  C   LIG d   1       2.757  -1.579 -13.195  0.00  0.00    -0.061 A 
ATOM     37  H   LIG d   1       4.623  -1.473 -12.160  0.00  0.00     0.062 H 
ATOM     38  C   LIG d   1       1.379  -1.536 -13.084  0.00  0.00    -0.062 A 
ATOM     39  H   LIG d   1       3.216  -1.723 -14.163  0.00  0.00     0.062 H 
ATOM     40  C   LIG d   1       0.784  -1.352 -11.849  0.00  0.00    -0.061 A 
ATOM     41  H   LIG d   1       0.765  -1.645 -13.966  0.00  0.00     0.062 H 
ATOM     42  C   LIG d   1       1.564  -1.217 -10.718  0.00  0.00    -0.054 A 
ATOM     43  H   LIG d   1      -0.292  -1.319 -11.768  0.00  0.00     0.062 H 
ATOM     44  H   LIG d   1       1.099  -1.078  -9.753  0.00  0.00     0.062 H 
ENDBRANCH   1  34
TORSDOF 5
ENDMDL
MODEL 2
REMARK VINA RESULT:      -7.4      2.673      3.866
REMARK  5 active torsions:
REMARK  status: ('A' for Active; 'I' for Inactive)
REMARK    1  A    between atoms: C_4  and  C_7 
REMARK    2  A    between atoms: C_13  and  O_22 
REMARK    3  A    between atoms: C_17  and  C_18 
REMARK    4  A    between atoms: O_22  and  C_23 
REMARK    5  A    between atoms: C_23  and  C_24 
ROOT
ATOM      1  C   LIG d   1       2.950  -2.831 -11.156  0.00  0.00     0.076 A 
ATOM      2  C   LIG d   1       3.929  -2.864 -10.057  0.00  0.00     0.201 A 
ATOM      3  O   LIG d   1       4.861  -3.648 -10.054  0.00  0.00    -0.286 OA
ATOM      4  C   LIG d   1       3.728  -1.897  -8.961  0.00  0.00     0.065 A 
ATOM      5  C   LIG d   1       4.601  -1.846  -7.873  0.00  0.00    -0.044 A 
ATOM      6  C   LIG d   1       4.389  -0.937  -6.877  0.00  0.00    -0.019 A 
ATOM      7  C   LIG d   1       3.301  -0.068  -6.938  0.00  0.00     0.124 A 
ATOM      8  C   LIG d   1       2.427  -0.107  -8.011  0.00  0.00     0.023 A 
ATOM      9  C   LIG d   1       2.630  -1.022  -9.034  0.00  0.00     0.143 A 
ATOM     10  O   LIG d   1       1.790  -1.074 -10.086  0.00  0.00    -0.450 OA
ATOM     11  C   LIG d   1       1.934  -1.931 -11.100  0.00  0.00     0.219 A 
ATOM     12  H   LIG d   1       5.443  -2.521  -7.821  0.00  0.00     0.063 H 
ATOM     13  H   LIG d   1       5.067  -0.892  -6.037  0.00  0.00     0.065 H 
ATOM     14  H   LIG d   1       1.589   0.573  -8.051  0.00  0.00     0.069 H 
ENDROOT
BRANCH   7  15
ATOM     15  O   LIG d   1       3.100   0.828  -5.939  0.00  0.00    -0.487 OA
BRANCH  15  16
ATOM     16  C   LIG d   1       2.234   0.429  -4.873  0.00  0.00     0.117 C 
ATOM     17  H   LIG d   1       1.595   1.266  -4.591  0.00  0.00     0.075 H 
ATOM     18  H   LIG d   1       1.614  -0.406  -5.202  0.00  0.00     0.075 H 
BRANCH  16  19
ATOM     19  C   LIG d   1       3.060   0.005  -3.686  0.00  0.00     0.025 A 
ATOM     20  C   LIG d   1       3.664   0.960  -2.887  0.00  0.00     0.130 A 
ATOM     21  C   LIG d   1       4.424   0.568  -1.797  0.00  0.00    -0.026 A 
ATOM     22  F   LIG d   1       3.515   2.272  -3.170  0.00  0.00    -0.205 F 
ATOM     23  C   LIG d   1       4.577  -0.775  -1.509  0.00  0.00    -0.059 A 
ATOM     24  H   LIG d   1       4.896   1.312  -1.172  0.00  0.00     0.065 H 
ATOM     25  C   LIG d   1       3.972  -1.727  -2.309  0.00  0.00    -0.061 A 
ATOM     26  H   LIG d   1       5.169  -1.080  -0.659  0.00  0.00     0.062 H 
ATOM     27  C   LIG d   1       3.210  -1.337  -3.394  0.00  0.00    -0.053 A 
ATOM     28  H   LIG d   1       4.093  -2.776  -2.083  0.00  0.00     0.062 H 
ATOM     29  H   LIG d   1       2.735  -2.083  -4.015  0.00  0.00     0.062 H 
ENDBRANCH  16  19
ENDBRANCH  15  16
ENDBRANCH   7  15
BRANCH  11  30
ATOM     30  C   LIG d   1       0.931  -1.899 -12.224  0.00  0.00     0.451 C 
ATOM     31  F   LIG d   1       0.187  -3.083 -12.218  0.00  0.00    -0.163 F 
ATOM     32  F   LIG d   1       0.072  -0.808 -12.051  0.00  0.00    -0.163 F 
ATOM     33  F   LIG d   1       1.602  -1.775 -13.444  0.00  0.00    -0.163 F 
ENDBRANCH  11  30
BRANCH   1  34
ATOM     34  C   LIG d   1       3.069  -3.764 -12.303  0.00  0.00    -0.011 A 
ATOM     35  C   LIG d   1       2.389  -4.980 -12.289  0.00  0.00    -0.054 A 
ATOM     36  C   LIG d   1       2.504  -5.845 -13.359  0.00  0.00    -0.061 A 
ATOM     37  H   LIG d   1       1.773  -5.247 -11.443  0.00  0.00     0.062 H 
ATOM     38  C   LIG d   1       3.293  -5.506 -14.443  0.00  0.00    -0.062 A 
ATOM     39  H   LIG d   1       1.978  -6.788 -13.349  0.00  0.00     0.062 H 
ATOM     40  C   LIG d   1       3.971  -4.300 -14.463  0.00  0.00    -0.061 A 
ATOM     41  H   LIG d   1       3.380  -6.186 -15.278  0.00  0.00     0.062 H 
ATOM     42  C   LIG d   1       3.858  -3.425 -13.402  0.00  0.00    -0.054 A 
ATOM     43  H   LIG d   1       4.584  -4.040 -15.312  0.00  0.00     0.062 H 
ATOM     44  H   LIG d   1       4.383  -2.482 -13.419  0.00  0.00     0.062 H 
ENDBRANCH   1  34
TORSDOF 5
ENDMDL
MODEL 3
REMARK VINA RESULT:      -7.4      3.116      4.196
REMARK  5 active torsions:
REMARK  status: ('A' for Active; 'I' for Inactive)
REMARK    1  A    between atoms: C_4  and  C_7 
REMARK    2  A    between atoms: C_13  and  O_22 
REMARK    3  A    between atoms: C_17  and  C_18 
REMARK    4  A    between atoms: O_22  and  C_23 
REMARK    5  A    between atoms: C_23  and  C_24 
ROOT
ATOM      1  C   LIG d   1       3.135  -1.732 -11.444  0.00  0.00     0.076 A 
ATOM      2  C   LIG d   1       3.339  -0.299 -11.175  0.00  0.00     0.201 A 
ATOM      3  O   LIG d   1       3.593   0.490 -12.068  0.00  0.00    -0.286 OA
ATOM      4  C   LIG d   1       3.217   0.136  -9.770  0.00  0.00     0.065 A 
ATOM      5  C   LIG d   1       3.392   1.473  -9.410  0.00  0.00    -0.044 A 
ATOM      6  C   LIG d   1       3.269   1.843  -8.102  0.00  0.00    -0.019 A 
ATOM      7  C   LIG d   1       2.979   0.890  -7.125  0.00  0.00     0.124 A 
ATOM      8  C   LIG d   1       2.804  -0.439  -7.468  0.00  0.00     0.023 A 
ATOM      9  C   LIG d   1       2.921  -0.832  -8.795  0.00  0.00     0.143 A 
ATOM     10  O   LIG d   1       2.753  -2.122  -9.146  0.00  0.00    -0.450 OA
ATOM     11  C   LIG d   1       2.852  -2.559 -10.404  0.00  0.00     0.219 A 
ATOM     12  H   LIG d   1       3.620   2.213 -10.163  0.00  0.00     0.063 H 
ATOM     13  H   LIG d   1       3.398   2.878  -7.820  0.00  0.00     0.065 H 
ATOM     14  H   LIG d   1       2.577  -1.169  -6.706  0.00  0.00     0.069 H 
ENDROOT
BRANCH   7  15
ATOM     15  O   LIG d   1       2.864   1.271  -5.827  0.00  0.00    -0.487 OA
BRANCH  15  16
ATOM     16  C   LIG d   1       2.120   0.411  -4.962  0.00  0.00     0.117 C 
ATOM     17  H   LIG d   1       1.227   0.931  -4.614  0.00  0.00     0.075 H 
ATOM     18  H   LIG d   1       1.828  -0.488  -5.506  0.00  0.00     0.075 H 
BRANCH  16  19
ATOM     19  C   LIG d   1       2.972   0.028  -3.779  0.00  0.00     0.025 A 
ATOM     20  C   LIG d   1       3.539   1.012  -2.988  0.00  0.00     0.130 A 
ATOM     21  C   LIG d   1       4.323   0.658  -1.902  0.00  0.00    -0.026 A 
ATOM     22  F   LIG d   1       3.329   2.315  -3.274  0.00  0.00    -0.205 F 
ATOM     23  C   LIG d   1       4.536  -0.675  -1.610  0.00  0.00    -0.059 A 
ATOM     24  H   LIG d   1       4.765   1.425  -1.283  0.00  0.00     0.065 H 
ATOM     25  C   LIG d   1       3.969  -1.656  -2.402  0.00  0.00    -0.061 A 
ATOM     26  H   LIG d   1       5.147  -0.950  -0.762  0.00  0.00     0.062 H 
ATOM     27  C   LIG d   1       3.183  -1.304  -3.483  0.00  0.00    -0.053 A 
ATOM     28  H   LIG d   1       4.137  -2.698  -2.172  0.00  0.00     0.062 H 
ATOM     29  H   LIG d   1       2.736  -2.073  -4.098  0.00  0.00     0.062 H 
ENDBRANCH  16  19
ENDBRANCH  15  16
ENDBRANCH   7  15
BRANCH  11  30
ATOM     30  C   LIG d   1       2.645  -4.026 -10.680  0.00  0.00     0.451 C 
ATOM     31  F   LIG d   1       2.355  -4.689  -9.482  0.00  0.00    -0.163 F 
ATOM     32  F   LIG d   1       1.578  -4.186 -11.571  0.00  0.00    -0.163 F 
ATOM     33  F   LIG d   1       3.807  -4.563 -11.241  0.00  0.00    -0.163 F 
ENDBRANCH  11  30
BRANCH   1  34
ATOM     34  C   LIG d   1       3.236  -2.264 -12.825  0.00  0.00    -0.011 A 
ATOM     35  C   LIG d   1       4.453  -2.747 -13.301  0.00  0.00    -0.054 A 
ATOM     36  C   LIG d   1       4.542  -3.239 -14.588  0.00  0.00    -0.061 A 
ATOM     37  H   LIG d   1       5.326  -2.735 -12.666  0.00  0.00     0.062 H 
ATOM     38  C   LIG d   1       3.425  -3.254 -15.403  0.00  0.00    -0.062 A 
ATOM     39  H   LIG d   1       5.485  -3.614 -14.958  0.00  0.00     0.062 H 
ATOM     40  C   LIG d   1       2.213  -2.776 -14.936  0.00  0.00    -0.061 A 
ATOM     41  H   LIG d   1       3.499  -3.641 -16.410  0.00  0.00     0.062 H 
ATOM     42  C   LIG d   1       2.112  -2.287 -13.650  0.00  0.00    -0.054 A 
ATOM     43  H   LIG d   1       1.345  -2.790 -15.577  0.00  0.00     0.062 H 
ATOM     44  H   LIG d   1       1.165  -1.917 -13.284  0.00  0.00     0.062 H 
ENDBRANCH   1  34
TORSDOF 5
ENDMDL
MODEL 4
REMARK VINA RESULT:      -7.2      2.947      8.020
REMARK  5 active torsions:
REMARK  status: ('A' for Active; 'I' for Inactive)
REMARK    1  A    between atoms: C_4  and  C_7 
REMARK    2  A    between atoms: C_13  and  O_22 
REMARK    3  A    between atoms: C_17  and  C_18 
REMARK    4  A    between atoms: O_22  and  C_23 
REMARK    5  A    between atoms: C_23  and  C_24 
ROOT
ATOM      1  C   LIG d   1       3.960  -0.782  -5.801  0.00  0.00     0.076 A 
ATOM      2  C   LIG d   1       3.271   0.004  -6.838  0.00  0.00     0.201 A 
ATOM      3  O   LIG d   1       2.886   1.141  -6.629  0.00  0.00    -0.286 OA
ATOM      4  C   LIG d   1       3.071  -0.651  -8.145  0.00  0.00     0.065 A 
ATOM      5  C   LIG d   1       2.429   0.008  -9.194  0.00  0.00    -0.044 A 
ATOM      6  C   LIG d   1       2.264  -0.625 -10.392  0.00  0.00    -0.019 A 
ATOM      7  C   LIG d   1       2.725  -1.929 -10.567  0.00  0.00     0.124 A 
ATOM      8  C   LIG d   1       3.363  -2.596  -9.535  0.00  0.00     0.023 A 
ATOM      9  C   LIG d   1       3.543  -1.965  -8.312  0.00  0.00     0.143 A 
ATOM     10  O   LIG d   1       4.162  -2.599  -7.297  0.00  0.00    -0.450 OA
ATOM     11  C   LIG d   1       4.365  -2.044  -6.099  0.00  0.00     0.219 A 
ATOM     12  H   LIG d   1       2.068   1.018  -9.060  0.00  0.00     0.063 H 
ATOM     13  H   LIG d   1       1.773  -0.115 -11.207  0.00  0.00     0.065 H 
ATOM     14  H   LIG d   1       3.719  -3.605  -9.681  0.00  0.00     0.069 H 
ENDROOT
BRANCH   7  15
ATOM     15  O   LIG d   1       2.550  -2.549 -11.762  0.00  0.00    -0.487 OA
BRANCH  15  16
ATOM     16  C   LIG d   1       2.435  -3.974 -11.743  0.00  0.00     0.117 C 
ATOM     17  H   LIG d   1       2.754  -4.376 -12.705  0.00  0.00     0.075 H 
ATOM     18  H   LIG d   1       3.066  -4.379 -10.952  0.00  0.00     0.075 H 
BRANCH  16  19
ATOM     19  C   LIG d   1       1.000  -4.359 -11.489  0.00  0.00     0.025 A 
ATOM     20  C   LIG d   1       0.689  -5.217 -10.448  0.00  0.00     0.130 A 
ATOM     21  C   LIG d   1      -0.631  -5.571 -10.216  0.00  0.00    -0.026 A 
ATOM     22  F   LIG d   1       1.669  -5.710  -9.660  0.00  0.00    -0.205 F 
ATOM     23  C   LIG d   1      -1.633  -5.067 -11.023  0.00  0.00    -0.059 A 
ATOM     24  H   LIG d   1      -0.876  -6.240  -9.404  0.00  0.00     0.065 H 
ATOM     25  C   LIG d   1      -1.319  -4.210 -12.062  0.00  0.00    -0.061 A 
ATOM     26  H   LIG d   1      -2.661  -5.343 -10.842  0.00  0.00     0.062 H 
ATOM     27  C   LIG d   1      -0.004  -3.853 -12.291  0.00  0.00    -0.053 A 
ATOM     28  H   LIG d   1      -2.103  -3.817 -12.692  0.00  0.00     0.062 H 
ATOM     29  H   LIG d   1       0.239  -3.179 -13.101  0.00  0.00     0.062 H 
ENDBRANCH  16  19
ENDBRANCH  15  16
ENDBRANCH   7  15
BRANCH  11  30
ATOM     30  C   LIG d   1       5.070  -2.848  -5.038  0.00  0.00     0.451 C 
ATOM     31  F   LIG d   1       4.299  -2.854  -3.870  0.00  0.00    -0.163 F 
ATOM     32  F   LIG d   1       5.244  -4.162  -5.487  0.00  0.00    -0.163 F 
ATOM     33  F   LIG d   1       6.318  -2.277  -4.771  0.00  0.00    -0.163 F 
ENDBRANCH  11  30
BRANCH   1  34
ATOM     34  C   LIG d   1       4.207  -0.208  -4.457  0.00  0.00    -0.011 A 
ATOM     35  C   LIG d   1       5.467   0.290  -4.129  0.00  0.00    -0.054 A 
ATOM     36  C   LIG d   1       5.691   0.823  -2.875  0.00  0.00    -0.061 A 
ATOM     37  H   LIG d   1       6.267   0.259  -4.854  0.00  0.00     0.062 H 
ATOM     38  C   LIG d   1       4.668   0.863  -1.945  0.00  0.00    -0.062 A 
ATOM     39  H   LIG d   1       6.667   1.209  -2.620  0.00  0.00     0.062 H 
ATOM     40  C   LIG d   1       3.415   0.370  -2.265  0.00  0.00    -0.061 A 
ATOM     41  H   LIG d   1       4.848   1.281  -0.965  0.00  0.00     0.062 H 
ATOM     42  C   LIG d   1       3.178  -0.159  -3.517  0.00  0.00    -0.054 A 
ATOM     43  H   LIG d   1       2.620   0.405  -1.535  0.00  0.00     0.062 H 
ATOM     44  H   LIG d   1       2.199  -0.539  -3.767  0.00  0.00     0.062 H 
ENDBRANCH   1  34
TORSDOF 5
ENDMDL
MODEL 5
REMARK VINA RESULT:      -7.1      6.406      9.031
REMARK  5 active torsions:
REMARK  status: ('A' for Active; 'I' for Inactive)
REMARK    1  A    between atoms: C_4  and  C_7 
REMARK    2  A    between atoms: C_13  and  O_22 
REMARK    3  A    between atoms: C_17  and  C_18 
REMARK    4  A    between atoms: O_22  and  C_23 
REMARK    5  A    between atoms: C_23  and  C_24 
ROOT
ATOM      1  C   LIG d   1       9.977   5.397  -4.853  0.00  0.00     0.076 A 
ATOM      2  C   LIG d   1       9.572   4.525  -5.968  0.00  0.00     0.201 A 
ATOM      3  O   LIG d   1       9.702   4.870  -7.129  0.00  0.00    -0.286 OA
ATOM      4  C   LIG d   1       9.005   3.211  -5.610  0.00  0.00     0.065 A 
ATOM      5  C   LIG d   1       8.591   2.310  -6.593  0.00  0.00    -0.044 A 
ATOM      6  C   LIG d   1       8.074   1.101  -6.228  0.00  0.00    -0.019 A 
ATOM      7  C   LIG d   1       7.948   0.767  -4.880  0.00  0.00     0.124 A 
ATOM      8  C   LIG d   1       8.354   1.650  -3.895  0.00  0.00     0.023 A 
ATOM      9  C   LIG d   1       8.886   2.883  -4.249  0.00  0.00     0.143 A 
ATOM     10  O   LIG d   1       9.287   3.754  -3.302  0.00  0.00    -0.450 OA
ATOM     11  C   LIG d   1       9.807   4.953  -3.580  0.00  0.00     0.219 A 
ATOM     12  H   LIG d   1       8.684   2.568  -7.638  0.00  0.00     0.063 H 
ATOM     13  H   LIG d   1       7.758   0.400  -6.987  0.00  0.00     0.065 H 
ATOM     14  H   LIG d   1       8.256   1.382  -2.854  0.00  0.00     0.069 H 
ENDROOT
BRANCH   7  15
ATOM     15  O   LIG d   1       7.428  -0.437  -4.531  0.00  0.00    -0.487 OA
BRANCH  15  16
ATOM     16  C   LIG d   1       7.105  -0.630  -3.153  0.00  0.00     0.117 C 
ATOM     17  H   LIG d   1       7.548  -1.563  -2.803  0.00  0.00     0.075 H 
ATOM     18  H   LIG d   1       7.499   0.202  -2.567  0.00  0.00     0.075 H 
BRANCH  16  19
ATOM     19  C   LIG d   1       5.608  -0.693  -2.991  0.00  0.00     0.025 A 
ATOM     20  C   LIG d   1       4.888   0.467  -2.762  0.00  0.00     0.130 A 
ATOM     21  C   LIG d   1       3.511   0.407  -2.613  0.00  0.00    -0.026 A 
ATOM     22  F   LIG d   1       5.525   1.655  -2.683  0.00  0.00    -0.205 F 
ATOM     23  C   LIG d   1       2.861  -0.809  -2.694  0.00  0.00    -0.059 A 
ATOM     24  H   LIG d   1       2.947   1.311  -2.435  0.00  0.00     0.065 H 
ATOM     25  C   LIG d   1       3.583  -1.966  -2.923  0.00  0.00    -0.061 A 
ATOM     26  H   LIG d   1       1.788  -0.856  -2.578  0.00  0.00     0.062 H 
ATOM     27  C   LIG d   1       4.955  -1.907  -3.076  0.00  0.00    -0.053 A 
ATOM     28  H   LIG d   1       3.072  -2.916  -2.986  0.00  0.00     0.062 H 
ATOM     29  H   LIG d   1       5.516  -2.812  -3.260  0.00  0.00     0.062 H 
ENDBRANCH  16  19
ENDBRANCH  15  16
ENDBRANCH   7  15
BRANCH  11  30
ATOM     30  C   LIG d   1      10.219   5.846  -2.439  0.00  0.00     0.451 C 
ATOM     31  F   LIG d   1      11.506   6.342  -2.678  0.00  0.00    -0.163 F 
ATOM     32  F   LIG d   1       9.321   6.914  -2.335  0.00  0.00    -0.163 F 
ATOM     33  F   LIG d   1      10.214   5.114  -1.248  0.00  0.00    -0.163 F 
ENDBRANCH  11  30
BRANCH   1  34
ATOM     34  C   LIG d   1      10.558   6.736  -5.113  0.00  0.00    -0.011 A 
ATOM     35  C   LIG d   1      11.927   6.875  -5.330  0.00  0.00    -0.054 A 
ATOM     36  C   LIG d   1      12.463   8.124  -5.571  0.00  0.00    -0.061 A 
ATOM     37  H   LIG d   1      12.570   6.007  -5.309  0.00  0.00     0.062 H 
ATOM     38  C   LIG d   1      11.643   9.237  -5.597  0.00  0.00    -0.062 A 
ATOM     39  H   LIG d   1      13.525   8.232  -5.739  0.00  0.00     0.062 H 
ATOM     40  C   LIG d   1      10.282   9.107  -5.383  0.00  0.00    -0.061 A 
ATOM     41  H   LIG d   1      12.067  10.213  -5.786  0.00  0.00     0.062 H 
ATOM     42  C   LIG d   1       9.735   7.862  -5.147  0.00  0.00    -0.054 A 
ATOM     43  H   LIG d   1       9.647   9.979  -5.405  0.00  0.00     0.062 H 
ATOM     44  H   LIG d   1       8.672   7.760  -4.984  0.00  0.00     0.062 H 
ENDBRANCH   1  34
TORSDOF 5
ENDMDL
MODEL 6
REMARK VINA RESULT:      -7.0      7.113      9.728
REMARK  5 active torsions:
REMARK  status: ('A' for Active; 'I' for Inactive)
REMARK    1  A    between atoms: C_4  and  C_7 
REMARK    2  A    between atoms: C_13  and  O_22 
REMARK    3  A    between atoms: C_17  and  C_18 
REMARK    4  A    between atoms: O_22  and  C_23 
REMARK    5  A    between atoms: C_23  and  C_24 
ROOT
ATOM      1  C   LIG d   1      10.147   6.566  -4.498  0.00  0.00     0.076 A 
ATOM      2  C   LIG d   1       9.901   5.638  -5.614  0.00  0.00     0.201 A 
ATOM      3  O   LIG d   1      10.012   5.990  -6.775  0.00  0.00    -0.286 OA
ATOM      4  C   LIG d   1       9.517   4.259  -5.258  0.00  0.00     0.065 A 
ATOM      5  C   LIG d   1       9.263   3.302  -6.241  0.00  0.00    -0.044 A 
ATOM      6  C   LIG d   1       8.913   2.033  -5.877  0.00  0.00    -0.019 A 
ATOM      7  C   LIG d   1       8.800   1.694  -4.530  0.00  0.00     0.124 A 
ATOM      8  C   LIG d   1       9.049   2.633  -3.543  0.00  0.00     0.023 A 
ATOM      9  C   LIG d   1       9.410   3.926  -3.896  0.00  0.00     0.143 A 
ATOM     10  O   LIG d   1       9.656   4.852  -2.949  0.00  0.00    -0.450 OA
ATOM     11  C   LIG d   1      10.008   6.110  -3.226  0.00  0.00     0.219 A 
ATOM     12  H   LIG d   1       9.345   3.563  -7.286  0.00  0.00     0.063 H 
ATOM     13  H   LIG d   1       8.721   1.289  -6.637  0.00  0.00     0.065 H 
ATOM     14  H   LIG d   1       8.962   2.360  -2.502  0.00  0.00     0.069 H 
ENDROOT
BRANCH   7  15
ATOM     15  O   LIG d   1       8.447   0.430  -4.182  0.00  0.00    -0.487 OA
BRANCH  15  16
ATOM     16  C   LIG d   1       7.234  -0.081  -4.738  0.00  0.00     0.117 C 
ATOM     17  H   LIG d   1       6.879   0.593  -5.518  0.00  0.00     0.075 H 
ATOM     18  H   LIG d   1       7.418  -1.067  -5.166  0.00  0.00     0.075 H 
BRANCH  16  19
ATOM     19  C   LIG d   1       6.191  -0.191  -3.655  0.00  0.00     0.025 A 
ATOM     20  C   LIG d   1       5.698  -1.432  -3.292  0.00  0.00     0.130 A 
ATOM     21  C   LIG d   1       4.739  -1.530  -2.297  0.00  0.00    -0.026 A 
ATOM     22  F   LIG d   1       6.150  -2.546  -3.907  0.00  0.00    -0.205 F 
ATOM     23  C   LIG d   1       4.278  -0.390  -1.668  0.00  0.00    -0.059 A 
ATOM     24  H   LIG d   1       4.354  -2.498  -2.012  0.00  0.00     0.065 H 
ATOM     25  C   LIG d   1       4.772   0.849  -2.033  0.00  0.00    -0.061 A 
ATOM     26  H   LIG d   1       3.530  -0.467  -0.892  0.00  0.00     0.062 H 
ATOM     27  C   LIG d   1       5.732   0.948  -3.022  0.00  0.00    -0.053 A 
ATOM     28  H   LIG d   1       4.410   1.739  -1.540  0.00  0.00     0.062 H 
ATOM     29  H   LIG d   1       6.120   1.917  -3.301  0.00  0.00     0.062 H 
ENDBRANCH  16  19
ENDBRANCH  15  16
ENDBRANCH   7  15
BRANCH  11  30
ATOM     30  C   LIG d   1      10.258   7.061  -2.084  0.00  0.00     0.451 C 
ATOM     31  F   LIG d   1      11.620   7.377  -2.031  0.00  0.00    -0.163 F 
ATOM     32  F   LIG d   1       9.516   8.230  -2.280  0.00  0.00    -0.163 F 
ATOM     33  F   LIG d   1       9.872   6.459  -0.883  0.00  0.00    -0.163 F 
ENDBRANCH  11  30
BRANCH   1  34
ATOM     34  C   LIG d   1      10.539   7.973  -4.757  0.00  0.00    -0.011 A 
ATOM     35  C   LIG d   1      11.883   8.340  -4.738  0.00  0.00    -0.054 A 
ATOM     36  C   LIG d   1      12.242   9.651  -4.979  0.00  0.00    -0.061 A 
ATOM     37  H   LIG d   1      12.643   7.600  -4.535  0.00  0.00     0.062 H 
ATOM     38  C   LIG d   1      11.269  10.599  -5.239  0.00  0.00    -0.062 A 
ATOM     39  H   LIG d   1      13.283   9.936  -4.965  0.00  0.00     0.062 H 
ATOM     40  C   LIG d   1       9.933  10.241  -5.259  0.00  0.00    -0.061 A 
ATOM     41  H   LIG d   1      11.554  11.625  -5.427  0.00  0.00     0.062 H 
ATOM     42  C   LIG d   1       9.563   8.932  -5.026  0.00  0.00    -0.054 A 
ATOM     43  H   LIG d   1       9.178  10.986  -5.463  0.00  0.00     0.062 H 
ATOM     44  H   LIG d   1       8.520   8.652  -5.046  0.00  0.00     0.062 H 
ENDBRANCH   1  34
TORSDOF 5
ENDMDL
MODEL 7
REMARK VINA RESULT:      -7.0      2.033      8.530
REMARK  5 active torsions:
REMARK  status: ('A' for Active; 'I' for Inactive)
REMARK    1  A    between atoms: C_4  and  C_7 
REMARK    2  A    between atoms: C_13  and  O_22 
REMARK    3  A    between atoms: C_17  and  C_18 
REMARK    4  A    between atoms: O_22  and  C_23 
REMARK    5  A    between atoms: C_23  and  C_24 
ROOT
ATOM      1  C   LIG d   1       3.969  -0.767  -5.777  0.00  0.00     0.076 A 
ATOM      2  C   LIG d   1       3.261   0.025  -6.796  0.00  0.00     0.201 A 
ATOM      3  O   LIG d   1       2.893   1.166  -6.578  0.00  0.00    -0.286 OA
ATOM      4  C   LIG d   1       3.019  -0.630  -8.096  0.00  0.00     0.065 A 
ATOM      5  C   LIG d   1       2.357   0.035  -9.129  0.00  0.00    -0.044 A 
ATOM      6  C   LIG d   1       2.154  -0.598 -10.321  0.00  0.00    -0.019 A 
ATOM      7  C   LIG d   1       2.596  -1.907 -10.507  0.00  0.00     0.124 A 
ATOM      8  C   LIG d   1       3.254  -2.579  -9.492  0.00  0.00     0.023 A 
ATOM      9  C   LIG d   1       3.473  -1.948  -8.274  0.00  0.00     0.143 A 
ATOM     10  O   LIG d   1       4.113  -2.588  -7.276  0.00  0.00    -0.450 OA
ATOM     11  C   LIG d   1       4.353  -2.034  -6.084  0.00  0.00     0.219 A 
ATOM     12  H   LIG d   1       2.009   1.048  -8.987  0.00  0.00     0.063 H 
ATOM     13  H   LIG d   1       1.646  -0.083 -11.124  0.00  0.00     0.065 H 
ATOM     14  H   LIG d   1       3.596  -3.592  -9.646  0.00  0.00     0.069 H 
ENDROOT
BRANCH   7  15
ATOM     15  O   LIG d   1       2.383  -2.526 -11.696  0.00  0.00    -0.487 OA
BRANCH  15  16
ATOM     16  C   LIG d   1       2.289  -1.694 -12.854  0.00  0.00     0.117 C 
ATOM     17  H   LIG d   1       1.464  -2.035 -13.480  0.00  0.00     0.075 H 
ATOM     18  H   LIG d   1       2.109  -0.663 -12.547  0.00  0.00     0.075 H 
BRANCH  16  19
ATOM     19  C   LIG d   1       3.576  -1.769 -13.633  0.00  0.00     0.025 A 
ATOM     20  C   LIG d   1       4.525  -0.770 -13.499  0.00  0.00     0.130 A 
ATOM     21  C   LIG d   1       5.708  -0.840 -14.217  0.00  0.00    -0.026 A 
ATOM     22  F   LIG d   1       4.299   0.272 -12.670  0.00  0.00    -0.205 F 
ATOM     23  C   LIG d   1       5.938  -1.906 -15.065  0.00  0.00    -0.059 A 
ATOM     24  H   LIG d   1       6.450  -0.062 -14.113  0.00  0.00     0.065 H 
ATOM     25  C   LIG d   1       4.989  -2.903 -15.197  0.00  0.00    -0.061 A 
ATOM     26  H   LIG d   1       6.861  -1.961 -15.624  0.00  0.00     0.062 H 
ATOM     27  C   LIG d   1       3.811  -2.836 -14.478  0.00  0.00    -0.053 A 
ATOM     28  H   LIG d   1       5.170  -3.735 -15.861  0.00  0.00     0.062 H 
ATOM     29  H   LIG d   1       3.072  -3.618 -14.580  0.00  0.00     0.062 H 
ENDBRANCH  16  19
ENDBRANCH  15  16
ENDBRANCH   7  15
BRANCH  11  30
ATOM     30  C   LIG d   1       5.077  -2.845  -5.041  0.00  0.00     0.451 C 
ATOM     31  F   LIG d   1       4.332  -2.852  -3.857  0.00  0.00    -0.163 F 
ATOM     32  F   LIG d   1       5.237  -4.157  -5.498  0.00  0.00    -0.163 F 
ATOM     33  F   LIG d   1       6.333  -2.279  -4.799  0.00  0.00    -0.163 F 
ENDBRANCH  11  30
BRANCH   1  34
ATOM     34  C   LIG d   1       4.258  -0.194  -4.440  0.00  0.00    -0.011 A 
ATOM     35  C   LIG d   1       3.258  -0.143  -3.471  0.00  0.00    -0.054 A 
ATOM     36  C   LIG d   1       3.532   0.393  -2.228  0.00  0.00    -0.061 A 
ATOM     37  H   LIG d   1       2.271  -0.520  -3.690  0.00  0.00     0.062 H 
ATOM     38  C   LIG d   1       4.797   0.877  -1.945  0.00  0.00    -0.062 A 
ATOM     39  H   LIG d   1       2.758   0.433  -1.476  0.00  0.00     0.062 H 
ATOM     40  C   LIG d   1       5.793   0.829  -2.903  0.00  0.00    -0.061 A 
ATOM     41  H   LIG d   1       5.007   1.295  -0.971  0.00  0.00     0.062 H 
ATOM     42  C   LIG d   1       5.532   0.290  -4.147  0.00  0.00    -0.054 A 
ATOM     43  H   LIG d   1       6.778   1.208  -2.677  0.00  0.00     0.062 H 
ATOM     44  H   LIG d   1       6.311   0.249  -4.893  0.00  0.00     0.062 H 
ENDBRANCH   1  34
TORSDOF 5
ENDMDL
MODEL 8
REMARK VINA RESULT:      -6.9      7.664     11.276
REMARK  5 active torsions:
REMARK  status: ('A' for Active; 'I' for Inactive)
REMARK    1  A    between atoms: C_4  and  C_7 
REMARK    2  A    between atoms: C_13  and  O_22 
REMARK    3  A    between atoms: C_17  and  C_18 
REMARK    4  A    between atoms: O_22  and  C_23 
REMARK    5  A    between atoms: C_23  and  C_24 
ROOT
ATOM      1  C   LIG d   1      10.505   6.967  -2.084  0.00  0.00     0.076 A 
ATOM      2  C   LIG d   1       9.942   6.611  -3.397  0.00  0.00     0.201 A 
ATOM      3  O   LIG d   1       9.649   7.461  -4.219  0.00  0.00    -0.286 OA
ATOM      4  C   LIG d   1       9.752   5.174  -3.670  0.00  0.00     0.065 A 
ATOM      5  C   LIG d   1       9.226   4.731  -4.884  0.00  0.00    -0.044 A 
ATOM      6  C   LIG d   1       9.067   3.394  -5.107  0.00  0.00    -0.019 A 
ATOM      7  C   LIG d   1       9.419   2.471  -4.123  0.00  0.00     0.124 A 
ATOM      8  C   LIG d   1       9.942   2.895  -2.913  0.00  0.00     0.023 A 
ATOM      9  C   LIG d   1      10.114   4.251  -2.673  0.00  0.00     0.143 A 
ATOM     10  O   LIG d   1      10.622   4.681  -1.501  0.00  0.00    -0.450 OA
ATOM     11  C   LIG d   1      10.812   5.971  -1.212  0.00  0.00     0.219 A 
ATOM     12  H   LIG d   1       8.948   5.444  -5.647  0.00  0.00     0.063 H 
ATOM     13  H   LIG d   1       8.665   3.048  -6.048  0.00  0.00     0.065 H 
ATOM     14  H   LIG d   1      10.215   2.172  -2.159  0.00  0.00     0.069 H 
ENDROOT
BRANCH   7  15
ATOM     15  O   LIG d   1       9.251   1.144  -4.355  0.00  0.00    -0.487 OA
BRANCH  15  16
ATOM     16  C   LIG d   1       8.075   0.753  -5.067  0.00  0.00     0.117 C 
ATOM     17  H   LIG d   1       7.704   1.598  -5.647  0.00  0.00     0.075 H 
ATOM     18  H   LIG d   1       8.315  -0.072  -5.739  0.00  0.00     0.075 H 
BRANCH  16  19
ATOM     19  C   LIG d   1       7.018   0.312  -4.087  0.00  0.00     0.025 A 
ATOM     20  C   LIG d   1       6.779  -1.037  -3.888  0.00  0.00     0.130 A 
ATOM     21  C   LIG d   1       5.806  -1.441  -2.988  0.00  0.00    -0.026 A 
ATOM     22  F   LIG d   1       7.493  -1.959  -4.570  0.00  0.00    -0.205 F 
ATOM     23  C   LIG d   1       5.077  -0.497  -2.291  0.00  0.00    -0.059 A 
ATOM     24  H   LIG d   1       5.619  -2.493  -2.830  0.00  0.00     0.065 H 
ATOM     25  C   LIG d   1       5.317   0.850  -2.492  0.00  0.00    -0.061 A 
ATOM     26  H   LIG d   1       4.318  -0.812  -1.589  0.00  0.00     0.062 H 
ATOM     27  C   LIG d   1       6.290   1.254  -3.386  0.00  0.00    -0.053 A 
ATOM     28  H   LIG d   1       4.746   1.587  -1.947  0.00  0.00     0.062 H 
ATOM     29  H   LIG d   1       6.480   2.307  -3.538  0.00  0.00     0.062 H 
ENDBRANCH  16  19
ENDBRANCH  15  16
ENDBRANCH   7  15
BRANCH  11  30
ATOM     30  C   LIG d   1      11.387   6.336   0.131  0.00  0.00     0.451 C 
ATOM     31  F   LIG d   1      12.689   6.820  -0.035  0.00  0.00    -0.163 F 
ATOM     32  F   LIG d   1      10.595   7.325   0.724  0.00  0.00    -0.163 F 
ATOM     33  F   LIG d   1      11.411   5.204   0.951  0.00  0.00    -0.163 F 
ENDBRANCH  11  30
BRANCH   1  34
ATOM     34  C   LIG d   1      10.733   8.386  -1.719  0.00  0.00    -0.011 A 
ATOM     35  C   LIG d   1      11.975   8.976  -1.944  0.00  0.00    -0.054 A 
ATOM     36  C   LIG d   1      12.182  10.297  -1.601  0.00  0.00    -0.061 A 
ATOM     37  H   LIG d   1      12.776   8.401  -2.385  0.00  0.00     0.062 H 
ATOM     38  C   LIG d   1      11.157  11.035  -1.036  0.00  0.00    -0.062 A 
ATOM     39  H   LIG d   1      13.144  10.755  -1.775  0.00  0.00     0.062 H 
ATOM     40  C   LIG d   1       9.922  10.456  -0.810  0.00  0.00    -0.061 A 
ATOM     41  H   LIG d   1      11.324  12.070  -0.769  0.00  0.00     0.062 H 
ATOM     42  C   LIG d   1       9.702   9.137  -1.155  0.00  0.00    -0.054 A 
ATOM     43  H   LIG d   1       9.126  11.037  -0.369  0.00  0.00     0.062 H 
ATOM     44  H   LIG d   1       8.736   8.686  -0.982  0.00  0.00     0.062 H 
ENDBRANCH   1  34
TORSDOF 5
ENDMDL
MODEL 9
REMARK VINA RESULT:      -6.8      6.502      8.551
REMARK  5 active torsions:
REMARK  status: ('A' for Active; 'I' for Inactive)
REMARK    1  A    between atoms: C_4  and  C_7 
REMARK    2  A    between atoms: C_13  and  O_22 
REMARK    3  A    between atoms: C_17  and  C_18 
REMARK    4  A    between atoms: O_22  and  C_23 
REMARK    5  A    between atoms: C_23  and  C_24 
ROOT
ATOM      1  C   LIG d   1      10.026   6.196  -6.648  0.00  0.00     0.076 A 
ATOM      2  C   LIG d   1      10.036   5.772  -5.238  0.00  0.00     0.201 A 
ATOM      3  O   LIG d   1      10.366   6.532  -4.345  0.00  0.00    -0.286 OA
ATOM      4  C   LIG d   1       9.625   4.383  -4.960  0.00  0.00     0.065 A 
ATOM      5  C   LIG d   1       9.599   3.884  -3.657  0.00  0.00    -0.044 A 
ATOM      6  C   LIG d   1       9.210   2.595  -3.433  0.00  0.00    -0.019 A 
ATOM      7  C   LIG d   1       8.847   1.774  -4.501  0.00  0.00     0.124 A 
ATOM      8  C   LIG d   1       8.868   2.256  -5.798  0.00  0.00     0.023 A 
ATOM      9  C   LIG d   1       9.257   3.566  -6.043  0.00  0.00     0.143 A 
ATOM     10  O   LIG d   1       9.282   4.051  -7.300  0.00  0.00    -0.450 OA
ATOM     11  C   LIG d   1       9.647   5.301  -7.597  0.00  0.00     0.219 A 
ATOM     12  H   LIG d   1       9.884   4.516  -2.828  0.00  0.00     0.063 H 
ATOM     13  H   LIG d   1       9.184   2.207  -2.425  0.00  0.00     0.065 H 
ATOM     14  H   LIG d   1       8.582   1.614  -6.618  0.00  0.00     0.069 H 
ENDROOT
BRANCH   7  15
ATOM     15  O   LIG d   1       8.466   0.493  -4.265  0.00  0.00    -0.487 OA
BRANCH  15  16
ATOM     16  C   LIG d   1       7.214   0.076  -4.815  0.00  0.00     0.117 C 
ATOM     17  H   LIG d   1       6.863   0.825  -5.525  0.00  0.00     0.075 H 
ATOM     18  H   LIG d   1       7.342  -0.878  -5.327  0.00  0.00     0.075 H 
BRANCH  16  19
ATOM     19  C   LIG d   1       6.205  -0.080  -3.706  0.00  0.00     0.025 A 
ATOM     20  C   LIG d   1       5.763  -1.341  -3.346  0.00  0.00     0.130 A 
ATOM     21  C   LIG d   1       4.834  -1.482  -2.328  0.00  0.00    -0.026 A 
ATOM     22  F   LIG d   1       6.234  -2.433  -3.987  0.00  0.00    -0.205 F 
ATOM     23  C   LIG d   1       4.352  -0.365  -1.673  0.00  0.00    -0.059 A 
ATOM     24  H   LIG d   1       4.488  -2.466  -2.045  0.00  0.00     0.065 H 
ATOM     25  C   LIG d   1       4.795   0.894  -2.035  0.00  0.00    -0.061 A 
ATOM     26  H   LIG d   1       3.628  -0.476  -0.879  0.00  0.00     0.062 H 
ATOM     27  C   LIG d   1       5.725   1.036  -3.048  0.00  0.00    -0.053 A 
ATOM     28  H   LIG d   1       4.418   1.766  -1.523  0.00  0.00     0.062 H 
ATOM     29  H   LIG d   1       6.074   2.020  -3.325  0.00  0.00     0.062 H 
ENDBRANCH  16  19
ENDBRANCH  15  16
ENDBRANCH   7  15
BRANCH  11  30
ATOM     30  C   LIG d   1       9.638   5.734  -9.040  0.00  0.00     0.451 C 
ATOM     31  F   LIG d   1      10.947   5.998  -9.455  0.00  0.00    -0.163 F 
ATOM     32  F   LIG d   1       9.095   4.715  -9.830  0.00  0.00    -0.163 F 
ATOM     33  F   LIG d   1       8.863   6.890  -9.174  0.00  0.00    -0.163 F 
ENDBRANCH  11  30
BRANCH   1  34
ATOM     34  C   LIG d   1      10.423   7.574  -7.026  0.00  0.00    -0.011 A 
ATOM     35  C   LIG d   1      11.741   7.848  -7.386  0.00  0.00    -0.054 A 
ATOM     36  C   LIG d   1      12.105   9.133  -7.737  0.00  0.00    -0.061 A 
ATOM     37  H   LIG d   1      12.477   7.058  -7.391  0.00  0.00     0.062 H 
ATOM     38  C   LIG d   1      11.164  10.147  -7.731  0.00  0.00    -0.062 A 
ATOM     39  H   LIG d   1      13.126   9.347  -8.016  0.00  0.00     0.062 H 
ATOM     40  C   LIG d   1       9.854   9.881  -7.374  0.00  0.00    -0.061 A 
ATOM     41  H   LIG d   1      11.454  11.151  -8.005  0.00  0.00     0.062 H 
ATOM     42  C   LIG d   1       9.478   8.599  -7.028  0.00  0.00    -0.054 A 
ATOM     43  H   LIG d   1       9.124  10.676  -7.371  0.00  0.00     0.062 H 
ATOM     44  H   LIG d   1       8.454   8.391  -6.753  0.00  0.00     0.062 H 
ENDBRANCH   1  34
TORSDOF 5
ENDMDL
MODEL 10
REMARK VINA RESULT:      -6.8      2.768      8.753
REMARK  5 active torsions:
REMARK  status: ('A' for Active; 'I' for Inactive)
REMARK    1  A    between atoms: C_4  and  C_7 
REMARK    2  A    between atoms: C_13  and  O_22 
REMARK    3  A    between atoms: C_17  and  C_18 
REMARK    4  A    between atoms: O_22  and  C_23 
REMARK    5  A    between atoms: C_23  and  C_24 
ROOT
ATOM      1  C   LIG d   1       4.113  -0.909  -5.629  0.00  0.00     0.076 A 
ATOM      2  C   LIG d   1       3.490  -0.164  -6.735  0.00  0.00     0.201 A 
ATOM      3  O   LIG d   1       3.102   0.983  -6.596  0.00  0.00    -0.286 OA
ATOM      4  C   LIG d   1       3.359  -0.873  -8.022  0.00  0.00     0.065 A 
ATOM      5  C   LIG d   1       2.783  -0.255  -9.133  0.00  0.00    -0.044 A 
ATOM      6  C   LIG d   1       2.682  -0.938 -10.311  0.00  0.00    -0.019 A 
ATOM      7  C   LIG d   1       3.142  -2.251 -10.405  0.00  0.00     0.124 A 
ATOM      8  C   LIG d   1       3.715  -2.876  -9.311  0.00  0.00     0.023 A 
ATOM      9  C   LIG d   1       3.830  -2.195  -8.107  0.00  0.00     0.143 A 
ATOM     10  O   LIG d   1       4.386  -2.789  -7.033  0.00  0.00    -0.450 OA
ATOM     11  C   LIG d   1       4.525  -2.185  -5.850  0.00  0.00     0.219 A 
ATOM     12  H   LIG d   1       2.423   0.761  -9.063  0.00  0.00     0.063 H 
ATOM     13  H   LIG d   1       2.241  -0.460 -11.174  0.00  0.00     0.065 H 
ATOM     14  H   LIG d   1       4.071  -3.892  -9.394  0.00  0.00     0.069 H 
ENDROOT
BRANCH   7  15
ATOM     15  O   LIG d   1       3.030  -2.920 -11.581  0.00  0.00    -0.487 OA
BRANCH  15  16
ATOM     16  C   LIG d   1       1.711  -3.108 -12.098  0.00  0.00     0.117 C 
ATOM     17  H   LIG d   1       1.440  -4.161 -12.025  0.00  0.00     0.075 H 
ATOM     18  H   LIG d   1       1.006  -2.510 -11.521  0.00  0.00     0.075 H 
BRANCH  16  19
ATOM     19  C   LIG d   1       1.672  -2.677 -13.542  0.00  0.00     0.025 A 
ATOM     20  C   LIG d   1       0.477  -2.711 -14.241  0.00  0.00     0.130 A 
ATOM     21  C   LIG d   1       0.442  -2.315 -15.568  0.00  0.00    -0.026 A 
ATOM     22  F   LIG d   1      -0.653  -3.128 -13.630  0.00  0.00    -0.205 F 
ATOM     23  C   LIG d   1       1.599  -1.888 -16.191  0.00  0.00    -0.059 A 
ATOM     24  H   LIG d   1      -0.489  -2.340 -16.115  0.00  0.00     0.065 H 
ATOM     25  C   LIG d   1       2.791  -1.856 -15.491  0.00  0.00    -0.061 A 
ATOM     26  H   LIG d   1       1.572  -1.580 -17.226  0.00  0.00     0.062 H 
ATOM     27  C   LIG d   1       2.826  -2.246 -14.166  0.00  0.00    -0.053 A 
ATOM     28  H   LIG d   1       3.694  -1.522 -15.980  0.00  0.00     0.062 H 
ATOM     29  H   LIG d   1       3.758  -2.215 -13.619  0.00  0.00     0.062 H 
ENDBRANCH  16  19
ENDBRANCH  15  16
ENDBRANCH   7  15
BRANCH  11  30
ATOM     30  C   LIG d   1       5.161  -2.947  -4.717  0.00  0.00     0.451 C 
ATOM     31  F   LIG d   1       5.421  -4.259  -5.127  0.00  0.00    -0.163 F 
ATOM     32  F   LIG d   1       6.361  -2.327  -4.354  0.00  0.00    -0.163 F 
ATOM     33  F   LIG d   1       4.294  -2.964  -3.621  0.00  0.00    -0.163 F 
ENDBRANCH  11  30
BRANCH   1  34
ATOM     34  C   LIG d   1       4.287  -0.280  -4.297  0.00  0.00    -0.011 A 
ATOM     35  C   LIG d   1       5.506   0.303  -3.953  0.00  0.00    -0.054 A 
ATOM     36  C   LIG d   1       5.663   0.886  -2.712  0.00  0.00    -0.061 A 
ATOM     37  H   LIG d   1       6.326   0.297  -4.655  0.00  0.00     0.062 H 
ATOM     38  C   LIG d   1       4.613   0.893  -1.811  0.00  0.00    -0.062 A 
ATOM     39  H   LIG d   1       6.606   1.338  -2.444  0.00  0.00     0.062 H 
ATOM     40  C   LIG d   1       3.401   0.317  -2.147  0.00  0.00    -0.061 A 
ATOM     41  H   LIG d   1       4.741   1.351  -0.840  0.00  0.00     0.062 H 
ATOM     42  C   LIG d   1       3.231  -0.264  -3.387  0.00  0.00    -0.054 A 
ATOM     43  H   LIG d   1       2.586   0.326  -1.440  0.00  0.00     0.062 H 
ATOM     44  H   LIG d   1       2.284  -0.711  -3.650  0.00  0.00     0.062 H 
ENDBRANCH   1  34
TORSDOF 5
ENDMDL
