MODEL 1
REMARK VINA RESULT:      -6.6      0.000      0.000
REMARK  6 active torsions:
REMARK  status: ('A' for Active; 'I' for Inactive)
REMARK    1  A    between atoms: C_1  and  C_2 
REMARK    2  A    between atoms: C_9  and  C_19 
REMARK    3  A    between atoms: C_12  and  C_13 
REMARK       I    between atoms: C_19  and  N_21 
REMARK    4  A    between atoms: N_21  and  C_22 
REMARK    5  A    between atoms: C_22  and  C_23 
REMARK    6  A    between atoms: C_23  and  O_24 
ROOT
ATOM      1  C   LIG d   1       3.144   0.518  -6.887  0.00  0.00     0.040 A 
ATOM      2  C   LIG d   1       2.952   0.787  -5.511  0.00  0.00     0.196 A 
ATOM      3  O   LIG d   1       2.425   1.820  -5.135  0.00  0.00    -0.287 OA
ATOM      4  C   LIG d   1       3.411  -0.236  -4.551  0.00  0.00     0.065 A 
ATOM      5  C   LIG d   1       3.259  -0.059  -3.176  0.00  0.00    -0.047 A 
ATOM      6  C   LIG d   1       3.698  -1.034  -2.305  0.00  0.00    -0.060 A 
ATOM      7  C   LIG d   1       4.290  -2.189  -2.783  0.00  0.00    -0.046 A 
ATOM      8  C   LIG d   1       4.451  -2.384  -4.154  0.00  0.00     0.080 A 
ATOM      9  C   LIG d   1       4.009  -1.401  -5.052  0.00  0.00     0.151 A 
ATOM     10  O   LIG d   1       4.153  -1.564  -6.381  0.00  0.00    -0.454 OA
ATOM     11  C   LIG d   1       3.742  -0.643  -7.266  0.00  0.00     0.142 A 
ATOM     12  H   LIG d   1       2.798   0.840  -2.794  0.00  0.00     0.063 H 
ATOM     13  H   LIG d   1       3.578  -0.894  -1.240  0.00  0.00     0.062 H 
ATOM     14  H   LIG d   1       4.629  -2.944  -2.089  0.00  0.00     0.063 H 
ENDROOT
BRANCH   8  15
ATOM     15  C   LIG d   1       5.084  -3.619  -4.657  0.00  0.00     0.248 C 
ATOM     16  O   LIG d   1       6.293  -3.746  -4.609  0.00  0.00    -0.270 OA
ATOM     17  N   LIG d   1       4.324  -4.605  -5.170  0.00  0.00    -0.309 N 
ATOM     18  H   LIG d   1       3.360  -4.504  -5.210  0.00  0.00     0.149 HD
BRANCH  17  19
ATOM     19  C   LIG d   1       4.953  -5.830  -5.670  0.00  0.00     0.035 C 
ATOM     20  H   LIG d   1       6.020  -5.660  -5.812  0.00  0.00     0.049 H 
ATOM     21  H   LIG d   1       4.805  -6.634  -4.950  0.00  0.00     0.049 H 
BRANCH  19  22
ATOM     22  C   LIG d   1       4.318  -6.220  -7.007  0.00  0.00     0.060 C 
ATOM     23  H   LIG d   1       5.055  -6.113  -7.804  0.00  0.00     0.057 H 
ATOM     24  H   LIG d   1       3.981  -7.256  -6.961  0.00  0.00     0.057 H 
BRANCH  22  25
ATOM     25  O   LIG d   1       3.203  -5.367  -7.272  0.00  0.00    -0.394 OA
ATOM     26  H   LIG d   1       2.668  -5.166  -6.491  0.00  0.00     0.209 HD
ENDBRANCH  22  25
ENDBRANCH  19  22
ENDBRANCH  17  19
ENDBRANCH   8  15
BRANCH  11  27
ATOM     27  C   LIG d   1       3.940  -0.904  -8.705  0.00  0.00     0.018 A 
ATOM     28  C   LIG d   1       2.948  -1.553  -9.444  0.00  0.00    -0.051 A 
ATOM     29  C   LIG d   1       3.140  -1.794 -10.789  0.00  0.00    -0.061 A 
ATOM     30  H   LIG d   1       2.032  -1.866  -8.964  0.00  0.00     0.062 H 
ATOM     31  C   LIG d   1       4.312  -1.394 -11.406  0.00  0.00    -0.062 A 
ATOM     32  H   LIG d   1       2.374  -2.295 -11.361  0.00  0.00     0.062 H 
ATOM     33  C   LIG d   1       5.300  -0.751 -10.680  0.00  0.00    -0.061 A 
ATOM     34  H   LIG d   1       4.457  -1.585 -12.459  0.00  0.00     0.062 H 
ATOM     35  C   LIG d   1       5.119  -0.499  -9.336  0.00  0.00    -0.051 A 
ATOM     36  H   LIG d   1       6.212  -0.441 -11.168  0.00  0.00     0.062 H 
ATOM     37  H   LIG d   1       5.887   0.007  -8.772  0.00  0.00     0.062 H 
ENDBRANCH  11  27
BRANCH   1  38
ATOM     38  C   LIG d   1       2.695   1.515  -7.925  0.00  0.00    -0.033 C 
ATOM     39  H   LIG d   1       3.126   2.491  -7.703  0.00  0.00     0.028 H 
ATOM     40  H   LIG d   1       3.027   1.187  -8.911  0.00  0.00     0.028 H 
ATOM     41  H   LIG d   1       1.608   1.586  -7.915  0.00  0.00     0.028 H 
ENDBRANCH   1  38
TORSDOF 6
ENDMDL
MODEL 2
REMARK VINA RESULT:      -6.2      1.623      4.618
REMARK  6 active torsions:
REMARK  status: ('A' for Active; 'I' for Inactive)
REMARK    1  A    between atoms: C_1  and  C_2 
REMARK    2  A    between atoms: C_9  and  C_19 
REMARK    3  A    between atoms: C_12  and  C_13 
REMARK       I    between atoms: C_19  and  N_21 
REMARK    4  A    between atoms: N_21  and  C_22 
REMARK    5  A    between atoms: C_22  and  C_23 
REMARK    6  A    between atoms: C_23  and  O_24 
ROOT
ATOM      1  C   LIG d   1       3.792  -2.476  -9.621  0.00  0.00     0.040 A 
ATOM      2  C   LIG d   1       3.839  -3.882  -9.465  0.00  0.00     0.196 A 
ATOM      3  O   LIG d   1       3.656  -4.630 -10.411  0.00  0.00    -0.287 OA
ATOM      4  C   LIG d   1       4.123  -4.405  -8.115  0.00  0.00     0.065 A 
ATOM      5  C   LIG d   1       4.193  -5.776  -7.869  0.00  0.00    -0.047 A 
ATOM      6  C   LIG d   1       4.461  -6.233  -6.595  0.00  0.00    -0.060 A 
ATOM      7  C   LIG d   1       4.661  -5.342  -5.557  0.00  0.00    -0.046 A 
ATOM      8  C   LIG d   1       4.596  -3.968  -5.782  0.00  0.00     0.080 A 
ATOM      9  C   LIG d   1       4.324  -3.489  -7.073  0.00  0.00     0.151 A 
ATOM     10  O   LIG d   1       4.254  -2.167  -7.318  0.00  0.00    -0.454 OA
ATOM     11  C   LIG d   1       3.996  -1.676  -8.540  0.00  0.00     0.142 A 
ATOM     12  H   LIG d   1       4.037  -6.478  -8.674  0.00  0.00     0.063 H 
ATOM     13  H   LIG d   1       4.514  -7.296  -6.408  0.00  0.00     0.062 H 
ATOM     14  H   LIG d   1       4.870  -5.714  -4.565  0.00  0.00     0.063 H 
ENDROOT
BRANCH   8  15
ATOM     15  C   LIG d   1       4.810  -3.023  -4.669  0.00  0.00     0.248 C 
ATOM     16  O   LIG d   1       5.921  -2.884  -4.195  0.00  0.00    -0.270 OA
ATOM     17  N   LIG d   1       3.775  -2.314  -4.177  0.00  0.00    -0.309 N 
ATOM     18  H   LIG d   1       2.888  -2.425  -4.554  0.00  0.00     0.149 HD
BRANCH  17  19
ATOM     19  C   LIG d   1       3.989  -1.377  -3.071  0.00  0.00     0.035 C 
ATOM     20  H   LIG d   1       4.014  -1.926  -2.130  0.00  0.00     0.049 H 
ATOM     21  H   LIG d   1       4.935  -0.856  -3.215  0.00  0.00     0.049 H 
BRANCH  19  22
ATOM     22  C   LIG d   1       2.846  -0.360  -3.038  0.00  0.00     0.060 C 
ATOM     23  H   LIG d   1       2.257  -0.505  -2.131  0.00  0.00     0.057 H 
ATOM     24  H   LIG d   1       3.258   0.649  -3.045  0.00  0.00     0.057 H 
BRANCH  22  25
ATOM     25  O   LIG d   1       2.012  -0.543  -4.183  0.00  0.00    -0.394 OA
ATOM     26  H   LIG d   1       1.079  -0.338  -4.026  0.00  0.00     0.209 HD
ENDBRANCH  22  25
ENDBRANCH  19  22
ENDBRANCH  17  19
ENDBRANCH   8  15
BRANCH  11  27
ATOM     27  C   LIG d   1       3.938  -0.211  -8.719  0.00  0.00     0.018 A 
ATOM     28  C   LIG d   1       5.085   0.498  -9.082  0.00  0.00    -0.051 A 
ATOM     29  C   LIG d   1       5.024   1.866  -9.246  0.00  0.00    -0.061 A 
ATOM     30  H   LIG d   1       6.020  -0.023  -9.231  0.00  0.00     0.062 H 
ATOM     31  C   LIG d   1       3.828   2.536  -9.055  0.00  0.00    -0.062 A 
ATOM     32  H   LIG d   1       5.909   2.415  -9.526  0.00  0.00     0.062 H 
ATOM     33  C   LIG d   1       2.687   1.839  -8.695  0.00  0.00    -0.061 A 
ATOM     34  H   LIG d   1       3.785   3.607  -9.185  0.00  0.00     0.062 H 
ATOM     35  C   LIG d   1       2.733   0.471  -8.532  0.00  0.00    -0.051 A 
ATOM     36  H   LIG d   1       1.757   2.368  -8.547  0.00  0.00     0.062 H 
ATOM     37  H   LIG d   1       1.841  -0.072  -8.257  0.00  0.00     0.062 H 
ENDBRANCH  11  27
BRANCH   1  38
ATOM     38  C   LIG d   1       3.513  -1.870 -10.972  0.00  0.00    -0.033 C 
ATOM     39  H   LIG d   1       3.819  -2.567 -11.753  0.00  0.00     0.028 H 
ATOM     40  H   LIG d   1       2.446  -1.665 -11.065  0.00  0.00     0.028 H 
ATOM     41  H   LIG d   1       4.071  -0.940 -11.076  0.00  0.00     0.028 H 
ENDBRANCH   1  38
TORSDOF 6
ENDMDL
MODEL 3
REMARK VINA RESULT:      -6.1      3.168      5.340
REMARK  6 active torsions:
REMARK  status: ('A' for Active; 'I' for Inactive)
REMARK    1  A    between atoms: C_1  and  C_2 
REMARK    2  A    between atoms: C_9  and  C_19 
REMARK    3  A    between atoms: C_12  and  C_13 
REMARK       I    between atoms: C_19  and  N_21 
REMARK    4  A    between atoms: N_21  and  C_22 
REMARK    5  A    between atoms: C_22  and  C_23 
REMARK    6  A    between atoms: C_23  and  O_24 
ROOT
ATOM      1  C   LIG d   1       7.713  -1.018  -4.854  0.00  0.00     0.040 A 
ATOM      2  C   LIG d   1       6.973  -1.639  -3.820  0.00  0.00     0.196 A 
ATOM      3  O   LIG d   1       7.505  -2.398  -3.027  0.00  0.00    -0.287 OA
ATOM      4  C   LIG d   1       5.533  -1.327  -3.736  0.00  0.00     0.065 A 
ATOM      5  C   LIG d   1       4.727  -1.889  -2.747  0.00  0.00    -0.047 A 
ATOM      6  C   LIG d   1       3.383  -1.576  -2.695  0.00  0.00    -0.060 A 
ATOM      7  C   LIG d   1       2.828  -0.709  -3.618  0.00  0.00    -0.046 A 
ATOM      8  C   LIG d   1       3.618  -0.137  -4.614  0.00  0.00     0.080 A 
ATOM      9  C   LIG d   1       4.985  -0.446  -4.679  0.00  0.00     0.151 A 
ATOM     10  O   LIG d   1       5.770   0.092  -5.631  0.00  0.00    -0.454 OA
ATOM     11  C   LIG d   1       7.081  -0.182  -5.720  0.00  0.00     0.142 A 
ATOM     12  H   LIG d   1       5.152  -2.568  -2.023  0.00  0.00     0.063 H 
ATOM     13  H   LIG d   1       2.761  -2.014  -1.927  0.00  0.00     0.062 H 
ATOM     14  H   LIG d   1       1.776  -0.473  -3.565  0.00  0.00     0.063 H 
ENDROOT
BRANCH   8  15
ATOM     15  C   LIG d   1       3.018   0.787  -5.596  0.00  0.00     0.248 C 
ATOM     16  O   LIG d   1       2.336   1.720  -5.215  0.00  0.00    -0.270 OA
ATOM     17  N   LIG d   1       3.226   0.599  -6.913  0.00  0.00    -0.309 N 
ATOM     18  H   LIG d   1       3.769  -0.144  -7.218  0.00  0.00     0.149 HD
BRANCH  17  19
ATOM     19  C   LIG d   1       2.629   1.517  -7.887  0.00  0.00     0.035 C 
ATOM     20  H   LIG d   1       1.850   0.999  -8.446  0.00  0.00     0.049 H 
ATOM     21  H   LIG d   1       2.196   2.370  -7.365  0.00  0.00     0.049 H 
BRANCH  19  22
ATOM     22  C   LIG d   1       3.710   2.007  -8.854  0.00  0.00     0.060 C 
ATOM     23  H   LIG d   1       3.565   1.536  -9.828  0.00  0.00     0.057 H 
ATOM     24  H   LIG d   1       3.638   3.089  -8.961  0.00  0.00     0.057 H 
BRANCH  22  25
ATOM     25  O   LIG d   1       4.998   1.660  -8.344  0.00  0.00    -0.394 OA
ATOM     26  H   LIG d   1       5.620   2.401  -8.313  0.00  0.00     0.209 HD
ENDBRANCH  22  25
ENDBRANCH  19  22
ENDBRANCH  17  19
ENDBRANCH   8  15
BRANCH  11  27
ATOM     27  C   LIG d   1       7.867   0.452  -6.797  0.00  0.00     0.018 A 
ATOM     28  C   LIG d   1       8.067  -0.216  -8.007  0.00  0.00    -0.051 A 
ATOM     29  C   LIG d   1       8.804   0.382  -9.008  0.00  0.00    -0.061 A 
ATOM     30  H   LIG d   1       7.648  -1.200  -8.159  0.00  0.00     0.062 H 
ATOM     31  C   LIG d   1       9.343   1.642  -8.816  0.00  0.00    -0.062 A 
ATOM     32  H   LIG d   1       8.960  -0.133  -9.944  0.00  0.00     0.062 H 
ATOM     33  C   LIG d   1       9.150   2.310  -7.619  0.00  0.00    -0.061 A 
ATOM     34  H   LIG d   1       9.919   2.107  -9.603  0.00  0.00     0.062 H 
ATOM     35  C   LIG d   1       8.411   1.726  -6.612  0.00  0.00    -0.051 A 
ATOM     36  H   LIG d   1       9.573   3.293  -7.476  0.00  0.00     0.062 H 
ATOM     37  H   LIG d   1       8.255   2.250  -5.681  0.00  0.00     0.062 H 
ENDBRANCH  11  27
BRANCH   1  38
ATOM     38  C   LIG d   1       9.189  -1.285  -4.997  0.00  0.00    -0.033 C 
ATOM     39  H   LIG d   1       9.732  -0.340  -5.002  0.00  0.00     0.028 H 
ATOM     40  H   LIG d   1       9.531  -1.896  -4.161  0.00  0.00     0.028 H 
ATOM     41  H   LIG d   1       9.374  -1.815  -5.931  0.00  0.00     0.028 H 
ENDBRANCH   1  38
TORSDOF 6
ENDMDL
MODEL 4
REMARK VINA RESULT:      -6.1      3.564      6.956
REMARK  6 active torsions:
REMARK  status: ('A' for Active; 'I' for Inactive)
REMARK    1  A    between atoms: C_1  and  C_2 
REMARK    2  A    between atoms: C_9  and  C_19 
REMARK    3  A    between atoms: C_12  and  C_13 
REMARK       I    between atoms: C_19  and  N_21 
REMARK    4  A    between atoms: N_21  and  C_22 
REMARK    5  A    between atoms: C_22  and  C_23 
REMARK    6  A    between atoms: C_23  and  O_24 
ROOT
ATOM      1  C   LIG d   1       7.321  -1.281  -4.754  0.00  0.00     0.040 A 
ATOM      2  C   LIG d   1       8.367  -1.640  -5.637  0.00  0.00     0.196 A 
ATOM      3  O   LIG d   1       9.185  -2.493  -5.336  0.00  0.00    -0.287 OA
ATOM      4  C   LIG d   1       8.423  -0.946  -6.938  0.00  0.00     0.065 A 
ATOM      5  C   LIG d   1       9.416  -1.239  -7.872  0.00  0.00    -0.047 A 
ATOM      6  C   LIG d   1       9.442  -0.573  -9.080  0.00  0.00    -0.060 A 
ATOM      7  C   LIG d   1       8.490   0.386  -9.374  0.00  0.00    -0.046 A 
ATOM      8  C   LIG d   1       7.489   0.693  -8.453  0.00  0.00     0.080 A 
ATOM      9  C   LIG d   1       7.451   0.023  -7.221  0.00  0.00     0.151 A 
ATOM     10  O   LIG d   1       6.496   0.301  -6.313  0.00  0.00    -0.454 OA
ATOM     11  C   LIG d   1       6.431  -0.321  -5.126  0.00  0.00     0.142 A 
ATOM     12  H   LIG d   1      10.164  -1.986  -7.651  0.00  0.00     0.063 H 
ATOM     13  H   LIG d   1      10.212  -0.802  -9.802  0.00  0.00     0.062 H 
ATOM     14  H   LIG d   1       8.521   0.899 -10.323  0.00  0.00     0.063 H 
ENDROOT
BRANCH   8  15
ATOM     15  C   LIG d   1       6.476   1.718  -8.773  0.00  0.00     0.248 C 
ATOM     16  O   LIG d   1       6.824   2.842  -9.078  0.00  0.00    -0.270 OA
ATOM     17  N   LIG d   1       5.166   1.408  -8.727  0.00  0.00    -0.309 N 
ATOM     18  H   LIG d   1       4.887   0.511  -8.484  0.00  0.00     0.149 HD
BRANCH  17  19
ATOM     19  C   LIG d   1       4.161   2.426  -9.044  0.00  0.00     0.035 C 
ATOM     20  H   LIG d   1       4.483   3.390  -8.651  0.00  0.00     0.049 H 
ATOM     21  H   LIG d   1       4.042   2.495 -10.125  0.00  0.00     0.049 H 
BRANCH  19  22
ATOM     22  C   LIG d   1       2.824   2.037  -8.408  0.00  0.00     0.060 C 
ATOM     23  H   LIG d   1       2.252   2.940  -8.186  0.00  0.00     0.057 H 
ATOM     24  H   LIG d   1       2.261   1.411  -9.100  0.00  0.00     0.057 H 
BRANCH  22  25
ATOM     25  O   LIG d   1       3.064   1.316  -7.198  0.00  0.00    -0.394 OA
ATOM     26  H   LIG d   1       2.477   1.564  -6.470  0.00  0.00     0.209 HD
ENDBRANCH  22  25
ENDBRANCH  19  22
ENDBRANCH  17  19
ENDBRANCH   8  15
BRANCH  11  27
ATOM     27  C   LIG d   1       5.350   0.046  -4.190  0.00  0.00     0.018 A 
ATOM     28  C   LIG d   1       4.066  -0.475  -4.362  0.00  0.00    -0.051 A 
ATOM     29  C   LIG d   1       3.060  -0.128  -3.484  0.00  0.00    -0.061 A 
ATOM     30  H   LIG d   1       3.859  -1.148  -5.181  0.00  0.00     0.062 H 
ATOM     31  C   LIG d   1       3.322   0.735  -2.434  0.00  0.00    -0.062 A 
ATOM     32  H   LIG d   1       2.067  -0.529  -3.616  0.00  0.00     0.062 H 
ATOM     33  C   LIG d   1       4.592   1.256  -2.258  0.00  0.00    -0.061 A 
ATOM     34  H   LIG d   1       2.531   1.004  -1.749  0.00  0.00     0.062 H 
ATOM     35  C   LIG d   1       5.608   0.912  -3.125  0.00  0.00    -0.051 A 
ATOM     36  H   LIG d   1       4.789   1.928  -1.436  0.00  0.00     0.062 H 
ATOM     37  H   LIG d   1       6.600   1.315  -2.983  0.00  0.00     0.062 H 
ENDBRANCH  11  27
BRANCH   1  38
ATOM     38  C   LIG d   1       7.196  -1.952  -3.410  0.00  0.00    -0.033 C 
ATOM     39  H   LIG d   1       6.374  -1.502  -2.854  0.00  0.00     0.028 H 
ATOM     40  H   LIG d   1       7.001  -3.015  -3.552  0.00  0.00     0.028 H 
ATOM     41  H   LIG d   1       8.124  -1.825  -2.853  0.00  0.00     0.028 H 
ENDBRANCH   1  38
TORSDOF 6
ENDMDL
MODEL 5
REMARK VINA RESULT:      -6.0      1.232      2.110
REMARK  6 active torsions:
REMARK  status: ('A' for Active; 'I' for Inactive)
REMARK    1  A    between atoms: C_1  and  C_2 
REMARK    2  A    between atoms: C_9  and  C_19 
REMARK    3  A    between atoms: C_12  and  C_13 
REMARK       I    between atoms: C_19  and  N_21 
REMARK    4  A    between atoms: N_21  and  C_22 
REMARK    5  A    between atoms: C_22  and  C_23 
REMARK    6  A    between atoms: C_23  and  O_24 
ROOT
ATOM      1  C   LIG d   1       3.189   0.513  -6.918  0.00  0.00     0.040 A 
ATOM      2  C   LIG d   1       2.917   0.748  -5.549  0.00  0.00     0.196 A 
ATOM      3  O   LIG d   1       2.345   1.760  -5.181  0.00  0.00    -0.287 OA
ATOM      4  C   LIG d   1       3.347  -0.285  -4.587  0.00  0.00     0.065 A 
ATOM      5  C   LIG d   1       3.117  -0.141  -3.219  0.00  0.00    -0.047 A 
ATOM      6  C   LIG d   1       3.531  -1.125  -2.344  0.00  0.00    -0.060 A 
ATOM      7  C   LIG d   1       4.174  -2.255  -2.813  0.00  0.00    -0.046 A 
ATOM      8  C   LIG d   1       4.414  -2.418  -4.177  0.00  0.00     0.080 A 
ATOM      9  C   LIG d   1       3.998  -1.425  -5.077  0.00  0.00     0.151 A 
ATOM     10  O   LIG d   1       4.217  -1.557  -6.400  0.00  0.00    -0.454 OA
ATOM     11  C   LIG d   1       3.833  -0.627  -7.287  0.00  0.00     0.142 A 
ATOM     12  H   LIG d   1       2.615   0.739  -2.844  0.00  0.00     0.063 H 
ATOM     13  H   LIG d   1       3.351  -1.010  -1.285  0.00  0.00     0.062 H 
ATOM     14  H   LIG d   1       4.493  -3.017  -2.118  0.00  0.00     0.063 H 
ENDROOT
BRANCH   8  15
ATOM     15  C   LIG d   1       5.102  -3.627  -4.670  0.00  0.00     0.248 C 
ATOM     16  O   LIG d   1       4.476  -4.656  -4.839  0.00  0.00    -0.270 OA
ATOM     17  N   LIG d   1       6.422  -3.591  -4.933  0.00  0.00    -0.309 N 
ATOM     18  H   LIG d   1       6.922  -2.771  -4.798  0.00  0.00     0.149 HD
BRANCH  17  19
ATOM     19  C   LIG d   1       7.105  -4.792  -5.421  0.00  0.00     0.035 C 
ATOM     20  H   LIG d   1       6.448  -5.655  -5.309  0.00  0.00     0.049 H 
ATOM     21  H   LIG d   1       7.359  -4.663  -6.473  0.00  0.00     0.049 H 
BRANCH  19  22
ATOM     22  C   LIG d   1       8.384  -5.017  -4.612  0.00  0.00     0.060 C 
ATOM     23  H   LIG d   1       8.253  -5.881  -3.959  0.00  0.00     0.057 H 
ATOM     24  H   LIG d   1       9.217  -5.197  -5.291  0.00  0.00     0.057 H 
BRANCH  22  25
ATOM     25  O   LIG d   1       8.656  -3.858  -3.820  0.00  0.00    -0.394 OA
ATOM     26  H   LIG d   1       9.409  -3.338  -4.132  0.00  0.00     0.209 HD
ENDBRANCH  22  25
ENDBRANCH  19  22
ENDBRANCH  17  19
ENDBRANCH   8  15
BRANCH  11  27
ATOM     27  C   LIG d   1       4.114  -0.852  -8.719  0.00  0.00     0.018 A 
ATOM     28  C   LIG d   1       5.313  -0.404  -9.277  0.00  0.00    -0.051 A 
ATOM     29  C   LIG d   1       5.569  -0.617 -10.616  0.00  0.00    -0.061 A 
ATOM     30  H   LIG d   1       6.039   0.109  -8.664  0.00  0.00     0.062 H 
ATOM     31  C   LIG d   1       4.641  -1.274 -11.405  0.00  0.00    -0.062 A 
ATOM     32  H   LIG d   1       6.495  -0.272 -11.049  0.00  0.00     0.062 H 
ATOM     33  C   LIG d   1       3.450  -1.720 -10.858  0.00  0.00    -0.061 A 
ATOM     34  H   LIG d   1       4.846  -1.439 -12.453  0.00  0.00     0.062 H 
ATOM     35  C   LIG d   1       3.184  -1.518  -9.520  0.00  0.00    -0.051 A 
ATOM     36  H   LIG d   1       2.730  -2.232 -11.480  0.00  0.00     0.062 H 
ATOM     37  H   LIG d   1       2.257  -1.872  -9.093  0.00  0.00     0.062 H 
ENDBRANCH  11  27
BRANCH   1  38
ATOM     38  C   LIG d   1       2.773   1.521  -7.958  0.00  0.00    -0.033 C 
ATOM     39  H   LIG d   1       2.563   2.476  -7.476  0.00  0.00     0.028 H 
ATOM     40  H   LIG d   1       3.578   1.649  -8.683  0.00  0.00     0.028 H 
ATOM     41  H   LIG d   1       1.878   1.168  -8.470  0.00  0.00     0.028 H 
ENDBRANCH   1  38
TORSDOF 6
ENDMDL
MODEL 6
REMARK VINA RESULT:      -5.8     11.266     13.967
REMARK  6 active torsions:
REMARK  status: ('A' for Active; 'I' for Inactive)
REMARK    1  A    between atoms: C_1  and  C_2 
REMARK    2  A    between atoms: C_9  and  C_19 
REMARK    3  A    between atoms: C_12  and  C_13 
REMARK       I    between atoms: C_19  and  N_21 
REMARK    4  A    between atoms: N_21  and  C_22 
REMARK    5  A    between atoms: C_22  and  C_23 
REMARK    6  A    between atoms: C_23  and  O_24 
ROOT
ATOM      1  C   LIG d   1      10.679   6.441  -1.274  0.00  0.00     0.040 A 
ATOM      2  C   LIG d   1      10.440   5.451  -2.257  0.00  0.00     0.196 A 
ATOM      3  O   LIG d   1      10.472   4.264  -1.982  0.00  0.00    -0.287 OA
ATOM      4  C   LIG d   1      10.143   5.915  -3.627  0.00  0.00     0.065 A 
ATOM      5  C   LIG d   1       9.890   5.012  -4.658  0.00  0.00    -0.047 A 
ATOM      6  C   LIG d   1       9.615   5.477  -5.928  0.00  0.00    -0.060 A 
ATOM      7  C   LIG d   1       9.590   6.835  -6.188  0.00  0.00    -0.046 A 
ATOM      8  C   LIG d   1       9.840   7.754  -5.170  0.00  0.00     0.080 A 
ATOM      9  C   LIG d   1      10.120   7.295  -3.874  0.00  0.00     0.151 A 
ATOM     10  O   LIG d   1      10.367   8.161  -2.873  0.00  0.00    -0.454 OA
ATOM     11  C   LIG d   1      10.638   7.755  -1.623  0.00  0.00     0.142 A 
ATOM     12  H   LIG d   1       9.908   3.949  -4.464  0.00  0.00     0.063 H 
ATOM     13  H   LIG d   1       9.420   4.774  -6.725  0.00  0.00     0.062 H 
ATOM     14  H   LIG d   1       9.373   7.185  -7.186  0.00  0.00     0.063 H 
ENDROOT
BRANCH   8  15
ATOM     15  C   LIG d   1       9.812   9.202  -5.455  0.00  0.00     0.248 C 
ATOM     16  O   LIG d   1      10.329   9.633  -6.468  0.00  0.00    -0.270 OA
ATOM     17  N   LIG d   1       9.212  10.047  -4.594  0.00  0.00    -0.309 N 
ATOM     18  H   LIG d   1       8.800   9.704  -3.786  0.00  0.00     0.149 HD
BRANCH  17  19
ATOM     19  C   LIG d   1       9.185  11.484  -4.877  0.00  0.00     0.035 C 
ATOM     20  H   LIG d   1      10.182  11.817  -5.165  0.00  0.00     0.049 H 
ATOM     21  H   LIG d   1       8.487  11.681  -5.690  0.00  0.00     0.049 H 
BRANCH  19  22
ATOM     22  C   LIG d   1       8.736  12.241  -3.625  0.00  0.00     0.060 C 
ATOM     23  H   LIG d   1       9.542  12.235  -2.889  0.00  0.00     0.057 H 
ATOM     24  H   LIG d   1       8.495  13.271  -3.890  0.00  0.00     0.057 H 
BRANCH  22  25
ATOM     25  O   LIG d   1       7.581  11.607  -3.073  0.00  0.00    -0.394 OA
ATOM     26  H   LIG d   1       7.766  10.763  -2.639  0.00  0.00     0.209 HD
ENDBRANCH  22  25
ENDBRANCH  19  22
ENDBRANCH  17  19
ENDBRANCH   8  15
BRANCH  11  27
ATOM     27  C   LIG d   1      10.897   8.773  -0.586  0.00  0.00     0.018 A 
ATOM     28  C   LIG d   1       9.912   9.708  -0.260  0.00  0.00    -0.051 A 
ATOM     29  C   LIG d   1      10.161  10.658   0.710  0.00  0.00    -0.061 A 
ATOM     30  H   LIG d   1       8.958   9.690  -0.766  0.00  0.00     0.062 H 
ATOM     31  C   LIG d   1      11.382  10.684   1.359  0.00  0.00    -0.062 A 
ATOM     32  H   LIG d   1       9.401  11.381   0.963  0.00  0.00     0.062 H 
ATOM     33  C   LIG d   1      12.363   9.761   1.040  0.00  0.00    -0.061 A 
ATOM     34  H   LIG d   1      11.572  11.429   2.118  0.00  0.00     0.062 H 
ATOM     35  C   LIG d   1      12.126   8.803   0.077  0.00  0.00    -0.051 A 
ATOM     36  H   LIG d   1      13.314   9.787   1.552  0.00  0.00     0.062 H 
ATOM     37  H   LIG d   1      12.890   8.080  -0.166  0.00  0.00     0.062 H 
ENDBRANCH  11  27
BRANCH   1  38
ATOM     38  C   LIG d   1      10.982   6.041   0.147  0.00  0.00    -0.033 C 
ATOM     39  H   LIG d   1      10.301   6.559   0.824  0.00  0.00     0.028 H 
ATOM     40  H   LIG d   1      10.854   4.964   0.257  0.00  0.00     0.028 H 
ATOM     41  H   LIG d   1      12.010   6.310   0.389  0.00  0.00     0.028 H 
ENDBRANCH   1  38
TORSDOF 6
ENDMDL
MODEL 7
REMARK VINA RESULT:      -5.8     10.474     13.194
REMARK  6 active torsions:
REMARK  status: ('A' for Active; 'I' for Inactive)
REMARK    1  A    between atoms: C_1  and  C_2 
REMARK    2  A    between atoms: C_9  and  C_19 
REMARK    3  A    between atoms: C_12  and  C_13 
REMARK       I    between atoms: C_19  and  N_21 
REMARK    4  A    between atoms: N_21  and  C_22 
REMARK    5  A    between atoms: C_22  and  C_23 
REMARK    6  A    between atoms: C_23  and  O_24 
ROOT
ATOM      1  C   LIG d   1      10.487   5.309  -4.431  0.00  0.00     0.040 A 
ATOM      2  C   LIG d   1      10.131   5.064  -5.778  0.00  0.00     0.196 A 
ATOM      3  O   LIG d   1      10.087   3.930  -6.226  0.00  0.00    -0.287 OA
ATOM      4  C   LIG d   1       9.808   6.234  -6.618  0.00  0.00     0.065 A 
ATOM      5  C   LIG d   1       9.442   6.088  -7.955  0.00  0.00    -0.047 A 
ATOM      6  C   LIG d   1       9.146   7.202  -8.713  0.00  0.00    -0.060 A 
ATOM      7  C   LIG d   1       9.210   8.467  -8.158  0.00  0.00    -0.046 A 
ATOM      8  C   LIG d   1       9.575   8.634  -6.822  0.00  0.00     0.080 A 
ATOM      9  C   LIG d   1       9.878   7.510  -6.039  0.00  0.00     0.151 A 
ATOM     10  O   LIG d   1      10.233   7.643  -4.747  0.00  0.00    -0.454 OA
ATOM     11  C   LIG d   1      10.529   6.588  -3.972  0.00  0.00     0.142 A 
ATOM     12  H   LIG d   1       9.390   5.104  -8.397  0.00  0.00     0.063 H 
ATOM     13  H   LIG d   1       8.863   7.085  -9.749  0.00  0.00     0.062 H 
ATOM     14  H   LIG d   1       8.976   9.330  -8.762  0.00  0.00     0.063 H 
ENDROOT
BRANCH   8  15
ATOM     15  C   LIG d   1       9.641   9.987  -6.236  0.00  0.00     0.248 C 
ATOM     16  O   LIG d   1      10.168  10.892  -6.853  0.00  0.00    -0.270 OA
ATOM     17  N   LIG d   1       9.119  10.219  -5.016  0.00  0.00    -0.309 N 
ATOM     18  H   LIG d   1       8.699   9.498  -4.522  0.00  0.00     0.149 HD
BRANCH  17  19
ATOM     19  C   LIG d   1       9.186  11.562  -4.434  0.00  0.00     0.035 C 
ATOM     20  H   LIG d   1      10.210  11.932  -4.489  0.00  0.00     0.049 H 
ATOM     21  H   LIG d   1       8.528  12.231  -4.987  0.00  0.00     0.049 H 
BRANCH  19  22
ATOM     22  C   LIG d   1       8.743  11.506  -2.970  0.00  0.00     0.060 C 
ATOM     23  H   LIG d   1       9.202  10.644  -2.485  0.00  0.00     0.057 H 
ATOM     24  H   LIG d   1       9.055  12.418  -2.461  0.00  0.00     0.057 H 
BRANCH  22  25
ATOM     25  O   LIG d   1       7.320  11.388  -2.908  0.00  0.00    -0.394 OA
ATOM     26  H   LIG d   1       6.854  12.235  -2.936  0.00  0.00     0.209 HD
ENDBRANCH  22  25
ENDBRANCH  19  22
ENDBRANCH  17  19
ENDBRANCH   8  15
BRANCH  11  27
ATOM     27  C   LIG d   1      10.909   6.826  -2.565  0.00  0.00     0.018 A 
ATOM     28  C   LIG d   1       9.924   6.947  -1.583  0.00  0.00    -0.051 A 
ATOM     29  C   LIG d   1      10.286   7.170  -0.271  0.00  0.00    -0.061 A 
ATOM     30  H   LIG d   1       8.880   6.868  -1.849  0.00  0.00     0.062 H 
ATOM     31  C   LIG d   1      11.623   7.272   0.074  0.00  0.00    -0.062 A 
ATOM     32  H   LIG d   1       9.527   7.264   0.490  0.00  0.00     0.062 H 
ATOM     33  C   LIG d   1      12.605   7.154  -0.895  0.00  0.00    -0.061 A 
ATOM     34  H   LIG d   1      11.902   7.447   1.102  0.00  0.00     0.062 H 
ATOM     35  C   LIG d   1      12.257   6.926  -2.210  0.00  0.00    -0.051 A 
ATOM     36  H   LIG d   1      13.646   7.234  -0.620  0.00  0.00     0.062 H 
ATOM     37  H   LIG d   1      13.024   6.828  -2.963  0.00  0.00     0.062 H 
ENDBRANCH  11  27
BRANCH   1  38
ATOM     38  C   LIG d   1      10.823   4.161  -3.514  0.00  0.00    -0.033 C 
ATOM     39  H   LIG d   1      10.170   4.190  -2.641  0.00  0.00     0.028 H 
ATOM     40  H   LIG d   1      10.681   3.219  -4.043  0.00  0.00     0.028 H 
ATOM     41  H   LIG d   1      11.861   4.244  -3.193  0.00  0.00     0.028 H 
ENDBRANCH   1  38
TORSDOF 6
ENDMDL
MODEL 8
REMARK VINA RESULT:      -5.6     12.068     14.636
REMARK  6 active torsions:
REMARK  status: ('A' for Active; 'I' for Inactive)
REMARK    1  A    between atoms: C_1  and  C_2 
REMARK    2  A    between atoms: C_9  and  C_19 
REMARK    3  A    between atoms: C_12  and  C_13 
REMARK       I    between atoms: C_19  and  N_21 
REMARK    4  A    between atoms: N_21  and  C_22 
REMARK    5  A    between atoms: C_22  and  C_23 
REMARK    6  A    between atoms: C_23  and  O_24 
ROOT
ATOM      1  C   LIG d   1      11.076   7.799   0.490  0.00  0.00     0.040 A 
ATOM      2  C   LIG d   1      10.864   6.477   0.031  0.00  0.00     0.196 A 
ATOM      3  O   LIG d   1      10.960   5.522   0.783  0.00  0.00    -0.287 OA
ATOM      4  C   LIG d   1      10.515   6.302  -1.393  0.00  0.00     0.065 A 
ATOM      5  C   LIG d   1      10.285   5.037  -1.932  0.00  0.00    -0.047 A 
ATOM      6  C   LIG d   1       9.961   4.907  -3.267  0.00  0.00    -0.060 A 
ATOM      7  C   LIG d   1       9.863   6.023  -4.078  0.00  0.00    -0.046 A 
ATOM      8  C   LIG d   1      10.091   7.296  -3.558  0.00  0.00     0.080 A 
ATOM      9  C   LIG d   1      10.421   7.443  -2.202  0.00  0.00     0.151 A 
ATOM     10  O   LIG d   1      10.646   8.661  -1.674  0.00  0.00    -0.454 OA
ATOM     11  C   LIG d   1      10.964   8.836  -0.382  0.00  0.00     0.142 A 
ATOM     12  H   LIG d   1      10.359   4.160  -1.305  0.00  0.00     0.063 H 
ATOM     13  H   LIG d   1       9.782   3.925  -3.681  0.00  0.00     0.062 H 
ATOM     14  H   LIG d   1       9.609   5.906  -5.120  0.00  0.00     0.063 H 
ENDROOT
BRANCH   8  15
ATOM     15  C   LIG d   1       9.986   8.482  -4.429  0.00  0.00     0.248 C 
ATOM     16  O   LIG d   1      10.520   8.484  -5.522  0.00  0.00    -0.270 OA
ATOM     17  N   LIG d   1       9.298   9.565  -4.015  0.00  0.00    -0.309 N 
ATOM     18  H   LIG d   1       8.873   9.565  -3.143  0.00  0.00     0.149 HD
BRANCH  17  19
ATOM     19  C   LIG d   1       9.195  10.742  -4.880  0.00  0.00     0.035 C 
ATOM     20  H   LIG d   1      10.154  10.923  -5.365  0.00  0.00     0.049 H 
ATOM     21  H   LIG d   1       8.431  10.570  -5.638  0.00  0.00     0.049 H 
BRANCH  19  22
ATOM     22  C   LIG d   1       8.813  11.962  -4.038  0.00  0.00     0.060 C 
ATOM     23  H   LIG d   1       9.672  12.275  -3.443  0.00  0.00     0.057 H 
ATOM     24  H   LIG d   1       8.510  12.776  -4.696  0.00  0.00     0.057 H 
BRANCH  22  25
ATOM     25  O   LIG d   1       7.731  11.620  -3.170  0.00  0.00    -0.394 OA
ATOM     26  H   LIG d   1       7.376  12.370  -2.671  0.00  0.00     0.209 HD
ENDBRANCH  22  25
ENDBRANCH  19  22
ENDBRANCH  17  19
ENDBRANCH   8  15
BRANCH  11  27
ATOM     27  C   LIG d   1      11.195  10.208   0.113  0.00  0.00     0.018 A 
ATOM     28  C   LIG d   1      12.497  10.677   0.300  0.00  0.00    -0.051 A 
ATOM     29  C   LIG d   1      12.705  11.959   0.764  0.00  0.00    -0.061 A 
ATOM     30  H   LIG d   1      13.340  10.037   0.084  0.00  0.00     0.062 H 
ATOM     31  C   LIG d   1      11.627  12.781   1.042  0.00  0.00    -0.062 A 
ATOM     32  H   LIG d   1      13.711  12.323   0.909  0.00  0.00     0.062 H 
ATOM     33  C   LIG d   1      10.334  12.323   0.860  0.00  0.00    -0.061 A 
ATOM     34  H   LIG d   1      11.796  13.785   1.405  0.00  0.00     0.062 H 
ATOM     35  C   LIG d   1      10.112  11.045   0.392  0.00  0.00    -0.051 A 
ATOM     36  H   LIG d   1       9.497  12.970   1.079  0.00  0.00     0.062 H 
ATOM     37  H   LIG d   1       9.102  10.691   0.244  0.00  0.00     0.062 H 
ENDBRANCH  11  27
BRANCH   1  38
ATOM     38  C   LIG d   1      11.428   8.054   1.933  0.00  0.00    -0.033 C 
ATOM     39  H   LIG d   1      12.428   8.486   1.992  0.00  0.00     0.028 H 
ATOM     40  H   LIG d   1      10.707   8.746   2.367  0.00  0.00     0.028 H 
ATOM     41  H   LIG d   1      11.405   7.115   2.485  0.00  0.00     0.028 H 
ENDBRANCH   1  38
TORSDOF 6
ENDMDL
MODEL 9
REMARK VINA RESULT:      -5.6     12.276     14.258
REMARK  6 active torsions:
REMARK  status: ('A' for Active; 'I' for Inactive)
REMARK    1  A    between atoms: C_1  and  C_2 
REMARK    2  A    between atoms: C_9  and  C_19 
REMARK    3  A    between atoms: C_12  and  C_13 
REMARK       I    between atoms: C_19  and  N_21 
REMARK    4  A    between atoms: N_21  and  C_22 
REMARK    5  A    between atoms: C_22  and  C_23 
REMARK    6  A    between atoms: C_23  and  O_24 
ROOT
ATOM      1  C   LIG d   1      11.171   6.547  -0.773  0.00  0.00     0.040 A 
ATOM      2  C   LIG d   1      11.451   6.937   0.558  0.00  0.00     0.196 A 
ATOM      3  O   LIG d   1      11.651   6.111   1.433  0.00  0.00    -0.287 OA
ATOM      4  C   LIG d   1      11.499   8.385   0.844  0.00  0.00     0.065 A 
ATOM      5  C   LIG d   1      11.773   8.861   2.125  0.00  0.00    -0.047 A 
ATOM      6  C   LIG d   1      11.811  10.221   2.359  0.00  0.00    -0.060 A 
ATOM      7  C   LIG d   1      11.578  11.117   1.333  0.00  0.00    -0.046 A 
ATOM      8  C   LIG d   1      11.302  10.660   0.044  0.00  0.00     0.080 A 
ATOM      9  C   LIG d   1      11.261   9.281  -0.208  0.00  0.00     0.151 A 
ATOM     10  O   LIG d   1      10.997   8.812  -1.443  0.00  0.00    -0.454 OA
ATOM     11  C   LIG d   1      10.949   7.500  -1.717  0.00  0.00     0.142 A 
ATOM     12  H   LIG d   1      11.956   8.168   2.933  0.00  0.00     0.063 H 
ATOM     13  H   LIG d   1      12.024  10.587   3.353  0.00  0.00     0.062 H 
ATOM     14  H   LIG d   1      11.611  12.178   1.530  0.00  0.00     0.063 H 
ENDROOT
BRANCH   8  15
ATOM     15  C   LIG d   1      11.055  11.623  -1.046  0.00  0.00     0.248 C 
ATOM     16  O   LIG d   1      11.984  12.232  -1.542  0.00  0.00    -0.270 OA
ATOM     17  N   LIG d   1       9.801  11.827  -1.494  0.00  0.00    -0.309 N 
ATOM     18  H   LIG d   1       9.060  11.341  -1.099  0.00  0.00     0.149 HD
BRANCH  17  19
ATOM     19  C   LIG d   1       9.556  12.783  -2.576  0.00  0.00     0.035 C 
ATOM     20  H   LIG d   1       9.056  13.665  -2.176  0.00  0.00     0.049 H 
ATOM     21  H   LIG d   1      10.505  13.075  -3.025  0.00  0.00     0.049 H 
BRANCH  19  22
ATOM     22  C   LIG d   1       8.668  12.133  -3.640  0.00  0.00     0.060 C 
ATOM     23  H   LIG d   1       8.362  12.887  -4.367  0.00  0.00     0.057 H 
ATOM     24  H   LIG d   1       9.225  11.345  -4.146  0.00  0.00     0.057 H 
BRANCH  22  25
ATOM     25  O   LIG d   1       7.510  11.575  -3.016  0.00  0.00    -0.394 OA
ATOM     26  H   LIG d   1       7.704  10.849  -2.406  0.00  0.00     0.209 HD
ENDBRANCH  22  25
ENDBRANCH  19  22
ENDBRANCH  17  19
ENDBRANCH   8  15
BRANCH  11  27
ATOM     27  C   LIG d   1      10.652   7.074  -3.100  0.00  0.00     0.018 A 
ATOM     28  C   LIG d   1       9.358   6.682  -3.450  0.00  0.00    -0.051 A 
ATOM     29  C   LIG d   1       9.087   6.285  -4.743  0.00  0.00    -0.061 A 
ATOM     30  H   LIG d   1       8.571   6.688  -2.711  0.00  0.00     0.062 H 
ATOM     31  C   LIG d   1      10.094   6.275  -5.692  0.00  0.00    -0.062 A 
ATOM     32  H   LIG d   1       8.088   5.981  -5.015  0.00  0.00     0.062 H 
ATOM     33  C   LIG d   1      11.379   6.661  -5.352  0.00  0.00    -0.061 A 
ATOM     34  H   LIG d   1       9.877   5.963  -6.703  0.00  0.00     0.062 H 
ATOM     35  C   LIG d   1      11.662   7.066  -4.064  0.00  0.00    -0.051 A 
ATOM     36  H   LIG d   1      12.160   6.651  -6.098  0.00  0.00     0.062 H 
ATOM     37  H   LIG d   1      12.663   7.373  -3.802  0.00  0.00     0.062 H 
ENDBRANCH  11  27
BRANCH   1  38
ATOM     38  C   LIG d   1      11.112   5.086  -1.139  0.00  0.00    -0.033 C 
ATOM     39  H   LIG d   1      11.053   4.985  -2.223  0.00  0.00     0.028 H 
ATOM     40  H   LIG d   1      12.009   4.584  -0.775  0.00  0.00     0.028 H 
ATOM     41  H   LIG d   1      10.233   4.632  -0.684  0.00  0.00     0.028 H 
ENDBRANCH   1  38
TORSDOF 6
ENDMDL
