MODEL 1
REMARK VINA RESULT:      -5.1      0.000      0.000
REMARK  2 active torsions:
REMARK  status: ('A' for Active; 'I' for Inactive)
REMARK    1  A    between atoms: C_3  and  C_10 
REMARK    2  A    between atoms: C_6  and  C_7 
REMARK       I    between atoms: C_7  and  N_9 
ROOT
ATOM      1  C   LIG d   1       4.956  -1.485  -5.208  0.00  0.00    -0.049 A 
ATOM      2  C   LIG d   1       4.818  -0.267  -4.578  0.00  0.00    -0.052 A 
ATOM      3  C   LIG d   1       4.422  -0.214  -3.240  0.00  0.00    -0.003 A 
ATOM      4  C   LIG d   1       4.163  -1.395  -2.542  0.00  0.00    -0.052 A 
ATOM      5  C   LIG d   1       4.298  -2.612  -3.174  0.00  0.00    -0.049 A 
ATOM      6  C   LIG d   1       4.693  -2.665  -4.511  0.00  0.00     0.036 A 
ATOM      7  H   LIG d   1       5.266  -1.526  -6.242  0.00  0.00     0.062 H 
ATOM      8  H   LIG d   1       5.018   0.646  -5.119  0.00  0.00     0.062 H 
ATOM      9  H   LIG d   1       3.857  -1.354  -1.507  0.00  0.00     0.062 H 
ATOM     10  H   LIG d   1       4.097  -3.525  -2.633  0.00  0.00     0.062 H 
ENDROOT
BRANCH   6  11
ATOM     11  C   LIG d   1       4.837  -3.973  -5.189  0.00  0.00     0.241 C 
ATOM     12  O   LIG d   1       5.904  -4.554  -5.167  0.00  0.00    -0.270 OA
ATOM     13  N   LIG d   1       3.783  -4.522  -5.825  0.00  0.00    -0.325 N 
ATOM     14  H   LIG d   1       3.877  -5.381  -6.266  0.00  0.00     0.145 HD
ATOM     15  H   LIG d   1       2.932  -4.058  -5.842  0.00  0.00     0.145 HD
ENDBRANCH   6  11
BRANCH   3  16
ATOM     16  C   LIG d   1       4.278   1.093  -2.563  0.00  0.00     0.072 C 
ATOM     17  O   LIG d   1       3.770   2.028  -3.148  0.00  0.00    -0.545 OA
ATOM     18  O   LIG d   1       4.711   1.247  -1.297  0.00  0.00    -0.545 OA
ENDBRANCH   3  16
TORSDOF 2
ENDMDL
MODEL 2
REMARK VINA RESULT:      -5.1      3.019      4.063
REMARK  2 active torsions:
REMARK  status: ('A' for Active; 'I' for Inactive)
REMARK    1  A    between atoms: C_3  and  C_10 
REMARK    2  A    between atoms: C_6  and  C_7 
REMARK       I    between atoms: C_7  and  N_9 
ROOT
ATOM      1  C   LIG d   1       4.149  -0.822  -6.209  0.00  0.00    -0.049 A 
ATOM      2  C   LIG d   1       4.390  -1.377  -4.970  0.00  0.00    -0.052 A 
ATOM      3  C   LIG d   1       3.630  -0.981  -3.869  0.00  0.00    -0.003 A 
ATOM      4  C   LIG d   1       2.629  -0.020  -4.021  0.00  0.00    -0.052 A 
ATOM      5  C   LIG d   1       2.391   0.536  -5.259  0.00  0.00    -0.049 A 
ATOM      6  C   LIG d   1       3.152   0.141  -6.360  0.00  0.00     0.036 A 
ATOM      7  H   LIG d   1       4.735  -1.132  -7.062  0.00  0.00     0.062 H 
ATOM      8  H   LIG d   1       5.165  -2.120  -4.853  0.00  0.00     0.062 H 
ATOM      9  H   LIG d   1       2.040   0.286  -3.168  0.00  0.00     0.062 H 
ATOM     10  H   LIG d   1       1.617   1.280  -5.376  0.00  0.00     0.062 H 
ENDROOT
BRANCH   6  11
ATOM     11  C   LIG d   1       2.896   0.740  -7.690  0.00  0.00     0.241 C 
ATOM     12  O   LIG d   1       3.112   1.922  -7.875  0.00  0.00    -0.270 OA
ATOM     13  N   LIG d   1       2.430  -0.027  -8.695  0.00  0.00    -0.325 N 
ATOM     14  H   LIG d   1       2.266   0.365  -9.567  0.00  0.00     0.145 HD
ATOM     15  H   LIG d   1       2.258  -0.970  -8.546  0.00  0.00     0.145 HD
ENDBRANCH   6  11
BRANCH   3  16
ATOM     16  C   LIG d   1       3.885  -1.579  -2.540  0.00  0.00     0.072 C 
ATOM     17  O   LIG d   1       3.651  -2.755  -2.348  0.00  0.00    -0.545 OA
ATOM     18  O   LIG d   1       4.377  -0.820  -1.542  0.00  0.00    -0.545 OA
ENDBRANCH   3  16
TORSDOF 2
ENDMDL
MODEL 3
REMARK VINA RESULT:      -5.0      2.170      4.953
REMARK  2 active torsions:
REMARK  status: ('A' for Active; 'I' for Inactive)
REMARK    1  A    between atoms: C_3  and  C_10 
REMARK    2  A    between atoms: C_6  and  C_7 
REMARK       I    between atoms: C_7  and  N_9 
ROOT
ATOM      1  C   LIG d   1       5.286  -0.370  -4.247  0.00  0.00    -0.049 A 
ATOM      2  C   LIG d   1       5.487  -1.604  -4.827  0.00  0.00    -0.052 A 
ATOM      3  C   LIG d   1       4.937  -2.746  -4.246  0.00  0.00    -0.003 A 
ATOM      4  C   LIG d   1       4.186  -2.640  -3.073  0.00  0.00    -0.052 A 
ATOM      5  C   LIG d   1       3.989  -1.407  -2.492  0.00  0.00    -0.049 A 
ATOM      6  C   LIG d   1       4.539  -0.264  -3.073  0.00  0.00     0.036 A 
ATOM      7  H   LIG d   1       5.709   0.515  -4.700  0.00  0.00     0.062 H 
ATOM      8  H   LIG d   1       6.069  -1.685  -5.734  0.00  0.00     0.062 H 
ATOM      9  H   LIG d   1       3.760  -3.525  -2.623  0.00  0.00     0.062 H 
ATOM     10  H   LIG d   1       3.408  -1.326  -1.585  0.00  0.00     0.062 H 
ENDROOT
BRANCH   6  11
ATOM     11  C   LIG d   1       4.327   1.061  -2.447  0.00  0.00     0.241 C 
ATOM     12  O   LIG d   1       4.710   1.265  -1.312  0.00  0.00    -0.270 OA
ATOM     13  N   LIG d   1       3.715   2.041  -3.139  0.00  0.00    -0.325 N 
ATOM     14  H   LIG d   1       3.579   2.911  -2.730  0.00  0.00     0.145 HD
ATOM     15  H   LIG d   1       3.409   1.878  -4.045  0.00  0.00     0.145 HD
ENDBRANCH   6  11
BRANCH   3  16
ATOM     16  C   LIG d   1       5.150  -4.070  -4.871  0.00  0.00     0.072 C 
ATOM     17  O   LIG d   1       6.261  -4.400  -5.233  0.00  0.00    -0.545 OA
ATOM     18  O   LIG d   1       4.110  -4.910  -5.039  0.00  0.00    -0.545 OA
ENDBRANCH   3  16
TORSDOF 2
ENDMDL
MODEL 4
REMARK VINA RESULT:      -5.0      3.493      4.304
REMARK  2 active torsions:
REMARK  status: ('A' for Active; 'I' for Inactive)
REMARK    1  A    between atoms: C_3  and  C_10 
REMARK    2  A    between atoms: C_6  and  C_7 
REMARK       I    between atoms: C_7  and  N_9 
ROOT
ATOM      1  C   LIG d   1       4.455  -1.228  -5.004  0.00  0.00    -0.049 A 
ATOM      2  C   LIG d   1       4.209  -0.674  -6.242  0.00  0.00    -0.052 A 
ATOM      3  C   LIG d   1       3.141   0.208  -6.412  0.00  0.00    -0.003 A 
ATOM      4  C   LIG d   1       2.320   0.528  -5.329  0.00  0.00    -0.052 A 
ATOM      5  C   LIG d   1       2.565  -0.029  -4.092  0.00  0.00    -0.049 A 
ATOM      6  C   LIG d   1       3.632  -0.912  -3.923  0.00  0.00     0.036 A 
ATOM      7  H   LIG d   1       5.284  -1.908  -4.872  0.00  0.00     0.062 H 
ATOM      8  H   LIG d   1       4.844  -0.922  -7.080  0.00  0.00     0.062 H 
ATOM      9  H   LIG d   1       1.494   1.211  -5.460  0.00  0.00     0.062 H 
ATOM     10  H   LIG d   1       1.929   0.218  -3.255  0.00  0.00     0.062 H 
ENDROOT
BRANCH   6  11
ATOM     11  C   LIG d   1       3.894  -1.510  -2.594  0.00  0.00     0.241 C 
ATOM     12  O   LIG d   1       3.621  -2.677  -2.388  0.00  0.00    -0.270 OA
ATOM     13  N   LIG d   1       4.440  -0.762  -1.615  0.00  0.00    -0.325 N 
ATOM     14  H   LIG d   1       4.615  -1.155  -0.745  0.00  0.00     0.145 HD
ATOM     15  H   LIG d   1       4.657   0.169  -1.779  0.00  0.00     0.145 HD
ENDBRANCH   6  11
BRANCH   3  16
ATOM     16  C   LIG d   1       2.879   0.806  -7.740  0.00  0.00     0.072 C 
ATOM     17  O   LIG d   1       3.140   1.975  -7.942  0.00  0.00    -0.545 OA
ATOM     18  O   LIG d   1       2.351   0.054  -8.725  0.00  0.00    -0.545 OA
ENDBRANCH   3  16
TORSDOF 2
ENDMDL
MODEL 5
REMARK VINA RESULT:      -4.7      3.496      4.564
REMARK  2 active torsions:
REMARK  status: ('A' for Active; 'I' for Inactive)
REMARK    1  A    between atoms: C_3  and  C_10 
REMARK    2  A    between atoms: C_6  and  C_7 
REMARK       I    between atoms: C_7  and  N_9 
ROOT
ATOM      1  C   LIG d   1       5.973   1.319  -3.104  0.00  0.00    -0.049 A 
ATOM      2  C   LIG d   1       4.810   0.632  -2.831  0.00  0.00    -0.052 A 
ATOM      3  C   LIG d   1       4.753  -0.749  -3.028  0.00  0.00    -0.003 A 
ATOM      4  C   LIG d   1       5.872  -1.433  -3.505  0.00  0.00    -0.052 A 
ATOM      5  C   LIG d   1       7.033  -0.744  -3.781  0.00  0.00    -0.049 A 
ATOM      6  C   LIG d   1       7.091   0.636  -3.586  0.00  0.00     0.036 A 
ATOM      7  H   LIG d   1       6.018   2.387  -2.948  0.00  0.00     0.062 H 
ATOM      8  H   LIG d   1       3.944   1.162  -2.462  0.00  0.00     0.062 H 
ATOM      9  H   LIG d   1       5.828  -2.501  -3.657  0.00  0.00     0.062 H 
ATOM     10  H   LIG d   1       7.899  -1.274  -4.151  0.00  0.00     0.062 H 
ENDROOT
BRANCH   6  11
ATOM     11  C   LIG d   1       8.339   1.375  -3.883  0.00  0.00     0.241 C 
ATOM     12  O   LIG d   1       8.385   2.578  -3.721  0.00  0.00    -0.270 OA
ATOM     13  N   LIG d   1       9.424   0.711  -4.328  0.00  0.00    -0.325 N 
ATOM     14  H   LIG d   1      10.243   1.195  -4.519  0.00  0.00     0.145 HD
ATOM     15  H   LIG d   1       9.386  -0.249  -4.457  0.00  0.00     0.145 HD
ENDBRANCH   6  11
BRANCH   3  16
ATOM     16  C   LIG d   1       3.506  -1.487  -2.730  0.00  0.00     0.072 C 
ATOM     17  O   LIG d   1       2.430  -0.936  -2.849  0.00  0.00    -0.545 OA
ATOM     18  O   LIG d   1       3.563  -2.771  -2.327  0.00  0.00    -0.545 OA
ENDBRANCH   3  16
TORSDOF 2
ENDMDL
MODEL 6
REMARK VINA RESULT:      -4.4      2.954      3.357
REMARK  2 active torsions:
REMARK  status: ('A' for Active; 'I' for Inactive)
REMARK    1  A    between atoms: C_3  and  C_10 
REMARK    2  A    between atoms: C_6  and  C_7 
REMARK       I    between atoms: C_7  and  N_9 
ROOT
ATOM      1  C   LIG d   1       6.445  -1.380  -4.267  0.00  0.00    -0.049 A 
ATOM      2  C   LIG d   1       7.358  -0.368  -4.470  0.00  0.00    -0.052 A 
ATOM      3  C   LIG d   1       7.159   0.880  -3.879  0.00  0.00    -0.003 A 
ATOM      4  C   LIG d   1       6.033   1.105  -3.086  0.00  0.00    -0.052 A 
ATOM      5  C   LIG d   1       5.118   0.095  -2.887  0.00  0.00    -0.049 A 
ATOM      6  C   LIG d   1       5.316  -1.154  -3.479  0.00  0.00     0.036 A 
ATOM      7  H   LIG d   1       6.601  -2.348  -4.721  0.00  0.00     0.062 H 
ATOM      8  H   LIG d   1       8.230  -0.543  -5.083  0.00  0.00     0.062 H 
ATOM      9  H   LIG d   1       5.878   2.072  -2.629  0.00  0.00     0.062 H 
ATOM     10  H   LIG d   1       4.246   0.270  -2.274  0.00  0.00     0.062 H 
ENDROOT
BRANCH   6  11
ATOM     11  C   LIG d   1       4.332  -2.239  -3.264  0.00  0.00     0.241 C 
ATOM     12  O   LIG d   1       3.726  -2.311  -2.214  0.00  0.00    -0.270 OA
ATOM     13  N   LIG d   1       4.105  -3.143  -4.237  0.00  0.00    -0.325 N 
ATOM     14  H   LIG d   1       3.458  -3.853  -4.098  0.00  0.00     0.145 HD
ATOM     15  H   LIG d   1       4.590  -3.086  -5.076  0.00  0.00     0.145 HD
ENDBRANCH   6  11
BRANCH   3  16
ATOM     16  C   LIG d   1       8.142   1.965  -4.093  0.00  0.00     0.072 C 
ATOM     17  O   LIG d   1       7.973   2.771  -4.986  0.00  0.00    -0.545 OA
ATOM     18  O   LIG d   1       9.226   2.059  -3.299  0.00  0.00    -0.545 OA
ENDBRANCH   3  16
TORSDOF 2
ENDMDL
MODEL 7
REMARK VINA RESULT:      -4.4      2.794      3.315
REMARK  2 active torsions:
REMARK  status: ('A' for Active; 'I' for Inactive)
REMARK    1  A    between atoms: C_3  and  C_10 
REMARK    2  A    between atoms: C_6  and  C_7 
REMARK       I    between atoms: C_7  and  N_9 
ROOT
ATOM      1  C   LIG d   1       2.564   0.370  -5.951  0.00  0.00    -0.049 A 
ATOM      2  C   LIG d   1       2.669   0.571  -4.591  0.00  0.00    -0.052 A 
ATOM      3  C   LIG d   1       3.746   0.032  -3.887  0.00  0.00    -0.003 A 
ATOM      4  C   LIG d   1       4.715  -0.715  -4.559  0.00  0.00    -0.052 A 
ATOM      5  C   LIG d   1       4.608  -0.919  -5.917  0.00  0.00    -0.049 A 
ATOM      6  C   LIG d   1       3.530  -0.381  -6.621  0.00  0.00     0.036 A 
ATOM      7  H   LIG d   1       1.732   0.791  -6.496  0.00  0.00     0.062 H 
ATOM      8  H   LIG d   1       1.918   1.149  -4.072  0.00  0.00     0.062 H 
ATOM      9  H   LIG d   1       5.550  -1.132  -4.014  0.00  0.00     0.062 H 
ATOM     10  H   LIG d   1       5.358  -1.498  -6.436  0.00  0.00     0.062 H 
ENDROOT
BRANCH   6  11
ATOM     11  C   LIG d   1       3.415  -0.601  -8.081  0.00  0.00     0.241 C 
ATOM     12  O   LIG d   1       4.357  -1.051  -8.703  0.00  0.00    -0.270 OA
ATOM     13  N   LIG d   1       2.264  -0.309  -8.717  0.00  0.00    -0.325 N 
ATOM     14  H   LIG d   1       2.188  -0.457  -9.673  0.00  0.00     0.145 HD
ATOM     15  H   LIG d   1       1.512   0.051  -8.220  0.00  0.00     0.145 HD
ENDBRANCH   6  11
BRANCH   3  16
ATOM     16  C   LIG d   1       3.861   0.252  -2.428  0.00  0.00     0.072 C 
ATOM     17  O   LIG d   1       4.299  -0.627  -1.714  0.00  0.00    -0.545 OA
ATOM     18  O   LIG d   1       3.479   1.427  -1.892  0.00  0.00    -0.545 OA
ENDBRANCH   3  16
TORSDOF 2
ENDMDL
MODEL 8
REMARK VINA RESULT:      -4.3      9.284     10.323
REMARK  2 active torsions:
REMARK  status: ('A' for Active; 'I' for Inactive)
REMARK    1  A    between atoms: C_3  and  C_10 
REMARK    2  A    between atoms: C_6  and  C_7 
REMARK       I    between atoms: C_7  and  N_9 
ROOT
ATOM      1  C   LIG d   1      10.379   5.208  -2.361  0.00  0.00    -0.049 A 
ATOM      2  C   LIG d   1      10.812   5.245  -1.052  0.00  0.00    -0.052 A 
ATOM      3  C   LIG d   1      10.600   6.387  -0.279  0.00  0.00    -0.003 A 
ATOM      4  C   LIG d   1       9.954   7.494  -0.832  0.00  0.00    -0.052 A 
ATOM      5  C   LIG d   1       9.525   7.458  -2.141  0.00  0.00    -0.049 A 
ATOM      6  C   LIG d   1       9.738   6.316  -2.915  0.00  0.00     0.036 A 
ATOM      7  H   LIG d   1      10.540   4.322  -2.958  0.00  0.00     0.062 H 
ATOM      8  H   LIG d   1      11.312   4.388  -0.625  0.00  0.00     0.062 H 
ATOM      9  H   LIG d   1       9.790   8.378  -0.234  0.00  0.00     0.062 H 
ATOM     10  H   LIG d   1       9.026   8.315  -2.569  0.00  0.00     0.062 H 
ENDROOT
BRANCH   6  11
ATOM     11  C   LIG d   1       9.277   6.279  -4.321  0.00  0.00     0.241 C 
ATOM     12  O   LIG d   1       9.244   5.223  -4.922  0.00  0.00    -0.270 OA
ATOM     13  N   LIG d   1       8.889   7.415  -4.933  0.00  0.00    -0.325 N 
ATOM     14  H   LIG d   1       8.584   7.390  -5.854  0.00  0.00     0.145 HD
ATOM     15  H   LIG d   1       8.916   8.258  -4.453  0.00  0.00     0.145 HD
ENDBRANCH   6  11
BRANCH   3  16
ATOM     16  C   LIG d   1      11.060   6.425   1.126  0.00  0.00     0.072 C 
ATOM     17  O   LIG d   1      10.744   5.538   1.893  0.00  0.00    -0.545 OA
ATOM     18  O   LIG d   1      11.829   7.444   1.556  0.00  0.00    -0.545 OA
ENDBRANCH   3  16
TORSDOF 2
ENDMDL
MODEL 9
REMARK VINA RESULT:      -4.3      9.264     10.540
REMARK  2 active torsions:
REMARK  status: ('A' for Active; 'I' for Inactive)
REMARK    1  A    between atoms: C_3  and  C_10 
REMARK    2  A    between atoms: C_6  and  C_7 
REMARK       I    between atoms: C_7  and  N_9 
ROOT
ATOM      1  C   LIG d   1       9.917   7.123  -0.972  0.00  0.00    -0.049 A 
ATOM      2  C   LIG d   1       9.500   7.076  -2.286  0.00  0.00    -0.052 A 
ATOM      3  C   LIG d   1       9.809   5.969  -3.077  0.00  0.00    -0.003 A 
ATOM      4  C   LIG d   1      10.545   4.911  -2.539  0.00  0.00    -0.052 A 
ATOM      5  C   LIG d   1      10.965   4.961  -1.228  0.00  0.00    -0.049 A 
ATOM      6  C   LIG d   1      10.656   6.068  -0.437  0.00  0.00     0.036 A 
ATOM      7  H   LIG d   1       9.674   7.979  -0.359  0.00  0.00     0.062 H 
ATOM      8  H   LIG d   1       8.931   7.895  -2.701  0.00  0.00     0.062 H 
ATOM      9  H   LIG d   1      10.784   4.054  -3.151  0.00  0.00     0.062 H 
ATOM     10  H   LIG d   1      11.534   4.142  -0.813  0.00  0.00     0.062 H 
ENDROOT
BRANCH   6  11
ATOM     11  C   LIG d   1      11.108   6.121   0.972  0.00  0.00     0.241 C 
ATOM     12  O   LIG d   1      11.777   7.057   1.361  0.00  0.00    -0.270 OA
ATOM     13  N   LIG d   1      10.771   5.133   1.824  0.00  0.00    -0.325 N 
ATOM     14  H   LIG d   1      11.064   5.169   2.748  0.00  0.00     0.145 HD
ATOM     15  H   LIG d   1      10.237   4.385   1.513  0.00  0.00     0.145 HD
ENDBRANCH   6  11
BRANCH   3  16
ATOM     16  C   LIG d   1       9.358   5.916  -4.484  0.00  0.00     0.072 C 
ATOM     17  O   LIG d   1       9.260   4.847  -5.052  0.00  0.00    -0.545 OA
ATOM     18  O   LIG d   1       9.057   7.055  -5.139  0.00  0.00    -0.545 OA
ENDBRANCH   3  16
TORSDOF 2
ENDMDL
