MODEL 1
REMARK VINA RESULT:      -5.1      0.000      0.000
REMARK  19 active torsions:
REMARK  status: ('A' for Active; 'I' for Inactive)
REMARK    1  A    between atoms: C_1  and  C_2 
REMARK    2  A    between atoms: C_2  and  C_4 
REMARK    3  A    between atoms: C_2  and  C_18 
REMARK    4  A    between atoms: C_4  and  C_5 
REMARK    5  A    between atoms: C_5  and  C_6 
REMARK    6  A    between atoms: C_6  and  C_7 
REMARK    7  A    between atoms: C_7  and  C_9 
REMARK    8  A    between atoms: C_7  and  C_10 
REMARK    9  A    between atoms: C_10  and  C_11 
REMARK   10  A    between atoms: C_11  and  C_12 
REMARK   11  A    between atoms: C_12  and  C_13 
REMARK   12  A    between atoms: C_13  and  C_14 
REMARK   13  A    between atoms: C_13  and  C_15 
REMARK   14  A    between atoms: C_13  and  O_17 
REMARK   15  A    between atoms: C_18  and  C_19 
REMARK   16  A    between atoms: C_19  and  C_20 
REMARK   17  A    between atoms: C_20  and  C_21 
REMARK   18  A    between atoms: C_21  and  C_22 
REMARK   19  A    between atoms: C_21  and  C_23 
ROOT
ATOM      1  C   LIG d   1       2.451  -0.129  -8.638  0.00  0.00    -0.071 C 
ATOM      2  C   LIG d   1       1.757  -0.601  -9.459  0.00  0.00    -0.116 C 
ATOM      3  H   LIG d   1       1.136  -1.023 -10.193  0.00  0.00     0.123 H 
ENDROOT
BRANCH   1   4
ATOM      4  C   LIG d   1       3.322   0.462  -7.609  0.00  0.00     0.123 C 
BRANCH   4   5
ATOM      5  C   LIG d   1       3.228  -0.363  -6.324  0.00  0.00    -0.013 C 
ATOM      6  H   LIG d   1       4.219  -0.732  -6.057  0.00  0.00     0.030 H 
ATOM      7  H   LIG d   1       2.556  -1.207  -6.483  0.00  0.00     0.030 H 
BRANCH   5   8
ATOM      8  C   LIG d   1       2.688   0.513  -5.193  0.00  0.00    -0.049 C 
ATOM      9  H   LIG d   1       1.854   0.007  -4.707  0.00  0.00     0.027 H 
ATOM     10  H   LIG d   1       2.347   1.466  -5.602  0.00  0.00     0.027 H 
BRANCH   8  11
ATOM     11  C   LIG d   1       3.796   0.766  -4.169  0.00  0.00    -0.050 C 
ATOM     12  H   LIG d   1       4.092   1.815  -4.205  0.00  0.00     0.027 H 
ATOM     13  H   LIG d   1       4.656   0.138  -4.403  0.00  0.00     0.027 H 
BRANCH  11  14
ATOM     14  C   LIG d   1       3.283   0.428  -2.767  0.00  0.00    -0.044 C 
ATOM     15  H   LIG d   1       2.382   1.006  -2.561  0.00  0.00     0.030 H 
BRANCH  14  16
ATOM     16  C   LIG d   1       2.961  -1.064  -2.688  0.00  0.00    -0.051 C 
ATOM     17  H   LIG d   1       2.509  -1.390  -3.626  0.00  0.00     0.027 H 
ATOM     18  H   LIG d   1       2.264  -1.243  -1.869  0.00  0.00     0.027 H 
BRANCH  16  19
ATOM     19  C   LIG d   1       4.249  -1.853  -2.444  0.00  0.00    -0.053 C 
ATOM     20  H   LIG d   1       4.157  -2.417  -1.515  0.00  0.00     0.026 H 
ATOM     21  H   LIG d   1       5.088  -1.163  -2.369  0.00  0.00     0.026 H 
BRANCH  19  22
ATOM     22  C   LIG d   1       4.484  -2.819  -3.606  0.00  0.00    -0.051 C 
ATOM     23  H   LIG d   1       3.821  -2.563  -4.432  0.00  0.00     0.027 H 
ATOM     24  H   LIG d   1       4.281  -3.839  -3.280  0.00  0.00     0.027 H 
BRANCH  22  25
ATOM     25  C   LIG d   1       5.939  -2.713  -4.070  0.00  0.00    -0.044 C 
ATOM     26  H   LIG d   1       6.454  -3.651  -3.864  0.00  0.00     0.030 H 
BRANCH  25  27
ATOM     27  C   LIG d   1       5.977  -2.430  -5.573  0.00  0.00    -0.062 C 
ATOM     28  H   LIG d   1       7.012  -2.326  -5.897  0.00  0.00     0.023 H 
ATOM     29  H   LIG d   1       5.508  -3.254  -6.110  0.00  0.00     0.023 H 
ATOM     30  H   LIG d   1       5.437  -1.506  -5.782  0.00  0.00     0.023 H 
ENDBRANCH  25  27
BRANCH  25  31
ATOM     31  C   LIG d   1       6.633  -1.575  -3.319  0.00  0.00    -0.051 C 
ATOM     32  H   LIG d   1       5.885  -0.960  -2.819  0.00  0.00     0.027 H 
ATOM     33  H   LIG d   1       7.315  -1.991  -2.578  0.00  0.00     0.027 H 
BRANCH  31  34
ATOM     34  C   LIG d   1       7.419  -0.715  -4.310  0.00  0.00    -0.053 C 
ATOM     35  H   LIG d   1       8.432  -1.105  -4.405  0.00  0.00     0.026 H 
ATOM     36  H   LIG d   1       6.928  -0.740  -5.283  0.00  0.00     0.026 H 
BRANCH  34  37
ATOM     37  C   LIG d   1       7.474   0.728  -3.803  0.00  0.00    -0.051 C 
ATOM     38  H   LIG d   1       6.543   1.236  -4.053  0.00  0.00     0.027 H 
ATOM     39  H   LIG d   1       7.609   0.727  -2.721  0.00  0.00     0.027 H 
BRANCH  37  40
ATOM     40  C   LIG d   1       8.646   1.456  -4.463  0.00  0.00    -0.047 C 
ATOM     41  H   LIG d   1       9.512   0.795  -4.498  0.00  0.00     0.029 H 
BRANCH  40  42
ATOM     42  C   LIG d   1       8.257   1.865  -5.885  0.00  0.00    -0.063 C 
ATOM     43  H   LIG d   1       9.156   2.097  -6.456  0.00  0.00     0.023 H 
ATOM     44  H   LIG d   1       7.723   1.046  -6.366  0.00  0.00     0.023 H 
ATOM     45  H   LIG d   1       7.615   2.746  -5.846  0.00  0.00     0.023 H 
ENDBRANCH  40  42
BRANCH  40  46
ATOM     46  C   LIG d   1       8.992   2.705  -3.651  0.00  0.00    -0.063 C 
ATOM     47  H   LIG d   1       8.207   2.892  -2.918  0.00  0.00     0.023 H 
ATOM     48  H   LIG d   1       9.941   2.553  -3.136  0.00  0.00     0.023 H 
ATOM     49  H   LIG d   1       9.076   3.563  -4.320  0.00  0.00     0.023 H 
ENDBRANCH  40  46
ENDBRANCH  37  40
ENDBRANCH  34  37
ENDBRANCH  31  34
ENDBRANCH  25  31
ENDBRANCH  22  25
ENDBRANCH  19  22
ENDBRANCH  16  19
ENDBRANCH  14  16
BRANCH  14  50
ATOM     50  C   LIG d   1       4.358   0.774  -1.734  0.00  0.00    -0.062 C 
ATOM     51  H   LIG d   1       5.271   1.074  -2.246  0.00  0.00     0.023 H 
ATOM     52  H   LIG d   1       4.007   1.593  -1.106  0.00  0.00     0.023 H 
ATOM     53  H   LIG d   1       4.559  -0.099  -1.113  0.00  0.00     0.023 H 
ENDBRANCH  14  50
ENDBRANCH  11  14
ENDBRANCH   8  11
ENDBRANCH   5   8
ENDBRANCH   4   5
BRANCH   4  54
ATOM     54  C   LIG d   1       4.769   0.467  -8.107  0.00  0.00    -0.025 C 
ATOM     55  H   LIG d   1       4.781   0.338  -9.189  0.00  0.00     0.027 H 
ATOM     56  H   LIG d   1       5.239   1.415  -7.848  0.00  0.00     0.027 H 
ATOM     57  H   LIG d   1       5.317  -0.350  -7.638  0.00  0.00     0.027 H 
ENDBRANCH   4  54
BRANCH   4  58
ATOM     58  O   LIG d   1       2.905   1.803  -7.346  0.00  0.00    -0.377 OA
ATOM     59  H   LIG d   1       2.819   2.351  -8.139  0.00  0.00     0.211 HD
ENDBRANCH   4  58
ENDBRANCH   1   4
TORSDOF 19
ENDMDL
MODEL 2
REMARK VINA RESULT:      -4.9      2.126      5.203
REMARK  19 active torsions:
REMARK  status: ('A' for Active; 'I' for Inactive)
REMARK    1  A    between atoms: C_1  and  C_2 
REMARK    2  A    between atoms: C_2  and  C_4 
REMARK    3  A    between atoms: C_2  and  C_18 
REMARK    4  A    between atoms: C_4  and  C_5 
REMARK    5  A    between atoms: C_5  and  C_6 
REMARK    6  A    between atoms: C_6  and  C_7 
REMARK    7  A    between atoms: C_7  and  C_9 
REMARK    8  A    between atoms: C_7  and  C_10 
REMARK    9  A    between atoms: C_10  and  C_11 
REMARK   10  A    between atoms: C_11  and  C_12 
REMARK   11  A    between atoms: C_12  and  C_13 
REMARK   12  A    between atoms: C_13  and  C_14 
REMARK   13  A    between atoms: C_13  and  C_15 
REMARK   14  A    between atoms: C_13  and  O_17 
REMARK   15  A    between atoms: C_18  and  C_19 
REMARK   16  A    between atoms: C_19  and  C_20 
REMARK   17  A    between atoms: C_20  and  C_21 
REMARK   18  A    between atoms: C_21  and  C_22 
REMARK   19  A    between atoms: C_21  and  C_23 
ROOT
ATOM      1  C   LIG d   1       7.709   0.676  -6.196  0.00  0.00    -0.071 C 
ATOM      2  C   LIG d   1       7.377   0.983  -7.279  0.00  0.00    -0.116 C 
ATOM      3  H   LIG d   1       7.082   1.258  -8.248  0.00  0.00     0.123 H 
ENDROOT
BRANCH   1   4
ATOM      4  C   LIG d   1       8.123   0.291  -4.837  0.00  0.00     0.123 C 
BRANCH   4   5
ATOM      5  C   LIG d   1       7.302   1.073  -3.810  0.00  0.00    -0.013 C 
ATOM      6  H   LIG d   1       6.674   1.800  -4.327  0.00  0.00     0.030 H 
ATOM      7  H   LIG d   1       7.975   1.593  -3.128  0.00  0.00     0.030 H 
BRANCH   5   8
ATOM      8  C   LIG d   1       6.420   0.107  -3.019  0.00  0.00    -0.049 C 
ATOM      9  H   LIG d   1       7.001  -0.340  -2.213  0.00  0.00     0.027 H 
ATOM     10  H   LIG d   1       6.054  -0.678  -3.683  0.00  0.00     0.027 H 
BRANCH   8  11
ATOM     11  C   LIG d   1       5.231   0.869  -2.428  0.00  0.00    -0.050 C 
ATOM     12  H   LIG d   1       4.765   1.474  -3.207  0.00  0.00     0.027 H 
ATOM     13  H   LIG d   1       5.579   1.516  -1.624  0.00  0.00     0.027 H 
BRANCH  11  14
ATOM     14  C   LIG d   1       4.210  -0.128  -1.876  0.00  0.00    -0.044 C 
ATOM     15  H   LIG d   1       4.031   0.082  -0.821  0.00  0.00     0.030 H 
BRANCH  14  16
ATOM     16  C   LIG d   1       2.898   0.003  -2.651  0.00  0.00    -0.051 C 
ATOM     17  H   LIG d   1       2.145   0.469  -2.015  0.00  0.00     0.027 H 
ATOM     18  H   LIG d   1       2.556  -0.986  -2.955  0.00  0.00     0.027 H 
BRANCH  16  19
ATOM     19  C   LIG d   1       3.123   0.870  -3.892  0.00  0.00    -0.053 C 
ATOM     20  H   LIG d   1       4.189   1.066  -4.008  0.00  0.00     0.026 H 
ATOM     21  H   LIG d   1       2.590   1.813  -3.778  0.00  0.00     0.026 H 
BRANCH  19  22
ATOM     22  C   LIG d   1       2.601   0.136  -5.128  0.00  0.00    -0.051 C 
ATOM     23  H   LIG d   1       1.877   0.765  -5.646  0.00  0.00     0.027 H 
ATOM     24  H   LIG d   1       2.122  -0.795  -4.824  0.00  0.00     0.027 H 
BRANCH  22  25
ATOM     25  C   LIG d   1       3.769  -0.176  -6.067  0.00  0.00    -0.044 C 
ATOM     26  H   LIG d   1       4.526   0.602  -5.975  0.00  0.00     0.030 H 
BRANCH  25  27
ATOM     27  C   LIG d   1       4.380  -1.527  -5.690  0.00  0.00    -0.062 C 
ATOM     28  H   LIG d   1       3.593  -2.280  -5.641  0.00  0.00     0.023 H 
ATOM     29  H   LIG d   1       5.113  -1.817  -6.442  0.00  0.00     0.023 H 
ATOM     30  H   LIG d   1       4.867  -1.447  -4.719  0.00  0.00     0.023 H 
ENDBRANCH  25  27
BRANCH  25  31
ATOM     31  C   LIG d   1       3.264  -0.229  -7.510  0.00  0.00    -0.051 C 
ATOM     32  H   LIG d   1       4.045  -0.634  -8.153  0.00  0.00     0.027 H 
ATOM     33  H   LIG d   1       2.383  -0.869  -7.563  0.00  0.00     0.027 H 
BRANCH  31  34
ATOM     34  C   LIG d   1       2.899   1.181  -7.975  0.00  0.00    -0.053 C 
ATOM     35  H   LIG d   1       2.034   1.536  -7.415  0.00  0.00     0.026 H 
ATOM     36  H   LIG d   1       3.743   1.851  -7.803  0.00  0.00     0.026 H 
BRANCH  34  37
ATOM     37  C   LIG d   1       2.565   1.155  -9.468  0.00  0.00    -0.051 C 
ATOM     38  H   LIG d   1       2.452   0.123  -9.798  0.00  0.00     0.027 H 
ATOM     39  H   LIG d   1       1.633   1.696  -9.641  0.00  0.00     0.027 H 
BRANCH  37  40
ATOM     40  C   LIG d   1       3.694   1.823 -10.255  0.00  0.00    -0.047 C 
ATOM     41  H   LIG d   1       3.271   2.523 -10.976  0.00  0.00     0.029 H 
BRANCH  40  42
ATOM     42  C   LIG d   1       4.612   2.575  -9.290  0.00  0.00    -0.063 C 
ATOM     43  H   LIG d   1       4.627   2.065  -8.328  0.00  0.00     0.023 H 
ATOM     44  H   LIG d   1       5.622   2.608  -9.699  0.00  0.00     0.023 H 
ATOM     45  H   LIG d   1       4.241   3.592  -9.155  0.00  0.00     0.023 H 
ENDBRANCH  40  42
BRANCH  40  46
ATOM     46  C   LIG d   1       4.500   0.754 -10.995  0.00  0.00    -0.063 C 
ATOM     47  H   LIG d   1       3.835   0.174 -11.634  0.00  0.00     0.023 H 
ATOM     48  H   LIG d   1       5.264   1.234 -11.607  0.00  0.00     0.023 H 
ATOM     49  H   LIG d   1       4.977   0.092 -10.272  0.00  0.00     0.023 H 
ENDBRANCH  40  46
ENDBRANCH  37  40
ENDBRANCH  34  37
ENDBRANCH  31  34
ENDBRANCH  25  31
ENDBRANCH  22  25
ENDBRANCH  19  22
ENDBRANCH  16  19
ENDBRANCH  14  16
BRANCH  14  50
ATOM     50  C   LIG d   1       4.752  -1.551  -2.027  0.00  0.00    -0.062 C 
ATOM     51  H   LIG d   1       3.971  -2.267  -1.776  0.00  0.00     0.023 H 
ATOM     52  H   LIG d   1       5.073  -1.709  -3.058  0.00  0.00     0.023 H 
ATOM     53  H   LIG d   1       5.602  -1.689  -1.358  0.00  0.00     0.023 H 
ENDBRANCH  14  50
ENDBRANCH  11  14
ENDBRANCH   8  11
ENDBRANCH   5   8
ENDBRANCH   4   5
BRANCH   4  54
ATOM     54  C   LIG d   1       7.892  -1.210  -4.639  0.00  0.00    -0.025 C 
ATOM     55  H   LIG d   1       7.032  -1.361  -3.988  0.00  0.00     0.027 H 
ATOM     56  H   LIG d   1       7.705  -1.678  -5.605  0.00  0.00     0.027 H 
ATOM     57  H   LIG d   1       8.776  -1.656  -4.184  0.00  0.00     0.027 H 
ENDBRANCH   4  54
BRANCH   4  58
ATOM     58  O   LIG d   1       9.511   0.585  -4.661  0.00  0.00    -0.377 OA
ATOM     59  H   LIG d   1       9.680   1.374  -4.127  0.00  0.00     0.211 HD
ENDBRANCH   4  58
ENDBRANCH   1   4
TORSDOF 19
ENDMDL
MODEL 3
REMARK VINA RESULT:      -4.9      1.561      3.875
REMARK  19 active torsions:
REMARK  status: ('A' for Active; 'I' for Inactive)
REMARK    1  A    between atoms: C_1  and  C_2 
REMARK    2  A    between atoms: C_2  and  C_4 
REMARK    3  A    between atoms: C_2  and  C_18 
REMARK    4  A    between atoms: C_4  and  C_5 
REMARK    5  A    between atoms: C_5  and  C_6 
REMARK    6  A    between atoms: C_6  and  C_7 
REMARK    7  A    between atoms: C_7  and  C_9 
REMARK    8  A    between atoms: C_7  and  C_10 
REMARK    9  A    between atoms: C_10  and  C_11 
REMARK   10  A    between atoms: C_11  and  C_12 
REMARK   11  A    between atoms: C_12  and  C_13 
REMARK   12  A    between atoms: C_13  and  C_14 
REMARK   13  A    between atoms: C_13  and  C_15 
REMARK   14  A    between atoms: C_13  and  O_17 
REMARK   15  A    between atoms: C_18  and  C_19 
REMARK   16  A    between atoms: C_19  and  C_20 
REMARK   17  A    between atoms: C_20  and  C_21 
REMARK   18  A    between atoms: C_21  and  C_22 
REMARK   19  A    between atoms: C_21  and  C_23 
ROOT
ATOM      1  C   LIG d   1       3.651   0.413 -10.209  0.00  0.00    -0.071 C 
ATOM      2  C   LIG d   1       4.184   0.654 -11.226  0.00  0.00    -0.116 C 
ATOM      3  H   LIG d   1       4.660   0.871 -12.136  0.00  0.00     0.123 H 
ENDROOT
BRANCH   1   4
ATOM      4  C   LIG d   1       2.984   0.109  -8.932  0.00  0.00     0.123 C 
BRANCH   4   5
ATOM      5  C   LIG d   1       3.793  -0.940  -8.168  0.00  0.00    -0.013 C 
ATOM      6  H   LIG d   1       4.427  -1.488  -8.867  0.00  0.00     0.030 H 
ATOM      7  H   LIG d   1       3.113  -1.634  -7.674  0.00  0.00     0.030 H 
BRANCH   5   8
ATOM      8  C   LIG d   1       4.667  -0.249  -7.121  0.00  0.00    -0.049 C 
ATOM      9  H   LIG d   1       4.468  -0.680  -6.140  0.00  0.00     0.027 H 
ATOM     10  H   LIG d   1       4.439   0.817  -7.104  0.00  0.00     0.027 H 
BRANCH   8  11
ATOM     11  C   LIG d   1       6.143  -0.449  -7.475  0.00  0.00    -0.050 C 
ATOM     12  H   LIG d   1       6.363   0.060  -8.414  0.00  0.00     0.027 H 
ATOM     13  H   LIG d   1       6.349  -1.514  -7.581  0.00  0.00     0.027 H 
BRANCH  11  14
ATOM     14  C   LIG d   1       7.018   0.132  -6.362  0.00  0.00    -0.044 C 
ATOM     15  H   LIG d   1       7.166   1.198  -6.536  0.00  0.00     0.030 H 
BRANCH  14  16
ATOM     16  C   LIG d   1       6.330  -0.074  -5.012  0.00  0.00    -0.051 C 
ATOM     17  H   LIG d   1       5.486  -0.754  -5.133  0.00  0.00     0.027 H 
ATOM     18  H   LIG d   1       5.971   0.885  -4.637  0.00  0.00     0.027 H 
BRANCH  16  19
ATOM     19  C   LIG d   1       7.326  -0.671  -4.016  0.00  0.00    -0.053 C 
ATOM     20  H   LIG d   1       7.559   0.069  -3.250  0.00  0.00     0.026 H 
ATOM     21  H   LIG d   1       8.239  -0.951  -4.540  0.00  0.00     0.026 H 
BRANCH  19  22
ATOM     22  C   LIG d   1       6.713  -1.909  -3.361  0.00  0.00    -0.051 C 
ATOM     23  H   LIG d   1       6.298  -1.639  -2.390  0.00  0.00     0.027 H 
ATOM     24  H   LIG d   1       7.482  -2.670  -3.229  0.00  0.00     0.027 H 
BRANCH  22  25
ATOM     25  C   LIG d   1       5.599  -2.460  -4.255  0.00  0.00    -0.044 C 
ATOM     26  H   LIG d   1       5.279  -1.688  -4.953  0.00  0.00     0.030 H 
BRANCH  25  27
ATOM     27  C   LIG d   1       6.122  -3.668  -5.036  0.00  0.00    -0.062 C 
ATOM     28  H   LIG d   1       6.368  -4.470  -4.341  0.00  0.00     0.023 H 
ATOM     29  H   LIG d   1       5.356  -4.011  -5.731  0.00  0.00     0.023 H 
ATOM     30  H   LIG d   1       7.015  -3.381  -5.591  0.00  0.00     0.023 H 
ENDBRANCH  25  27
BRANCH  25  31
ATOM     31  C   LIG d   1       4.414  -2.888  -3.388  0.00  0.00    -0.051 C 
ATOM     32  H   LIG d   1       3.528  -3.001  -4.013  0.00  0.00     0.027 H 
ATOM     33  H   LIG d   1       4.641  -3.840  -2.907  0.00  0.00     0.027 H 
BRANCH  31  34
ATOM     34  C   LIG d   1       4.152  -1.826  -2.319  0.00  0.00    -0.053 C 
ATOM     35  H   LIG d   1       3.979  -2.312  -1.359  0.00  0.00     0.026 H 
ATOM     36  H   LIG d   1       5.019  -1.168  -2.242  0.00  0.00     0.026 H 
BRANCH  34  37
ATOM     37  C   LIG d   1       2.921  -1.005  -2.706  0.00  0.00    -0.051 C 
ATOM     38  H   LIG d   1       2.679  -1.183  -3.753  0.00  0.00     0.027 H 
ATOM     39  H   LIG d   1       2.077  -1.302  -2.082  0.00  0.00     0.027 H 
BRANCH  37  40
ATOM     40  C   LIG d   1       3.212   0.482  -2.494  0.00  0.00    -0.047 C 
ATOM     41  H   LIG d   1       2.425   0.924  -1.884  0.00  0.00     0.029 H 
BRANCH  40  42
ATOM     42  C   LIG d   1       4.558   0.641  -1.784  0.00  0.00    -0.063 C 
ATOM     43  H   LIG d   1       4.727  -0.212  -1.127  0.00  0.00     0.023 H 
ATOM     44  H   LIG d   1       5.356   0.694  -2.524  0.00  0.00     0.023 H 
ATOM     45  H   LIG d   1       4.550   1.558  -1.192  0.00  0.00     0.023 H 
ENDBRANCH  40  42
BRANCH  40  46
ATOM     46  C   LIG d   1       3.265   1.189  -3.849  0.00  0.00    -0.063 C 
ATOM     47  H   LIG d   1       2.405   0.891  -4.448  0.00  0.00     0.023 H 
ATOM     48  H   LIG d   1       3.245   2.269  -3.697  0.00  0.00     0.023 H 
ATOM     49  H   LIG d   1       4.183   0.913  -4.368  0.00  0.00     0.023 H 
ENDBRANCH  40  46
ENDBRANCH  37  40
ENDBRANCH  34  37
ENDBRANCH  31  34
ENDBRANCH  25  31
ENDBRANCH  22  25
ENDBRANCH  19  22
ENDBRANCH  16  19
ENDBRANCH  14  16
BRANCH  14  50
ATOM     50  C   LIG d   1       8.374  -0.577  -6.357  0.00  0.00    -0.062 C 
ATOM     51  H   LIG d   1       8.821  -0.500  -5.367  0.00  0.00     0.023 H 
ATOM     52  H   LIG d   1       8.235  -1.628  -6.613  0.00  0.00     0.023 H 
ATOM     53  H   LIG d   1       9.031  -0.109  -7.090  0.00  0.00     0.023 H 
ENDBRANCH  14  50
ENDBRANCH  11  14
ENDBRANCH   8  11
ENDBRANCH   5   8
ENDBRANCH   4   5
BRANCH   4  54
ATOM     54  C   LIG d   1       2.883   1.386  -8.093  0.00  0.00    -0.025 C 
ATOM     55  H   LIG d   1       1.840   1.569  -7.835  0.00  0.00     0.027 H 
ATOM     56  H   LIG d   1       3.468   1.268  -7.181  0.00  0.00     0.027 H 
ATOM     57  H   LIG d   1       3.269   2.228  -8.666  0.00  0.00     0.027 H 
ENDBRANCH   4  54
BRANCH   4  58
ATOM     58  O   LIG d   1       1.672  -0.395  -9.189  0.00  0.00    -0.377 OA
ATOM     59  H   LIG d   1       1.661  -1.281  -9.578  0.00  0.00     0.211 HD
ENDBRANCH   4  58
ENDBRANCH   1   4
TORSDOF 19
ENDMDL
MODEL 4
REMARK VINA RESULT:      -4.8      1.091      3.423
REMARK  19 active torsions:
REMARK  status: ('A' for Active; 'I' for Inactive)
REMARK    1  A    between atoms: C_1  and  C_2 
REMARK    2  A    between atoms: C_2  and  C_4 
REMARK    3  A    between atoms: C_2  and  C_18 
REMARK    4  A    between atoms: C_4  and  C_5 
REMARK    5  A    between atoms: C_5  and  C_6 
REMARK    6  A    between atoms: C_6  and  C_7 
REMARK    7  A    between atoms: C_7  and  C_9 
REMARK    8  A    between atoms: C_7  and  C_10 
REMARK    9  A    between atoms: C_10  and  C_11 
REMARK   10  A    between atoms: C_11  and  C_12 
REMARK   11  A    between atoms: C_12  and  C_13 
REMARK   12  A    between atoms: C_13  and  C_14 
REMARK   13  A    between atoms: C_13  and  C_15 
REMARK   14  A    between atoms: C_13  and  O_17 
REMARK   15  A    between atoms: C_18  and  C_19 
REMARK   16  A    between atoms: C_19  and  C_20 
REMARK   17  A    between atoms: C_20  and  C_21 
REMARK   18  A    between atoms: C_21  and  C_22 
REMARK   19  A    between atoms: C_21  and  C_23 
ROOT
ATOM      1  C   LIG d   1       2.390  -0.139  -8.689  0.00  0.00    -0.071 C 
ATOM      2  C   LIG d   1       1.750  -0.704  -9.494  0.00  0.00    -0.116 C 
ATOM      3  H   LIG d   1       1.177  -1.209 -10.215  0.00  0.00     0.123 H 
ENDROOT
BRANCH   1   4
ATOM      4  C   LIG d   1       3.193   0.569  -7.679  0.00  0.00     0.123 C 
BRANCH   4   5
ATOM      5  C   LIG d   1       2.588   0.342  -6.293  0.00  0.00    -0.013 C 
ATOM      6  H   LIG d   1       1.718  -0.310  -6.379  0.00  0.00     0.030 H 
ATOM      7  H   LIG d   1       2.284   1.299  -5.868  0.00  0.00     0.030 H 
BRANCH   5   8
ATOM      8  C   LIG d   1       3.628  -0.312  -5.382  0.00  0.00    -0.049 C 
ATOM      9  H   LIG d   1       4.500   0.335  -5.302  0.00  0.00     0.027 H 
ATOM     10  H   LIG d   1       3.925  -1.274  -5.802  0.00  0.00     0.027 H 
BRANCH   8  11
ATOM     11  C   LIG d   1       3.025  -0.529  -3.992  0.00  0.00    -0.050 C 
ATOM     12  H   LIG d   1       2.305  -1.348  -4.032  0.00  0.00     0.027 H 
ATOM     13  H   LIG d   1       2.521   0.382  -3.669  0.00  0.00     0.027 H 
BRANCH  11  14
ATOM     14  C   LIG d   1       4.138  -0.875  -3.001  0.00  0.00    -0.044 C 
ATOM     15  H   LIG d   1       5.072  -1.028  -3.543  0.00  0.00     0.030 H 
BRANCH  14  16
ATOM     16  C   LIG d   1       4.309   0.272  -2.005  0.00  0.00    -0.051 C 
ATOM     17  H   LIG d   1       4.598  -0.129  -1.033  0.00  0.00     0.027 H 
ATOM     18  H   LIG d   1       3.368   0.814  -1.909  0.00  0.00     0.027 H 
BRANCH  16  19
ATOM     19  C   LIG d   1       5.398   1.225  -2.505  0.00  0.00    -0.053 C 
ATOM     20  H   LIG d   1       5.713   1.874  -1.688  0.00  0.00     0.026 H 
ATOM     21  H   LIG d   1       5.004   1.831  -3.320  0.00  0.00     0.026 H 
BRANCH  19  22
ATOM     22  C   LIG d   1       6.595   0.415  -3.004  0.00  0.00    -0.051 C 
ATOM     23  H   LIG d   1       6.276  -0.602  -3.235  0.00  0.00     0.027 H 
ATOM     24  H   LIG d   1       7.364   0.387  -2.232  0.00  0.00     0.027 H 
BRANCH  22  25
ATOM     25  C   LIG d   1       7.163   1.069  -4.265  0.00  0.00    -0.044 C 
ATOM     26  H   LIG d   1       6.361   1.570  -4.807  0.00  0.00     0.030 H 
BRANCH  25  27
ATOM     27  C   LIG d   1       8.231   2.092  -3.873  0.00  0.00    -0.062 C 
ATOM     28  H   LIG d   1       8.159   2.300  -2.805  0.00  0.00     0.023 H 
ATOM     29  H   LIG d   1       9.219   1.693  -4.101  0.00  0.00     0.023 H 
ATOM     30  H   LIG d   1       8.073   3.014  -4.433  0.00  0.00     0.023 H 
ENDBRANCH  25  27
BRANCH  25  31
ATOM     31  C   LIG d   1       7.789  -0.003  -5.159  0.00  0.00    -0.051 C 
ATOM     32  H   LIG d   1       7.348   0.049  -6.154  0.00  0.00     0.027 H 
ATOM     33  H   LIG d   1       8.865   0.165  -5.230  0.00  0.00     0.027 H 
BRANCH  31  34
ATOM     34  C   LIG d   1       7.529  -1.385  -4.558  0.00  0.00    -0.053 C 
ATOM     35  H   LIG d   1       8.478  -1.893  -4.389  0.00  0.00     0.026 H 
ATOM     36  H   LIG d   1       7.002  -1.275  -3.609  0.00  0.00     0.026 H 
BRANCH  34  37
ATOM     37  C   LIG d   1       6.674  -2.209  -5.523  0.00  0.00    -0.051 C 
ATOM     38  H   LIG d   1       5.804  -1.627  -5.826  0.00  0.00     0.027 H 
ATOM     39  H   LIG d   1       7.265  -2.465  -6.403  0.00  0.00     0.027 H 
BRANCH  37  40
ATOM     40  C   LIG d   1       6.213  -3.492  -4.828  0.00  0.00    -0.047 C 
ATOM     41  H   LIG d   1       6.118  -3.312  -3.758  0.00  0.00     0.029 H 
BRANCH  40  42
ATOM     42  C   LIG d   1       4.858  -3.920  -5.396  0.00  0.00    -0.063 C 
ATOM     43  H   LIG d   1       4.610  -3.298  -6.255  0.00  0.00     0.023 H 
ATOM     44  H   LIG d   1       4.907  -4.964  -5.704  0.00  0.00     0.023 H 
ATOM     45  H   LIG d   1       4.091  -3.803  -4.630  0.00  0.00     0.023 H 
ENDBRANCH  40  42
BRANCH  40  46
ATOM     46  C   LIG d   1       7.240  -4.600  -5.071  0.00  0.00    -0.063 C 
ATOM     47  H   LIG d   1       6.942  -5.188  -5.938  0.00  0.00     0.023 H 
ATOM     48  H   LIG d   1       8.218  -4.155  -5.253  0.00  0.00     0.023 H 
ATOM     49  H   LIG d   1       7.292  -5.246  -4.194  0.00  0.00     0.023 H 
ENDBRANCH  40  46
ENDBRANCH  37  40
ENDBRANCH  34  37
ENDBRANCH  31  34
ENDBRANCH  25  31
ENDBRANCH  22  25
ENDBRANCH  19  22
ENDBRANCH  16  19
ENDBRANCH  14  16
BRANCH  14  50
ATOM     50  C   LIG d   1       3.770  -2.155  -2.248  0.00  0.00    -0.062 C 
ATOM     51  H   LIG d   1       3.093  -2.753  -2.857  0.00  0.00     0.023 H 
ATOM     52  H   LIG d   1       4.675  -2.727  -2.041  0.00  0.00     0.023 H 
ATOM     53  H   LIG d   1       3.282  -1.896  -1.308  0.00  0.00     0.023 H 
ENDBRANCH  14  50
ENDBRANCH  11  14
ENDBRANCH   8  11
ENDBRANCH   5   8
ENDBRANCH   4   5
BRANCH   4  54
ATOM     54  C   LIG d   1       4.628   0.036  -7.703  0.00  0.00    -0.025 C 
ATOM     55  H   LIG d   1       4.905  -0.211  -8.728  0.00  0.00     0.027 H 
ATOM     56  H   LIG d   1       5.304   0.797  -7.316  0.00  0.00     0.027 H 
ATOM     57  H   LIG d   1       4.693  -0.858  -7.084  0.00  0.00     0.027 H 
ENDBRANCH   4  54
BRANCH   4  58
ATOM     58  O   LIG d   1       3.201   1.968  -7.972  0.00  0.00    -0.377 OA
ATOM     59  H   LIG d   1       2.615   2.491  -7.407  0.00  0.00     0.211 HD
ENDBRANCH   4  58
ENDBRANCH   1   4
TORSDOF 19
ENDMDL
MODEL 5
REMARK VINA RESULT:      -4.7      2.067      4.257
REMARK  19 active torsions:
REMARK  status: ('A' for Active; 'I' for Inactive)
REMARK    1  A    between atoms: C_1  and  C_2 
REMARK    2  A    between atoms: C_2  and  C_4 
REMARK    3  A    between atoms: C_2  and  C_18 
REMARK    4  A    between atoms: C_4  and  C_5 
REMARK    5  A    between atoms: C_5  and  C_6 
REMARK    6  A    between atoms: C_6  and  C_7 
REMARK    7  A    between atoms: C_7  and  C_9 
REMARK    8  A    between atoms: C_7  and  C_10 
REMARK    9  A    between atoms: C_10  and  C_11 
REMARK   10  A    between atoms: C_11  and  C_12 
REMARK   11  A    between atoms: C_12  and  C_13 
REMARK   12  A    between atoms: C_13  and  C_14 
REMARK   13  A    between atoms: C_13  and  C_15 
REMARK   14  A    between atoms: C_13  and  O_17 
REMARK   15  A    between atoms: C_18  and  C_19 
REMARK   16  A    between atoms: C_19  and  C_20 
REMARK   17  A    between atoms: C_20  and  C_21 
REMARK   18  A    between atoms: C_21  and  C_22 
REMARK   19  A    between atoms: C_21  and  C_23 
ROOT
ATOM      1  C   LIG d   1       2.423  -0.237  -8.586  0.00  0.00    -0.071 C 
ATOM      2  C   LIG d   1       1.691  -0.540  -9.452  0.00  0.00    -0.116 C 
ATOM      3  H   LIG d   1       1.037  -0.810 -10.227  0.00  0.00     0.123 H 
ENDROOT
BRANCH   1   4
ATOM      4  C   LIG d   1       3.340   0.141  -7.499  0.00  0.00     0.123 C 
BRANCH   4   5
ATOM      5  C   LIG d   1       2.537   0.692  -6.320  0.00  0.00    -0.013 C 
ATOM      6  H   LIG d   1       1.483   0.444  -6.452  0.00  0.00     0.030 H 
ATOM      7  H   LIG d   1       2.653   1.775  -6.276  0.00  0.00     0.030 H 
BRANCH   5   8
ATOM      8  C   LIG d   1       3.048   0.071  -5.019  0.00  0.00    -0.049 C 
ATOM      9  H   LIG d   1       3.982  -0.456  -5.210  0.00  0.00     0.027 H 
ATOM     10  H   LIG d   1       2.306  -0.631  -4.636  0.00  0.00     0.027 H 
BRANCH   8  11
ATOM     11  C   LIG d   1       3.286   1.174  -3.986  0.00  0.00    -0.050 C 
ATOM     12  H   LIG d   1       2.525   1.947  -4.098  0.00  0.00     0.027 H 
ATOM     13  H   LIG d   1       4.273   1.610  -4.141  0.00  0.00     0.027 H 
BRANCH  11  14
ATOM     14  C   LIG d   1       3.207   0.580  -2.577  0.00  0.00    -0.044 C 
ATOM     15  H   LIG d   1       2.403   1.066  -2.023  0.00  0.00     0.030 H 
BRANCH  14  16
ATOM     16  C   LIG d   1       2.927  -0.920  -2.672  0.00  0.00    -0.051 C 
ATOM     17  H   LIG d   1       2.730  -1.189  -3.710  0.00  0.00     0.027 H 
ATOM     18  H   LIG d   1       2.058  -1.167  -2.062  0.00  0.00     0.027 H 
BRANCH  16  19
ATOM     19  C   LIG d   1       4.144  -1.699  -2.167  0.00  0.00    -0.053 C 
ATOM     20  H   LIG d   1       3.914  -2.139  -1.196  0.00  0.00     0.026 H 
ATOM     21  H   LIG d   1       4.992  -1.023  -2.068  0.00  0.00     0.026 H 
BRANCH  19  22
ATOM     22  C   LIG d   1       4.488  -2.808  -3.162  0.00  0.00    -0.051 C 
ATOM     23  H   LIG d   1       3.612  -3.038  -3.768  0.00  0.00     0.027 H 
ATOM     24  H   LIG d   1       4.799  -3.701  -2.619  0.00  0.00     0.027 H 
BRANCH  22  25
ATOM     25  C   LIG d   1       5.629  -2.342  -4.070  0.00  0.00    -0.044 C 
ATOM     26  H   LIG d   1       5.272  -1.545  -4.721  0.00  0.00     0.030 H 
BRANCH  25  27
ATOM     27  C   LIG d   1       6.784  -1.821  -3.212  0.00  0.00    -0.062 C 
ATOM     28  H   LIG d   1       6.551  -1.974  -2.158  0.00  0.00     0.023 H 
ATOM     29  H   LIG d   1       7.696  -2.361  -3.465  0.00  0.00     0.023 H 
ATOM     30  H   LIG d   1       6.926  -0.758  -3.402  0.00  0.00     0.023 H 
ENDBRANCH  25  27
BRANCH  25  31
ATOM     31  C   LIG d   1       6.116  -3.516  -4.921  0.00  0.00    -0.051 C 
ATOM     32  H   LIG d   1       6.598  -3.137  -5.822  0.00  0.00     0.027 H 
ATOM     33  H   LIG d   1       6.830  -4.109  -4.349  0.00  0.00     0.027 H 
BRANCH  31  34
ATOM     34  C   LIG d   1       4.924  -4.393  -5.311  0.00  0.00    -0.053 C 
ATOM     35  H   LIG d   1       4.250  -4.489  -4.461  0.00  0.00     0.026 H 
ATOM     36  H   LIG d   1       4.393  -3.933  -6.145  0.00  0.00     0.026 H 
BRANCH  34  37
ATOM     37  C   LIG d   1       5.424  -5.778  -5.727  0.00  0.00    -0.051 C 
ATOM     38  H   LIG d   1       6.513  -5.799  -5.688  0.00  0.00     0.027 H 
ATOM     39  H   LIG d   1       5.022  -6.528  -5.045  0.00  0.00     0.027 H 
BRANCH  37  40
ATOM     40  C   LIG d   1       4.957  -6.082  -7.152  0.00  0.00    -0.047 C 
ATOM     41  H   LIG d   1       5.770  -5.886  -7.850  0.00  0.00     0.029 H 
BRANCH  40  42
ATOM     42  C   LIG d   1       4.543  -7.552  -7.249  0.00  0.00    -0.063 C 
ATOM     43  H   LIG d   1       3.469  -7.640  -7.089  0.00  0.00     0.023 H 
ATOM     44  H   LIG d   1       4.796  -7.937  -8.237  0.00  0.00     0.023 H 
ATOM     45  H   LIG d   1       5.071  -8.129  -6.488  0.00  0.00     0.023 H 
ENDBRANCH  40  42
BRANCH  40  46
ATOM     46  C   LIG d   1       3.761  -5.193  -7.497  0.00  0.00    -0.063 C 
ATOM     47  H   LIG d   1       3.448  -4.645  -6.609  0.00  0.00     0.023 H 
ATOM     48  H   LIG d   1       4.046  -4.488  -8.278  0.00  0.00     0.023 H 
ATOM     49  H   LIG d   1       2.937  -5.813  -7.851  0.00  0.00     0.023 H 
ENDBRANCH  40  46
ENDBRANCH  37  40
ENDBRANCH  34  37
ENDBRANCH  31  34
ENDBRANCH  25  31
ENDBRANCH  22  25
ENDBRANCH  19  22
ENDBRANCH  16  19
ENDBRANCH  14  16
BRANCH  14  50
ATOM     50  C   LIG d   1       4.535   0.808  -1.853  0.00  0.00    -0.062 C 
ATOM     51  H   LIG d   1       4.342   1.065  -0.812  0.00  0.00     0.023 H 
ATOM     52  H   LIG d   1       5.134  -0.103  -1.898  0.00  0.00     0.023 H 
ATOM     53  H   LIG d   1       5.077   1.622  -2.334  0.00  0.00     0.023 H 
ENDBRANCH  14  50
ENDBRANCH  11  14
ENDBRANCH   8  11
ENDBRANCH   5   8
ENDBRANCH   4   5
BRANCH   4  54
ATOM     54  C   LIG d   1       4.132  -1.089  -7.047  0.00  0.00    -0.025 C 
ATOM     55  H   LIG d   1       4.138  -1.829  -7.848  0.00  0.00     0.027 H 
ATOM     56  H   LIG d   1       5.155  -0.797  -6.813  0.00  0.00     0.027 H 
ATOM     57  H   LIG d   1       3.663  -1.517  -6.162  0.00  0.00     0.027 H 
ENDBRANCH   4  54
BRANCH   4  58
ATOM     58  O   LIG d   1       4.246   1.143  -7.967  0.00  0.00    -0.377 OA
ATOM     59  H   LIG d   1       5.030   0.787  -8.411  0.00  0.00     0.211 HD
ENDBRANCH   4  58
ENDBRANCH   1   4
TORSDOF 19
ENDMDL
MODEL 6
REMARK VINA RESULT:      -4.7      1.423      1.911
REMARK  19 active torsions:
REMARK  status: ('A' for Active; 'I' for Inactive)
REMARK    1  A    between atoms: C_1  and  C_2 
REMARK    2  A    between atoms: C_2  and  C_4 
REMARK    3  A    between atoms: C_2  and  C_18 
REMARK    4  A    between atoms: C_4  and  C_5 
REMARK    5  A    between atoms: C_5  and  C_6 
REMARK    6  A    between atoms: C_6  and  C_7 
REMARK    7  A    between atoms: C_7  and  C_9 
REMARK    8  A    between atoms: C_7  and  C_10 
REMARK    9  A    between atoms: C_10  and  C_11 
REMARK   10  A    between atoms: C_11  and  C_12 
REMARK   11  A    between atoms: C_12  and  C_13 
REMARK   12  A    between atoms: C_13  and  C_14 
REMARK   13  A    between atoms: C_13  and  C_15 
REMARK   14  A    between atoms: C_13  and  O_17 
REMARK   15  A    between atoms: C_18  and  C_19 
REMARK   16  A    between atoms: C_19  and  C_20 
REMARK   17  A    between atoms: C_20  and  C_21 
REMARK   18  A    between atoms: C_21  and  C_22 
REMARK   19  A    between atoms: C_21  and  C_23 
ROOT
ATOM      1  C   LIG d   1       2.457  -0.160  -8.599  0.00  0.00    -0.071 C 
ATOM      2  C   LIG d   1       1.742  -0.421  -9.492  0.00  0.00    -0.116 C 
ATOM      3  H   LIG d   1       1.103  -0.654 -10.291  0.00  0.00     0.123 H 
ENDROOT
BRANCH   1   4
ATOM      4  C   LIG d   1       3.354   0.166  -7.478  0.00  0.00     0.123 C 
BRANCH   4   5
ATOM      5  C   LIG d   1       2.538   0.750  -6.323  0.00  0.00    -0.013 C 
ATOM      6  H   LIG d   1       1.475   0.621  -6.529  0.00  0.00     0.030 H 
ATOM      7  H   LIG d   1       2.762   1.812  -6.221  0.00  0.00     0.030 H 
BRANCH   5   8
ATOM      8  C   LIG d   1       2.898   0.025  -5.026  0.00  0.00    -0.049 C 
ATOM      9  H   LIG d   1       3.691  -0.696  -5.220  0.00  0.00     0.027 H 
ATOM     10  H   LIG d   1       2.018  -0.495  -4.644  0.00  0.00     0.027 H 
BRANCH   8  11
ATOM     11  C   LIG d   1       3.378   1.043  -3.989  0.00  0.00    -0.050 C 
ATOM     12  H   LIG d   1       2.791   1.958  -4.080  0.00  0.00     0.027 H 
ATOM     13  H   LIG d   1       4.430   1.267  -4.160  0.00  0.00     0.027 H 
BRANCH  11  14
ATOM     14  C   LIG d   1       3.201   0.462  -2.584  0.00  0.00    -0.044 C 
ATOM     15  H   LIG d   1       2.362   0.953  -2.090  0.00  0.00     0.030 H 
BRANCH  14  16
ATOM     16  C   LIG d   1       2.927  -1.039  -2.684  0.00  0.00    -0.051 C 
ATOM     17  H   LIG d   1       2.685  -1.297  -3.715  0.00  0.00     0.027 H 
ATOM     18  H   LIG d   1       2.088  -1.298  -2.038  0.00  0.00     0.027 H 
BRANCH  16  19
ATOM     19  C   LIG d   1       4.169  -1.816  -2.243  0.00  0.00    -0.053 C 
ATOM     20  H   LIG d   1       3.946  -2.367  -1.330  0.00  0.00     0.026 H 
ATOM     21  H   LIG d   1       4.986  -1.119  -2.057  0.00  0.00     0.026 H 
BRANCH  19  22
ATOM     22  C   LIG d   1       4.575  -2.796  -3.345  0.00  0.00    -0.051 C 
ATOM     23  H   LIG d   1       3.740  -2.939  -4.030  0.00  0.00     0.027 H 
ATOM     24  H   LIG d   1       4.848  -3.752  -2.900  0.00  0.00     0.027 H 
BRANCH  22  25
ATOM     25  C   LIG d   1       5.773  -2.232  -4.113  0.00  0.00    -0.044 C 
ATOM     26  H   LIG d   1       5.447  -1.395  -4.730  0.00  0.00     0.030 H 
BRANCH  25  27
ATOM     27  C   LIG d   1       6.835  -1.751  -3.121  0.00  0.00    -0.062 C 
ATOM     28  H   LIG d   1       6.614  -0.726  -2.822  0.00  0.00     0.023 H 
ATOM     29  H   LIG d   1       6.829  -2.396  -2.242  0.00  0.00     0.023 H 
ATOM     30  H   LIG d   1       7.816  -1.789  -3.594  0.00  0.00     0.023 H 
ENDBRANCH  25  27
BRANCH  25  31
ATOM     31  C   LIG d   1       6.367  -3.323  -5.005  0.00  0.00    -0.051 C 
ATOM     32  H   LIG d   1       6.435  -4.255  -4.444  0.00  0.00     0.027 H 
ATOM     33  H   LIG d   1       5.726  -3.470  -5.875  0.00  0.00     0.027 H 
BRANCH  31  34
ATOM     34  C   LIG d   1       7.763  -2.902  -5.466  0.00  0.00    -0.053 C 
ATOM     35  H   LIG d   1       8.222  -2.272  -4.706  0.00  0.00     0.026 H 
ATOM     36  H   LIG d   1       8.378  -3.790  -5.621  0.00  0.00     0.026 H 
BRANCH  34  37
ATOM     37  C   LIG d   1       7.654  -2.122  -6.778  0.00  0.00    -0.051 C 
ATOM     38  H   LIG d   1       8.084  -2.711  -7.588  0.00  0.00     0.027 H 
ATOM     39  H   LIG d   1       6.604  -1.920  -6.994  0.00  0.00     0.027 H 
BRANCH  37  40
ATOM     40  C   LIG d   1       8.412  -0.800  -6.650  0.00  0.00    -0.047 C 
ATOM     41  H   LIG d   1       8.871  -0.549  -7.606  0.00  0.00     0.029 H 
BRANCH  40  42
ATOM     42  C   LIG d   1       7.438   0.309  -6.245  0.00  0.00    -0.063 C 
ATOM     43  H   LIG d   1       7.448   0.425  -5.162  0.00  0.00     0.023 H 
ATOM     44  H   LIG d   1       7.738   1.245  -6.714  0.00  0.00     0.023 H 
ATOM     45  H   LIG d   1       6.432   0.044  -6.572  0.00  0.00     0.023 H 
ENDBRANCH  40  42
BRANCH  40  46
ATOM     46  C   LIG d   1       9.499  -0.937  -5.582  0.00  0.00    -0.063 C 
ATOM     47  H   LIG d   1       9.194  -1.680  -4.846  0.00  0.00     0.023 H 
ATOM     48  H   LIG d   1      10.432  -1.251  -6.051  0.00  0.00     0.023 H 
ATOM     49  H   LIG d   1       9.647   0.024  -5.088  0.00  0.00     0.023 H 
ENDBRANCH  40  46
ENDBRANCH  37  40
ENDBRANCH  34  37
ENDBRANCH  31  34
ENDBRANCH  25  31
ENDBRANCH  22  25
ENDBRANCH  19  22
ENDBRANCH  16  19
ENDBRANCH  14  16
BRANCH  14  50
ATOM     50  C   LIG d   1       4.478   0.695  -1.772  0.00  0.00    -0.062 C 
ATOM     51  H   LIG d   1       4.214   0.962  -0.749  0.00  0.00     0.023 H 
ATOM     52  H   LIG d   1       5.077  -0.216  -1.768  0.00  0.00     0.023 H 
ATOM     53  H   LIG d   1       5.052   1.505  -2.222  0.00  0.00     0.023 H 
ENDBRANCH  14  50
ENDBRANCH  11  14
ENDBRANCH   8  11
ENDBRANCH   5   8
ENDBRANCH   4   5
BRANCH   4  54
ATOM     54  C   LIG d   1       4.067  -1.104  -7.008  0.00  0.00    -0.025 C 
ATOM     55  H   LIG d   1       5.145  -0.958  -7.069  0.00  0.00     0.027 H 
ATOM     56  H   LIG d   1       3.786  -1.317  -5.977  0.00  0.00     0.027 H 
ATOM     57  H   LIG d   1       3.777  -1.940  -7.644  0.00  0.00     0.027 H 
ENDBRANCH   4  54
BRANCH   4  58
ATOM     58  O   LIG d   1       4.324   1.124  -7.907  0.00  0.00    -0.377 OA
ATOM     59  H   LIG d   1       5.104   0.733  -8.326  0.00  0.00     0.211 HD
ENDBRANCH   4  58
ENDBRANCH   1   4
TORSDOF 19
ENDMDL
MODEL 7
REMARK VINA RESULT:      -4.7      1.996      4.298
REMARK  19 active torsions:
REMARK  status: ('A' for Active; 'I' for Inactive)
REMARK    1  A    between atoms: C_1  and  C_2 
REMARK    2  A    between atoms: C_2  and  C_4 
REMARK    3  A    between atoms: C_2  and  C_18 
REMARK    4  A    between atoms: C_4  and  C_5 
REMARK    5  A    between atoms: C_5  and  C_6 
REMARK    6  A    between atoms: C_6  and  C_7 
REMARK    7  A    between atoms: C_7  and  C_9 
REMARK    8  A    between atoms: C_7  and  C_10 
REMARK    9  A    between atoms: C_10  and  C_11 
REMARK   10  A    between atoms: C_11  and  C_12 
REMARK   11  A    between atoms: C_12  and  C_13 
REMARK   12  A    between atoms: C_13  and  C_14 
REMARK   13  A    between atoms: C_13  and  C_15 
REMARK   14  A    between atoms: C_13  and  O_17 
REMARK   15  A    between atoms: C_18  and  C_19 
REMARK   16  A    between atoms: C_19  and  C_20 
REMARK   17  A    between atoms: C_20  and  C_21 
REMARK   18  A    between atoms: C_21  and  C_22 
REMARK   19  A    between atoms: C_21  and  C_23 
ROOT
ATOM      1  C   LIG d   1       5.047   1.640  -9.067  0.00  0.00    -0.071 C 
ATOM      2  C   LIG d   1       6.177   1.518  -8.774  0.00  0.00    -0.116 C 
ATOM      3  H   LIG d   1       7.187   1.409  -8.510  0.00  0.00     0.123 H 
ENDROOT
BRANCH   1   4
ATOM      4  C   LIG d   1       3.630   1.794  -9.437  0.00  0.00     0.123 C 
BRANCH   4   5
ATOM      5  C   LIG d   1       3.137   0.514 -10.115  0.00  0.00    -0.013 C 
ATOM      6  H   LIG d   1       3.992  -0.106 -10.385  0.00  0.00     0.030 H 
ATOM      7  H   LIG d   1       2.577   0.773 -11.014  0.00  0.00     0.030 H 
BRANCH   5   8
ATOM      8  C   LIG d   1       2.231  -0.256  -9.154  0.00  0.00    -0.049 C 
ATOM      9  H   LIG d   1       1.188  -0.043  -9.388  0.00  0.00     0.027 H 
ATOM     10  H   LIG d   1       2.444   0.049  -8.129  0.00  0.00     0.027 H 
BRANCH   8  11
ATOM     11  C   LIG d   1       2.489  -1.758  -9.302  0.00  0.00    -0.050 C 
ATOM     12  H   LIG d   1       2.568  -2.010 -10.360  0.00  0.00     0.027 H 
ATOM     13  H   LIG d   1       1.665  -2.313  -8.856  0.00  0.00     0.027 H 
BRANCH  11  14
ATOM     14  C   LIG d   1       3.794  -2.123  -8.592  0.00  0.00    -0.044 C 
ATOM     15  H   LIG d   1       4.641  -1.828  -9.213  0.00  0.00     0.030 H 
BRANCH  14  16
ATOM     16  C   LIG d   1       3.867  -1.393  -7.250  0.00  0.00    -0.051 C 
ATOM     17  H   LIG d   1       3.156  -1.838  -6.554  0.00  0.00     0.027 H 
ATOM     18  H   LIG d   1       3.622  -0.340  -7.396  0.00  0.00     0.027 H 
BRANCH  16  19
ATOM     19  C   LIG d   1       5.281  -1.513  -6.679  0.00  0.00    -0.053 C 
ATOM     20  H   LIG d   1       5.900  -0.705  -7.070  0.00  0.00     0.026 H 
ATOM     21  H   LIG d   1       5.709  -2.472  -6.968  0.00  0.00     0.026 H 
BRANCH  19  22
ATOM     22  C   LIG d   1       5.225  -1.419  -5.153  0.00  0.00    -0.051 C 
ATOM     23  H   LIG d   1       4.688  -0.516  -4.864  0.00  0.00     0.027 H 
ATOM     24  H   LIG d   1       6.238  -1.384  -4.753  0.00  0.00     0.027 H 
BRANCH  22  25
ATOM     25  C   LIG d   1       4.499  -2.645  -4.594  0.00  0.00    -0.044 C 
ATOM     26  H   LIG d   1       3.499  -2.702  -5.022  0.00  0.00     0.030 H 
BRANCH  25  27
ATOM     27  C   LIG d   1       5.280  -3.910  -4.955  0.00  0.00    -0.062 C 
ATOM     28  H   LIG d   1       6.168  -3.637  -5.525  0.00  0.00     0.023 H 
ATOM     29  H   LIG d   1       5.578  -4.426  -4.042  0.00  0.00     0.023 H 
ATOM     30  H   LIG d   1       4.651  -4.567  -5.555  0.00  0.00     0.023 H 
ENDBRANCH  25  27
BRANCH  25  31
ATOM     31  C   LIG d   1       4.396  -2.527  -3.072  0.00  0.00    -0.051 C 
ATOM     32  H   LIG d   1       3.881  -3.401  -2.673  0.00  0.00     0.027 H 
ATOM     33  H   LIG d   1       5.397  -2.468  -2.643  0.00  0.00     0.027 H 
BRANCH  31  34
ATOM     34  C   LIG d   1       3.612  -1.264  -2.710  0.00  0.00    -0.053 C 
ATOM     35  H   LIG d   1       3.448  -0.668  -3.607  0.00  0.00     0.026 H 
ATOM     36  H   LIG d   1       2.650  -1.545  -2.280  0.00  0.00     0.026 H 
BRANCH  34  37
ATOM     37  C   LIG d   1       4.406  -0.445  -1.691  0.00  0.00    -0.051 C 
ATOM     38  H   LIG d   1       3.893  -0.464  -0.730  0.00  0.00     0.027 H 
ATOM     39  H   LIG d   1       5.403  -0.872  -1.579  0.00  0.00     0.027 H 
BRANCH  37  40
ATOM     40  C   LIG d   1       4.523   1.001  -2.179  0.00  0.00    -0.047 C 
ATOM     41  H   LIG d   1       4.469   1.678  -1.327  0.00  0.00     0.029 H 
BRANCH  40  42
ATOM     42  C   LIG d   1       5.861   1.189  -2.897  0.00  0.00    -0.063 C 
ATOM     43  H   LIG d   1       6.295   0.215  -3.122  0.00  0.00     0.023 H 
ATOM     44  H   LIG d   1       5.702   1.739  -3.824  0.00  0.00     0.023 H 
ATOM     45  H   LIG d   1       6.542   1.748  -2.254  0.00  0.00     0.023 H 
ENDBRANCH  40  42
BRANCH  40  46
ATOM     46  C   LIG d   1       3.379   1.306  -3.147  0.00  0.00    -0.063 C 
ATOM     47  H   LIG d   1       2.428   1.068  -2.672  0.00  0.00     0.023 H 
ATOM     48  H   LIG d   1       3.398   2.364  -3.411  0.00  0.00     0.023 H 
ATOM     49  H   LIG d   1       3.495   0.704  -4.049  0.00  0.00     0.023 H 
ENDBRANCH  40  46
ENDBRANCH  37  40
ENDBRANCH  34  37
ENDBRANCH  31  34
ENDBRANCH  25  31
ENDBRANCH  22  25
ENDBRANCH  19  22
ENDBRANCH  16  19
ENDBRANCH  14  16
BRANCH  14  50
ATOM     50  C   LIG d   1       3.839  -3.634  -8.354  0.00  0.00    -0.062 C 
ATOM     51  H   LIG d   1       4.274  -4.126  -9.223  0.00  0.00     0.023 H 
ATOM     52  H   LIG d   1       4.448  -3.845  -7.474  0.00  0.00     0.023 H 
ATOM     53  H   LIG d   1       2.828  -4.007  -8.192  0.00  0.00     0.023 H 
ENDBRANCH  14  50
ENDBRANCH  11  14
ENDBRANCH   8  11
ENDBRANCH   5   8
ENDBRANCH   4   5
BRANCH   4  54
ATOM     54  C   LIG d   1       2.800   2.056  -8.177  0.00  0.00    -0.025 C 
ATOM     55  H   LIG d   1       1.740   2.023  -8.429  0.00  0.00     0.027 H 
ATOM     56  H   LIG d   1       3.022   1.294  -7.431  0.00  0.00     0.027 H 
ATOM     57  H   LIG d   1       3.047   3.039  -7.778  0.00  0.00     0.027 H 
ENDBRANCH   4  54
BRANCH   4  58
ATOM     58  O   LIG d   1       3.489   2.895 -10.337  0.00  0.00    -0.377 OA
ATOM     59  H   LIG d   1       3.605   2.658 -11.268  0.00  0.00     0.211 HD
ENDBRANCH   4  58
ENDBRANCH   1   4
TORSDOF 19
ENDMDL
MODEL 8
REMARK VINA RESULT:      -4.6      1.758      5.541
REMARK  19 active torsions:
REMARK  status: ('A' for Active; 'I' for Inactive)
REMARK    1  A    between atoms: C_1  and  C_2 
REMARK    2  A    between atoms: C_2  and  C_4 
REMARK    3  A    between atoms: C_2  and  C_18 
REMARK    4  A    between atoms: C_4  and  C_5 
REMARK    5  A    between atoms: C_5  and  C_6 
REMARK    6  A    between atoms: C_6  and  C_7 
REMARK    7  A    between atoms: C_7  and  C_9 
REMARK    8  A    between atoms: C_7  and  C_10 
REMARK    9  A    between atoms: C_10  and  C_11 
REMARK   10  A    between atoms: C_11  and  C_12 
REMARK   11  A    between atoms: C_12  and  C_13 
REMARK   12  A    between atoms: C_13  and  C_14 
REMARK   13  A    between atoms: C_13  and  C_15 
REMARK   14  A    between atoms: C_13  and  O_17 
REMARK   15  A    between atoms: C_18  and  C_19 
REMARK   16  A    between atoms: C_19  and  C_20 
REMARK   17  A    between atoms: C_20  and  C_21 
REMARK   18  A    between atoms: C_21  and  C_22 
REMARK   19  A    between atoms: C_21  and  C_23 
ROOT
ATOM      1  C   LIG d   1       9.556   2.606  -6.623  0.00  0.00    -0.071 C 
ATOM      2  C   LIG d   1      10.024   3.026  -7.614  0.00  0.00    -0.116 C 
ATOM      3  H   LIG d   1      10.443   3.402  -8.499  0.00  0.00     0.123 H 
ENDROOT
BRANCH   1   4
ATOM      4  C   LIG d   1       8.968   2.078  -5.380  0.00  0.00     0.123 C 
BRANCH   4   5
ATOM      5  C   LIG d   1       7.717   1.263  -5.712  0.00  0.00    -0.013 C 
ATOM      6  H   LIG d   1       7.967   0.500  -6.450  0.00  0.00     0.030 H 
ATOM      7  H   LIG d   1       6.951   1.924  -6.118  0.00  0.00     0.030 H 
BRANCH   5   8
ATOM      8  C   LIG d   1       7.193   0.592  -4.442  0.00  0.00    -0.049 C 
ATOM      9  H   LIG d   1       6.431   1.223  -3.985  0.00  0.00     0.027 H 
ATOM     10  H   LIG d   1       8.016   0.450  -3.740  0.00  0.00     0.027 H 
BRANCH   8  11
ATOM     11  C   LIG d   1       6.584  -0.766  -4.796  0.00  0.00    -0.050 C 
ATOM     12  H   LIG d   1       7.179  -1.237  -5.580  0.00  0.00     0.027 H 
ATOM     13  H   LIG d   1       5.563  -0.626  -5.148  0.00  0.00     0.027 H 
BRANCH  11  14
ATOM     14  C   LIG d   1       6.578  -1.662  -3.555  0.00  0.00    -0.044 C 
ATOM     15  H   LIG d   1       6.788  -1.059  -2.671  0.00  0.00     0.030 H 
BRANCH  14  16
ATOM     16  C   LIG d   1       5.206  -2.321  -3.409  0.00  0.00    -0.051 C 
ATOM     17  H   LIG d   1       5.332  -3.389  -3.235  0.00  0.00     0.027 H 
ATOM     18  H   LIG d   1       4.630  -2.167  -4.322  0.00  0.00     0.027 H 
BRANCH  16  19
ATOM     19  C   LIG d   1       4.463  -1.697  -2.226  0.00  0.00    -0.053 C 
ATOM     20  H   LIG d   1       5.086  -0.926  -1.772  0.00  0.00     0.026 H 
ATOM     21  H   LIG d   1       4.241  -2.467  -1.488  0.00  0.00     0.026 H 
BRANCH  19  22
ATOM     22  C   LIG d   1       3.156  -1.071  -2.717  0.00  0.00    -0.051 C 
ATOM     23  H   LIG d   1       2.324  -1.453  -2.124  0.00  0.00     0.027 H 
ATOM     24  H   LIG d   1       3.002  -1.325  -3.765  0.00  0.00     0.027 H 
BRANCH  22  25
ATOM     25  C   LIG d   1       3.232   0.450  -2.568  0.00  0.00    -0.044 C 
ATOM     26  H   LIG d   1       2.322   0.814  -2.092  0.00  0.00     0.030 H 
BRANCH  25  27
ATOM     27  C   LIG d   1       4.441   0.819  -1.706  0.00  0.00    -0.062 C 
ATOM     28  H   LIG d   1       5.290   0.195  -1.984  0.00  0.00     0.023 H 
ATOM     29  H   LIG d   1       4.693   1.868  -1.863  0.00  0.00     0.023 H 
ATOM     30  H   LIG d   1       4.200   0.657  -0.655  0.00  0.00     0.023 H 
ENDBRANCH  25  27
BRANCH  25  31
ATOM     31  C   LIG d   1       3.377   1.092  -3.950  0.00  0.00    -0.051 C 
ATOM     32  H   LIG d   1       3.014   2.119  -3.913  0.00  0.00     0.027 H 
ATOM     33  H   LIG d   1       4.427   1.088  -4.243  0.00  0.00     0.027 H 
BRANCH  31  34
ATOM     34  C   LIG d   1       2.560   0.298  -4.970  0.00  0.00    -0.053 C 
ATOM     35  H   LIG d   1       2.194  -0.619  -4.508  0.00  0.00     0.026 H 
ATOM     36  H   LIG d   1       1.712   0.898  -5.303  0.00  0.00     0.026 H 
BRANCH  34  37
ATOM     37  C   LIG d   1       3.441  -0.051  -6.170  0.00  0.00    -0.051 C 
ATOM     38  H   LIG d   1       4.301   0.617  -6.196  0.00  0.00     0.027 H 
ATOM     39  H   LIG d   1       3.785  -1.082  -6.081  0.00  0.00     0.027 H 
BRANCH  37  40
ATOM     40  C   LIG d   1       2.633   0.105  -7.459  0.00  0.00    -0.047 C 
ATOM     41  H   LIG d   1       1.569   0.057  -7.230  0.00  0.00     0.029 H 
BRANCH  40  42
ATOM     42  C   LIG d   1       2.955   1.456  -8.102  0.00  0.00    -0.063 C 
ATOM     43  H   LIG d   1       2.029   1.955  -8.387  0.00  0.00     0.023 H 
ATOM     44  H   LIG d   1       3.499   2.077  -7.391  0.00  0.00     0.023 H 
ATOM     45  H   LIG d   1       3.569   1.297  -8.990  0.00  0.00     0.023 H 
ENDBRANCH  40  42
BRANCH  40  46
ATOM     46  C   LIG d   1       2.997  -1.020  -8.429  0.00  0.00    -0.063 C 
ATOM     47  H   LIG d   1       3.962  -1.441  -8.151  0.00  0.00     0.023 H 
ATOM     48  H   LIG d   1       2.234  -1.798  -8.386  0.00  0.00     0.023 H 
ATOM     49  H   LIG d   1       3.052  -0.622  -9.444  0.00  0.00     0.023 H 
ENDBRANCH  40  46
ENDBRANCH  37  40
ENDBRANCH  34  37
ENDBRANCH  31  34
ENDBRANCH  25  31
ENDBRANCH  22  25
ENDBRANCH  19  22
ENDBRANCH  16  19
ENDBRANCH  14  16
BRANCH  14  50
ATOM     50  C   LIG d   1       7.651  -2.743  -3.700  0.00  0.00    -0.062 C 
ATOM     51  H   LIG d   1       7.790  -2.977  -4.755  0.00  0.00     0.023 H 
ATOM     52  H   LIG d   1       8.590  -2.381  -3.282  0.00  0.00     0.023 H 
ATOM     53  H   LIG d   1       7.338  -3.640  -3.166  0.00  0.00     0.023 H 
ENDBRANCH  14  50
ENDBRANCH  11  14
ENDBRANCH   8  11
ENDBRANCH   5   8
ENDBRANCH   4   5
BRANCH   4  54
ATOM     54  C   LIG d   1       9.989   1.182  -4.674  0.00  0.00    -0.025 C 
ATOM     55  H   LIG d   1      10.937   1.713  -4.586  0.00  0.00     0.027 H 
ATOM     56  H   LIG d   1       9.621   0.926  -3.681  0.00  0.00     0.027 H 
ATOM     57  H   LIG d   1      10.135   0.272  -5.254  0.00  0.00     0.027 H 
ENDBRANCH   4  54
BRANCH   4  58
ATOM     58  O   LIG d   1       8.615   3.165  -4.521  0.00  0.00    -0.377 OA
ATOM     59  H   LIG d   1       9.324   3.438  -3.922  0.00  0.00     0.211 HD
ENDBRANCH   4  58
ENDBRANCH   1   4
TORSDOF 19
ENDMDL
MODEL 9
REMARK VINA RESULT:      -4.6      2.094      6.037
REMARK  19 active torsions:
REMARK  status: ('A' for Active; 'I' for Inactive)
REMARK    1  A    between atoms: C_1  and  C_2 
REMARK    2  A    between atoms: C_2  and  C_4 
REMARK    3  A    between atoms: C_2  and  C_18 
REMARK    4  A    between atoms: C_4  and  C_5 
REMARK    5  A    between atoms: C_5  and  C_6 
REMARK    6  A    between atoms: C_6  and  C_7 
REMARK    7  A    between atoms: C_7  and  C_9 
REMARK    8  A    between atoms: C_7  and  C_10 
REMARK    9  A    between atoms: C_10  and  C_11 
REMARK   10  A    between atoms: C_11  and  C_12 
REMARK   11  A    between atoms: C_12  and  C_13 
REMARK   12  A    between atoms: C_13  and  C_14 
REMARK   13  A    between atoms: C_13  and  C_15 
REMARK   14  A    between atoms: C_13  and  O_17 
REMARK   15  A    between atoms: C_18  and  C_19 
REMARK   16  A    between atoms: C_19  and  C_20 
REMARK   17  A    between atoms: C_20  and  C_21 
REMARK   18  A    between atoms: C_21  and  C_22 
REMARK   19  A    between atoms: C_21  and  C_23 
ROOT
ATOM      1  C   LIG d   1       6.961  -0.632  -4.621  0.00  0.00    -0.071 C 
ATOM      2  C   LIG d   1       7.045   0.484  -4.974  0.00  0.00    -0.116 C 
ATOM      3  H   LIG d   1       7.121   1.483  -5.289  0.00  0.00     0.123 H 
ENDROOT
BRANCH   1   4
ATOM      4  C   LIG d   1       6.855  -2.032  -4.179  0.00  0.00     0.123 C 
BRANCH   4   5
ATOM      5  C   LIG d   1       5.402  -2.345  -3.817  0.00  0.00    -0.013 C 
ATOM      6  H   LIG d   1       5.244  -3.424  -3.855  0.00  0.00     0.030 H 
ATOM      7  H   LIG d   1       4.737  -1.856  -4.530  0.00  0.00     0.030 H 
BRANCH   5   8
ATOM      8  C   LIG d   1       5.104  -1.834  -2.408  0.00  0.00    -0.049 C 
ATOM      9  H   LIG d   1       5.843  -1.083  -2.129  0.00  0.00     0.027 H 
ATOM     10  H   LIG d   1       5.146  -2.666  -1.703  0.00  0.00     0.027 H 
BRANCH   8  11
ATOM     11  C   LIG d   1       3.707  -1.211  -2.375  0.00  0.00    -0.050 C 
ATOM     12  H   LIG d   1       3.463  -0.918  -1.353  0.00  0.00     0.027 H 
ATOM     13  H   LIG d   1       2.976  -1.938  -2.729  0.00  0.00     0.027 H 
BRANCH  11  14
ATOM     14  C   LIG d   1       3.678   0.024  -3.280  0.00  0.00    -0.044 C 
ATOM     15  H   LIG d   1       4.576   0.043  -3.897  0.00  0.00     0.030 H 
BRANCH  14  16
ATOM     16  C   LIG d   1       2.442  -0.032  -4.179  0.00  0.00    -0.051 C 
ATOM     17  H   LIG d   1       1.567   0.290  -3.615  0.00  0.00     0.027 H 
ATOM     18  H   LIG d   1       2.293  -1.053  -4.529  0.00  0.00     0.027 H 
BRANCH  16  19
ATOM     19  C   LIG d   1       2.643   0.895  -5.380  0.00  0.00    -0.053 C 
ATOM     20  H   LIG d   1       3.585   1.432  -5.269  0.00  0.00     0.026 H 
ATOM     21  H   LIG d   1       1.821   1.608  -5.430  0.00  0.00     0.026 H 
BRANCH  19  22
ATOM     22  C   LIG d   1       2.677   0.065  -6.664  0.00  0.00    -0.051 C 
ATOM     23  H   LIG d   1       2.040   0.531  -7.416  0.00  0.00     0.027 H 
ATOM     24  H   LIG d   1       2.316  -0.943  -6.457  0.00  0.00     0.027 H 
BRANCH  22  25
ATOM     25  C   LIG d   1       4.114  -0.007  -7.187  0.00  0.00    -0.044 C 
ATOM     26  H   LIG d   1       4.783   0.477  -6.477  0.00  0.00     0.030 H 
BRANCH  25  27
ATOM     27  C   LIG d   1       4.523  -1.471  -7.358  0.00  0.00    -0.062 C 
ATOM     28  H   LIG d   1       3.784  -1.985  -7.973  0.00  0.00     0.023 H 
ATOM     29  H   LIG d   1       5.498  -1.522  -7.841  0.00  0.00     0.023 H 
ATOM     30  H   LIG d   1       4.576  -1.949  -6.379  0.00  0.00     0.023 H 
ENDBRANCH  25  27
BRANCH  25  31
ATOM     31  C   LIG d   1       4.201   0.707  -8.538  0.00  0.00    -0.051 C 
ATOM     32  H   LIG d   1       4.610   1.707  -8.395  0.00  0.00     0.027 H 
ATOM     33  H   LIG d   1       4.851   0.142  -9.206  0.00  0.00     0.027 H 
BRANCH  31  34
ATOM     34  C   LIG d   1       2.804   0.810  -9.152  0.00  0.00    -0.053 C 
ATOM     35  H   LIG d   1       2.066   0.438  -8.442  0.00  0.00     0.026 H 
ATOM     36  H   LIG d   1       2.587   1.853  -9.389  0.00  0.00     0.026 H 
BRANCH  34  37
ATOM     37  C   LIG d   1       2.747  -0.026 -10.432  0.00  0.00    -0.051 C 
ATOM     38  H   LIG d   1       2.626   0.634 -11.292  0.00  0.00     0.027 H 
ATOM     39  H   LIG d   1       3.672  -0.594 -10.537  0.00  0.00     0.027 H 
BRANCH  37  40
ATOM     40  C   LIG d   1       1.562  -0.991 -10.358  0.00  0.00    -0.047 C 
ATOM     41  H   LIG d   1       0.809  -0.591  -9.679  0.00  0.00     0.029 H 
BRANCH  40  42
ATOM     42  C   LIG d   1       0.954  -1.159 -11.752  0.00  0.00    -0.063 C 
ATOM     43  H   LIG d   1      -0.110  -1.380 -11.662  0.00  0.00     0.023 H 
ATOM     44  H   LIG d   1       1.086  -0.239 -12.321  0.00  0.00     0.023 H 
ATOM     45  H   LIG d   1       1.452  -1.981 -12.269  0.00  0.00     0.023 H 
ENDBRANCH  40  42
BRANCH  40  46
ATOM     46  C   LIG d   1       2.042  -2.349  -9.846  0.00  0.00    -0.063 C 
ATOM     47  H   LIG d   1       1.851  -3.111 -10.600  0.00  0.00     0.023 H 
ATOM     48  H   LIG d   1       3.112  -2.302  -9.640  0.00  0.00     0.023 H 
ATOM     49  H   LIG d   1       1.507  -2.603  -8.930  0.00  0.00     0.023 H 
ENDBRANCH  40  46
ENDBRANCH  37  40
ENDBRANCH  34  37
ENDBRANCH  31  34
ENDBRANCH  25  31
ENDBRANCH  22  25
ENDBRANCH  19  22
ENDBRANCH  16  19
ENDBRANCH  14  16
BRANCH  14  50
ATOM     50  C   LIG d   1       3.625   1.286  -2.417  0.00  0.00    -0.062 C 
ATOM     51  H   LIG d   1       3.648   1.008  -1.364  0.00  0.00     0.023 H 
ATOM     52  H   LIG d   1       4.484   1.918  -2.645  0.00  0.00     0.023 H 
ATOM     53  H   LIG d   1       2.706   1.833  -2.628  0.00  0.00     0.023 H 
ENDBRANCH  14  50
ENDBRANCH  11  14
ENDBRANCH   8  11
ENDBRANCH   5   8
ENDBRANCH   4   5
BRANCH   4  54
ATOM     54  C   LIG d   1       7.312  -2.959  -5.307  0.00  0.00    -0.025 C 
ATOM     55  H   LIG d   1       8.388  -2.861  -5.444  0.00  0.00     0.027 H 
ATOM     56  H   LIG d   1       7.070  -3.990  -5.050  0.00  0.00     0.027 H 
ATOM     57  H   LIG d   1       6.802  -2.686  -6.231  0.00  0.00     0.027 H 
ENDBRANCH   4  54
BRANCH   4  58
ATOM     58  O   LIG d   1       7.685  -2.234  -3.032  0.00  0.00    -0.377 OA
ATOM     59  H   LIG d   1       8.605  -1.963  -3.161  0.00  0.00     0.211 HD
ENDBRANCH   4  58
ENDBRANCH   1   4
TORSDOF 19
ENDMDL
MODEL 10
REMARK VINA RESULT:      -4.6      2.303      4.743
REMARK  19 active torsions:
REMARK  status: ('A' for Active; 'I' for Inactive)
REMARK    1  A    between atoms: C_1  and  C_2 
REMARK    2  A    between atoms: C_2  and  C_4 
REMARK    3  A    between atoms: C_2  and  C_18 
REMARK    4  A    between atoms: C_4  and  C_5 
REMARK    5  A    between atoms: C_5  and  C_6 
REMARK    6  A    between atoms: C_6  and  C_7 
REMARK    7  A    between atoms: C_7  and  C_9 
REMARK    8  A    between atoms: C_7  and  C_10 
REMARK    9  A    between atoms: C_10  and  C_11 
REMARK   10  A    between atoms: C_11  and  C_12 
REMARK   11  A    between atoms: C_12  and  C_13 
REMARK   12  A    between atoms: C_13  and  C_14 
REMARK   13  A    between atoms: C_13  and  C_15 
REMARK   14  A    between atoms: C_13  and  O_17 
REMARK   15  A    between atoms: C_18  and  C_19 
REMARK   16  A    between atoms: C_19  and  C_20 
REMARK   17  A    between atoms: C_20  and  C_21 
REMARK   18  A    between atoms: C_21  and  C_22 
REMARK   19  A    between atoms: C_21  and  C_23 
ROOT
ATOM      1  C   LIG d   1       1.041  -2.946 -11.037  0.00  0.00    -0.071 C 
ATOM      2  C   LIG d   1       0.850  -4.102 -10.964  0.00  0.00    -0.116 C 
ATOM      3  H   LIG d   1       0.681  -5.136 -10.899  0.00  0.00     0.123 H 
ENDROOT
BRANCH   1   4
ATOM      4  C   LIG d   1       1.279  -1.496 -11.127  0.00  0.00     0.123 C 
BRANCH   4   5
ATOM      5  C   LIG d   1       1.576  -0.938  -9.734  0.00  0.00    -0.013 C 
ATOM      6  H   LIG d   1       0.751  -1.182  -9.063  0.00  0.00     0.030 H 
ATOM      7  H   LIG d   1       1.688   0.145  -9.793  0.00  0.00     0.030 H 
BRANCH   5   8
ATOM      8  C   LIG d   1       2.868  -1.557  -9.201  0.00  0.00    -0.049 C 
ATOM      9  H   LIG d   1       3.477  -1.903 -10.035  0.00  0.00     0.027 H 
ATOM     10  H   LIG d   1       2.626  -2.401  -8.552  0.00  0.00     0.027 H 
BRANCH   8  11
ATOM     11  C   LIG d   1       3.645  -0.508  -8.403  0.00  0.00    -0.050 C 
ATOM     12  H   LIG d   1       4.635  -0.378  -8.842  0.00  0.00     0.027 H 
ATOM     13  H   LIG d   1       3.747  -0.840  -7.370  0.00  0.00     0.027 H 
BRANCH  11  14
ATOM     14  C   LIG d   1       2.891   0.823  -8.439  0.00  0.00    -0.044 C 
ATOM     15  H   LIG d   1       1.934   0.685  -8.943  0.00  0.00     0.030 H 
BRANCH  14  16
ATOM     16  C   LIG d   1       2.650   1.312  -7.011  0.00  0.00    -0.051 C 
ATOM     17  H   LIG d   1       1.602   1.587  -6.892  0.00  0.00     0.027 H 
ATOM     18  H   LIG d   1       3.278   2.181  -6.814  0.00  0.00     0.027 H 
BRANCH  16  19
ATOM     19  C   LIG d   1       2.998   0.196  -6.024  0.00  0.00    -0.053 C 
ATOM     20  H   LIG d   1       4.082   0.092  -5.963  0.00  0.00     0.026 H 
ATOM     21  H   LIG d   1       2.561  -0.741  -6.365  0.00  0.00     0.026 H 
BRANCH  19  22
ATOM     22  C   LIG d   1       2.441   0.545  -4.643  0.00  0.00    -0.051 C 
ATOM     23  H   LIG d   1       1.513  -0.002  -4.475  0.00  0.00     0.027 H 
ATOM     24  H   LIG d   1       2.245   1.616  -4.589  0.00  0.00     0.027 H 
BRANCH  22  25
ATOM     25  C   LIG d   1       3.461   0.160  -3.569  0.00  0.00    -0.044 C 
ATOM     26  H   LIG d   1       4.421  -0.052  -4.039  0.00  0.00     0.030 H 
BRANCH  25  27
ATOM     27  C   LIG d   1       3.623   1.316  -2.579  0.00  0.00    -0.062 C 
ATOM     28  H   LIG d   1       4.653   1.347  -2.223  0.00  0.00     0.023 H 
ATOM     29  H   LIG d   1       3.380   2.255  -3.075  0.00  0.00     0.023 H 
ATOM     30  H   LIG d   1       2.951   1.166  -1.734  0.00  0.00     0.023 H 
ENDBRANCH  25  27
BRANCH  25  31
ATOM     31  C   LIG d   1       2.973  -1.084  -2.824  0.00  0.00    -0.051 C 
ATOM     32  H   LIG d   1       2.531  -0.788  -1.873  0.00  0.00     0.027 H 
ATOM     33  H   LIG d   1       2.224  -1.599  -3.427  0.00  0.00     0.027 H 
BRANCH  31  34
ATOM     34  C   LIG d   1       4.153  -2.022  -2.567  0.00  0.00    -0.053 C 
ATOM     35  H   LIG d   1       5.013  -1.441  -2.234  0.00  0.00     0.026 H 
ATOM     36  H   LIG d   1       3.883  -2.744  -1.796  0.00  0.00     0.026 H 
BRANCH  34  37
ATOM     37  C   LIG d   1       4.507  -2.763  -3.858  0.00  0.00    -0.051 C 
ATOM     38  H   LIG d   1       4.326  -3.829  -3.726  0.00  0.00     0.027 H 
ATOM     39  H   LIG d   1       3.888  -2.387  -4.673  0.00  0.00     0.027 H 
BRANCH  37  40
ATOM     40  C   LIG d   1       5.982  -2.532  -4.191  0.00  0.00    -0.047 C 
ATOM     41  H   LIG d   1       6.502  -3.489  -4.225  0.00  0.00     0.029 H 
BRANCH  40  42
ATOM     42  C   LIG d   1       6.096  -1.841  -5.551  0.00  0.00    -0.063 C 
ATOM     43  H   LIG d   1       5.889  -2.560  -6.344  0.00  0.00     0.023 H 
ATOM     44  H   LIG d   1       5.378  -1.024  -5.606  0.00  0.00     0.023 H 
ATOM     45  H   LIG d   1       7.105  -1.447  -5.675  0.00  0.00     0.023 H 
ENDBRANCH  40  42
BRANCH  40  46
ATOM     46  C   LIG d   1       6.615  -1.646  -3.116  0.00  0.00    -0.063 C 
ATOM     47  H   LIG d   1       7.191  -0.853  -3.592  0.00  0.00     0.023 H 
ATOM     48  H   LIG d   1       5.830  -1.205  -2.501  0.00  0.00     0.023 H 
ATOM     49  H   LIG d   1       7.273  -2.248  -2.489  0.00  0.00     0.023 H 
ENDBRANCH  40  46
ENDBRANCH  37  40
ENDBRANCH  34  37
ENDBRANCH  31  34
ENDBRANCH  25  31
ENDBRANCH  22  25
ENDBRANCH  19  22
ENDBRANCH  16  19
ENDBRANCH  14  16
BRANCH  14  50
ATOM     50  C   LIG d   1       3.721   1.858  -9.201  0.00  0.00    -0.062 C 
ATOM     51  H   LIG d   1       3.173   2.798  -9.252  0.00  0.00     0.023 H 
ATOM     52  H   LIG d   1       4.667   2.018  -8.682  0.00  0.00     0.023 H 
ATOM     53  H   LIG d   1       3.918   1.497 -10.210  0.00  0.00     0.023 H 
ENDBRANCH  14  50
ENDBRANCH  11  14
ENDBRANCH   8  11
ENDBRANCH   5   8
ENDBRANCH   4   5
BRANCH   4  54
ATOM     54  C   LIG d   1       2.473  -1.232 -12.048  0.00  0.00    -0.025 C 
ATOM     55  H   LIG d   1       3.186  -0.584 -11.539  0.00  0.00     0.027 H 
ATOM     56  H   LIG d   1       2.953  -2.177 -12.299  0.00  0.00     0.027 H 
ATOM     57  H   LIG d   1       2.127  -0.746 -12.960  0.00  0.00     0.027 H 
ENDBRANCH   4  54
BRANCH   4  58
ATOM     58  O   LIG d   1       0.117  -0.855 -11.659  0.00  0.00    -0.377 OA
ATOM     59  H   LIG d   1       0.228  -0.529 -12.564  0.00  0.00     0.211 HD
ENDBRANCH   4  58
ENDBRANCH   1   4
TORSDOF 19
ENDMDL
