MODEL 1
REMARK VINA RESULT:      -5.4      0.000      0.000
REMARK  12 active torsions:
REMARK  status: ('A' for Active; 'I' for Inactive)
REMARK    1  A    between atoms: C_1  and  C_2 
REMARK    2  A    between atoms: C_7  and  C_10 
REMARK    3  A    between atoms: C_10  and  C_11 
REMARK    4  A    between atoms: C_10  and  C_12 
REMARK    5  A    between atoms: C_10  and  C_13 
REMARK    6  A    between atoms: C_13  and  C_14 
REMARK    7  A    between atoms: C_15  and  C_16 
REMARK    8  A    between atoms: C_15  and  C_17 
REMARK    9  A    between atoms: C_17  and  C_18 
REMARK   10  A    between atoms: C_18  and  C_19 
REMARK   11  A    between atoms: C_20  and  C_21 
REMARK   12  A    between atoms: C_20  and  C_22 
ROOT
ATOM      1  C   LIG d   1       2.624  -0.253  -5.902  0.00  0.00    -0.025 C 
ATOM      2  H   LIG d   1       1.703   0.141  -6.333  0.00  0.00     0.031 H 
ATOM      3  H   LIG d   1       2.429  -1.228  -5.455  0.00  0.00     0.031 H 
ENDROOT
BRANCH   1   4
ATOM      4  C   LIG d   1       3.679  -0.397  -7.000  0.00  0.00     0.019 C 
BRANCH   4   5
ATOM      5  C   LIG d   1       3.256   0.415  -8.225  0.00  0.00     0.165 C 
ATOM      6  O   LIG d   1       4.102   1.561  -8.354  0.00  0.00    -0.351 OA
ATOM      7  C   LIG d   1       3.803   2.374  -9.492  0.00  0.00     0.053 C 
ATOM      8  C   LIG d   1       3.916   1.519 -10.759  0.00  0.00    -0.003 C 
ATOM      9  H   LIG d   1       2.788   2.763  -9.405  0.00  0.00     0.056 H 
ATOM     10  H   LIG d   1       4.509   3.202  -9.545  0.00  0.00     0.056 H 
ATOM     11  C   LIG d   1       3.019   0.286 -10.606  0.00  0.00     0.061 C 
ATOM     12  H   LIG d   1       3.592   2.101 -11.622  0.00  0.00     0.031 H 
ATOM     13  H   LIG d   1       4.951   1.206 -10.897  0.00  0.00     0.031 H 
ATOM     14  H   LIG d   1       1.976   0.596 -10.561  0.00  0.00     0.059 H 
ATOM     15  O   LIG d   1       3.369  -0.396  -9.397  0.00  0.00    -0.348 OA
ATOM     16  H   LIG d   1       2.222   0.739  -8.106  0.00  0.00     0.091 H 
BRANCH  11  17
ATOM     17  C   LIG d   1       3.227  -0.649 -11.799  0.00  0.00    -0.038 C 
ATOM     18  H   LIG d   1       2.781  -0.207 -12.690  0.00  0.00     0.025 H 
ATOM     19  H   LIG d   1       4.295  -0.796 -11.963  0.00  0.00     0.025 H 
ATOM     20  H   LIG d   1       2.755  -1.610 -11.594  0.00  0.00     0.025 H 
ENDBRANCH  11  17
ENDBRANCH   4   5
BRANCH   4  21
ATOM     21  C   LIG d   1       3.815  -1.870  -7.386  0.00  0.00    -0.055 C 
ATOM     22  H   LIG d   1       4.200  -1.946  -8.403  0.00  0.00     0.024 H 
ATOM     23  H   LIG d   1       4.502  -2.365  -6.700  0.00  0.00     0.024 H 
ATOM     24  H   LIG d   1       2.839  -2.351  -7.331  0.00  0.00     0.024 H 
ENDBRANCH   4  21
BRANCH   4  25
ATOM     25  C   LIG d   1       5.024   0.121  -6.485  0.00  0.00    -0.055 C 
ATOM     26  H   LIG d   1       5.768   0.052  -7.278  0.00  0.00     0.024 H 
ATOM     27  H   LIG d   1       4.919   1.160  -6.174  0.00  0.00     0.024 H 
ATOM     28  H   LIG d   1       5.344  -0.482  -5.634  0.00  0.00     0.024 H 
ENDBRANCH   4  25
ENDBRANCH   1   4
BRANCH   1  29
ATOM     29  C   LIG d   1       3.126   0.694  -4.843  0.00  0.00    -0.084 C 
ATOM     30  C   LIG d   1       3.079   0.350  -3.580  0.00  0.00    -0.076 C 
ATOM     31  H   LIG d   1       3.526   1.656  -5.125  0.00  0.00     0.057 H 
BRANCH  30  32
ATOM     32  C   LIG d   1       2.597  -1.025  -3.192  0.00  0.00    -0.044 C 
ATOM     33  H   LIG d   1       1.983  -0.954  -2.295  0.00  0.00     0.027 H 
ATOM     34  H   LIG d   1       2.004  -1.445  -4.005  0.00  0.00     0.027 H 
ATOM     35  H   LIG d   1       3.454  -1.669  -2.997  0.00  0.00     0.027 H 
ENDBRANCH  30  32
BRANCH  30  36
ATOM     36  C   LIG d   1       3.503   1.328  -2.515  0.00  0.00    -0.029 C 
ATOM     37  H   LIG d   1       3.601   2.322  -2.952  0.00  0.00     0.031 H 
ATOM     38  H   LIG d   1       2.753   1.351  -1.723  0.00  0.00     0.031 H 
BRANCH  36  39
ATOM     39  C   LIG d   1       4.848   0.894  -1.931  0.00  0.00    -0.031 C 
ATOM     40  H   LIG d   1       5.009   1.395  -0.976  0.00  0.00     0.031 H 
ATOM     41  H   LIG d   1       4.848  -0.186  -1.779  0.00  0.00     0.031 H 
BRANCH  39  42
ATOM     42  C   LIG d   1       5.955   1.266  -2.884  0.00  0.00    -0.085 C 
ATOM     43  C   LIG d   1       6.721   0.335  -3.396  0.00  0.00    -0.080 C 
ATOM     44  H   LIG d   1       6.116   2.302  -3.145  0.00  0.00     0.057 H 
BRANCH  43  45
ATOM     45  C   LIG d   1       6.385  -1.118  -3.182  0.00  0.00    -0.044 C 
ATOM     46  H   LIG d   1       6.615  -1.397  -2.153  0.00  0.00     0.027 H 
ATOM     47  H   LIG d   1       5.323  -1.277  -3.373  0.00  0.00     0.027 H 
ATOM     48  H   LIG d   1       6.973  -1.731  -3.864  0.00  0.00     0.027 H 
ENDBRANCH  43  45
BRANCH  43  49
ATOM     49  C   LIG d   1       7.938   0.718  -4.198  0.00  0.00    -0.044 C 
ATOM     50  H   LIG d   1       8.833   0.558  -3.598  0.00  0.00     0.027 H 
ATOM     51  H   LIG d   1       7.988   0.103  -5.097  0.00  0.00     0.027 H 
ATOM     52  H   LIG d   1       7.872   1.769  -4.480  0.00  0.00     0.027 H 
ENDBRANCH  43  49
ENDBRANCH  39  42
ENDBRANCH  36  39
ENDBRANCH  30  36
ENDBRANCH   1  29
TORSDOF 12
ENDMDL
MODEL 2
REMARK VINA RESULT:      -5.3      1.570      2.785
REMARK  12 active torsions:
REMARK  status: ('A' for Active; 'I' for Inactive)
REMARK    1  A    between atoms: C_1  and  C_2 
REMARK    2  A    between atoms: C_7  and  C_10 
REMARK    3  A    between atoms: C_10  and  C_11 
REMARK    4  A    between atoms: C_10  and  C_12 
REMARK    5  A    between atoms: C_10  and  C_13 
REMARK    6  A    between atoms: C_13  and  C_14 
REMARK    7  A    between atoms: C_15  and  C_16 
REMARK    8  A    between atoms: C_15  and  C_17 
REMARK    9  A    between atoms: C_17  and  C_18 
REMARK   10  A    between atoms: C_18  and  C_19 
REMARK   11  A    between atoms: C_20  and  C_21 
REMARK   12  A    between atoms: C_20  and  C_22 
ROOT
ATOM      1  C   LIG d   1       2.323   0.056  -5.983  0.00  0.00    -0.025 C 
ATOM      2  H   LIG d   1       1.281   0.323  -6.156  0.00  0.00     0.031 H 
ATOM      3  H   LIG d   1       2.386  -0.989  -5.678  0.00  0.00     0.031 H 
ENDROOT
BRANCH   1   4
ATOM      4  C   LIG d   1       3.121   0.258  -7.273  0.00  0.00     0.019 C 
BRANCH   4   5
ATOM      5  C   LIG d   1       4.612   0.072  -6.986  0.00  0.00     0.165 C 
ATOM      6  O   LIG d   1       4.980  -1.287  -7.236  0.00  0.00    -0.351 OA
ATOM      7  C   LIG d   1       6.368  -1.557  -7.022  0.00  0.00     0.053 C 
ATOM      8  C   LIG d   1       7.200  -0.637  -7.922  0.00  0.00    -0.003 C 
ATOM      9  H   LIG d   1       6.620  -1.370  -5.978  0.00  0.00     0.056 H 
ATOM     10  H   LIG d   1       6.580  -2.598  -7.267  0.00  0.00     0.056 H 
ATOM     11  C   LIG d   1       6.788   0.816  -7.659  0.00  0.00     0.061 C 
ATOM     12  H   LIG d   1       8.259  -0.762  -7.694  0.00  0.00     0.031 H 
ATOM     13  H   LIG d   1       7.019  -0.887  -8.967  0.00  0.00     0.031 H 
ATOM     14  H   LIG d   1       7.055   1.093  -6.640  0.00  0.00     0.059 H 
ATOM     15  O   LIG d   1       5.372   0.937  -7.834  0.00  0.00    -0.348 OA
ATOM     16  H   LIG d   1       4.814   0.317  -5.943  0.00  0.00     0.091 H 
BRANCH  11  17
ATOM     17  C   LIG d   1       7.506   1.738  -8.647  0.00  0.00    -0.038 C 
ATOM     18  H   LIG d   1       6.792   2.112  -9.381  0.00  0.00     0.025 H 
ATOM     19  H   LIG d   1       7.944   2.578  -8.108  0.00  0.00     0.025 H 
ATOM     20  H   LIG d   1       8.293   1.182  -9.156  0.00  0.00     0.025 H 
ENDBRANCH  11  17
ENDBRANCH   4   5
BRANCH   4  21
ATOM     21  C   LIG d   1       2.877   1.670  -7.807  0.00  0.00    -0.055 C 
ATOM     22  H   LIG d   1       3.832   2.169  -7.968  0.00  0.00     0.024 H 
ATOM     23  H   LIG d   1       2.333   1.614  -8.750  0.00  0.00     0.024 H 
ATOM     24  H   LIG d   1       2.290   2.236  -7.083  0.00  0.00     0.024 H 
ENDBRANCH   4  21
BRANCH   4  25
ATOM     25  C   LIG d   1       2.671  -0.767  -8.316  0.00  0.00    -0.055 C 
ATOM     26  H   LIG d   1       2.095  -0.264  -9.093  0.00  0.00     0.024 H 
ATOM     27  H   LIG d   1       3.546  -1.241  -8.761  0.00  0.00     0.024 H 
ATOM     28  H   LIG d   1       2.051  -1.525  -7.837  0.00  0.00     0.024 H 
ENDBRANCH   4  25
ENDBRANCH   1   4
BRANCH   1  29
ATOM     29  C   LIG d   1       2.892   0.932  -4.898  0.00  0.00    -0.084 C 
ATOM     30  C   LIG d   1       3.003   0.474  -3.676  0.00  0.00    -0.076 C 
ATOM     31  H   LIG d   1       3.210   1.938  -5.127  0.00  0.00     0.057 H 
BRANCH  30  32
ATOM     32  C   LIG d   1       2.637  -0.957  -3.372  0.00  0.00    -0.044 C 
ATOM     33  H   LIG d   1       1.570  -1.101  -3.538  0.00  0.00     0.027 H 
ATOM     34  H   LIG d   1       3.200  -1.622  -4.028  0.00  0.00     0.027 H 
ATOM     35  H   LIG d   1       2.878  -1.181  -2.333  0.00  0.00     0.027 H 
ENDBRANCH  30  32
BRANCH  30  36
ATOM     36  C   LIG d   1       3.494   1.376  -2.573  0.00  0.00    -0.029 C 
ATOM     37  H   LIG d   1       3.650   2.380  -2.967  0.00  0.00     0.031 H 
ATOM     38  H   LIG d   1       2.752   1.410  -1.775  0.00  0.00     0.031 H 
BRANCH  36  39
ATOM     39  C   LIG d   1       4.813   0.835  -2.021  0.00  0.00    -0.031 C 
ATOM     40  H   LIG d   1       5.004   1.273  -1.040  0.00  0.00     0.031 H 
ATOM     41  H   LIG d   1       4.752  -0.250  -1.928  0.00  0.00     0.031 H 
BRANCH  39  42
ATOM     42  C   LIG d   1       5.937   1.196  -2.958  0.00  0.00    -0.085 C 
ATOM     43  C   LIG d   1       6.693   0.255  -3.468  0.00  0.00    -0.080 C 
ATOM     44  H   LIG d   1       6.119   2.231  -3.209  0.00  0.00     0.057 H 
BRANCH  43  45
ATOM     45  C   LIG d   1       6.329  -1.193  -3.270  0.00  0.00    -0.044 C 
ATOM     46  H   LIG d   1       6.405  -1.446  -2.212  0.00  0.00     0.027 H 
ATOM     47  H   LIG d   1       5.307  -1.360  -3.611  0.00  0.00     0.027 H 
ATOM     48  H   LIG d   1       7.011  -1.821  -3.844  0.00  0.00     0.027 H 
ENDBRANCH  43  45
BRANCH  43  49
ATOM     49  C   LIG d   1       7.926   0.623  -4.253  0.00  0.00    -0.044 C 
ATOM     50  H   LIG d   1       8.147   1.680  -4.107  0.00  0.00     0.027 H 
ATOM     51  H   LIG d   1       8.768   0.024  -3.906  0.00  0.00     0.027 H 
ATOM     52  H   LIG d   1       7.754   0.430  -5.312  0.00  0.00     0.027 H 
ENDBRANCH  43  49
ENDBRANCH  39  42
ENDBRANCH  36  39
ENDBRANCH  30  36
ENDBRANCH   1  29
TORSDOF 12
ENDMDL
MODEL 3
REMARK VINA RESULT:      -5.3      1.364      1.947
REMARK  12 active torsions:
REMARK  status: ('A' for Active; 'I' for Inactive)
REMARK    1  A    between atoms: C_1  and  C_2 
REMARK    2  A    between atoms: C_7  and  C_10 
REMARK    3  A    between atoms: C_10  and  C_11 
REMARK    4  A    between atoms: C_10  and  C_12 
REMARK    5  A    between atoms: C_10  and  C_13 
REMARK    6  A    between atoms: C_13  and  C_14 
REMARK    7  A    between atoms: C_15  and  C_16 
REMARK    8  A    between atoms: C_15  and  C_17 
REMARK    9  A    between atoms: C_17  and  C_18 
REMARK   10  A    between atoms: C_18  and  C_19 
REMARK   11  A    between atoms: C_20  and  C_21 
REMARK   12  A    between atoms: C_20  and  C_22 
ROOT
ATOM      1  C   LIG d   1       2.219   0.137  -5.871  0.00  0.00    -0.025 C 
ATOM      2  H   LIG d   1       1.197   0.471  -6.051  0.00  0.00     0.031 H 
ATOM      3  H   LIG d   1       2.209  -0.902  -5.542  0.00  0.00     0.031 H 
ENDROOT
BRANCH   1   4
ATOM      4  C   LIG d   1       3.029   0.256  -7.163  0.00  0.00     0.019 C 
BRANCH   4   5
ATOM      5  C   LIG d   1       2.455  -0.695  -8.215  0.00  0.00     0.165 C 
ATOM      6  O   LIG d   1       2.073   0.050  -9.374  0.00  0.00    -0.351 OA
ATOM      7  C   LIG d   1       1.547  -0.757 -10.432  0.00  0.00     0.053 C 
ATOM      8  C   LIG d   1       2.595  -1.803 -10.828  0.00  0.00    -0.003 C 
ATOM      9  H   LIG d   1       0.642  -1.261 -10.091  0.00  0.00     0.056 H 
ATOM     10  H   LIG d   1       1.315  -0.129 -11.290  0.00  0.00     0.056 H 
ATOM     11  C   LIG d   1       3.011  -2.586  -9.578  0.00  0.00     0.061 C 
ATOM     12  H   LIG d   1       2.169  -2.488 -11.562  0.00  0.00     0.031 H 
ATOM     13  H   LIG d   1       3.465  -1.305 -11.256  0.00  0.00     0.031 H 
ATOM     14  H   LIG d   1       2.162  -3.158  -9.205  0.00  0.00     0.059 H 
ATOM     15  O   LIG d   1       3.445  -1.662  -8.574  0.00  0.00    -0.348 OA
ATOM     16  H   LIG d   1       1.582  -1.204  -7.806  0.00  0.00     0.091 H 
BRANCH  11  17
ATOM     17  C   LIG d   1       4.158  -3.538  -9.927  0.00  0.00    -0.038 C 
ATOM     18  H   LIG d   1       4.946  -3.447  -9.181  0.00  0.00     0.025 H 
ATOM     19  H   LIG d   1       3.787  -4.563  -9.941  0.00  0.00     0.025 H 
ATOM     20  H   LIG d   1       4.555  -3.282 -10.909  0.00  0.00     0.025 H 
ENDBRANCH  11  17
ENDBRANCH   4   5
BRANCH   4  21
ATOM     21  C   LIG d   1       4.488  -0.110  -6.886  0.00  0.00    -0.055 C 
ATOM     22  H   LIG d   1       4.972  -0.405  -7.817  0.00  0.00     0.024 H 
ATOM     23  H   LIG d   1       5.005   0.751  -6.463  0.00  0.00     0.024 H 
ATOM     24  H   LIG d   1       4.526  -0.939  -6.179  0.00  0.00     0.024 H 
ENDBRANCH   4  21
BRANCH   4  25
ATOM     25  C   LIG d   1       2.954   1.694  -7.681  0.00  0.00    -0.055 C 
ATOM     26  H   LIG d   1       2.425   2.313  -6.957  0.00  0.00     0.024 H 
ATOM     27  H   LIG d   1       3.962   2.081  -7.825  0.00  0.00     0.024 H 
ATOM     28  H   LIG d   1       2.420   1.710  -8.632  0.00  0.00     0.024 H 
ENDBRANCH   4  25
ENDBRANCH   1   4
BRANCH   1  29
ATOM     29  C   LIG d   1       2.846   0.996  -4.804  0.00  0.00    -0.084 C 
ATOM     30  C   LIG d   1       2.999   0.527  -3.590  0.00  0.00    -0.076 C 
ATOM     31  H   LIG d   1       3.171   1.998  -5.040  0.00  0.00     0.057 H 
BRANCH  30  32
ATOM     32  C   LIG d   1       2.622  -0.899  -3.281  0.00  0.00    -0.044 C 
ATOM     33  H   LIG d   1       1.660  -1.128  -3.740  0.00  0.00     0.027 H 
ATOM     34  H   LIG d   1       3.383  -1.571  -3.681  0.00  0.00     0.027 H 
ATOM     35  H   LIG d   1       2.552  -1.031  -2.202  0.00  0.00     0.027 H 
ENDBRANCH  30  32
BRANCH  30  36
ATOM     36  C   LIG d   1       3.550   1.413  -2.503  0.00  0.00    -0.029 C 
ATOM     37  H   LIG d   1       3.703   2.418  -2.896  0.00  0.00     0.031 H 
ATOM     38  H   LIG d   1       2.842   1.452  -1.674  0.00  0.00     0.031 H 
BRANCH  36  39
ATOM     39  C   LIG d   1       4.883   0.849  -2.011  0.00  0.00    -0.031 C 
ATOM     40  H   LIG d   1       5.142   1.307  -1.056  0.00  0.00     0.031 H 
ATOM     41  H   LIG d   1       4.797  -0.231  -1.885  0.00  0.00     0.031 H 
BRANCH  39  42
ATOM     42  C   LIG d   1       5.961   1.151  -3.021  0.00  0.00    -0.085 C 
ATOM     43  C   LIG d   1       6.679   0.179  -3.524  0.00  0.00    -0.080 C 
ATOM     44  H   LIG d   1       6.141   2.171  -3.328  0.00  0.00     0.057 H 
BRANCH  43  45
ATOM     45  C   LIG d   1       6.311  -1.254  -3.240  0.00  0.00    -0.044 C 
ATOM     46  H   LIG d   1       6.573  -1.500  -2.211  0.00  0.00     0.027 H 
ATOM     47  H   LIG d   1       5.238  -1.389  -3.384  0.00  0.00     0.027 H 
ATOM     48  H   LIG d   1       6.854  -1.911  -3.920  0.00  0.00     0.027 H 
ENDBRANCH  43  45
BRANCH  43  49
ATOM     49  C   LIG d   1       7.874   0.494  -4.387  0.00  0.00    -0.044 C 
ATOM     50  H   LIG d   1       8.787   0.330  -3.816  0.00  0.00     0.027 H 
ATOM     51  H   LIG d   1       7.870  -0.157  -5.263  0.00  0.00     0.027 H 
ATOM     52  H   LIG d   1       7.827   1.534  -4.708  0.00  0.00     0.027 H 
ENDBRANCH  43  49
ENDBRANCH  39  42
ENDBRANCH  36  39
ENDBRANCH  30  36
ENDBRANCH   1  29
TORSDOF 12
ENDMDL
MODEL 4
REMARK VINA RESULT:      -5.2      2.232      7.271
REMARK  12 active torsions:
REMARK  status: ('A' for Active; 'I' for Inactive)
REMARK    1  A    between atoms: C_1  and  C_2 
REMARK    2  A    between atoms: C_7  and  C_10 
REMARK    3  A    between atoms: C_10  and  C_11 
REMARK    4  A    between atoms: C_10  and  C_12 
REMARK    5  A    between atoms: C_10  and  C_13 
REMARK    6  A    between atoms: C_13  and  C_14 
REMARK    7  A    between atoms: C_15  and  C_16 
REMARK    8  A    between atoms: C_15  and  C_17 
REMARK    9  A    between atoms: C_17  and  C_18 
REMARK   10  A    between atoms: C_18  and  C_19 
REMARK   11  A    between atoms: C_20  and  C_21 
REMARK   12  A    between atoms: C_20  and  C_22 
ROOT
ATOM      1  C   LIG d   1       3.390   0.051  -6.854  0.00  0.00    -0.025 C 
ATOM      2  H   LIG d   1       2.373  -0.314  -6.713  0.00  0.00     0.031 H 
ATOM      3  H   LIG d   1       3.464   1.075  -6.486  0.00  0.00     0.031 H 
ENDROOT
BRANCH   1   4
ATOM      4  C   LIG d   1       4.363  -0.840  -6.078  0.00  0.00     0.019 C 
BRANCH   4   5
ATOM      5  C   LIG d   1       3.857  -1.021  -4.646  0.00  0.00     0.165 C 
ATOM      6  O   LIG d   1       4.364  -2.248  -4.113  0.00  0.00    -0.351 OA
ATOM      7  C   LIG d   1       3.967  -2.498  -2.761  0.00  0.00     0.053 C 
ATOM      8  C   LIG d   1       4.440  -1.334  -1.882  0.00  0.00    -0.003 C 
ATOM      9  H   LIG d   1       2.882  -2.577  -2.708  0.00  0.00     0.056 H 
ATOM     10  H   LIG d   1       4.419  -3.426  -2.414  0.00  0.00     0.056 H 
ATOM     11  C   LIG d   1       3.907  -0.022  -2.468  0.00  0.00     0.061 C 
ATOM     12  H   LIG d   1       4.056  -1.463  -0.870  0.00  0.00     0.031 H 
ATOM     13  H   LIG d   1       5.529  -1.312  -1.860  0.00  0.00     0.031 H 
ATOM     14  H   LIG d   1       2.819  -0.008  -2.404  0.00  0.00     0.059 H 
ATOM     15  O   LIG d   1       4.307   0.070  -3.840  0.00  0.00    -0.348 OA
ATOM     16  H   LIG d   1       2.768  -1.048  -4.646  0.00  0.00     0.091 H 
BRANCH  11  17
ATOM     17  C   LIG d   1       4.484   1.159  -1.686  0.00  0.00    -0.038 C 
ATOM     18  H   LIG d   1       5.489   1.379  -2.046  0.00  0.00     0.025 H 
ATOM     19  H   LIG d   1       3.849   2.034  -1.829  0.00  0.00     0.025 H 
ATOM     20  H   LIG d   1       4.524   0.908  -0.626  0.00  0.00     0.025 H 
ENDBRANCH  11  17
ENDBRANCH   4   5
BRANCH   4  21
ATOM     21  C   LIG d   1       5.745  -0.185  -6.053  0.00  0.00    -0.055 C 
ATOM     22  H   LIG d   1       6.427  -0.799  -5.464  0.00  0.00     0.024 H 
ATOM     23  H   LIG d   1       6.123  -0.094  -7.070  0.00  0.00     0.024 H 
ATOM     24  H   LIG d   1       5.669   0.805  -5.604  0.00  0.00     0.024 H 
ENDBRANCH   4  21
BRANCH   4  25
ATOM     25  C   LIG d   1       4.458  -2.206  -6.762  0.00  0.00    -0.055 C 
ATOM     26  H   LIG d   1       3.467  -2.517  -7.092  0.00  0.00     0.024 H 
ATOM     27  H   LIG d   1       5.124  -2.136  -7.622  0.00  0.00     0.024 H 
ATOM     28  H   LIG d   1       4.853  -2.938  -6.057  0.00  0.00     0.024 H 
ENDBRANCH   4  25
ENDBRANCH   1   4
BRANCH   1  29
ATOM     29  C   LIG d   1       3.738   0.017  -8.319  0.00  0.00    -0.084 C 
ATOM     30  C   LIG d   1       3.470   1.048  -9.081  0.00  0.00    -0.076 C 
ATOM     31  H   LIG d   1       4.209  -0.858  -8.742  0.00  0.00     0.057 H 
BRANCH  30  32
ATOM     32  C   LIG d   1       2.889   2.300  -8.475  0.00  0.00    -0.044 C 
ATOM     33  H   LIG d   1       1.903   2.082  -8.066  0.00  0.00     0.027 H 
ATOM     34  H   LIG d   1       3.543   2.655  -7.678  0.00  0.00     0.027 H 
ATOM     35  H   LIG d   1       2.802   3.069  -9.243  0.00  0.00     0.027 H 
ENDBRANCH  30  32
BRANCH  30  36
ATOM     36  C   LIG d   1       3.741   0.983 -10.562  0.00  0.00    -0.029 C 
ATOM     37  H   LIG d   1       2.973   1.541 -11.097  0.00  0.00     0.031 H 
ATOM     38  H   LIG d   1       4.719   1.419 -10.771  0.00  0.00     0.031 H 
BRANCH  36  39
ATOM     39  C   LIG d   1       3.725  -0.476 -11.020  0.00  0.00    -0.031 C 
ATOM     40  H   LIG d   1       4.640  -0.694 -11.571  0.00  0.00     0.031 H 
ATOM     41  H   LIG d   1       3.660  -1.130 -10.150  0.00  0.00     0.031 H 
BRANCH  39  42
ATOM     42  C   LIG d   1       2.533  -0.709 -11.913  0.00  0.00    -0.085 C 
ATOM     43  C   LIG d   1       1.561  -1.492 -11.518  0.00  0.00    -0.080 C 
ATOM     44  H   LIG d   1       2.482  -0.231 -12.880  0.00  0.00     0.057 H 
BRANCH  43  45
ATOM     45  C   LIG d   1       1.539  -2.011 -10.103  0.00  0.00    -0.044 C 
ATOM     46  H   LIG d   1       2.340  -1.541  -9.531  0.00  0.00     0.027 H 
ATOM     47  H   LIG d   1       0.579  -1.775  -9.645  0.00  0.00     0.027 H 
ATOM     48  H   LIG d   1       1.683  -3.091 -10.110  0.00  0.00     0.027 H 
ENDBRANCH  43  45
BRANCH  43  49
ATOM     49  C   LIG d   1       0.463  -1.874 -12.478  0.00  0.00    -0.044 C 
ATOM     50  H   LIG d   1       0.567  -2.924 -12.748  0.00  0.00     0.027 H 
ATOM     51  H   LIG d   1      -0.506  -1.714 -12.003  0.00  0.00     0.027 H 
ATOM     52  H   LIG d   1       0.534  -1.259 -13.374  0.00  0.00     0.027 H 
ENDBRANCH  43  49
ENDBRANCH  39  42
ENDBRANCH  36  39
ENDBRANCH  30  36
ENDBRANCH   1  29
TORSDOF 12
ENDMDL
MODEL 5
REMARK VINA RESULT:      -5.1      1.636      2.788
REMARK  12 active torsions:
REMARK  status: ('A' for Active; 'I' for Inactive)
REMARK    1  A    between atoms: C_1  and  C_2 
REMARK    2  A    between atoms: C_7  and  C_10 
REMARK    3  A    between atoms: C_10  and  C_11 
REMARK    4  A    between atoms: C_10  and  C_12 
REMARK    5  A    between atoms: C_10  and  C_13 
REMARK    6  A    between atoms: C_13  and  C_14 
REMARK    7  A    between atoms: C_15  and  C_16 
REMARK    8  A    between atoms: C_15  and  C_17 
REMARK    9  A    between atoms: C_17  and  C_18 
REMARK   10  A    between atoms: C_18  and  C_19 
REMARK   11  A    between atoms: C_20  and  C_21 
REMARK   12  A    between atoms: C_20  and  C_22 
ROOT
ATOM      1  C   LIG d   1       4.919  -1.891  -6.743  0.00  0.00    -0.025 C 
ATOM      2  H   LIG d   1       3.835  -1.779  -6.793  0.00  0.00     0.031 H 
ATOM      3  H   LIG d   1       5.190  -2.917  -6.995  0.00  0.00     0.031 H 
ENDROOT
BRANCH   1   4
ATOM      4  C   LIG d   1       5.576  -0.931  -7.737  0.00  0.00     0.019 C 
BRANCH   4   5
ATOM      5  C   LIG d   1       4.493  -0.178  -8.511  0.00  0.00     0.165 C 
ATOM      6  O   LIG d   1       4.586   1.220  -8.223  0.00  0.00    -0.351 OA
ATOM      7  C   LIG d   1       3.628   2.018  -8.924  0.00  0.00     0.053 C 
ATOM      8  C   LIG d   1       3.807   1.802 -10.431  0.00  0.00    -0.003 C 
ATOM      9  H   LIG d   1       2.621   1.721  -8.631  0.00  0.00     0.056 H 
ATOM     10  H   LIG d   1       3.784   3.070  -8.685  0.00  0.00     0.056 H 
ATOM     11  C   LIG d   1       3.723   0.301 -10.729  0.00  0.00     0.061 C 
ATOM     12  H   LIG d   1       3.018   2.326 -10.971  0.00  0.00     0.031 H 
ATOM     13  H   LIG d   1       4.779   2.184 -10.743  0.00  0.00     0.031 H 
ATOM     14  H   LIG d   1       2.720  -0.061 -10.504  0.00  0.00     0.059 H 
ATOM     15  O   LIG d   1       4.675  -0.389  -9.913  0.00  0.00    -0.348 OA
ATOM     16  H   LIG d   1       3.511  -0.545  -8.213  0.00  0.00     0.091 H 
BRANCH  11  17
ATOM     17  C   LIG d   1       4.039   0.053 -12.206  0.00  0.00    -0.038 C 
ATOM     18  H   LIG d   1       4.703  -0.806 -12.297  0.00  0.00     0.025 H 
ATOM     19  H   LIG d   1       3.113  -0.146 -12.746  0.00  0.00     0.025 H 
ATOM     20  H   LIG d   1       4.523   0.935 -12.626  0.00  0.00     0.025 H 
ENDBRANCH  11  17
ENDBRANCH   4   5
BRANCH   4  21
ATOM     21  C   LIG d   1       6.444  -1.725  -8.714  0.00  0.00    -0.055 C 
ATOM     22  H   LIG d   1       6.272  -2.792  -8.569  0.00  0.00     0.024 H 
ATOM     23  H   LIG d   1       6.185  -1.451  -9.737  0.00  0.00     0.024 H 
ATOM     24  H   LIG d   1       7.495  -1.499  -8.533  0.00  0.00     0.024 H 
ENDBRANCH   4  21
BRANCH   4  25
ATOM     25  C   LIG d   1       6.449   0.070  -6.977  0.00  0.00    -0.055 C 
ATOM     26  H   LIG d   1       7.500  -0.157  -7.156  0.00  0.00     0.024 H 
ATOM     27  H   LIG d   1       6.230   1.079  -7.322  0.00  0.00     0.024 H 
ATOM     28  H   LIG d   1       6.239  -0.002  -5.909  0.00  0.00     0.024 H 
ENDBRANCH   4  25
ENDBRANCH   1   4
BRANCH   1  29
ATOM     29  C   LIG d   1       5.393  -1.574  -5.349  0.00  0.00    -0.084 C 
ATOM     30  C   LIG d   1       5.393  -2.505  -4.428  0.00  0.00    -0.076 C 
ATOM     31  H   LIG d   1       5.734  -0.578  -5.109  0.00  0.00     0.057 H 
BRANCH  30  32
ATOM     32  C   LIG d   1       4.996  -3.915  -4.784  0.00  0.00    -0.044 C 
ATOM     33  H   LIG d   1       4.342  -3.899  -5.655  0.00  0.00     0.027 H 
ATOM     34  H   LIG d   1       5.890  -4.498  -5.011  0.00  0.00     0.027 H 
ATOM     35  H   LIG d   1       4.471  -4.368  -3.943  0.00  0.00     0.027 H 
ENDBRANCH  30  32
BRANCH  30  36
ATOM     36  C   LIG d   1       5.788  -2.168  -3.014  0.00  0.00    -0.029 C 
ATOM     37  H   LIG d   1       6.335  -3.004  -2.579  0.00  0.00     0.031 H 
ATOM     38  H   LIG d   1       6.423  -1.281  -3.016  0.00  0.00     0.031 H 
BRANCH  36  39
ATOM     39  C   LIG d   1       4.533  -1.893  -2.185  0.00  0.00    -0.031 C 
ATOM     40  H   LIG d   1       3.658  -2.275  -2.712  0.00  0.00     0.031 H 
ATOM     41  H   LIG d   1       4.619  -2.388  -1.218  0.00  0.00     0.031 H 
BRANCH  39  42
ATOM     42  C   LIG d   1       4.382  -0.408  -1.976  0.00  0.00    -0.085 C 
ATOM     43  C   LIG d   1       3.459   0.256  -2.626  0.00  0.00    -0.080 C 
ATOM     44  H   LIG d   1       5.038   0.109  -1.290  0.00  0.00     0.057 H 
BRANCH  43  45
ATOM     45  C   LIG d   1       2.429  -0.486  -3.438  0.00  0.00    -0.044 C 
ATOM     46  H   LIG d   1       2.418  -0.096  -4.455  0.00  0.00     0.027 H 
ATOM     47  H   LIG d   1       2.679  -1.547  -3.458  0.00  0.00     0.027 H 
ATOM     48  H   LIG d   1       1.446  -0.354  -2.987  0.00  0.00     0.027 H 
ENDBRANCH  43  45
BRANCH  43  49
ATOM     49  C   LIG d   1       3.427   1.761  -2.561  0.00  0.00    -0.044 C 
ATOM     50  H   LIG d   1       3.177   2.161  -3.544  0.00  0.00     0.027 H 
ATOM     51  H   LIG d   1       2.675   2.077  -1.838  0.00  0.00     0.027 H 
ATOM     52  H   LIG d   1       4.405   2.133  -2.255  0.00  0.00     0.027 H 
ENDBRANCH  43  49
ENDBRANCH  39  42
ENDBRANCH  36  39
ENDBRANCH  30  36
ENDBRANCH   1  29
TORSDOF 12
ENDMDL
MODEL 6
REMARK VINA RESULT:      -5.1      1.530      3.259
REMARK  12 active torsions:
REMARK  status: ('A' for Active; 'I' for Inactive)
REMARK    1  A    between atoms: C_1  and  C_2 
REMARK    2  A    between atoms: C_7  and  C_10 
REMARK    3  A    between atoms: C_10  and  C_11 
REMARK    4  A    between atoms: C_10  and  C_12 
REMARK    5  A    between atoms: C_10  and  C_13 
REMARK    6  A    between atoms: C_13  and  C_14 
REMARK    7  A    between atoms: C_15  and  C_16 
REMARK    8  A    between atoms: C_15  and  C_17 
REMARK    9  A    between atoms: C_17  and  C_18 
REMARK   10  A    between atoms: C_18  and  C_19 
REMARK   11  A    between atoms: C_20  and  C_21 
REMARK   12  A    between atoms: C_20  and  C_22 
ROOT
ATOM      1  C   LIG d   1       4.879  -0.118  -7.209  0.00  0.00    -0.025 C 
ATOM      2  H   LIG d   1       5.567  -0.389  -8.010  0.00  0.00     0.031 H 
ATOM      3  H   LIG d   1       5.265   0.752  -6.677  0.00  0.00     0.031 H 
ENDROOT
BRANCH   1   4
ATOM      4  C   LIG d   1       3.510   0.215  -7.805  0.00  0.00     0.019 C 
BRANCH   4   5
ATOM      5  C   LIG d   1       3.217  -0.730  -8.971  0.00  0.00     0.165 C 
ATOM      6  O   LIG d   1       1.803  -0.825  -9.164  0.00  0.00    -0.351 OA
ATOM      7  C   LIG d   1       1.424  -1.669 -10.255  0.00  0.00     0.053 C 
ATOM      8  C   LIG d   1       2.074  -1.142 -11.540  0.00  0.00    -0.003 C 
ATOM      9  H   LIG d   1       1.767  -2.686 -10.065  0.00  0.00     0.056 H 
ATOM     10  H   LIG d   1       0.340  -1.662 -10.363  0.00  0.00     0.056 H 
ATOM     11  C   LIG d   1       3.586  -1.028 -11.320  0.00  0.00     0.061 C 
ATOM     12  H   LIG d   1       1.876  -1.834 -12.359  0.00  0.00     0.031 H 
ATOM     13  H   LIG d   1       1.662  -0.162 -11.782  0.00  0.00     0.031 H 
ATOM     14  H   LIG d   1       4.010  -2.020 -11.169  0.00  0.00     0.059 H 
ATOM     15  O   LIG d   1       3.827  -0.223 -10.160  0.00  0.00    -0.348 OA
ATOM     16  H   LIG d   1       3.620  -1.718  -8.748  0.00  0.00     0.091 H 
BRANCH  11  17
ATOM     17  C   LIG d   1       4.233  -0.371 -12.541  0.00  0.00    -0.038 C 
ATOM     18  H   LIG d   1       4.910  -1.079 -13.018  0.00  0.00     0.025 H 
ATOM     19  H   LIG d   1       3.457  -0.079 -13.249  0.00  0.00     0.025 H 
ATOM     20  H   LIG d   1       4.790   0.511 -12.227  0.00  0.00     0.025 H 
ENDBRANCH  11  17
ENDBRANCH   4   5
BRANCH   4  21
ATOM     21  C   LIG d   1       3.510   1.660  -8.306  0.00  0.00    -0.055 C 
ATOM     22  H   LIG d   1       2.630   1.830  -8.926  0.00  0.00     0.024 H 
ATOM     23  H   LIG d   1       3.493   2.341  -7.455  0.00  0.00     0.024 H 
ATOM     24  H   LIG d   1       4.409   1.839  -8.896  0.00  0.00     0.024 H 
ENDBRANCH   4  21
BRANCH   4  25
ATOM     25  C   LIG d   1       2.433   0.049  -6.730  0.00  0.00    -0.055 C 
ATOM     26  H   LIG d   1       2.127  -0.996  -6.681  0.00  0.00     0.024 H 
ATOM     27  H   LIG d   1       2.832   0.357  -5.765  0.00  0.00     0.024 H 
ATOM     28  H   LIG d   1       1.571   0.669  -6.981  0.00  0.00     0.024 H 
ENDBRANCH   4  25
ENDBRANCH   1   4
BRANCH   1  29
ATOM     29  C   LIG d   1       4.744  -1.274  -6.252  0.00  0.00    -0.084 C 
ATOM     30  C   LIG d   1       5.674  -1.498  -5.358  0.00  0.00    -0.076 C 
ATOM     31  H   LIG d   1       3.878  -1.917  -6.303  0.00  0.00     0.057 H 
BRANCH  30  32
ATOM     32  C   LIG d   1       6.841  -0.552  -5.233  0.00  0.00    -0.044 C 
ATOM     33  H   LIG d   1       6.486   0.475  -5.320  0.00  0.00     0.027 H 
ATOM     34  H   LIG d   1       7.318  -0.690  -4.261  0.00  0.00     0.027 H 
ATOM     35  H   LIG d   1       7.562  -0.756  -6.024  0.00  0.00     0.027 H 
ENDBRANCH  30  32
BRANCH  30  36
ATOM     36  C   LIG d   1       5.580  -2.702  -4.457  0.00  0.00    -0.029 C 
ATOM     37  H   LIG d   1       5.379  -3.590  -5.056  0.00  0.00     0.031 H 
ATOM     38  H   LIG d   1       6.523  -2.830  -3.923  0.00  0.00     0.031 H 
BRANCH  36  39
ATOM     39  C   LIG d   1       4.447  -2.498  -3.450  0.00  0.00    -0.031 C 
ATOM     40  H   LIG d   1       3.534  -2.224  -3.980  0.00  0.00     0.031 H 
ATOM     41  H   LIG d   1       4.282  -3.421  -2.895  0.00  0.00     0.031 H 
BRANCH  39  42
ATOM     42  C   LIG d   1       4.819  -1.396  -2.491  0.00  0.00    -0.085 C 
ATOM     43  C   LIG d   1       4.062  -0.332  -2.390  0.00  0.00    -0.080 C 
ATOM     44  H   LIG d   1       5.711  -1.484  -1.887  0.00  0.00     0.057 H 
BRANCH  43  45
ATOM     45  C   LIG d   1       2.728  -0.287  -3.088  0.00  0.00    -0.044 C 
ATOM     46  H   LIG d   1       1.929  -0.282  -2.347  0.00  0.00     0.027 H 
ATOM     47  H   LIG d   1       2.666   0.616  -3.696  0.00  0.00     0.027 H 
ATOM     48  H   LIG d   1       2.623  -1.164  -3.728  0.00  0.00     0.027 H 
ENDBRANCH  43  45
BRANCH  43  49
ATOM     49  C   LIG d   1       4.526   0.848  -1.574  0.00  0.00    -0.044 C 
ATOM     50  H   LIG d   1       5.610   0.933  -1.644  0.00  0.00     0.027 H 
ATOM     51  H   LIG d   1       4.064   1.758  -1.958  0.00  0.00     0.027 H 
ATOM     52  H   LIG d   1       4.239   0.706  -0.532  0.00  0.00     0.027 H 
ENDBRANCH  43  49
ENDBRANCH  39  42
ENDBRANCH  36  39
ENDBRANCH  30  36
ENDBRANCH   1  29
TORSDOF 12
ENDMDL
MODEL 7
REMARK VINA RESULT:      -4.9      1.930      3.533
REMARK  12 active torsions:
REMARK  status: ('A' for Active; 'I' for Inactive)
REMARK    1  A    between atoms: C_1  and  C_2 
REMARK    2  A    between atoms: C_7  and  C_10 
REMARK    3  A    between atoms: C_10  and  C_11 
REMARK    4  A    between atoms: C_10  and  C_12 
REMARK    5  A    between atoms: C_10  and  C_13 
REMARK    6  A    between atoms: C_13  and  C_14 
REMARK    7  A    between atoms: C_15  and  C_16 
REMARK    8  A    between atoms: C_15  and  C_17 
REMARK    9  A    between atoms: C_17  and  C_18 
REMARK   10  A    between atoms: C_18  and  C_19 
REMARK   11  A    between atoms: C_20  and  C_21 
REMARK   12  A    between atoms: C_20  and  C_22 
ROOT
ATOM      1  C   LIG d   1       6.192  -2.350  -6.821  0.00  0.00    -0.025 C 
ATOM      2  H   LIG d   1       5.265  -2.845  -7.111  0.00  0.00     0.031 H 
ATOM      3  H   LIG d   1       7.034  -3.016  -7.010  0.00  0.00     0.031 H 
ENDROOT
BRANCH   1   4
ATOM      4  C   LIG d   1       6.363  -1.069  -7.640  0.00  0.00     0.019 C 
BRANCH   4   5
ATOM      5  C   LIG d   1       5.108  -0.829  -8.481  0.00  0.00     0.165 C 
ATOM      6  O   LIG d   1       4.140  -1.842  -8.193  0.00  0.00    -0.351 OA
ATOM      7  C   LIG d   1       2.914  -1.690  -8.913  0.00  0.00     0.053 C 
ATOM      8  C   LIG d   1       2.315  -0.317  -8.591  0.00  0.00    -0.003 C 
ATOM      9  H   LIG d   1       3.107  -1.761  -9.983  0.00  0.00     0.056 H 
ATOM     10  H   LIG d   1       2.216  -2.472  -8.615  0.00  0.00     0.056 H 
ATOM     11  C   LIG d   1       3.363   0.762  -8.886  0.00  0.00     0.061 C 
ATOM     12  H   LIG d   1       1.434  -0.148  -9.210  0.00  0.00     0.031 H 
ATOM     13  H   LIG d   1       2.034  -0.278  -7.538  0.00  0.00     0.031 H 
ATOM     14  H   LIG d   1       3.574   0.784  -9.955  0.00  0.00     0.059 H 
ATOM     15  O   LIG d   1       4.562   0.454  -8.167  0.00  0.00    -0.348 OA
ATOM     16  H   LIG d   1       5.367  -0.865  -9.539  0.00  0.00     0.091 H 
BRANCH  11  17
ATOM     17  C   LIG d   1       2.833   2.126  -8.438  0.00  0.00    -0.038 C 
ATOM     18  H   LIG d   1       2.384   2.639  -9.288  0.00  0.00     0.025 H 
ATOM     19  H   LIG d   1       2.082   1.986  -7.661  0.00  0.00     0.025 H 
ATOM     20  H   LIG d   1       3.656   2.724  -8.046  0.00  0.00     0.025 H 
ENDBRANCH  11  17
ENDBRANCH   4   5
BRANCH   4  21
ATOM     21  C   LIG d   1       7.575  -1.211  -8.562  0.00  0.00    -0.055 C 
ATOM     22  H   LIG d   1       7.340  -0.791  -9.540  0.00  0.00     0.024 H 
ATOM     23  H   LIG d   1       8.423  -0.679  -8.133  0.00  0.00     0.024 H 
ATOM     24  H   LIG d   1       7.826  -2.266  -8.672  0.00  0.00     0.024 H 
ENDBRANCH   4  21
BRANCH   4  25
ATOM     25  C   LIG d   1       6.578   0.115  -6.695  0.00  0.00    -0.055 C 
ATOM     26  H   LIG d   1       5.822   0.876  -6.889  0.00  0.00     0.024 H 
ATOM     27  H   LIG d   1       6.497  -0.224  -5.663  0.00  0.00     0.024 H 
ATOM     28  H   LIG d   1       7.570   0.537  -6.861  0.00  0.00     0.024 H 
ENDBRANCH   4  25
ENDBRANCH   1   4
BRANCH   1  29
ATOM     29  C   LIG d   1       6.141  -2.006  -5.355  0.00  0.00    -0.084 C 
ATOM     30  C   LIG d   1       5.489  -2.779  -4.523  0.00  0.00    -0.076 C 
ATOM     31  H   LIG d   1       6.644  -1.123  -4.991  0.00  0.00     0.057 H 
BRANCH  30  32
ATOM     32  C   LIG d   1       4.857  -4.055  -5.018  0.00  0.00    -0.044 C 
ATOM     33  H   LIG d   1       4.816  -4.779  -4.205  0.00  0.00     0.027 H 
ATOM     34  H   LIG d   1       3.846  -3.847  -5.371  0.00  0.00     0.027 H 
ATOM     35  H   LIG d   1       5.451  -4.461  -5.836  0.00  0.00     0.027 H 
ENDBRANCH  30  32
BRANCH  30  36
ATOM     36  C   LIG d   1       5.367  -2.392  -3.072  0.00  0.00    -0.029 C 
ATOM     37  H   LIG d   1       5.683  -3.226  -2.445  0.00  0.00     0.031 H 
ATOM     38  H   LIG d   1       6.002  -1.527  -2.873  0.00  0.00     0.031 H 
BRANCH  36  39
ATOM     39  C   LIG d   1       3.913  -2.039  -2.758  0.00  0.00    -0.031 C 
ATOM     40  H   LIG d   1       3.303  -2.180  -3.651  0.00  0.00     0.031 H 
ATOM     41  H   LIG d   1       3.545  -2.687  -1.962  0.00  0.00     0.031 H 
BRANCH  39  42
ATOM     42  C   LIG d   1       3.828  -0.601  -2.314  0.00  0.00    -0.085 C 
ATOM     43  C   LIG d   1       3.481   0.329  -3.168  0.00  0.00    -0.080 C 
ATOM     44  H   LIG d   1       4.053  -0.338  -1.291  0.00  0.00     0.057 H 
BRANCH  43  45
ATOM     45  C   LIG d   1       2.989  -0.053  -4.540  0.00  0.00    -0.044 C 
ATOM     46  H   LIG d   1       2.873  -1.136  -4.596  0.00  0.00     0.027 H 
ATOM     47  H   LIG d   1       2.028   0.426  -4.727  0.00  0.00     0.027 H 
ATOM     48  H   LIG d   1       3.711   0.273  -5.289  0.00  0.00     0.027 H 
ENDBRANCH  43  45
BRANCH  43  49
ATOM     49  C   LIG d   1       3.576   1.782  -2.779  0.00  0.00    -0.044 C 
ATOM     50  H   LIG d   1       3.914   2.366  -3.634  0.00  0.00     0.027 H 
ATOM     51  H   LIG d   1       2.594   2.137  -2.462  0.00  0.00     0.027 H 
ATOM     52  H   LIG d   1       4.284   1.894  -1.958  0.00  0.00     0.027 H 
ENDBRANCH  43  49
ENDBRANCH  39  42
ENDBRANCH  36  39
ENDBRANCH  30  36
ENDBRANCH   1  29
TORSDOF 12
ENDMDL
MODEL 8
REMARK VINA RESULT:      -4.9      2.107      6.302
REMARK  12 active torsions:
REMARK  status: ('A' for Active; 'I' for Inactive)
REMARK    1  A    between atoms: C_1  and  C_2 
REMARK    2  A    between atoms: C_7  and  C_10 
REMARK    3  A    between atoms: C_10  and  C_11 
REMARK    4  A    between atoms: C_10  and  C_12 
REMARK    5  A    between atoms: C_10  and  C_13 
REMARK    6  A    between atoms: C_13  and  C_14 
REMARK    7  A    between atoms: C_15  and  C_16 
REMARK    8  A    between atoms: C_15  and  C_17 
REMARK    9  A    between atoms: C_17  and  C_18 
REMARK   10  A    between atoms: C_18  and  C_19 
REMARK   11  A    between atoms: C_20  and  C_21 
REMARK   12  A    between atoms: C_20  and  C_22 
ROOT
ATOM      1  C   LIG d   1       4.840  -1.357  -6.690  0.00  0.00    -0.025 C 
ATOM      2  H   LIG d   1       4.861  -2.309  -7.221  0.00  0.00     0.031 H 
ATOM      3  H   LIG d   1       4.149  -1.424  -5.850  0.00  0.00     0.031 H 
ENDROOT
BRANCH   1   4
ATOM      4  C   LIG d   1       6.242  -1.030  -6.173  0.00  0.00     0.019 C 
BRANCH   4   5
ATOM      5  C   LIG d   1       6.182  -0.757  -4.670  0.00  0.00     0.165 C 
ATOM      6  O   LIG d   1       5.958   0.637  -4.447  0.00  0.00    -0.351 OA
ATOM      7  C   LIG d   1       5.859   0.992  -3.064  0.00  0.00     0.053 C 
ATOM      8  C   LIG d   1       4.718   0.191  -2.426  0.00  0.00    -0.003 C 
ATOM      9  H   LIG d   1       6.795   0.757  -2.559  0.00  0.00     0.056 H 
ATOM     10  H   LIG d   1       5.652   2.058  -2.975  0.00  0.00     0.056 H 
ATOM     11  C   LIG d   1       4.956  -1.301  -2.684  0.00  0.00     0.061 C 
ATOM     12  H   LIG d   1       4.698   0.377  -1.352  0.00  0.00     0.031 H 
ATOM     13  H   LIG d   1       3.768   0.493  -2.867  0.00  0.00     0.031 H 
ATOM     14  H   LIG d   1       5.859  -1.622  -2.164  0.00  0.00     0.059 H 
ATOM     15  O   LIG d   1       5.113  -1.510  -4.091  0.00  0.00    -0.348 OA
ATOM     16  H   LIG d   1       7.125  -1.052  -4.209  0.00  0.00     0.091 H 
BRANCH  11  17
ATOM     17  C   LIG d   1       3.757  -2.106  -2.177  0.00  0.00    -0.038 C 
ATOM     18  H   LIG d   1       3.283  -2.618  -3.014  0.00  0.00     0.025 H 
ATOM     19  H   LIG d   1       4.096  -2.841  -1.447  0.00  0.00     0.025 H 
ATOM     20  H   LIG d   1       3.040  -1.432  -1.709  0.00  0.00     0.025 H 
ENDBRANCH  11  17
ENDBRANCH   4   5
BRANCH   4  21
ATOM     21  C   LIG d   1       6.776   0.208  -6.896  0.00  0.00    -0.055 C 
ATOM     22  H   LIG d   1       7.608   0.629  -6.330  0.00  0.00     0.024 H 
ATOM     23  H   LIG d   1       7.118  -0.071  -7.892  0.00  0.00     0.024 H 
ATOM     24  H   LIG d   1       5.982   0.950  -6.979  0.00  0.00     0.024 H 
ENDBRANCH   4  21
BRANCH   4  25
ATOM     25  C   LIG d   1       7.172  -2.216  -6.440  0.00  0.00    -0.055 C 
ATOM     26  H   LIG d   1       7.832  -1.980  -7.274  0.00  0.00     0.024 H 
ATOM     27  H   LIG d   1       7.768  -2.418  -5.550  0.00  0.00     0.024 H 
ATOM     28  H   LIG d   1       6.577  -3.096  -6.685  0.00  0.00     0.024 H 
ENDBRANCH   4  25
ENDBRANCH   1   4
BRANCH   1  29
ATOM     29  C   LIG d   1       4.385  -0.270  -7.629  0.00  0.00    -0.084 C 
ATOM     30  C   LIG d   1       3.377   0.500  -7.301  0.00  0.00    -0.076 C 
ATOM     31  H   LIG d   1       4.890  -0.124  -8.572  0.00  0.00     0.057 H 
BRANCH  30  32
ATOM     32  C   LIG d   1       2.724   0.352  -5.950  0.00  0.00    -0.044 C 
ATOM     33  H   LIG d   1       2.200   1.273  -5.698  0.00  0.00     0.027 H 
ATOM     34  H   LIG d   1       2.013  -0.475  -5.980  0.00  0.00     0.027 H 
ATOM     35  H   LIG d   1       3.487   0.149  -5.199  0.00  0.00     0.027 H 
ENDBRANCH  30  32
BRANCH  30  36
ATOM     36  C   LIG d   1       2.868   1.532  -8.274  0.00  0.00    -0.029 C 
ATOM     37  H   LIG d   1       1.962   1.164  -8.755  0.00  0.00     0.031 H 
ATOM     38  H   LIG d   1       2.645   2.456  -7.739  0.00  0.00     0.031 H 
BRANCH  36  39
ATOM     39  C   LIG d   1       3.936   1.803  -9.335  0.00  0.00    -0.031 C 
ATOM     40  H   LIG d   1       3.991   2.874  -9.531  0.00  0.00     0.031 H 
ATOM     41  H   LIG d   1       4.903   1.449  -8.977  0.00  0.00     0.031 H 
BRANCH  39  42
ATOM     42  C   LIG d   1       3.576   1.078 -10.607  0.00  0.00    -0.085 C 
ATOM     43  C   LIG d   1       4.483   0.381 -11.244  0.00  0.00    -0.080 C 
ATOM     44  H   LIG d   1       2.568   1.135 -10.993  0.00  0.00     0.057 H 
BRANCH  43  45
ATOM     45  C   LIG d   1       5.832   0.148 -10.615  0.00  0.00    -0.044 C 
ATOM     46  H   LIG d   1       5.712  -0.431  -9.699  0.00  0.00     0.027 H 
ATOM     47  H   LIG d   1       6.467  -0.400 -11.311  0.00  0.00     0.027 H 
ATOM     48  H   LIG d   1       6.294   1.107 -10.380  0.00  0.00     0.027 H 
ENDBRANCH  43  45
BRANCH  43  49
ATOM     49  C   LIG d   1       4.177  -0.188 -12.605  0.00  0.00    -0.044 C 
ATOM     50  H   LIG d   1       4.951  -0.905 -12.881  0.00  0.00     0.027 H 
ATOM     51  H   LIG d   1       3.209  -0.690 -12.580  0.00  0.00     0.027 H 
ATOM     52  H   LIG d   1       4.150   0.617 -13.339  0.00  0.00     0.027 H 
ENDBRANCH  43  49
ENDBRANCH  39  42
ENDBRANCH  36  39
ENDBRANCH  30  36
ENDBRANCH   1  29
TORSDOF 12
ENDMDL
MODEL 9
REMARK VINA RESULT:      -4.8      2.138      7.091
REMARK  12 active torsions:
REMARK  status: ('A' for Active; 'I' for Inactive)
REMARK    1  A    between atoms: C_1  and  C_2 
REMARK    2  A    between atoms: C_7  and  C_10 
REMARK    3  A    between atoms: C_10  and  C_11 
REMARK    4  A    between atoms: C_10  and  C_12 
REMARK    5  A    between atoms: C_10  and  C_13 
REMARK    6  A    between atoms: C_13  and  C_14 
REMARK    7  A    between atoms: C_15  and  C_16 
REMARK    8  A    between atoms: C_15  and  C_17 
REMARK    9  A    between atoms: C_17  and  C_18 
REMARK   10  A    between atoms: C_18  and  C_19 
REMARK   11  A    between atoms: C_20  and  C_21 
REMARK   12  A    between atoms: C_20  and  C_22 
ROOT
ATOM      1  C   LIG d   1       4.821   0.440  -8.262  0.00  0.00    -0.025 C 
ATOM      2  H   LIG d   1       4.327   1.397  -8.428  0.00  0.00     0.031 H 
ATOM      3  H   LIG d   1       5.739   0.598  -7.695  0.00  0.00     0.031 H 
ENDROOT
BRANCH   1   4
ATOM      4  C   LIG d   1       3.889  -0.483  -7.474  0.00  0.00     0.019 C 
BRANCH   4   5
ATOM      5  C   LIG d   1       4.034  -0.201  -5.978  0.00  0.00     0.165 C 
ATOM      6  O   LIG d   1       2.897   0.535  -5.520  0.00  0.00    -0.351 OA
ATOM      7  C   LIG d   1       2.924   0.827  -4.120  0.00  0.00     0.053 C 
ATOM      8  C   LIG d   1       3.021  -0.488  -3.339  0.00  0.00    -0.003 C 
ATOM      9  H   LIG d   1       3.791   1.449  -3.894  0.00  0.00     0.056 H 
ATOM     10  H   LIG d   1       2.013   1.354  -3.838  0.00  0.00     0.056 H 
ATOM     11  C   LIG d   1       4.232  -1.279  -3.847  0.00  0.00     0.061 C 
ATOM     12  H   LIG d   1       3.145  -0.274  -2.277  0.00  0.00     0.031 H 
ATOM     13  H   LIG d   1       2.112  -1.071  -3.490  0.00  0.00     0.031 H 
ATOM     14  H   LIG d   1       5.147  -0.736  -3.612  0.00  0.00     0.059 H 
ATOM     15  O   LIG d   1       4.121  -1.437  -5.266  0.00  0.00    -0.348 OA
ATOM     16  H   LIG d   1       4.938   0.383  -5.805  0.00  0.00     0.091 H 
BRANCH  11  17
ATOM     17  C   LIG d   1       4.262  -2.655  -3.179  0.00  0.00    -0.038 C 
ATOM     18  H   LIG d   1       4.298  -2.533  -2.097  0.00  0.00     0.025 H 
ATOM     19  H   LIG d   1       3.365  -3.210  -3.452  0.00  0.00     0.025 H 
ATOM     20  H   LIG d   1       5.145  -3.201  -3.513  0.00  0.00     0.025 H 
ENDBRANCH  11  17
ENDBRANCH   4   5
BRANCH   4  21
ATOM     21  C   LIG d   1       4.258  -1.941  -7.757  0.00  0.00    -0.055 C 
ATOM     22  H   LIG d   1       3.624  -2.598  -7.162  0.00  0.00     0.024 H 
ATOM     23  H   LIG d   1       4.112  -2.155  -8.815  0.00  0.00     0.024 H 
ATOM     24  H   LIG d   1       5.302  -2.109  -7.492  0.00  0.00     0.024 H 
ENDBRANCH   4  21
BRANCH   4  25
ATOM     25  C   LIG d   1       2.442  -0.232  -7.903  0.00  0.00    -0.055 C 
ATOM     26  H   LIG d   1       1.867  -1.153  -7.800  0.00  0.00     0.024 H 
ATOM     27  H   LIG d   1       2.005   0.542  -7.274  0.00  0.00     0.024 H 
ATOM     28  H   LIG d   1       2.422   0.093  -8.944  0.00  0.00     0.024 H 
ENDBRANCH   4  25
ENDBRANCH   1   4
BRANCH   1  29
ATOM     29  C   LIG d   1       5.151  -0.192  -9.589  0.00  0.00    -0.084 C 
ATOM     30  C   LIG d   1       4.684   0.328 -10.697  0.00  0.00    -0.076 C 
ATOM     31  H   LIG d   1       5.774  -1.073  -9.627  0.00  0.00     0.057 H 
BRANCH  30  32
ATOM     32  C   LIG d   1       3.884   1.605 -10.651  0.00  0.00    -0.044 C 
ATOM     33  H   LIG d   1       3.688   1.947 -11.666  0.00  0.00     0.027 H 
ATOM     34  H   LIG d   1       2.938   1.422 -10.140  0.00  0.00     0.027 H 
ATOM     35  H   LIG d   1       4.447   2.367 -10.112  0.00  0.00     0.027 H 
ENDBRANCH  30  32
BRANCH  30  36
ATOM     36  C   LIG d   1       4.945  -0.351 -12.017  0.00  0.00    -0.029 C 
ATOM     37  H   LIG d   1       5.385   0.364 -12.712  0.00  0.00     0.031 H 
ATOM     38  H   LIG d   1       5.634  -1.183 -11.867  0.00  0.00     0.031 H 
BRANCH  36  39
ATOM     39  C   LIG d   1       3.628  -0.876 -12.589  0.00  0.00    -0.031 C 
ATOM     40  H   LIG d   1       2.858  -0.110 -12.492  0.00  0.00     0.031 H 
ATOM     41  H   LIG d   1       3.762  -1.124 -13.642  0.00  0.00     0.031 H 
BRANCH  39  42
ATOM     42  C   LIG d   1       3.206  -2.109 -11.833  0.00  0.00    -0.085 C 
ATOM     43  C   LIG d   1       2.084  -2.112 -11.157  0.00  0.00    -0.080 C 
ATOM     44  H   LIG d   1       3.830  -2.991 -11.847  0.00  0.00     0.057 H 
BRANCH  43  45
ATOM     45  C   LIG d   1       1.125  -0.957 -11.284  0.00  0.00    -0.044 C 
ATOM     46  H   LIG d   1       0.868  -0.587 -10.292  0.00  0.00     0.027 H 
ATOM     47  H   LIG d   1       1.594  -0.158 -11.860  0.00  0.00     0.027 H 
ATOM     48  H   LIG d   1       0.221  -1.289 -11.794  0.00  0.00     0.027 H 
ENDBRANCH  43  45
BRANCH  43  49
ATOM     49  C   LIG d   1       1.752  -3.272 -10.253  0.00  0.00    -0.044 C 
ATOM     50  H   LIG d   1       1.466  -2.896  -9.271  0.00  0.00     0.027 H 
ATOM     51  H   LIG d   1       0.925  -3.840 -10.680  0.00  0.00     0.027 H 
ATOM     52  H   LIG d   1       2.624  -3.918 -10.156  0.00  0.00     0.027 H 
ENDBRANCH  43  49
ENDBRANCH  39  42
ENDBRANCH  36  39
ENDBRANCH  30  36
ENDBRANCH   1  29
TORSDOF 12
ENDMDL
MODEL 10
REMARK VINA RESULT:      -4.7      2.392      4.832
REMARK  12 active torsions:
REMARK  status: ('A' for Active; 'I' for Inactive)
REMARK    1  A    between atoms: C_1  and  C_2 
REMARK    2  A    between atoms: C_7  and  C_10 
REMARK    3  A    between atoms: C_10  and  C_11 
REMARK    4  A    between atoms: C_10  and  C_12 
REMARK    5  A    between atoms: C_10  and  C_13 
REMARK    6  A    between atoms: C_13  and  C_14 
REMARK    7  A    between atoms: C_15  and  C_16 
REMARK    8  A    between atoms: C_15  and  C_17 
REMARK    9  A    between atoms: C_17  and  C_18 
REMARK   10  A    between atoms: C_18  and  C_19 
REMARK   11  A    between atoms: C_20  and  C_21 
REMARK   12  A    between atoms: C_20  and  C_22 
ROOT
ATOM      1  C   LIG d   1       5.380  -1.544  -6.758  0.00  0.00    -0.025 C 
ATOM      2  H   LIG d   1       5.471  -0.955  -7.671  0.00  0.00     0.031 H 
ATOM      3  H   LIG d   1       5.212  -2.590  -7.016  0.00  0.00     0.031 H 
ENDROOT
BRANCH   1   4
ATOM      4  C   LIG d   1       6.669  -1.421  -5.943  0.00  0.00     0.019 C 
BRANCH   4   5
ATOM      5  C   LIG d   1       6.901   0.045  -5.572  0.00  0.00     0.165 C 
ATOM      6  O   LIG d   1       7.208   0.141  -4.179  0.00  0.00    -0.351 OA
ATOM      7  C   LIG d   1       7.470   1.476  -3.737  0.00  0.00     0.053 C 
ATOM      8  C   LIG d   1       8.636   2.050  -4.550  0.00  0.00    -0.003 C 
ATOM      9  H   LIG d   1       6.583   2.091  -3.889  0.00  0.00     0.056 H 
ATOM     10  H   LIG d   1       7.732   1.466  -2.679  0.00  0.00     0.056 H 
ATOM     11  C   LIG d   1       8.306   1.928  -6.042  0.00  0.00     0.061 C 
ATOM     12  H   LIG d   1       8.778   3.100  -4.294  0.00  0.00     0.031 H 
ATOM     13  H   LIG d   1       9.546   1.493  -4.328  0.00  0.00     0.031 H 
ATOM     14  H   LIG d   1       7.451   2.559  -6.281  0.00  0.00     0.059 H 
ATOM     15  O   LIG d   1       7.991   0.563  -6.338  0.00  0.00    -0.348 OA
ATOM     16  H   LIG d   1       6.001   0.620  -5.787  0.00  0.00     0.091 H 
BRANCH  11  17
ATOM     17  C   LIG d   1       9.516   2.365  -6.871  0.00  0.00    -0.038 C 
ATOM     18  H   LIG d   1      10.085   3.112  -6.318  0.00  0.00     0.025 H 
ATOM     19  H   LIG d   1      10.150   1.502  -7.071  0.00  0.00     0.025 H 
ATOM     20  H   LIG d   1       9.174   2.792  -7.814  0.00  0.00     0.025 H 
ENDBRANCH  11  17
ENDBRANCH   4   5
BRANCH   4  21
ATOM     21  C   LIG d   1       7.848  -1.931  -6.774  0.00  0.00    -0.055 C 
ATOM     22  H   LIG d   1       8.141  -1.168  -7.495  0.00  0.00     0.024 H 
ATOM     23  H   LIG d   1       8.688  -2.151  -6.116  0.00  0.00     0.024 H 
ATOM     24  H   LIG d   1       7.554  -2.837  -7.304  0.00  0.00     0.024 H 
ENDBRANCH   4  21
BRANCH   4  25
ATOM     25  C   LIG d   1       6.546  -2.257  -4.667  0.00  0.00    -0.055 C 
ATOM     26  H   LIG d   1       5.860  -3.085  -4.840  0.00  0.00     0.024 H 
ATOM     27  H   LIG d   1       7.526  -2.647  -4.392  0.00  0.00     0.024 H 
ATOM     28  H   LIG d   1       6.165  -1.632  -3.859  0.00  0.00     0.024 H 
ENDBRANCH   4  25
ENDBRANCH   1   4
BRANCH   1  29
ATOM     29  C   LIG d   1       4.220  -1.033  -5.944  0.00  0.00    -0.084 C 
ATOM     30  C   LIG d   1       3.437  -0.103  -6.431  0.00  0.00    -0.076 C 
ATOM     31  H   LIG d   1       4.033  -1.435  -4.960  0.00  0.00     0.057 H 
BRANCH  30  32
ATOM     32  C   LIG d   1       3.647   0.398  -7.837  0.00  0.00    -0.044 C 
ATOM     33  H   LIG d   1       3.146   1.358  -7.959  0.00  0.00     0.027 H 
ATOM     34  H   LIG d   1       4.715   0.520  -8.023  0.00  0.00     0.027 H 
ATOM     35  H   LIG d   1       3.234  -0.320  -8.545  0.00  0.00     0.027 H 
ENDBRANCH  30  32
BRANCH  30  36
ATOM     36  C   LIG d   1       2.327   0.467  -5.586  0.00  0.00    -0.029 C 
ATOM     37  H   LIG d   1       2.444   1.548  -5.513  0.00  0.00     0.031 H 
ATOM     38  H   LIG d   1       1.365   0.236  -6.046  0.00  0.00     0.031 H 
BRANCH  36  39
ATOM     39  C   LIG d   1       2.384  -0.148  -4.187  0.00  0.00    -0.031 C 
ATOM     40  H   LIG d   1       1.384  -0.159  -3.753  0.00  0.00     0.031 H 
ATOM     41  H   LIG d   1       2.764  -1.167  -4.252  0.00  0.00     0.031 H 
BRANCH  39  42
ATOM     42  C   LIG d   1       3.299   0.673  -3.314  0.00  0.00    -0.085 C 
ATOM     43  C   LIG d   1       3.969   0.100  -2.345  0.00  0.00    -0.080 C 
ATOM     44  H   LIG d   1       3.401   1.734  -3.487  0.00  0.00     0.057 H 
BRANCH  43  45
ATOM     45  C   LIG d   1       3.973  -1.401  -2.218  0.00  0.00    -0.044 C 
ATOM     46  H   LIG d   1       4.684  -1.825  -2.928  0.00  0.00     0.027 H 
ATOM     47  H   LIG d   1       4.263  -1.679  -1.204  0.00  0.00     0.027 H 
ATOM     48  H   LIG d   1       2.975  -1.787  -2.429  0.00  0.00     0.027 H 
ENDBRANCH  43  45
BRANCH  43  49
ATOM     49  C   LIG d   1       4.736   0.942  -1.359  0.00  0.00    -0.044 C 
ATOM     50  H   LIG d   1       4.037   1.449  -0.694  0.00  0.00     0.027 H 
ATOM     51  H   LIG d   1       5.398   0.303  -0.773  0.00  0.00     0.027 H 
ATOM     52  H   LIG d   1       5.329   1.683  -1.896  0.00  0.00     0.027 H 
ENDBRANCH  43  49
ENDBRANCH  39  42
ENDBRANCH  36  39
ENDBRANCH  30  36
ENDBRANCH   1  29
TORSDOF 12
ENDMDL
