MODEL 1
REMARK VINA RESULT:      -8.2      0.000      0.000
REMARK  2 active torsions:
REMARK  status: ('A' for Active; 'I' for Inactive)
REMARK    1  A    between atoms: CG_4  and  CB_7 
REMARK    2  A    between atoms: CB_7  and  CA_8 
REMARK       I    between atoms: CA_8  and  C_10 
REMARK       I    between atoms: CA_8  and  N_17 
REMARK       I    between atoms: C_10  and  N_12 
REMARK       I    between atoms: N_12  and  CA_13 
REMARK       I    between atoms: CA_13  and  C_14 
REMARK       I    between atoms: N_17  and  C_18 
REMARK       I    between atoms: C_18  and  N_20 
ROOT
ATOM      1  CA  GLY d   1       7.193   0.240  -4.764  0.00  0.00     0.105 C 
ATOM      2  HA  GLY d   1       6.780   1.257  -4.835  0.00  0.00     0.060 H 
ATOM      3  C   GLY d   1       8.659   0.260  -5.112  0.00  0.00     0.234 C 
ATOM      4  O   GLY d   1       9.062  -0.365  -6.071  0.00  0.00    -0.274 OA
ATOM      5  N   GLY d   1       9.521   0.969  -4.358  0.00  0.00    -0.308 N 
ATOM      6  CA  GLY d   1      10.948   0.983  -4.693  0.00  0.00     0.051 C 
ATOM      7  C   GLY d   1      11.688   1.839  -3.699  0.00  0.00     0.059 C 
ATOM      8  O   GLY d   1      11.087   2.383  -2.803  0.00  0.00    -0.548 OA
ATOM      9  OXT GLY d   1      13.016   1.999  -3.810  0.00  0.00    -0.548 OA
ATOM     10  N   GLY d   1       6.473  -0.596  -5.727  0.00  0.00    -0.287 N 
ATOM     11  H   GLY d   1       9.154   1.539  -3.492  0.00  0.00     0.149 HD
ATOM     12  HA1 GLY d   1      11.342  -0.043  -4.659  0.00  0.00     0.052 H 
ATOM     13  HA2 GLY d   1      11.083   1.394  -5.704  0.00  0.00     0.052 H 
ATOM     14  H   GLY d   1       6.272  -1.653  -5.496  0.00  0.00     0.151 HD
ATOM     15  C   UNK d   0       6.056  -0.072  -6.896  0.00  0.00     0.308 C 
ATOM     16  O   UNK d   0       6.277   1.096  -7.151  0.00  0.00    -0.252 OA
ATOM     17  N   UNK d   0       5.393  -0.842  -7.782  0.00  0.00    -0.245 N 
ATOM     18  C   UNK d   0       5.113  -2.257  -7.498  0.00  0.00     0.098 C 
ATOM     19  C   UNK d   0       5.359  -3.067  -8.745  0.00  0.00     0.235 C 
ATOM     20  O   UNK d   0       5.706  -4.225  -8.648  0.00  0.00    -0.274 OA
ATOM     21  N   UNK d   0       5.199  -2.521  -9.965  0.00  0.00    -0.283 N 
ATOM     22  C   UNK d   0       4.849  -1.174 -10.106  0.00  0.00     0.055 A 
ATOM     23  C   UNK d   0       4.944  -0.316  -9.005  0.00  0.00     0.059 A 
ATOM     24  C   UNK d   0       4.603   1.018  -9.127  0.00  0.00    -0.038 A 
ATOM     25  C   UNK d   0       4.159   1.505 -10.343  0.00  0.00    -0.060 A 
ATOM     26  C   UNK d   0       4.056   0.661 -11.433  0.00  0.00    -0.060 A 
ATOM     27  C   UNK d   0       4.405  -0.680 -11.322  0.00  0.00    -0.039 A 
ATOM     28  H   UNK d   0       5.774  -2.606  -6.692  0.00  0.00     0.057 H 
ATOM     29  H   UNK d   0       4.064  -2.367  -7.185  0.00  0.00     0.057 H 
ATOM     30  H   UNK d   0       5.345  -3.135 -10.866  0.00  0.00     0.155 HD
ATOM     31  H   UNK d   0       4.683   1.678  -8.275  0.00  0.00     0.064 H 
ATOM     32  H   UNK d   0       3.892   2.546 -10.442  0.00  0.00     0.062 H 
ATOM     33  H   UNK d   0       3.708   1.047 -12.381  0.00  0.00     0.062 H 
ATOM     34  H   UNK d   0       4.324  -1.337 -12.175  0.00  0.00     0.064 H 
ENDROOT
BRANCH   1  35
ATOM     35  CB  GLY d   1       7.010  -0.331  -3.356  0.00  0.00    -0.001 C 
ATOM     36  HB1 GLY d   1       7.446   0.361  -2.621  0.00  0.00     0.034 H 
ATOM     37  HB2 GLY d   1       7.515  -1.305  -3.288  0.00  0.00     0.034 H 
BRANCH  35  38
ATOM     38  CG  GLY d   1       5.540  -0.506  -3.071  0.00  0.00    -0.045 A 
ATOM     39  CD1 GLY d   1       5.025  -1.770  -2.852  0.00  0.00    -0.059 A 
ATOM     40  CE1 GLY d   1       3.677  -1.929  -2.591  0.00  0.00    -0.061 A 
ATOM     41  HD1 GLY d   1       5.675  -2.631  -2.884  0.00  0.00     0.062 H 
ATOM     42  CZ  GLY d   1       2.845  -0.827  -2.548  0.00  0.00    -0.062 A 
ATOM     43  HE1 GLY d   1       3.274  -2.917  -2.419  0.00  0.00     0.062 H 
ATOM     44  CE2 GLY d   1       3.361   0.437  -2.768  0.00  0.00    -0.061 A 
ATOM     45  HZ  GLY d   1       1.792  -0.952  -2.344  0.00  0.00     0.062 H 
ATOM     46  CD2 GLY d   1       4.709   0.598  -3.024  0.00  0.00    -0.059 A 
ATOM     47  HE2 GLY d   1       2.711   1.299  -2.734  0.00  0.00     0.062 H 
ATOM     48  HD2 GLY d   1       5.113   1.586  -3.191  0.00  0.00     0.062 H 
ENDBRANCH  35  38
ENDBRANCH   1  35
TORSDOF 6
ENDMDL
MODEL 2
REMARK VINA RESULT:      -7.9      3.970      6.416
REMARK  2 active torsions:
REMARK  status: ('A' for Active; 'I' for Inactive)
REMARK    1  A    between atoms: CG_4  and  CB_7 
REMARK    2  A    between atoms: CB_7  and  CA_8 
REMARK       I    between atoms: CA_8  and  C_10 
REMARK       I    between atoms: CA_8  and  N_17 
REMARK       I    between atoms: C_10  and  N_12 
REMARK       I    between atoms: N_12  and  CA_13 
REMARK       I    between atoms: CA_13  and  C_14 
REMARK       I    between atoms: N_17  and  C_18 
REMARK       I    between atoms: C_18  and  N_20 
ROOT
ATOM      1  CA  GLY d   1       9.344   2.239  -4.422  0.00  0.00     0.105 C 
ATOM      2  HA  GLY d   1       8.833   3.023  -3.842  0.00  0.00     0.060 H 
ATOM      3  C   GLY d   1       9.183   2.510  -5.896  0.00  0.00     0.234 C 
ATOM      4  O   GLY d   1       8.599   1.711  -6.598  0.00  0.00    -0.274 OA
ATOM      5  N   GLY d   1       9.688   3.637  -6.434  0.00  0.00    -0.308 N 
ATOM      6  CA  GLY d   1       9.537   3.896  -7.868  0.00  0.00     0.051 C 
ATOM      7  C   GLY d   1      10.190   5.210  -8.212  0.00  0.00     0.059 C 
ATOM      8  O   GLY d   1      10.727   5.862  -7.348  0.00  0.00    -0.548 OA
ATOM      9  OXT GLY d   1      10.176   5.655  -9.478  0.00  0.00    -0.548 OA
ATOM     10  N   GLY d   1       8.714   0.961  -4.088  0.00  0.00    -0.287 N 
ATOM     11  H   GLY d   1      10.214   4.363  -5.796  0.00  0.00     0.149 HD
ATOM     12  HA1 GLY d   1      10.016   3.088  -8.439  0.00  0.00     0.052 H 
ATOM     13  HA2 GLY d   1       8.468   3.941  -8.122  0.00  0.00     0.052 H 
ATOM     14  H   GLY d   1       9.317   0.042  -4.054  0.00  0.00     0.151 HD
ATOM     15  C   UNK d   0       7.394   0.909  -3.821  0.00  0.00     0.308 C 
ATOM     16  O   UNK d   0       6.726   1.924  -3.858  0.00  0.00    -0.252 OA
ATOM     17  N   UNK d   0       6.813  -0.268  -3.514  0.00  0.00    -0.245 N 
ATOM     18  C   UNK d   0       7.598  -1.511  -3.462  0.00  0.00     0.098 C 
ATOM     19  C   UNK d   0       6.806  -2.619  -4.107  0.00  0.00     0.235 C 
ATOM     20  O   UNK d   0       7.390  -3.536  -4.646  0.00  0.00    -0.274 OA
ATOM     21  N   UNK d   0       5.461  -2.604  -4.094  0.00  0.00    -0.283 N 
ATOM     22  C   UNK d   0       4.763  -1.534  -3.524  0.00  0.00     0.055 A 
ATOM     23  C   UNK d   0       5.441  -0.346  -3.227  0.00  0.00     0.059 A 
ATOM     24  C   UNK d   0       4.766   0.722  -2.665  0.00  0.00    -0.038 A 
ATOM     25  C   UNK d   0       3.415   0.612  -2.389  0.00  0.00    -0.060 A 
ATOM     26  C   UNK d   0       2.741  -0.560  -2.675  0.00  0.00    -0.060 A 
ATOM     27  C   UNK d   0       3.409  -1.636  -3.248  0.00  0.00    -0.039 A 
ATOM     28  H   UNK d   0       8.545  -1.368  -4.002  0.00  0.00     0.057 H 
ATOM     29  H   UNK d   0       7.809  -1.768  -2.413  0.00  0.00     0.057 H 
ATOM     30  H   UNK d   0       4.896  -3.439  -4.535  0.00  0.00     0.155 HD
ATOM     31  H   UNK d   0       5.293   1.638  -2.441  0.00  0.00     0.064 H 
ATOM     32  H   UNK d   0       2.885   1.445  -1.950  0.00  0.00     0.062 H 
ATOM     33  H   UNK d   0       1.686  -0.640  -2.457  0.00  0.00     0.062 H 
ATOM     34  H   UNK d   0       2.880  -2.550  -3.470  0.00  0.00     0.064 H 
ENDROOT
BRANCH   1  35
ATOM     35  CB  GLY d   1      10.832   2.181  -4.074  0.00  0.00    -0.001 C 
ATOM     36  HB1 GLY d   1      11.425   2.161  -5.000  0.00  0.00     0.034 H 
ATOM     37  HB2 GLY d   1      11.036   1.273  -3.488  0.00  0.00     0.034 H 
BRANCH  35  38
ATOM     38  CG  GLY d   1      11.208   3.395  -3.264  0.00  0.00    -0.045 A 
ATOM     39  CD1 GLY d   1      10.234   4.096  -2.576  0.00  0.00    -0.059 A 
ATOM     40  CE1 GLY d   1      10.578   5.209  -1.833  0.00  0.00    -0.061 A 
ATOM     41  HD1 GLY d   1       9.205   3.771  -2.618  0.00  0.00     0.062 H 
ATOM     42  CZ  GLY d   1      11.895   5.623  -1.778  0.00  0.00    -0.062 A 
ATOM     43  HE1 GLY d   1       9.817   5.756  -1.295  0.00  0.00     0.062 H 
ATOM     44  CE2 GLY d   1      12.870   4.923  -2.466  0.00  0.00    -0.061 A 
ATOM     45  HZ  GLY d   1      12.165   6.493  -1.197  0.00  0.00     0.062 H 
ATOM     46  CD2 GLY d   1      12.527   3.806  -3.204  0.00  0.00    -0.059 A 
ATOM     47  HE2 GLY d   1      13.899   5.246  -2.423  0.00  0.00     0.062 H 
ATOM     48  HD2 GLY d   1      13.288   3.258  -3.739  0.00  0.00     0.062 H 
ENDBRANCH  35  38
ENDBRANCH   1  35
TORSDOF 6
ENDMDL
MODEL 3
REMARK VINA RESULT:      -7.6      3.315      4.457
REMARK  2 active torsions:
REMARK  status: ('A' for Active; 'I' for Inactive)
REMARK    1  A    between atoms: CG_4  and  CB_7 
REMARK    2  A    between atoms: CB_7  and  CA_8 
REMARK       I    between atoms: CA_8  and  C_10 
REMARK       I    between atoms: CA_8  and  N_17 
REMARK       I    between atoms: C_10  and  N_12 
REMARK       I    between atoms: N_12  and  CA_13 
REMARK       I    between atoms: CA_13  and  C_14 
REMARK       I    between atoms: N_17  and  C_18 
REMARK       I    between atoms: C_18  and  N_20 
ROOT
ATOM      1  CA  GLY d   1       7.266  -1.658  -3.993  0.00  0.00     0.105 C 
ATOM      2  HA  GLY d   1       7.695  -0.924  -3.295  0.00  0.00     0.060 H 
ATOM      3  C   GLY d   1       8.280  -2.734  -4.287  0.00  0.00     0.234 C 
ATOM      4  O   GLY d   1       8.684  -2.893  -5.420  0.00  0.00    -0.274 OA
ATOM      5  N   GLY d   1       8.736  -3.520  -3.292  0.00  0.00    -0.308 N 
ATOM      6  CA  GLY d   1       9.716  -4.571  -3.580  0.00  0.00     0.051 C 
ATOM      7  C   GLY d   1      10.054  -5.303  -2.307  0.00  0.00     0.059 C 
ATOM      8  O   GLY d   1       9.530  -4.981  -1.267  0.00  0.00    -0.548 OA
ATOM      9  OXT GLY d   1      10.937  -6.313  -2.328  0.00  0.00    -0.548 OA
ATOM     10  N   GLY d   1       6.934  -0.948  -5.231  0.00  0.00    -0.287 N 
ATOM     11  H   GLY d   1       8.373  -3.373  -2.264  0.00  0.00     0.149 HD
ATOM     12  HA1 GLY d   1       9.293  -5.277  -4.308  0.00  0.00     0.052 H 
ATOM     13  HA2 GLY d   1      10.628  -4.117  -3.995  0.00  0.00     0.052 H 
ATOM     14  H   GLY d   1       6.054  -1.249  -5.818  0.00  0.00     0.151 HD
ATOM     15  C   UNK d   0       7.705   0.073  -5.650  0.00  0.00     0.308 C 
ATOM     16  O   UNK d   0       8.678   0.407  -5.001  0.00  0.00    -0.252 OA
ATOM     17  N   UNK d   0       7.400   0.726  -6.789  0.00  0.00    -0.245 N 
ATOM     18  C   UNK d   0       6.230   0.343  -7.593  0.00  0.00     0.098 C 
ATOM     19  C   UNK d   0       6.605   0.371  -9.052  0.00  0.00     0.235 C 
ATOM     20  O   UNK d   0       6.040  -0.369  -9.830  0.00  0.00    -0.274 OA
ATOM     21  N   UNK d   0       7.559   1.206  -9.503  0.00  0.00    -0.283 N 
ATOM     22  C   UNK d   0       8.261   2.033  -8.621  0.00  0.00     0.055 A 
ATOM     23  C   UNK d   0       8.186   1.797  -7.244  0.00  0.00     0.059 A 
ATOM     24  C   UNK d   0       8.874   2.605  -6.357  0.00  0.00    -0.038 A 
ATOM     25  C   UNK d   0       9.636   3.656  -6.836  0.00  0.00    -0.060 A 
ATOM     26  C   UNK d   0       9.710   3.898  -8.195  0.00  0.00    -0.060 A 
ATOM     27  C   UNK d   0       9.028   3.086  -9.093  0.00  0.00    -0.039 A 
ATOM     28  H   UNK d   0       5.908  -0.670  -7.311  0.00  0.00     0.057 H 
ATOM     29  H   UNK d   0       5.409   1.053  -7.407  0.00  0.00     0.057 H 
ATOM     30  H   UNK d   0       7.795   1.243 -10.577  0.00  0.00     0.155 HD
ATOM     31  H   UNK d   0       8.817   2.416  -5.295  0.00  0.00     0.064 H 
ATOM     32  H   UNK d   0      10.175   4.288  -6.146  0.00  0.00     0.062 H 
ATOM     33  H   UNK d   0      10.306   4.721  -8.562  0.00  0.00     0.062 H 
ATOM     34  H   UNK d   0       9.087   3.278 -10.154  0.00  0.00     0.064 H 
ENDROOT
BRANCH   1  35
ATOM     35  CB  GLY d   1       6.001  -2.293  -3.414  0.00  0.00    -0.001 C 
ATOM     36  HB1 GLY d   1       6.259  -2.866  -2.511  0.00  0.00     0.034 H 
ATOM     37  HB2 GLY d   1       5.554  -2.967  -4.160  0.00  0.00     0.034 H 
BRANCH  35  38
ATOM     38  CG  GLY d   1       5.013  -1.212  -3.058  0.00  0.00    -0.045 A 
ATOM     39  CD1 GLY d   1       3.679  -1.357  -3.393  0.00  0.00    -0.059 A 
ATOM     40  CE1 GLY d   1       2.774  -0.365  -3.066  0.00  0.00    -0.061 A 
ATOM     41  HD1 GLY d   1       3.346  -2.245  -3.907  0.00  0.00     0.062 H 
ATOM     42  CZ  GLY d   1       3.200   0.771  -2.406  0.00  0.00    -0.062 A 
ATOM     43  HE1 GLY d   1       1.731  -0.479  -3.326  0.00  0.00     0.062 H 
ATOM     44  CE2 GLY d   1       4.534   0.917  -2.072  0.00  0.00    -0.061 A 
ATOM     45  HZ  GLY d   1       2.492   1.546  -2.151  0.00  0.00     0.062 H 
ATOM     46  CD2 GLY d   1       5.440  -0.077  -2.393  0.00  0.00    -0.059 A 
ATOM     47  HE2 GLY d   1       4.868   1.804  -1.556  0.00  0.00     0.062 H 
ATOM     48  HD2 GLY d   1       6.481   0.035  -2.129  0.00  0.00     0.062 H 
ENDBRANCH  35  38
ENDBRANCH   1  35
TORSDOF 6
ENDMDL
MODEL 4
REMARK VINA RESULT:      -7.6      2.126      2.339
REMARK  2 active torsions:
REMARK  status: ('A' for Active; 'I' for Inactive)
REMARK    1  A    between atoms: CG_4  and  CB_7 
REMARK    2  A    between atoms: CB_7  and  CA_8 
REMARK       I    between atoms: CA_8  and  C_10 
REMARK       I    between atoms: CA_8  and  N_17 
REMARK       I    between atoms: C_10  and  N_12 
REMARK       I    between atoms: N_12  and  CA_13 
REMARK       I    between atoms: CA_13  and  C_14 
REMARK       I    between atoms: N_17  and  C_18 
REMARK       I    between atoms: C_18  and  N_20 
ROOT
ATOM      1  CA  GLY d   1       6.327  -0.094  -6.091  0.00  0.00     0.105 C 
ATOM      2  HA  GLY d   1       5.477   0.560  -5.840  0.00  0.00     0.060 H 
ATOM      3  C   GLY d   1       7.370   0.694  -6.842  0.00  0.00     0.234 C 
ATOM      4  O   GLY d   1       7.662   0.384  -7.978  0.00  0.00    -0.274 OA
ATOM      5  N   GLY d   1       7.980   1.739  -6.250  0.00  0.00    -0.308 N 
ATOM      6  CA  GLY d   1       9.000   2.500  -6.978  0.00  0.00     0.051 C 
ATOM      7  C   GLY d   1       9.525   3.605  -6.097  0.00  0.00     0.059 C 
ATOM      8  O   GLY d   1       9.092   3.742  -4.977  0.00  0.00    -0.548 OA
ATOM      9  OXT GLY d   1      10.472   4.436  -6.557  0.00  0.00    -0.548 OA
ATOM     10  N   GLY d   1       5.819  -1.170  -6.944  0.00  0.00    -0.287 N 
ATOM     11  H   GLY d   1       7.713   2.023  -5.221  0.00  0.00     0.149 HD
ATOM     12  HA1 GLY d   1       9.825   1.831  -7.258  0.00  0.00     0.052 H 
ATOM     13  HA2 GLY d   1       8.554   2.935  -7.885  0.00  0.00     0.052 H 
ATOM     14  H   GLY d   1       6.252  -2.179  -6.873  0.00  0.00     0.151 HD
ATOM     15  C   UNK d   0       4.822  -0.926  -7.816  0.00  0.00     0.308 C 
ATOM     16  O   UNK d   0       4.342   0.189  -7.895  0.00  0.00    -0.252 OA
ATOM     17  N   UNK d   0       4.355  -1.916  -8.602  0.00  0.00    -0.245 N 
ATOM     18  C   UNK d   0       4.916  -3.273  -8.527  0.00  0.00     0.098 C 
ATOM     19  C   UNK d   0       5.071  -3.819  -9.923  0.00  0.00     0.235 C 
ATOM     20  O   UNK d   0       5.945  -4.627 -10.157  0.00  0.00    -0.274 OA
ATOM     21  N   UNK d   0       4.251  -3.421 -10.914  0.00  0.00    -0.283 N 
ATOM     22  C   UNK d   0       3.267  -2.454 -10.684  0.00  0.00     0.055 A 
ATOM     23  C   UNK d   0       3.312  -1.687  -9.515  0.00  0.00     0.059 A 
ATOM     24  C   UNK d   0       2.348  -0.726  -9.272  0.00  0.00    -0.038 A 
ATOM     25  C   UNK d   0       1.331  -0.527 -10.188  0.00  0.00    -0.060 A 
ATOM     26  C   UNK d   0       1.277  -1.286 -11.342  0.00  0.00    -0.060 A 
ATOM     27  C   UNK d   0       2.247  -2.248 -11.598  0.00  0.00    -0.039 A 
ATOM     28  H   UNK d   0       5.898  -3.236  -8.032  0.00  0.00     0.057 H 
ATOM     29  H   UNK d   0       4.238  -3.919  -7.949  0.00  0.00     0.057 H 
ATOM     30  H   UNK d   0       4.351  -3.857 -11.919  0.00  0.00     0.155 HD
ATOM     31  H   UNK d   0       2.390  -0.133  -8.370  0.00  0.00     0.064 H 
ATOM     32  H   UNK d   0       0.577   0.223 -10.001  0.00  0.00     0.062 H 
ATOM     33  H   UNK d   0       0.480  -1.127 -12.053  0.00  0.00     0.062 H 
ATOM     34  H   UNK d   0       2.202  -2.840 -12.500  0.00  0.00     0.064 H 
ENDROOT
BRANCH   1  35
ATOM     35  CB  GLY d   1       6.950  -0.693  -4.829  0.00  0.00    -0.001 C 
ATOM     36  HB1 GLY d   1       7.902  -0.187  -4.614  0.00  0.00     0.034 H 
ATOM     37  HB2 GLY d   1       7.132  -1.767  -4.986  0.00  0.00     0.034 H 
BRANCH  35  38
ATOM     38  CG  GLY d   1       6.008  -0.508  -3.667  0.00  0.00    -0.045 A 
ATOM     39  CD1 GLY d   1       5.357  -1.600  -3.123  0.00  0.00    -0.059 A 
ATOM     40  CE1 GLY d   1       4.495  -1.429  -2.057  0.00  0.00    -0.061 A 
ATOM     41  HD1 GLY d   1       5.524  -2.585  -3.531  0.00  0.00     0.062 H 
ATOM     42  CZ  GLY d   1       4.282  -0.168  -1.534  0.00  0.00    -0.062 A 
ATOM     43  HE1 GLY d   1       3.986  -2.283  -1.632  0.00  0.00     0.062 H 
ATOM     44  CE2 GLY d   1       4.932   0.925  -2.078  0.00  0.00    -0.061 A 
ATOM     45  HZ  GLY d   1       3.607  -0.035  -0.701  0.00  0.00     0.062 H 
ATOM     46  CD2 GLY d   1       5.800   0.754  -3.141  0.00  0.00    -0.059 A 
ATOM     47  HE2 GLY d   1       4.767   1.911  -1.670  0.00  0.00     0.062 H 
ATOM     48  HD2 GLY d   1       6.311   1.606  -3.563  0.00  0.00     0.062 H 
ENDBRANCH  35  38
ENDBRANCH   1  35
TORSDOF 6
ENDMDL
MODEL 5
REMARK VINA RESULT:      -7.5      4.199      5.999
REMARK  2 active torsions:
REMARK  status: ('A' for Active; 'I' for Inactive)
REMARK    1  A    between atoms: CG_4  and  CB_7 
REMARK    2  A    between atoms: CB_7  and  CA_8 
REMARK       I    between atoms: CA_8  and  C_10 
REMARK       I    between atoms: CA_8  and  N_17 
REMARK       I    between atoms: C_10  and  N_12 
REMARK       I    between atoms: N_12  and  CA_13 
REMARK       I    between atoms: CA_13  and  C_14 
REMARK       I    between atoms: N_17  and  C_18 
REMARK       I    between atoms: C_18  and  N_20 
ROOT
ATOM      1  CA  GLY d   1       8.630  -3.802  -4.607  0.00  0.00     0.105 C 
ATOM      2  HA  GLY d   1       8.671  -3.835  -3.508  0.00  0.00     0.060 H 
ATOM      3  C   GLY d   1       9.713  -2.892  -5.130  0.00  0.00     0.234 C 
ATOM      4  O   GLY d   1       9.418  -1.897  -5.756  0.00  0.00    -0.274 OA
ATOM      5  N   GLY d   1      11.008  -3.187  -4.902  0.00  0.00    -0.308 N 
ATOM      6  CA  GLY d   1      12.061  -2.307  -5.416  0.00  0.00     0.051 C 
ATOM      7  C   GLY d   1      13.409  -2.860  -5.033  0.00  0.00     0.059 C 
ATOM      8  O   GLY d   1      13.483  -3.884  -4.396  0.00  0.00    -0.548 OA
ATOM      9  OXT GLY d   1      14.527  -2.215  -5.398  0.00  0.00    -0.548 OA
ATOM     10  N   GLY d   1       7.320  -3.267  -4.983  0.00  0.00    -0.287 N 
ATOM     11  H   GLY d   1      11.275  -4.088  -4.330  0.00  0.00     0.149 HD
ATOM     12  HA1 GLY d   1      11.987  -2.248  -6.512  0.00  0.00     0.052 H 
ATOM     13  HA2 GLY d   1      11.941  -1.302  -4.986  0.00  0.00     0.052 H 
ATOM     14  H   GLY d   1       6.819  -3.629  -5.893  0.00  0.00     0.151 HD
ATOM     15  C   UNK d   0       6.727  -2.332  -4.215  0.00  0.00     0.308 C 
ATOM     16  O   UNK d   0       7.280  -1.932  -3.209  0.00  0.00    -0.252 OA
ATOM     17  N   UNK d   0       5.521  -1.840  -4.562  0.00  0.00    -0.245 N 
ATOM     18  C   UNK d   0       4.830  -2.306  -5.773  0.00  0.00     0.098 C 
ATOM     19  C   UNK d   0       4.217  -1.123  -6.477  0.00  0.00     0.235 C 
ATOM     20  O   UNK d   0       4.075  -1.149  -7.681  0.00  0.00    -0.274 OA
ATOM     21  N   UNK d   0       3.825  -0.037  -5.785  0.00  0.00    -0.283 N 
ATOM     22  C   UNK d   0       4.023   0.041  -4.402  0.00  0.00     0.055 A 
ATOM     23  C   UNK d   0       4.880  -0.869  -3.775  0.00  0.00     0.059 A 
ATOM     24  C   UNK d   0       5.088  -0.806  -2.409  0.00  0.00    -0.038 A 
ATOM     25  C   UNK d   0       4.439   0.158  -1.659  0.00  0.00    -0.060 A 
ATOM     26  C   UNK d   0       3.586   1.057  -2.273  0.00  0.00    -0.060 A 
ATOM     27  C   UNK d   0       3.378   1.006  -3.646  0.00  0.00    -0.039 A 
ATOM     28  H   UNK d   0       5.553  -2.800  -6.439  0.00  0.00     0.057 H 
ATOM     29  H   UNK d   0       4.042  -3.021  -5.494  0.00  0.00     0.057 H 
ATOM     30  H   UNK d   0       3.344   0.804  -6.306  0.00  0.00     0.155 HD
ATOM     31  H   UNK d   0       5.755  -1.508  -1.929  0.00  0.00     0.064 H 
ATOM     32  H   UNK d   0       4.599   0.210  -0.593  0.00  0.00     0.062 H 
ATOM     33  H   UNK d   0       3.081   1.807  -1.682  0.00  0.00     0.062 H 
ATOM     34  H   UNK d   0       2.711   1.709  -4.122  0.00  0.00     0.064 H 
ENDROOT
BRANCH   1  35
ATOM     35  CB  GLY d   1       8.803  -5.198  -5.206  0.00  0.00    -0.001 C 
ATOM     36  HB1 GLY d   1       9.715  -5.224  -5.820  0.00  0.00     0.034 H 
ATOM     37  HB2 GLY d   1       7.932  -5.438  -5.834  0.00  0.00     0.034 H 
BRANCH  35  38
ATOM     38  CG  GLY d   1       8.916  -6.211  -4.096  0.00  0.00    -0.045 A 
ATOM     39  CD1 GLY d   1       8.429  -7.493  -4.277  0.00  0.00    -0.059 A 
ATOM     40  CE1 GLY d   1       8.534  -8.421  -3.259  0.00  0.00    -0.061 A 
ATOM     41  HD1 GLY d   1       7.970  -7.768  -5.214  0.00  0.00     0.062 H 
ATOM     42  CZ  GLY d   1       9.124  -8.070  -2.060  0.00  0.00    -0.062 A 
ATOM     43  HE1 GLY d   1       8.154  -9.423  -3.400  0.00  0.00     0.062 H 
ATOM     44  CE2 GLY d   1       9.610  -6.788  -1.878  0.00  0.00    -0.061 A 
ATOM     45  HZ  GLY d   1       9.205  -8.795  -1.264  0.00  0.00     0.062 H 
ATOM     46  CD2 GLY d   1       9.512  -5.860  -2.898  0.00  0.00    -0.059 A 
ATOM     47  HE2 GLY d   1      10.072  -6.512  -0.942  0.00  0.00     0.062 H 
ATOM     48  HD2 GLY d   1       9.895  -4.861  -2.758  0.00  0.00     0.062 H 
ENDBRANCH  35  38
ENDBRANCH   1  35
TORSDOF 6
ENDMDL
MODEL 6
REMARK VINA RESULT:      -7.4      3.942      7.752
REMARK  2 active torsions:
REMARK  status: ('A' for Active; 'I' for Inactive)
REMARK    1  A    between atoms: CG_4  and  CB_7 
REMARK    2  A    between atoms: CB_7  and  CA_8 
REMARK       I    between atoms: CA_8  and  C_10 
REMARK       I    between atoms: CA_8  and  N_17 
REMARK       I    between atoms: C_10  and  N_12 
REMARK       I    between atoms: N_12  and  CA_13 
REMARK       I    between atoms: CA_13  and  C_14 
REMARK       I    between atoms: N_17  and  C_18 
REMARK       I    between atoms: C_18  and  N_20 
ROOT
ATOM      1  CA  GLY d   1       8.400   1.173  -4.216  0.00  0.00     0.105 C 
ATOM      2  HA  GLY d   1       8.428   0.984  -3.132  0.00  0.00     0.060 H 
ATOM      3  C   GLY d   1       9.437   0.325  -4.907  0.00  0.00     0.234 C 
ATOM      4  O   GLY d   1      10.344   0.853  -5.516  0.00  0.00    -0.274 OA
ATOM      5  N   GLY d   1       9.356  -1.019  -4.850  0.00  0.00    -0.308 N 
ATOM      6  CA  GLY d   1      10.360  -1.844  -5.527  0.00  0.00     0.051 C 
ATOM      7  C   GLY d   1      10.039  -3.300  -5.315  0.00  0.00     0.059 C 
ATOM      8  O   GLY d   1       9.071  -3.618  -4.665  0.00  0.00    -0.548 OA
ATOM      9  OXT GLY d   1      10.829  -4.246  -5.848  0.00  0.00    -0.548 OA
ATOM     10  N   GLY d   1       8.709   2.589  -4.425  0.00  0.00    -0.287 N 
ATOM     11  H   GLY d   1       8.536  -1.497  -4.294  0.00  0.00     0.149 HD
ATOM     12  HA1 GLY d   1      10.352  -1.619  -6.604  0.00  0.00     0.052 H 
ATOM     13  HA2 GLY d   1      11.355  -1.623  -5.113  0.00  0.00     0.052 H 
ATOM     14  H   GLY d   1       8.230   3.140  -5.248  0.00  0.00     0.151 HD
ATOM     15  C   UNK d   0       9.579   3.217  -3.611  0.00  0.00     0.308 C 
ATOM     16  O   UNK d   0      10.108   2.608  -2.701  0.00  0.00    -0.252 OA
ATOM     17  N   UNK d   0       9.863   4.521  -3.804  0.00  0.00    -0.245 N 
ATOM     18  C   UNK d   0       9.237   5.280  -4.896  0.00  0.00     0.098 C 
ATOM     19  C   UNK d   0      10.277   6.159  -5.543  0.00  0.00     0.235 C 
ATOM     20  O   UNK d   0      10.170   6.450  -6.716  0.00  0.00    -0.274 OA
ATOM     21  N   UNK d   0      11.323   6.624  -4.836  0.00  0.00    -0.283 N 
ATOM     22  C   UNK d   0      11.498   6.263  -3.496  0.00  0.00     0.055 A 
ATOM     23  C   UNK d   0      10.762   5.199  -2.965  0.00  0.00     0.059 A 
ATOM     24  C   UNK d   0      10.924   4.828  -1.642  0.00  0.00    -0.038 A 
ATOM     25  C   UNK d   0      11.814   5.518  -0.840  0.00  0.00    -0.060 A 
ATOM     26  C   UNK d   0      12.540   6.575  -1.356  0.00  0.00    -0.060 A 
ATOM     27  C   UNK d   0      12.390   6.949  -2.687  0.00  0.00    -0.039 A 
ATOM     28  H   UNK d   0       8.827   4.581  -5.640  0.00  0.00     0.057 H 
ATOM     29  H   UNK d   0       8.425   5.903  -4.492  0.00  0.00     0.057 H 
ATOM     30  H   UNK d   0      12.053   7.296  -5.310  0.00  0.00     0.155 HD
ATOM     31  H   UNK d   0      10.357   4.001  -1.238  0.00  0.00     0.064 H 
ATOM     32  H   UNK d   0      11.943   5.231   0.193  0.00  0.00     0.062 H 
ATOM     33  H   UNK d   0      13.233   7.111  -0.724  0.00  0.00     0.062 H 
ATOM     34  H   UNK d   0      12.958   7.775  -3.088  0.00  0.00     0.064 H 
ENDROOT
BRANCH   1  35
ATOM     35  CB  GLY d   1       7.019   0.861  -4.793  0.00  0.00    -0.001 C 
ATOM     36  HB1 GLY d   1       7.112   0.092  -5.573  0.00  0.00     0.034 H 
ATOM     37  HB2 GLY d   1       6.588   1.775  -5.228  0.00  0.00     0.034 H 
BRANCH  35  38
ATOM     38  CG  GLY d   1       6.118   0.355  -3.695  0.00  0.00    -0.045 A 
ATOM     39  CD1 GLY d   1       5.502   1.249  -2.839  0.00  0.00    -0.059 A 
ATOM     40  CE1 GLY d   1       4.676   0.785  -1.833  0.00  0.00    -0.061 A 
ATOM     41  HD1 GLY d   1       5.666   2.310  -2.958  0.00  0.00     0.062 H 
ATOM     42  CZ  GLY d   1       4.465  -0.572  -1.682  0.00  0.00    -0.062 A 
ATOM     43  HE1 GLY d   1       4.194   1.484  -1.164  0.00  0.00     0.062 H 
ATOM     44  CE2 GLY d   1       5.081  -1.467  -2.538  0.00  0.00    -0.061 A 
ATOM     45  HZ  GLY d   1       3.820  -0.935  -0.895  0.00  0.00     0.062 H 
ATOM     46  CD2 GLY d   1       5.903  -1.003  -3.548  0.00  0.00    -0.059 A 
ATOM     47  HE2 GLY d   1       4.917  -2.528  -2.421  0.00  0.00     0.062 H 
ATOM     48  HD2 GLY d   1       6.381  -1.701  -4.219  0.00  0.00     0.062 H 
ENDBRANCH  35  38
ENDBRANCH   1  35
TORSDOF 6
ENDMDL
MODEL 7
REMARK VINA RESULT:      -7.3      3.900      5.687
REMARK  2 active torsions:
REMARK  status: ('A' for Active; 'I' for Inactive)
REMARK    1  A    between atoms: CG_4  and  CB_7 
REMARK    2  A    between atoms: CB_7  and  CA_8 
REMARK       I    between atoms: CA_8  and  C_10 
REMARK       I    between atoms: CA_8  and  N_17 
REMARK       I    between atoms: C_10  and  N_12 
REMARK       I    between atoms: N_12  and  CA_13 
REMARK       I    between atoms: CA_13  and  C_14 
REMARK       I    between atoms: N_17  and  C_18 
REMARK       I    between atoms: C_18  and  N_20 
ROOT
ATOM      1  CA  GLY d   1       9.252  -3.339  -4.355  0.00  0.00     0.105 C 
ATOM      2  HA  GLY d   1       9.161  -3.367  -3.258  0.00  0.00     0.060 H 
ATOM      3  C   GLY d   1      10.135  -2.188  -4.763  0.00  0.00     0.234 C 
ATOM      4  O   GLY d   1       9.686  -1.292  -5.448  0.00  0.00    -0.274 OA
ATOM      5  N   GLY d   1      11.424  -2.154  -4.370  0.00  0.00    -0.308 N 
ATOM      6  CA  GLY d   1      12.284  -1.038  -4.773  0.00  0.00     0.051 C 
ATOM      7  C   GLY d   1      13.667  -1.243  -4.211  0.00  0.00     0.059 C 
ATOM      8  O   GLY d   1      13.910  -2.220  -3.543  0.00  0.00    -0.548 OA
ATOM      9  OXT GLY d   1      14.629  -0.339  -4.452  0.00  0.00    -0.548 OA
ATOM     10  N   GLY d   1       7.909  -3.143  -4.904  0.00  0.00    -0.287 N 
ATOM     11  H   GLY d   1      11.830  -2.964  -3.746  0.00  0.00     0.149 HD
ATOM     12  HA1 GLY d   1      12.337  -0.994  -5.870  0.00  0.00     0.052 H 
ATOM     13  HA2 GLY d   1      11.867  -0.096  -4.387  0.00  0.00     0.052 H 
ATOM     14  H   GLY d   1       7.632  -3.613  -5.859  0.00  0.00     0.151 HD
ATOM     15  C   UNK d   0       7.012  -2.388  -4.240  0.00  0.00     0.308 C 
ATOM     16  O   UNK d   0       7.318  -1.869  -3.184  0.00  0.00    -0.252 OA
ATOM     17  N   UNK d   0       5.776  -2.208  -4.746  0.00  0.00    -0.245 N 
ATOM     18  C   UNK d   0       5.380  -2.824  -6.021  0.00  0.00     0.098 C 
ATOM     19  C   UNK d   0       4.589  -1.825  -6.825  0.00  0.00     0.235 C 
ATOM     20  O   UNK d   0       4.611  -1.880  -8.037  0.00  0.00    -0.274 OA
ATOM     21  N   UNK d   0       3.857  -0.873  -6.216  0.00  0.00    -0.283 N 
ATOM     22  C   UNK d   0       3.854  -0.757  -4.822  0.00  0.00     0.055 A 
ATOM     23  C   UNK d   0       4.822  -1.430  -4.070  0.00  0.00     0.059 A 
ATOM     24  C   UNK d   0       4.834  -1.324  -2.691  0.00  0.00    -0.038 A 
ATOM     25  C   UNK d   0       3.878  -0.554  -2.053  0.00  0.00    -0.060 A 
ATOM     26  C   UNK d   0       2.915   0.109  -2.791  0.00  0.00    -0.060 A 
ATOM     27  C   UNK d   0       2.901   0.015  -4.177  0.00  0.00    -0.039 A 
ATOM     28  H   UNK d   0       6.281  -3.121  -6.579  0.00  0.00     0.057 H 
ATOM     29  H   UNK d   0       4.763  -3.713  -5.823  0.00  0.00     0.057 H 
ATOM     30  H   UNK d   0       3.254  -0.175  -6.815  0.00  0.00     0.155 HD
ATOM     31  H   UNK d   0       5.587  -1.842  -2.114  0.00  0.00     0.064 H 
ATOM     32  H   UNK d   0       3.885  -0.469  -0.977  0.00  0.00     0.062 H 
ATOM     33  H   UNK d   0       2.171   0.708  -2.287  0.00  0.00     0.062 H 
ATOM     34  H   UNK d   0       2.147   0.534  -4.751  0.00  0.00     0.064 H 
ENDROOT
BRANCH   1  35
ATOM     35  CB  GLY d   1       9.838  -4.646  -4.891  0.00  0.00    -0.001 C 
ATOM     36  HB1 GLY d   1      10.911  -4.514  -5.088  0.00  0.00     0.034 H 
ATOM     37  HB2 GLY d   1       9.324  -4.922  -5.824  0.00  0.00     0.034 H 
BRANCH  35  38
ATOM     38  CG  GLY d   1       9.645  -5.739  -3.871  0.00  0.00    -0.045 A 
ATOM     39  CD1 GLY d   1      10.183  -5.605  -2.605  0.00  0.00    -0.059 A 
ATOM     40  CE1 GLY d   1      10.006  -6.608  -1.670  0.00  0.00    -0.061 A 
ATOM     41  HD1 GLY d   1      10.739  -4.717  -2.346  0.00  0.00     0.062 H 
ATOM     42  CZ  GLY d   1       9.293  -7.744  -2.000  0.00  0.00    -0.062 A 
ATOM     43  HE1 GLY d   1      10.425  -6.503  -0.679  0.00  0.00     0.062 H 
ATOM     44  CE2 GLY d   1       8.756  -7.879  -3.268  0.00  0.00    -0.061 A 
ATOM     45  HZ  GLY d   1       9.155  -8.528  -1.270  0.00  0.00     0.062 H 
ATOM     46  CD2 GLY d   1       8.927  -6.874  -4.201  0.00  0.00    -0.059 A 
ATOM     47  HE2 GLY d   1       8.198  -8.767  -3.527  0.00  0.00     0.062 H 
ATOM     48  HD2 GLY d   1       8.504  -6.977  -5.189  0.00  0.00     0.062 H 
ENDBRANCH  35  38
ENDBRANCH   1  35
TORSDOF 6
ENDMDL
MODEL 8
REMARK VINA RESULT:      -7.3      3.011      3.911
REMARK  2 active torsions:
REMARK  status: ('A' for Active; 'I' for Inactive)
REMARK    1  A    between atoms: CG_4  and  CB_7 
REMARK    2  A    between atoms: CB_7  and  CA_8 
REMARK       I    between atoms: CA_8  and  C_10 
REMARK       I    between atoms: CA_8  and  N_17 
REMARK       I    between atoms: C_10  and  N_12 
REMARK       I    between atoms: N_12  and  CA_13 
REMARK       I    between atoms: CA_13  and  C_14 
REMARK       I    between atoms: N_17  and  C_18 
REMARK       I    between atoms: C_18  and  N_20 
ROOT
ATOM      1  CA  GLY d   1       6.656  -2.162  -4.806  0.00  0.00     0.105 C 
ATOM      2  HA  GLY d   1       6.126  -1.367  -5.353  0.00  0.00     0.060 H 
ATOM      3  C   GLY d   1       8.067  -2.279  -5.321  0.00  0.00     0.234 C 
ATOM      4  O   GLY d   1       8.440  -3.311  -5.839  0.00  0.00    -0.274 OA
ATOM      5  N   GLY d   1       8.916  -1.238  -5.204  0.00  0.00    -0.308 N 
ATOM      6  CA  GLY d   1      10.290  -1.355  -5.699  0.00  0.00     0.051 C 
ATOM      7  C   GLY d   1      11.026  -0.065  -5.443  0.00  0.00     0.059 C 
ATOM      8  O   GLY d   1      10.461   0.857  -4.904  0.00  0.00    -0.548 OA
ATOM      9  OXT GLY d   1      12.309   0.060  -5.816  0.00  0.00    -0.548 OA
ATOM     10  N   GLY d   1       5.941  -3.416  -5.050  0.00  0.00    -0.287 N 
ATOM     11  H   GLY d   1       8.576  -0.301  -4.738  0.00  0.00     0.149 HD
ATOM     12  HA1 GLY d   1      10.799  -2.177  -5.175  0.00  0.00     0.052 H 
ATOM     13  HA2 GLY d   1      10.275  -1.561  -6.779  0.00  0.00     0.052 H 
ATOM     14  H   GLY d   1       5.885  -4.180  -4.260  0.00  0.00     0.151 HD
ATOM     15  C   UNK d   0       5.351  -3.637  -6.241  0.00  0.00     0.308 C 
ATOM     16  O   UNK d   0       5.412  -2.793  -7.114  0.00  0.00    -0.252 OA
ATOM     17  N   UNK d   0       4.694  -4.792  -6.465  0.00  0.00    -0.245 N 
ATOM     18  C   UNK d   0       4.605  -5.828  -5.426  0.00  0.00     0.098 C 
ATOM     19  C   UNK d   0       4.814  -7.179  -6.061  0.00  0.00     0.235 C 
ATOM     20  O   UNK d   0       5.298  -8.080  -5.407  0.00  0.00    -0.274 OA
ATOM     21  N   UNK d   0       4.471  -7.400  -7.343  0.00  0.00    -0.283 N 
ATOM     22  C   UNK d   0       3.958  -6.366  -8.134  0.00  0.00     0.055 A 
ATOM     23  C   UNK d   0       4.066  -5.041  -7.696  0.00  0.00     0.059 A 
ATOM     24  C   UNK d   0       3.566  -4.007  -8.466  0.00  0.00    -0.038 A 
ATOM     25  C   UNK d   0       2.949  -4.286  -9.673  0.00  0.00    -0.060 A 
ATOM     26  C   UNK d   0       2.833  -5.593 -10.108  0.00  0.00    -0.060 A 
ATOM     27  C   UNK d   0       3.341  -6.638  -9.344  0.00  0.00    -0.039 A 
ATOM     28  H   UNK d   0       5.380  -5.651  -4.666  0.00  0.00     0.057 H 
ATOM     29  H   UNK d   0       3.612  -5.790  -4.953  0.00  0.00     0.057 H 
ATOM     30  H   UNK d   0       4.592  -8.401  -7.782  0.00  0.00     0.155 HD
ATOM     31  H   UNK d   0       3.657  -2.986  -8.126  0.00  0.00     0.064 H 
ATOM     32  H   UNK d   0       2.557  -3.481 -10.276  0.00  0.00     0.062 H 
ATOM     33  H   UNK d   0       2.349  -5.804 -11.051  0.00  0.00     0.062 H 
ATOM     34  H   UNK d   0       3.248  -7.657  -9.687  0.00  0.00     0.064 H 
ENDROOT
BRANCH   1  35
ATOM     35  CB  GLY d   1       6.682  -1.872  -3.305  0.00  0.00    -0.001 C 
ATOM     36  HB1 GLY d   1       7.671  -1.483  -3.024  0.00  0.00     0.034 H 
ATOM     37  HB2 GLY d   1       6.483  -2.801  -2.749  0.00  0.00     0.034 H 
BRANCH  35  38
ATOM     38  CG  GLY d   1       5.626  -0.850  -2.970  0.00  0.00    -0.045 A 
ATOM     39  CD1 GLY d   1       5.936   0.497  -2.991  0.00  0.00    -0.059 A 
ATOM     40  CE1 GLY d   1       4.967   1.433  -2.684  0.00  0.00    -0.061 A 
ATOM     41  HD1 GLY d   1       6.935   0.816  -3.248  0.00  0.00     0.062 H 
ATOM     42  CZ  GLY d   1       3.689   1.024  -2.357  0.00  0.00    -0.062 A 
ATOM     43  HE1 GLY d   1       5.209   2.486  -2.701  0.00  0.00     0.062 H 
ATOM     44  CE2 GLY d   1       3.378  -0.323  -2.335  0.00  0.00    -0.061 A 
ATOM     45  HZ  GLY d   1       2.932   1.756  -2.117  0.00  0.00     0.062 H 
ATOM     46  CD2 GLY d   1       4.345  -1.260  -2.648  0.00  0.00    -0.059 A 
ATOM     47  HE2 GLY d   1       2.379  -0.644  -2.080  0.00  0.00     0.062 H 
ATOM     48  HD2 GLY d   1       4.102  -2.312  -2.635  0.00  0.00     0.062 H 
ENDBRANCH  35  38
ENDBRANCH   1  35
TORSDOF 6
ENDMDL
MODEL 9
REMARK VINA RESULT:      -7.1      2.654      5.854
REMARK  2 active torsions:
REMARK  status: ('A' for Active; 'I' for Inactive)
REMARK    1  A    between atoms: CG_4  and  CB_7 
REMARK    2  A    between atoms: CB_7  and  CA_8 
REMARK       I    between atoms: CA_8  and  C_10 
REMARK       I    between atoms: CA_8  and  N_17 
REMARK       I    between atoms: C_10  and  N_12 
REMARK       I    between atoms: N_12  and  CA_13 
REMARK       I    between atoms: CA_13  and  C_14 
REMARK       I    between atoms: N_17  and  C_18 
REMARK       I    between atoms: C_18  and  N_20 
ROOT
ATOM      1  CA  GLY d   1       9.598   1.115  -4.696  0.00  0.00     0.105 C 
ATOM      2  HA  GLY d   1       9.733   0.608  -3.728  0.00  0.00     0.060 H 
ATOM      3  C   GLY d   1       9.509   2.604  -4.482  0.00  0.00     0.234 C 
ATOM      4  O   GLY d   1       8.498   3.201  -4.788  0.00  0.00    -0.274 OA
ATOM      5  N   GLY d   1      10.553   3.272  -3.953  0.00  0.00    -0.308 N 
ATOM      6  CA  GLY d   1      10.469   4.722  -3.752  0.00  0.00     0.051 C 
ATOM      7  C   GLY d   1      11.760   5.221  -3.157  0.00  0.00     0.059 C 
ATOM      8  O   GLY d   1      12.658   4.447  -2.926  0.00  0.00    -0.548 OA
ATOM      9  OXT GLY d   1      11.912   6.526  -2.885  0.00  0.00    -0.548 OA
ATOM     10  N   GLY d   1       8.345   0.629  -5.278  0.00  0.00    -0.287 N 
ATOM     11  H   GLY d   1      11.468   2.730  -3.672  0.00  0.00     0.149 HD
ATOM     12  HA1 GLY d   1      10.295   5.216  -4.718  0.00  0.00     0.052 H 
ATOM     13  HA2 GLY d   1       9.638   4.949  -3.068  0.00  0.00     0.052 H 
ATOM     14  H   GLY d   1       8.253   0.514  -6.368  0.00  0.00     0.151 HD
ATOM     15  C   UNK d   0       7.305   0.322  -4.479  0.00  0.00     0.308 C 
ATOM     16  O   UNK d   0       7.406   0.448  -3.274  0.00  0.00    -0.252 OA
ATOM     17  N   UNK d   0       6.151  -0.125  -5.015  0.00  0.00    -0.245 N 
ATOM     18  C   UNK d   0       6.002  -0.287  -6.468  0.00  0.00     0.098 C 
ATOM     19  C   UNK d   0       4.643   0.215  -6.882  0.00  0.00     0.235 C 
ATOM     20  O   UNK d   0       4.485   0.669  -7.996  0.00  0.00    -0.274 OA
ATOM     21  N   UNK d   0       3.601   0.166  -6.031  0.00  0.00    -0.283 N 
ATOM     22  C   UNK d   0       3.766  -0.306  -4.725  0.00  0.00     0.055 A 
ATOM     23  C   UNK d   0       5.055  -0.456  -4.202  0.00  0.00     0.059 A 
ATOM     24  C   UNK d   0       5.236  -0.920  -2.912  0.00  0.00    -0.038 A 
ATOM     25  C   UNK d   0       4.136  -1.243  -2.138  0.00  0.00    -0.060 A 
ATOM     26  C   UNK d   0       2.860  -1.102  -2.650  0.00  0.00    -0.060 A 
ATOM     27  C   UNK d   0       2.669  -0.629  -3.943  0.00  0.00    -0.039 A 
ATOM     28  H   UNK d   0       6.784   0.292  -6.983  0.00  0.00     0.057 H 
ATOM     29  H   UNK d   0       6.101  -1.350  -6.731  0.00  0.00     0.057 H 
ATOM     30  H   UNK d   0       2.606   0.500  -6.360  0.00  0.00     0.155 HD
ATOM     31  H   UNK d   0       6.233  -1.030  -2.511  0.00  0.00     0.064 H 
ATOM     32  H   UNK d   0       4.274  -1.605  -1.130  0.00  0.00     0.062 H 
ATOM     33  H   UNK d   0       2.005  -1.357  -2.041  0.00  0.00     0.062 H 
ATOM     34  H   UNK d   0       1.671  -0.520  -4.341  0.00  0.00     0.064 H 
ENDROOT
BRANCH   1  35
ATOM     35  CB  GLY d   1      10.756   0.804  -5.645  0.00  0.00    -0.001 C 
ATOM     36  HB1 GLY d   1      11.266   1.738  -5.921  0.00  0.00     0.034 H 
ATOM     37  HB2 GLY d   1      10.366   0.317  -6.551  0.00  0.00     0.034 H 
BRANCH  35  38
ATOM     38  CG  GLY d   1      11.734  -0.118  -4.961  0.00  0.00    -0.045 A 
ATOM     39  CD1 GLY d   1      11.508  -1.482  -4.953  0.00  0.00    -0.059 A 
ATOM     40  CE1 GLY d   1      12.405  -2.326  -4.326  0.00  0.00    -0.061 A 
ATOM     41  HD1 GLY d   1      10.633  -1.887  -5.438  0.00  0.00     0.062 H 
ATOM     42  CZ  GLY d   1      13.526  -1.808  -3.707  0.00  0.00    -0.062 A 
ATOM     43  HE1 GLY d   1      12.230  -3.392  -4.320  0.00  0.00     0.062 H 
ATOM     44  CE2 GLY d   1      13.752  -0.443  -3.714  0.00  0.00    -0.061 A 
ATOM     45  HZ  GLY d   1      14.227  -2.468  -3.216  0.00  0.00     0.062 H 
ATOM     46  CD2 GLY d   1      12.858   0.401  -4.346  0.00  0.00    -0.059 A 
ATOM     47  HE2 GLY d   1      14.628  -0.037  -3.231  0.00  0.00     0.062 H 
ATOM     48  HD2 GLY d   1      13.037   1.466  -4.356  0.00  0.00     0.062 H 
ENDBRANCH  35  38
ENDBRANCH   1  35
TORSDOF 6
ENDMDL
MODEL 10
REMARK VINA RESULT:      -7.0      2.705      7.926
REMARK  2 active torsions:
REMARK  status: ('A' for Active; 'I' for Inactive)
REMARK    1  A    between atoms: CG_4  and  CB_7 
REMARK    2  A    between atoms: CB_7  and  CA_8 
REMARK       I    between atoms: CA_8  and  C_10 
REMARK       I    between atoms: CA_8  and  N_17 
REMARK       I    between atoms: C_10  and  N_12 
REMARK       I    between atoms: N_12  and  CA_13 
REMARK       I    between atoms: CA_13  and  C_14 
REMARK       I    between atoms: N_17  and  C_18 
REMARK       I    between atoms: C_18  and  N_20 
ROOT
ATOM      1  CA  GLY d   1       4.420  -3.603  -7.694  0.00  0.00     0.105 C 
ATOM      2  HA  GLY d   1       3.354  -3.521  -7.432  0.00  0.00     0.060 H 
ATOM      3  C   GLY d   1       5.002  -4.846  -7.072  0.00  0.00     0.234 C 
ATOM      4  O   GLY d   1       5.898  -4.754  -6.259  0.00  0.00    -0.274 OA
ATOM      5  N   GLY d   1       4.529  -6.059  -7.420  0.00  0.00    -0.308 N 
ATOM      6  CA  GLY d   1       5.099  -7.268  -6.819  0.00  0.00     0.051 C 
ATOM      7  C   GLY d   1       4.403  -8.482  -7.378  0.00  0.00     0.059 C 
ATOM      8  O   GLY d   1       3.521  -8.351  -8.193  0.00  0.00    -0.548 OA
ATOM      9  OXT GLY d   1       4.762  -9.709  -6.969  0.00  0.00    -0.548 OA
ATOM     10  N   GLY d   1       5.099  -2.423  -7.156  0.00  0.00    -0.287 N 
ATOM     11  H   GLY d   1       3.713  -6.142  -8.154  0.00  0.00     0.149 HD
ATOM     12  HA1 GLY d   1       6.172  -7.321  -7.053  0.00  0.00     0.052 H 
ATOM     13  HA2 GLY d   1       4.962  -7.235  -5.729  0.00  0.00     0.052 H 
ATOM     14  H   GLY d   1       5.946  -1.980  -7.699  0.00  0.00     0.151 HD
ATOM     15  C   UNK d   0       4.687  -1.879  -5.994  0.00  0.00     0.308 C 
ATOM     16  O   UNK d   0       3.749  -2.368  -5.393  0.00  0.00    -0.252 OA
ATOM     17  N   UNK d   0       5.312  -0.793  -5.498  0.00  0.00    -0.245 N 
ATOM     18  C   UNK d   0       6.447  -0.182  -6.205  0.00  0.00     0.098 C 
ATOM     19  C   UNK d   0       7.509   0.190  -5.202  0.00  0.00     0.235 C 
ATOM     20  O   UNK d   0       8.674   0.203  -5.539  0.00  0.00    -0.274 OA
ATOM     21  N   UNK d   0       7.180   0.508  -3.936  0.00  0.00    -0.283 N 
ATOM     22  C   UNK d   0       5.850   0.452  -3.507  0.00  0.00     0.055 A 
ATOM     23  C   UNK d   0       4.897  -0.205  -4.292  0.00  0.00     0.059 A 
ATOM     24  C   UNK d   0       3.578  -0.270  -3.882  0.00  0.00    -0.038 A 
ATOM     25  C   UNK d   0       3.198   0.323  -2.692  0.00  0.00    -0.060 A 
ATOM     26  C   UNK d   0       4.134   0.980  -1.914  0.00  0.00    -0.060 A 
ATOM     27  C   UNK d   0       5.464   1.043  -2.314  0.00  0.00    -0.039 A 
ATOM     28  H   UNK d   0       6.857  -0.901  -6.929  0.00  0.00     0.057 H 
ATOM     29  H   UNK d   0       6.107   0.719  -6.736  0.00  0.00     0.057 H 
ATOM     30  H   UNK d   0       7.961   0.815  -3.225  0.00  0.00     0.155 HD
ATOM     31  H   UNK d   0       2.846  -0.783  -4.490  0.00  0.00     0.064 H 
ATOM     32  H   UNK d   0       2.169   0.274  -2.369  0.00  0.00     0.062 H 
ATOM     33  H   UNK d   0       3.832   1.442  -0.985  0.00  0.00     0.062 H 
ATOM     34  H   UNK d   0       6.192   1.556  -1.705  0.00  0.00     0.064 H 
ENDROOT
BRANCH   1  35
ATOM     35  CB  GLY d   1       4.611  -3.654  -9.211  0.00  0.00    -0.001 C 
ATOM     36  HB1 GLY d   1       4.326  -4.649  -9.583  0.00  0.00     0.034 H 
ATOM     37  HB2 GLY d   1       5.666  -3.459  -9.454  0.00  0.00     0.034 H 
BRANCH  35  38
ATOM     38  CG  GLY d   1       3.744  -2.607  -9.863  0.00  0.00    -0.045 A 
ATOM     39  CD1 GLY d   1       4.281  -1.758 -10.812  0.00  0.00    -0.059 A 
ATOM     40  CE1 GLY d   1       3.486  -0.798 -11.409  0.00  0.00    -0.061 A 
ATOM     41  HD1 GLY d   1       5.322  -1.845 -11.087  0.00  0.00     0.062 H 
ATOM     42  CZ  GLY d   1       2.154  -0.687 -11.058  0.00  0.00    -0.062 A 
ATOM     43  HE1 GLY d   1       3.906  -0.134 -12.151  0.00  0.00     0.062 H 
ATOM     44  CE2 GLY d   1       1.617  -1.537 -10.108  0.00  0.00    -0.061 A 
ATOM     45  HZ  GLY d   1       1.533   0.063 -11.525  0.00  0.00     0.062 H 
ATOM     46  CD2 GLY d   1       2.410  -2.500  -9.515  0.00  0.00    -0.059 A 
ATOM     47  HE2 GLY d   1       0.576  -1.451  -9.834  0.00  0.00     0.062 H 
ATOM     48  HD2 GLY d   1       1.989  -3.166  -8.776  0.00  0.00     0.062 H 
ENDBRANCH  35  38
ENDBRANCH   1  35
TORSDOF 6
ENDMDL
