MODEL 1
REMARK VINA RESULT:      -4.4      0.000      0.000
REMARK  3 active torsions:
REMARK  status: ('A' for Active; 'I' for Inactive)
REMARK    1  A    between atoms: C_1  and  C_2 
REMARK       I    between atoms: C_2  and  N_4 
REMARK    2  A    between atoms: N_4  and  C_5 
REMARK    3  A    between atoms: C_8  and  N_10 
ROOT
ATOM      1  C   LIG d   1       3.324  -0.254  -6.189  0.00  0.00     0.171 A 
ATOM      2  N   LIG d   1       4.523  -0.578  -5.754  0.00  0.00    -0.226 NA
ATOM      3  C   LIG d   1       4.863  -0.395  -4.491  0.00  0.00     0.115 A 
ATOM      4  C   LIG d   1       3.923   0.136  -3.671  0.00  0.00     0.332 A 
ATOM      5  S   LIG d   1       2.568   0.354  -4.814  0.00  0.00     0.022 SA
ATOM      6  H   LIG d   1       5.845  -0.659  -4.127  0.00  0.00     0.091 H 
ENDROOT
BRANCH   1   7
ATOM      7  N   LIG d   1       2.809  -0.379  -7.474  0.00  0.00    -0.265 N 
ATOM      8  C   LIG d   1       2.921   0.641  -8.347  0.00  0.00     0.215 C 
ATOM      9  O   LIG d   1       3.472   1.668  -8.012  0.00  0.00    -0.276 OA
ATOM     10  H   LIG d   1       2.368  -1.200  -7.742  0.00  0.00     0.157 HD
BRANCH   8  11
ATOM     11  C   LIG d   1       2.362   0.506  -9.741  0.00  0.00     0.013 C 
ATOM     12  H   LIG d   1       3.036   0.985 -10.450  0.00  0.00     0.032 H 
ATOM     13  H   LIG d   1       2.260  -0.550  -9.990  0.00  0.00     0.032 H 
ATOM     14  H   LIG d   1       1.384   0.987  -9.787  0.00  0.00     0.032 H 
ENDBRANCH   8  11
ENDBRANCH   1   7
BRANCH   4  15
ATOM     15  N   LIG d   1       4.000   0.455  -2.228  0.00  0.00     0.089 N 
ATOM     16  O   LIG d   1       4.495  -0.337  -1.459  0.00  0.00     0.042 OA
ATOM     17  O   LIG d   1       3.569   1.506  -1.816  0.00  0.00    -0.576 OA
ENDBRANCH   4  15
TORSDOF 3
ENDMDL
MODEL 2
REMARK VINA RESULT:      -4.4      3.584      4.160
REMARK  3 active torsions:
REMARK  status: ('A' for Active; 'I' for Inactive)
REMARK    1  A    between atoms: C_1  and  C_2 
REMARK       I    between atoms: C_2  and  N_4 
REMARK    2  A    between atoms: N_4  and  C_5 
REMARK    3  A    between atoms: C_8  and  N_10 
ROOT
ATOM      1  C   LIG d   1       4.319  -2.555  -4.370  0.00  0.00     0.171 A 
ATOM      2  N   LIG d   1       4.068  -2.569  -3.079  0.00  0.00    -0.226 NA
ATOM      3  C   LIG d   1       4.309  -1.511  -2.326  0.00  0.00     0.115 A 
ATOM      4  C   LIG d   1       4.822  -0.419  -2.944  0.00  0.00     0.332 A 
ATOM      5  S   LIG d   1       4.936  -1.011  -4.625  0.00  0.00     0.022 SA
ATOM      6  H   LIG d   1       4.104  -1.515  -1.265  0.00  0.00     0.091 H 
ENDROOT
BRANCH   1   7
ATOM      7  N   LIG d   1       4.126  -3.572  -5.298  0.00  0.00    -0.265 N 
ATOM      8  C   LIG d   1       5.133  -4.420  -5.587  0.00  0.00     0.215 C 
ATOM      9  O   LIG d   1       6.207  -4.297  -5.037  0.00  0.00    -0.276 OA
ATOM     10  H   LIG d   1       3.268  -3.671  -5.739  0.00  0.00     0.157 HD
BRANCH   8  11
ATOM     11  C   LIG d   1       4.925  -5.523  -6.594  0.00  0.00     0.013 C 
ATOM     12  H   LIG d   1       5.690  -5.458  -7.367  0.00  0.00     0.032 H 
ATOM     13  H   LIG d   1       4.993  -6.489  -6.094  0.00  0.00     0.032 H 
ATOM     14  H   LIG d   1       3.939  -5.417  -7.048  0.00  0.00     0.032 H 
ENDBRANCH   8  11
ENDBRANCH   1   7
BRANCH   4  15
ATOM     15  N   LIG d   1       5.192   0.898  -2.380  0.00  0.00     0.089 N 
ATOM     16  O   LIG d   1       5.897   1.651  -3.012  0.00  0.00     0.042 OA
ATOM     17  O   LIG d   1       4.791   1.223  -1.287  0.00  0.00    -0.576 OA
ENDBRANCH   4  15
TORSDOF 3
ENDMDL
MODEL 3
REMARK VINA RESULT:      -4.3      2.310      5.632
REMARK  3 active torsions:
REMARK  status: ('A' for Active; 'I' for Inactive)
REMARK    1  A    between atoms: C_1  and  C_2 
REMARK       I    between atoms: C_2  and  N_4 
REMARK    2  A    between atoms: N_4  and  C_5 
REMARK    3  A    between atoms: C_8  and  N_10 
ROOT
ATOM      1  C   LIG d   1       3.884  -0.306  -6.536  0.00  0.00     0.171 A 
ATOM      2  N   LIG d   1       5.083   0.034  -6.958  0.00  0.00    -0.226 NA
ATOM      3  C   LIG d   1       5.257   0.589  -8.143  0.00  0.00     0.115 A 
ATOM      4  C   LIG d   1       4.149   0.791  -8.898  0.00  0.00     0.332 A 
ATOM      5  S   LIG d   1       2.887   0.137  -7.817  0.00  0.00     0.022 SA
ATOM      6  H   LIG d   1       6.238   0.872  -8.495  0.00  0.00     0.091 H 
ENDROOT
BRANCH   1   7
ATOM      7  N   LIG d   1       3.528  -0.894  -5.328  0.00  0.00    -0.265 N 
ATOM      8  C   LIG d   1       3.139  -0.123  -4.292  0.00  0.00     0.215 C 
ATOM      9  O   LIG d   1       3.099   1.082  -4.415  0.00  0.00    -0.276 OA
ATOM     10  H   LIG d   1       3.560  -1.858  -5.229  0.00  0.00     0.157 HD
BRANCH   8  11
ATOM     11  C   LIG d   1       2.753  -0.760  -2.982  0.00  0.00     0.013 C 
ATOM     12  H   LIG d   1       1.898  -0.234  -2.560  0.00  0.00     0.032 H 
ATOM     13  H   LIG d   1       2.491  -1.805  -3.149  0.00  0.00     0.032 H 
ATOM     14  H   LIG d   1       3.594  -0.702  -2.289  0.00  0.00     0.032 H 
ENDBRANCH   8  11
ENDBRANCH   1   7
BRANCH   4  15
ATOM     15  N   LIG d   1       4.021   1.383 -10.248  0.00  0.00     0.089 N 
ATOM     16  O   LIG d   1       3.558   2.492 -10.381  0.00  0.00     0.042 OA
ATOM     17  O   LIG d   1       4.378   0.758 -11.219  0.00  0.00    -0.576 OA
ENDBRANCH   4  15
TORSDOF 3
ENDMDL
MODEL 4
REMARK VINA RESULT:      -4.3      1.823      2.046
REMARK  3 active torsions:
REMARK  status: ('A' for Active; 'I' for Inactive)
REMARK    1  A    between atoms: C_1  and  C_2 
REMARK       I    between atoms: C_2  and  N_4 
REMARK    2  A    between atoms: N_4  and  C_5 
REMARK    3  A    between atoms: C_8  and  N_10 
ROOT
ATOM      1  C   LIG d   1       3.582   0.313  -6.281  0.00  0.00     0.171 A 
ATOM      2  N   LIG d   1       2.762   0.667  -5.315  0.00  0.00    -0.226 NA
ATOM      3  C   LIG d   1       2.788   0.061  -4.142  0.00  0.00     0.115 A 
ATOM      4  C   LIG d   1       3.694  -0.935  -3.983  0.00  0.00     0.332 A 
ATOM      5  S   LIG d   1       4.470  -0.939  -5.592  0.00  0.00     0.022 SA
ATOM      6  H   LIG d   1       2.118   0.347  -3.345  0.00  0.00     0.091 H 
ENDROOT
BRANCH   1   7
ATOM      7  N   LIG d   1       3.686   0.841  -7.563  0.00  0.00    -0.265 N 
ATOM      8  C   LIG d   1       2.961   0.314  -8.570  0.00  0.00     0.215 C 
ATOM      9  O   LIG d   1       2.218  -0.620  -8.358  0.00  0.00    -0.276 OA
ATOM     10  H   LIG d   1       4.281   1.588  -7.733  0.00  0.00     0.157 HD
BRANCH   8  11
ATOM     11  C   LIG d   1       3.074   0.887  -9.960  0.00  0.00     0.013 C 
ATOM     12  H   LIG d   1       4.095   0.768 -10.320  0.00  0.00     0.032 H 
ATOM     13  H   LIG d   1       2.390   0.361 -10.626  0.00  0.00     0.032 H 
ATOM     14  H   LIG d   1       2.817   1.946  -9.938  0.00  0.00     0.032 H 
ENDBRANCH   8  11
ENDBRANCH   1   7
BRANCH   4  15
ATOM     15  N   LIG d   1       3.962  -1.788  -2.804  0.00  0.00     0.089 N 
ATOM     16  O   LIG d   1       3.878  -2.991  -2.896  0.00  0.00     0.042 OA
ATOM     17  O   LIG d   1       4.263  -1.283  -1.748  0.00  0.00    -0.576 OA
ENDBRANCH   4  15
TORSDOF 3
ENDMDL
MODEL 5
REMARK VINA RESULT:      -3.9      9.821     10.270
REMARK  3 active torsions:
REMARK  status: ('A' for Active; 'I' for Inactive)
REMARK    1  A    between atoms: C_1  and  C_2 
REMARK       I    between atoms: C_2  and  N_4 
REMARK    2  A    between atoms: N_4  and  C_5 
REMARK    3  A    between atoms: C_8  and  N_10 
ROOT
ATOM      1  C   LIG d   1       9.717   6.789  -2.460  0.00  0.00     0.171 A 
ATOM      2  N   LIG d   1      10.314   5.676  -2.093  0.00  0.00    -0.226 NA
ATOM      3  C   LIG d   1      10.815   5.539  -0.879  0.00  0.00     0.115 A 
ATOM      4  C   LIG d   1      10.683   6.592  -0.036  0.00  0.00     0.332 A 
ATOM      5  S   LIG d   1       9.825   7.754  -1.086  0.00  0.00     0.022 SA
ATOM      6  H   LIG d   1      11.306   4.628  -0.571  0.00  0.00     0.091 H 
ENDROOT
BRANCH   1   7
ATOM      7  N   LIG d   1       9.140   7.096  -3.688  0.00  0.00    -0.265 N 
ATOM      8  C   LIG d   1       9.878   7.685  -4.650  0.00  0.00     0.215 C 
ATOM      9  O   LIG d   1      11.043   7.948  -4.445  0.00  0.00    -0.276 OA
ATOM     10  H   LIG d   1       8.208   6.887  -3.852  0.00  0.00     0.157 HD
BRANCH   8  11
ATOM     11  C   LIG d   1       9.253   8.018  -5.981  0.00  0.00     0.013 C 
ATOM     12  H   LIG d   1       8.283   7.529  -6.059  0.00  0.00     0.032 H 
ATOM     13  H   LIG d   1       9.124   9.097  -6.061  0.00  0.00     0.032 H 
ATOM     14  H   LIG d   1       9.903   7.669  -6.784  0.00  0.00     0.032 H 
ENDBRANCH   8  11
ENDBRANCH   1   7
BRANCH   4  15
ATOM     15  N   LIG d   1      11.133   6.741   1.366  0.00  0.00     0.089 N 
ATOM     16  O   LIG d   1      11.550   7.807   1.758  0.00  0.00     0.042 OA
ATOM     17  O   LIG d   1      11.084   5.798   2.121  0.00  0.00    -0.576 OA
ENDBRANCH   4  15
TORSDOF 3
ENDMDL
MODEL 6
REMARK VINA RESULT:      -3.9     11.767     12.112
REMARK  3 active torsions:
REMARK  status: ('A' for Active; 'I' for Inactive)
REMARK    1  A    between atoms: C_1  and  C_2 
REMARK       I    between atoms: C_2  and  N_4 
REMARK    2  A    between atoms: N_4  and  C_5 
REMARK    3  A    between atoms: C_8  and  N_10 
ROOT
ATOM      1  C   LIG d   1       9.460   9.591  -0.822  0.00  0.00     0.171 A 
ATOM      2  N   LIG d   1      10.281   9.860   0.170  0.00  0.00    -0.226 NA
ATOM      3  C   LIG d   1      10.961   8.900   0.772  0.00  0.00     0.115 A 
ATOM      4  C   LIG d   1      10.773   7.636   0.320  0.00  0.00     0.332 A 
ATOM      5  S   LIG d   1       9.583   7.920  -0.980  0.00  0.00     0.022 SA
ATOM      6  H   LIG d   1      11.637   9.114   1.586  0.00  0.00     0.091 H 
ENDROOT
BRANCH   1   7
ATOM      7  N   LIG d   1       8.676  10.473  -1.557  0.00  0.00    -0.265 N 
ATOM      8  C   LIG d   1       9.208  11.136  -2.603  0.00  0.00     0.215 C 
ATOM      9  O   LIG d   1      10.370  10.962  -2.903  0.00  0.00    -0.276 OA
ATOM     10  H   LIG d   1       7.747  10.612  -1.317  0.00  0.00     0.157 HD
BRANCH   8  11
ATOM     11  C   LIG d   1       8.359  12.092  -3.401  0.00  0.00     0.013 C 
ATOM     12  H   LIG d   1       7.553  12.471  -2.774  0.00  0.00     0.032 H 
ATOM     13  H   LIG d   1       8.974  12.924  -3.745  0.00  0.00     0.032 H 
ATOM     14  H   LIG d   1       7.938  11.572  -4.261  0.00  0.00     0.032 H 
ENDBRANCH   8  11
ENDBRANCH   1   7
BRANCH   4  15
ATOM     15  N   LIG d   1      11.382   6.369   0.782  0.00  0.00     0.089 N 
ATOM     16  O   LIG d   1      10.780   5.651   1.547  0.00  0.00     0.042 OA
ATOM     17  O   LIG d   1      12.482   6.049   0.395  0.00  0.00    -0.576 OA
ENDBRANCH   4  15
TORSDOF 3
ENDMDL
MODEL 7
REMARK VINA RESULT:      -3.9      2.499      5.704
REMARK  3 active torsions:
REMARK  status: ('A' for Active; 'I' for Inactive)
REMARK    1  A    between atoms: C_1  and  C_2 
REMARK       I    between atoms: C_2  and  N_4 
REMARK    2  A    between atoms: N_4  and  C_5 
REMARK    3  A    between atoms: C_8  and  N_10 
ROOT
ATOM      1  C   LIG d   1       4.029  -0.109  -5.635  0.00  0.00     0.171 A 
ATOM      2  N   LIG d   1       3.112   0.456  -6.391  0.00  0.00    -0.226 NA
ATOM      3  C   LIG d   1       2.812  -0.035  -7.580  0.00  0.00     0.115 A 
ATOM      4  C   LIG d   1       3.488  -1.141  -7.979  0.00  0.00     0.332 A 
ATOM      5  S   LIG d   1       4.554  -1.405  -6.570  0.00  0.00     0.022 SA
ATOM      6  H   LIG d   1       2.061   0.423  -8.206  0.00  0.00     0.091 H 
ENDROOT
BRANCH   1   7
ATOM      7  N   LIG d   1       4.461   0.275  -4.371  0.00  0.00    -0.265 N 
ATOM      8  C   LIG d   1       3.803  -0.152  -3.274  0.00  0.00     0.215 C 
ATOM      9  O   LIG d   1       2.835  -0.872  -3.391  0.00  0.00    -0.276 OA
ATOM     10  H   LIG d   1       5.236   0.851  -4.277  0.00  0.00     0.157 HD
BRANCH   8  11
ATOM     11  C   LIG d   1       4.272   0.264  -1.904  0.00  0.00     0.013 C 
ATOM     12  H   LIG d   1       5.328   0.526  -1.945  0.00  0.00     0.032 H 
ATOM     13  H   LIG d   1       3.696   1.127  -1.570  0.00  0.00     0.032 H 
ATOM     14  H   LIG d   1       4.128  -0.561  -1.205  0.00  0.00     0.032 H 
ENDBRANCH   8  11
ENDBRANCH   1   7
BRANCH   4  15
ATOM     15  N   LIG d   1       3.378  -1.912  -9.237  0.00  0.00     0.089 N 
ATOM     16  O   LIG d   1       4.184  -1.743 -10.123  0.00  0.00     0.042 OA
ATOM     17  O   LIG d   1       2.482  -2.711  -9.380  0.00  0.00    -0.576 OA
ENDBRANCH   4  15
TORSDOF 3
ENDMDL
MODEL 8
REMARK VINA RESULT:      -3.8     10.600     11.464
REMARK  3 active torsions:
REMARK  status: ('A' for Active; 'I' for Inactive)
REMARK    1  A    between atoms: C_1  and  C_2 
REMARK       I    between atoms: C_2  and  N_4 
REMARK    2  A    between atoms: N_4  and  C_5 
REMARK    3  A    between atoms: C_8  and  N_10 
ROOT
ATOM      1  C   LIG d   1       9.892   7.311  -1.046  0.00  0.00     0.171 A 
ATOM      2  N   LIG d   1      10.375   6.488  -0.140  0.00  0.00    -0.226 NA
ATOM      3  C   LIG d   1      11.023   6.940   0.917  0.00  0.00     0.115 A 
ATOM      4  C   LIG d   1      11.165   8.285   1.024  0.00  0.00     0.332 A 
ATOM      5  S   LIG d   1      10.334   8.826  -0.461  0.00  0.00     0.022 SA
ATOM      6  H   LIG d   1      11.422   6.270   1.664  0.00  0.00     0.091 H 
ENDROOT
BRANCH   1   7
ATOM      7  N   LIG d   1       9.191   7.004  -2.206  0.00  0.00    -0.265 N 
ATOM      8  C   LIG d   1       9.858   6.763  -3.353  0.00  0.00     0.215 C 
ATOM      9  O   LIG d   1      11.070   6.814  -3.371  0.00  0.00    -0.276 OA
ATOM     10  H   LIG d   1       8.222   6.964  -2.192  0.00  0.00     0.157 HD
BRANCH   8  11
ATOM     11  C   LIG d   1       9.099   6.431  -4.611  0.00  0.00     0.013 C 
ATOM     12  H   LIG d   1       8.703   5.419  -4.540  0.00  0.00     0.032 H 
ATOM     13  H   LIG d   1       8.277   7.135  -4.736  0.00  0.00     0.032 H 
ATOM     14  H   LIG d   1       9.770   6.500  -5.468  0.00  0.00     0.032 H 
ENDBRANCH   8  11
ENDBRANCH   1   7
BRANCH   4  15
ATOM     15  N   LIG d   1      11.831   9.083   2.077  0.00  0.00     0.089 N 
ATOM     16  O   LIG d   1      12.071   8.585   3.153  0.00  0.00     0.042 OA
ATOM     17  O   LIG d   1      12.134  10.234   1.864  0.00  0.00    -0.576 OA
ENDBRANCH   4  15
TORSDOF 3
ENDMDL
MODEL 9
REMARK VINA RESULT:      -3.6      3.645      5.412
REMARK  3 active torsions:
REMARK  status: ('A' for Active; 'I' for Inactive)
REMARK    1  A    between atoms: C_1  and  C_2 
REMARK       I    between atoms: C_2  and  N_4 
REMARK    2  A    between atoms: N_4  and  C_5 
REMARK    3  A    between atoms: C_8  and  N_10 
ROOT
ATOM      1  C   LIG d   1       6.873  -1.521  -3.867  0.00  0.00     0.171 A 
ATOM      2  N   LIG d   1       6.602  -0.963  -5.027  0.00  0.00    -0.226 NA
ATOM      3  C   LIG d   1       5.427  -0.407  -5.259  0.00  0.00     0.115 A 
ATOM      4  C   LIG d   1       4.521  -0.438  -4.250  0.00  0.00     0.332 A 
ATOM      5  S   LIG d   1       5.451  -1.303  -2.995  0.00  0.00     0.022 SA
ATOM      6  H   LIG d   1       5.198   0.054  -6.208  0.00  0.00     0.091 H 
ENDROOT
BRANCH   1   7
ATOM      7  N   LIG d   1       8.048  -2.144  -3.461  0.00  0.00    -0.265 N 
ATOM      8  C   LIG d   1       8.290  -3.421  -3.816  0.00  0.00     0.215 C 
ATOM      9  O   LIG d   1       7.484  -4.026  -4.490  0.00  0.00    -0.276 OA
ATOM     10  H   LIG d   1       8.693  -1.660  -2.922  0.00  0.00     0.157 HD
BRANCH   8  11
ATOM     11  C   LIG d   1       9.564  -4.097  -3.377  0.00  0.00     0.013 C 
ATOM     12  H   LIG d   1       9.967  -4.684  -4.202  0.00  0.00     0.032 H 
ATOM     13  H   LIG d   1      10.291  -3.343  -3.077  0.00  0.00     0.032 H 
ATOM     14  H   LIG d   1       9.352  -4.754  -2.533  0.00  0.00     0.032 H 
ENDBRANCH   8  11
ENDBRANCH   1   7
BRANCH   4  15
ATOM     15  N   LIG d   1       3.140   0.093  -4.205  0.00  0.00     0.089 N 
ATOM     16  O   LIG d   1       2.253  -0.570  -3.720  0.00  0.00     0.042 OA
ATOM     17  O   LIG d   1       2.898   1.190  -4.652  0.00  0.00    -0.576 OA
ENDBRANCH   4  15
TORSDOF 3
ENDMDL
