MODEL 1
REMARK VINA RESULT:      -6.4      0.000      0.000
REMARK  5 active torsions:
REMARK  status: ('A' for Active; 'I' for Inactive)
REMARK    1  A    between atoms: C_1  and  C_2 
REMARK    2  A    between atoms: C_4  and  O_19 
REMARK    3  A    between atoms: C_11  and  C_12 
REMARK    4  A    between atoms: O_19  and  C_20 
REMARK    5  A    between atoms: C_20  and  C_22 
ROOT
ATOM      1  C   LIG d   1       5.229  -1.537  -3.138  0.00  0.00    -0.033 A 
ATOM      2  C   LIG d   1       6.501  -2.029  -3.044  0.00  0.00    -0.015 A 
ATOM      3  C   LIG d   1       7.339  -2.019  -4.155  0.00  0.00     0.135 A 
ATOM      4  C   LIG d   1       6.897  -1.512  -5.367  0.00  0.00     0.024 A 
ATOM      5  C   LIG d   1       5.606  -1.009  -5.480  0.00  0.00     0.143 A 
ATOM      6  C   LIG d   1       4.771  -1.023  -4.351  0.00  0.00     0.071 A 
ATOM      7  C   LIG d   1       3.490  -0.429  -4.775  0.00  0.00     0.232 A 
ATOM      8  O   LIG d   1       2.492  -0.249  -4.100  0.00  0.00    -0.283 OA
ATOM      9  C   LIG d   1       3.687  -0.102  -6.197  0.00  0.00     0.176 A 
ATOM     10  C   LIG d   1       2.775   0.467  -7.024  0.00  0.00    -0.007 C 
ATOM     11  O   LIG d   1       4.947  -0.470  -6.529  0.00  0.00    -0.451 OA
ATOM     12  H   LIG d   1       6.856  -2.427  -2.105  0.00  0.00     0.066 H 
ATOM     13  H   LIG d   1       7.555  -1.510  -6.224  0.00  0.00     0.069 H 
ATOM     14  H   LIG d   1       1.824   0.797  -6.631  0.00  0.00     0.066 H 
ENDROOT
BRANCH  10  15
ATOM     15  C   LIG d   1       3.080   0.633  -8.452  0.00  0.00    -0.003 A 
ATOM     16  C   LIG d   1       2.884  -0.423  -9.349  0.00  0.00     0.035 A 
ATOM     17  N   LIG d   1       3.157  -0.273 -10.628  0.00  0.00    -0.263 NA
ATOM     18  H   LIG d   1       2.505  -1.368  -8.989  0.00  0.00     0.084 H 
ATOM     19  C   LIG d   1       3.621   0.863 -11.113  0.00  0.00     0.028 A 
ATOM     20  C   LIG d   1       3.842   1.956 -10.293  0.00  0.00    -0.043 A 
ATOM     21  H   LIG d   1       3.832   0.942 -12.170  0.00  0.00     0.083 H 
ATOM     22  C   LIG d   1       3.572   1.853  -8.941  0.00  0.00    -0.052 A 
ATOM     23  H   LIG d   1       4.222   2.880 -10.704  0.00  0.00     0.063 H 
ATOM     24  H   LIG d   1       3.736   2.690  -8.278  0.00  0.00     0.062 H 
ENDBRANCH  10  15
BRANCH   1  25
ATOM     25  C   LIG d   1       4.324  -1.549  -1.934  0.00  0.00    -0.039 C 
ATOM     26  H   LIG d   1       4.926  -1.575  -1.026  0.00  0.00     0.028 H 
ATOM     27  H   LIG d   1       3.707  -0.650  -1.935  0.00  0.00     0.028 H 
ATOM     28  H   LIG d   1       3.682  -2.430  -1.970  0.00  0.00     0.028 H 
ENDBRANCH   1  25
BRANCH   3  29
ATOM     29  O   LIG d   1       8.599  -2.511  -4.052  0.00  0.00    -0.426 OA
BRANCH  29  30
ATOM     30  C   LIG d   1       8.724  -3.812  -3.741  0.00  0.00     0.309 C 
ATOM     31  O   LIG d   1       8.187  -4.651  -4.427  0.00  0.00    -0.251 OA
BRANCH  30  32
ATOM     32  C   LIG d   1       9.532  -4.226  -2.539  0.00  0.00     0.034 C 
ATOM     33  H   LIG d   1       9.800  -3.343  -1.960  0.00  0.00     0.034 H 
ATOM     34  H   LIG d   1       8.940  -4.902  -1.919  0.00  0.00     0.034 H 
ATOM     35  H   LIG d   1      10.438  -4.735  -2.867  0.00  0.00     0.034 H 
ENDBRANCH  30  32
ENDBRANCH  29  30
ENDBRANCH   3  29
TORSDOF 5
ENDMDL
MODEL 2
REMARK VINA RESULT:      -6.0      4.124      5.519
REMARK  5 active torsions:
REMARK  status: ('A' for Active; 'I' for Inactive)
REMARK    1  A    between atoms: C_1  and  C_2 
REMARK    2  A    between atoms: C_4  and  O_19 
REMARK    3  A    between atoms: C_11  and  C_12 
REMARK    4  A    between atoms: O_19  and  C_20 
REMARK    5  A    between atoms: C_20  and  C_22 
ROOT
ATOM      1  C   LIG d   1       4.667  -1.532  -3.272  0.00  0.00    -0.033 A 
ATOM      2  C   LIG d   1       4.559  -2.768  -3.846  0.00  0.00    -0.015 A 
ATOM      3  C   LIG d   1       5.525  -3.207  -4.747  0.00  0.00     0.135 A 
ATOM      4  C   LIG d   1       6.604  -2.401  -5.072  0.00  0.00     0.024 A 
ATOM      5  C   LIG d   1       6.729  -1.141  -4.497  0.00  0.00     0.143 A 
ATOM      6  C   LIG d   1       5.749  -0.710  -3.589  0.00  0.00     0.071 A 
ATOM      7  C   LIG d   1       6.152   0.639  -3.153  0.00  0.00     0.232 A 
ATOM      8  O   LIG d   1       5.580   1.370  -2.363  0.00  0.00    -0.283 OA
ATOM      9  C   LIG d   1       7.400   0.906  -3.886  0.00  0.00     0.176 A 
ATOM     10  C   LIG d   1       8.149   2.035  -3.811  0.00  0.00    -0.007 C 
ATOM     11  O   LIG d   1       7.668  -0.182  -4.645  0.00  0.00    -0.451 OA
ATOM     12  H   LIG d   1       3.722  -3.404  -3.601  0.00  0.00     0.066 H 
ATOM     13  H   LIG d   1       7.348  -2.751  -5.773  0.00  0.00     0.069 H 
ATOM     14  H   LIG d   1       7.886   2.811  -3.108  0.00  0.00     0.066 H 
ENDROOT
BRANCH  10  15
ATOM     15  C   LIG d   1       9.316   2.202  -4.688  0.00  0.00    -0.003 A 
ATOM     16  C   LIG d   1      10.586   1.790  -4.270  0.00  0.00     0.035 A 
ATOM     17  N   LIG d   1      11.631   1.940  -5.056  0.00  0.00    -0.263 NA
ATOM     18  H   LIG d   1      10.710   1.345  -3.294  0.00  0.00     0.084 H 
ATOM     19  C   LIG d   1      11.528   2.478  -6.257  0.00  0.00     0.028 A 
ATOM     20  C   LIG d   1      10.308   2.911  -6.746  0.00  0.00    -0.043 A 
ATOM     21  H   LIG d   1      12.412   2.582  -6.869  0.00  0.00     0.083 H 
ATOM     22  C   LIG d   1       9.178   2.777  -5.961  0.00  0.00    -0.052 A 
ATOM     23  H   LIG d   1      10.238   3.349  -7.731  0.00  0.00     0.063 H 
ATOM     24  H   LIG d   1       8.213   3.107  -6.318  0.00  0.00     0.062 H 
ENDBRANCH  10  15
BRANCH   1  25
ATOM     25  C   LIG d   1       3.621  -1.058  -2.297  0.00  0.00    -0.039 C 
ATOM     26  H   LIG d   1       3.574  -1.743  -1.451  0.00  0.00     0.028 H 
ATOM     27  H   LIG d   1       3.880  -0.060  -1.942  0.00  0.00     0.028 H 
ATOM     28  H   LIG d   1       2.650  -1.027  -2.793  0.00  0.00     0.028 H 
ENDBRANCH   1  25
BRANCH   3  29
ATOM     29  O   LIG d   1       5.408  -4.435  -5.313  0.00  0.00    -0.426 OA
BRANCH  29  30
ATOM     30  C   LIG d   1       4.383  -4.621  -6.161  0.00  0.00     0.309 C 
ATOM     31  O   LIG d   1       3.532  -5.443  -5.909  0.00  0.00    -0.251 OA
BRANCH  30  32
ATOM     32  C   LIG d   1       4.293  -3.808  -7.426  0.00  0.00     0.034 C 
ATOM     33  H   LIG d   1       4.287  -2.747  -7.176  0.00  0.00     0.034 H 
ATOM     34  H   LIG d   1       5.152  -4.027  -8.061  0.00  0.00     0.034 H 
ATOM     35  H   LIG d   1       3.376  -4.061  -7.957  0.00  0.00     0.034 H 
ENDBRANCH  30  32
ENDBRANCH  29  30
ENDBRANCH   3  29
TORSDOF 5
ENDMDL
MODEL 3
REMARK VINA RESULT:      -5.8      5.245      6.971
REMARK  5 active torsions:
REMARK  status: ('A' for Active; 'I' for Inactive)
REMARK    1  A    between atoms: C_1  and  C_2 
REMARK    2  A    between atoms: C_4  and  O_19 
REMARK    3  A    between atoms: C_11  and  C_12 
REMARK    4  A    between atoms: O_19  and  C_20 
REMARK    5  A    between atoms: C_20  and  C_22 
ROOT
ATOM      1  C   LIG d   1       7.287  -1.160  -4.151  0.00  0.00    -0.033 A 
ATOM      2  C   LIG d   1       6.149  -1.409  -3.435  0.00  0.00    -0.015 A 
ATOM      3  C   LIG d   1       5.521  -0.379  -2.741  0.00  0.00     0.135 A 
ATOM      4  C   LIG d   1       6.038   0.906  -2.766  0.00  0.00     0.024 A 
ATOM      5  C   LIG d   1       7.195   1.176  -3.488  0.00  0.00     0.143 A 
ATOM      6  C   LIG d   1       7.819   0.129  -4.186  0.00  0.00     0.071 A 
ATOM      7  C   LIG d   1       8.997   0.717  -4.849  0.00  0.00     0.232 A 
ATOM      8  O   LIG d   1       9.811   0.153  -5.559  0.00  0.00    -0.283 OA
ATOM      9  C   LIG d   1       8.970   2.136  -4.460  0.00  0.00     0.176 A 
ATOM     10  C   LIG d   1       9.865   3.086  -4.829  0.00  0.00    -0.007 C 
ATOM     11  O   LIG d   1       7.887   2.321  -3.669  0.00  0.00    -0.451 OA
ATOM     12  H   LIG d   1       5.738  -2.406  -3.409  0.00  0.00     0.066 H 
ATOM     13  H   LIG d   1       5.543   1.698  -2.223  0.00  0.00     0.069 H 
ATOM     14  H   LIG d   1      10.647   2.845  -5.533  0.00  0.00     0.066 H 
ENDROOT
BRANCH  10  15
ATOM     15  C   LIG d   1       9.769   4.442  -4.271  0.00  0.00    -0.003 A 
ATOM     16  C   LIG d   1      10.031   4.675  -2.917  0.00  0.00     0.035 A 
ATOM     17  N   LIG d   1       9.946   5.890  -2.418  0.00  0.00    -0.263 NA
ATOM     18  H   LIG d   1      10.308   3.851  -2.275  0.00  0.00     0.084 H 
ATOM     19  C   LIG d   1       9.613   6.927  -3.162  0.00  0.00     0.028 A 
ATOM     20  C   LIG d   1       9.338   6.783  -4.511  0.00  0.00    -0.043 A 
ATOM     21  H   LIG d   1       9.554   7.907  -2.711  0.00  0.00     0.083 H 
ATOM     22  C   LIG d   1       9.413   5.528  -5.087  0.00  0.00    -0.052 A 
ATOM     23  H   LIG d   1       9.067   7.641  -5.108  0.00  0.00     0.063 H 
ATOM     24  H   LIG d   1       9.202   5.387  -6.137  0.00  0.00     0.062 H 
ENDBRANCH  10  15
BRANCH   1  25
ATOM     25  C   LIG d   1       7.965  -2.276  -4.902  0.00  0.00    -0.039 C 
ATOM     26  H   LIG d   1       8.578  -1.858  -5.701  0.00  0.00     0.028 H 
ATOM     27  H   LIG d   1       8.597  -2.843  -4.218  0.00  0.00     0.028 H 
ATOM     28  H   LIG d   1       7.211  -2.936  -5.331  0.00  0.00     0.028 H 
ENDBRANCH   1  25
BRANCH   3  29
ATOM     29  O   LIG d   1       4.393  -0.636  -2.032  0.00  0.00    -0.426 OA
BRANCH  29  30
ATOM     30  C   LIG d   1       3.444  -1.369  -2.638  0.00  0.00     0.309 C 
ATOM     31  O   LIG d   1       3.365  -2.555  -2.418  0.00  0.00    -0.251 OA
BRANCH  30  32
ATOM     32  C   LIG d   1       2.479  -0.714  -3.592  0.00  0.00     0.034 C 
ATOM     33  H   LIG d   1       1.492  -0.664  -3.132  0.00  0.00     0.034 H 
ATOM     34  H   LIG d   1       2.825   0.295  -3.822  0.00  0.00     0.034 H 
ATOM     35  H   LIG d   1       2.424  -1.297  -4.510  0.00  0.00     0.034 H 
ENDBRANCH  30  32
ENDBRANCH  29  30
ENDBRANCH   3  29
TORSDOF 5
ENDMDL
MODEL 4
REMARK VINA RESULT:      -5.8      6.336      8.364
REMARK  5 active torsions:
REMARK  status: ('A' for Active; 'I' for Inactive)
REMARK    1  A    between atoms: C_1  and  C_2 
REMARK    2  A    between atoms: C_4  and  O_19 
REMARK    3  A    between atoms: C_11  and  C_12 
REMARK    4  A    between atoms: O_19  and  C_20 
REMARK    5  A    between atoms: C_20  and  C_22 
ROOT
ATOM      1  C   LIG d   1       7.977   1.240  -6.243  0.00  0.00    -0.033 A 
ATOM      2  C   LIG d   1       7.109   0.306  -5.749  0.00  0.00    -0.015 A 
ATOM      3  C   LIG d   1       6.773   0.309  -4.399  0.00  0.00     0.135 A 
ATOM      4  C   LIG d   1       7.310   1.255  -3.540  0.00  0.00     0.024 A 
ATOM      5  C   LIG d   1       8.194   2.211  -4.026  0.00  0.00     0.143 A 
ATOM      6  C   LIG d   1       8.524   2.199  -5.391  0.00  0.00     0.071 A 
ATOM      7  C   LIG d   1       9.461   3.318  -5.601  0.00  0.00     0.232 A 
ATOM      8  O   LIG d   1       9.988   3.664  -6.643  0.00  0.00    -0.283 OA
ATOM      9  C   LIG d   1       9.616   3.925  -4.269  0.00  0.00     0.176 A 
ATOM     10  C   LIG d   1      10.389   4.995  -3.959  0.00  0.00    -0.007 C 
ATOM     11  O   LIG d   1       8.843   3.222  -3.408  0.00  0.00    -0.451 OA
ATOM     12  H   LIG d   1       6.685  -0.436  -6.409  0.00  0.00     0.066 H 
ATOM     13  H   LIG d   1       7.043   1.248  -2.494  0.00  0.00     0.069 H 
ATOM     14  H   LIG d   1      10.903   5.534  -4.743  0.00  0.00     0.066 H 
ENDROOT
BRANCH  10  15
ATOM     15  C   LIG d   1      10.530   5.421  -2.560  0.00  0.00    -0.003 A 
ATOM     16  C   LIG d   1       9.709   6.425  -2.036  0.00  0.00     0.035 A 
ATOM     17  N   LIG d   1       9.835   6.806  -0.782  0.00  0.00    -0.263 NA
ATOM     18  H   LIG d   1       8.965   6.892  -2.664  0.00  0.00     0.084 H 
ATOM     19  C   LIG d   1      10.729   6.265   0.024  0.00  0.00     0.028 A 
ATOM     20  C   LIG d   1      11.579   5.266  -0.416  0.00  0.00    -0.043 A 
ATOM     21  H   LIG d   1      10.799   6.608   1.046  0.00  0.00     0.083 H 
ATOM     22  C   LIG d   1      11.489   4.828  -1.725  0.00  0.00    -0.052 A 
ATOM     23  H   LIG d   1      12.306   4.832   0.254  0.00  0.00     0.063 H 
ATOM     24  H   LIG d   1      12.141   4.050  -2.095  0.00  0.00     0.062 H 
ENDBRANCH  10  15
BRANCH   1  25
ATOM     25  C   LIG d   1       8.340   1.236  -7.705  0.00  0.00    -0.039 C 
ATOM     26  H   LIG d   1       7.438   1.105  -8.304  0.00  0.00     0.028 H 
ATOM     27  H   LIG d   1       8.814   2.182  -7.965  0.00  0.00     0.028 H 
ATOM     28  H   LIG d   1       9.030   0.416  -7.905  0.00  0.00     0.028 H 
ENDBRANCH   1  25
BRANCH   3  29
ATOM     29  O   LIG d   1       5.912  -0.624  -3.918  0.00  0.00    -0.426 OA
BRANCH  29  30
ATOM     30  C   LIG d   1       4.734  -0.183  -3.447  0.00  0.00     0.309 C 
ATOM     31  O   LIG d   1       4.006   0.470  -4.158  0.00  0.00    -0.251 OA
BRANCH  30  32
ATOM     32  C   LIG d   1       4.319  -0.503  -2.034  0.00  0.00     0.034 C 
ATOM     33  H   LIG d   1       3.825  -1.474  -2.012  0.00  0.00     0.034 H 
ATOM     34  H   LIG d   1       5.202  -0.529  -1.394  0.00  0.00     0.034 H 
ATOM     35  H   LIG d   1       3.633   0.262  -1.675  0.00  0.00     0.034 H 
ENDBRANCH  30  32
ENDBRANCH  29  30
ENDBRANCH   3  29
TORSDOF 5
ENDMDL
MODEL 5
REMARK VINA RESULT:      -5.7      3.658      5.096
REMARK  5 active torsions:
REMARK  status: ('A' for Active; 'I' for Inactive)
REMARK    1  A    between atoms: C_1  and  C_2 
REMARK    2  A    between atoms: C_4  and  O_19 
REMARK    3  A    between atoms: C_11  and  C_12 
REMARK    4  A    between atoms: O_19  and  C_20 
REMARK    5  A    between atoms: C_20  and  C_22 
ROOT
ATOM      1  C   LIG d   1       7.425  -5.345  -5.610  0.00  0.00    -0.033 A 
ATOM      2  C   LIG d   1       8.777  -5.182  -5.733  0.00  0.00    -0.015 A 
ATOM      3  C   LIG d   1       9.379  -3.999  -5.318  0.00  0.00     0.135 A 
ATOM      4  C   LIG d   1       8.621  -2.974  -4.775  0.00  0.00     0.024 A 
ATOM      5  C   LIG d   1       7.245  -3.123  -4.643  0.00  0.00     0.143 A 
ATOM      6  C   LIG d   1       6.649  -4.322  -5.065  0.00  0.00     0.071 A 
ATOM      7  C   LIG d   1       5.206  -4.185  -4.796  0.00  0.00     0.232 A 
ATOM      8  O   LIG d   1       4.327  -5.001  -5.009  0.00  0.00    -0.283 OA
ATOM      9  C   LIG d   1       5.065  -2.841  -4.212  0.00  0.00     0.176 A 
ATOM     10  C   LIG d   1       3.910  -2.261  -3.802  0.00  0.00    -0.007 C 
ATOM     11  O   LIG d   1       6.300  -2.289  -4.156  0.00  0.00    -0.451 OA
ATOM     12  H   LIG d   1       9.378  -5.974  -6.155  0.00  0.00     0.066 H 
ATOM     13  H   LIG d   1       9.099  -2.059  -4.456  0.00  0.00     0.069 H 
ATOM     14  H   LIG d   1       2.989  -2.825  -3.816  0.00  0.00     0.066 H 
ENDROOT
BRANCH  10  15
ATOM     15  C   LIG d   1       3.911  -0.866  -3.339  0.00  0.00    -0.003 A 
ATOM     16  C   LIG d   1       3.435   0.158  -4.164  0.00  0.00     0.035 A 
ATOM     17  N   LIG d   1       3.436   1.407  -3.749  0.00  0.00    -0.263 NA
ATOM     18  H   LIG d   1       3.062  -0.078  -5.150  0.00  0.00     0.084 H 
ATOM     19  C   LIG d   1       3.881   1.743  -2.553  0.00  0.00     0.028 A 
ATOM     20  C   LIG d   1       4.369   0.791  -1.676  0.00  0.00    -0.043 A 
ATOM     21  H   LIG d   1       3.864   2.781  -2.253  0.00  0.00     0.083 H 
ATOM     22  C   LIG d   1       4.390  -0.537  -2.061  0.00  0.00    -0.052 A 
ATOM     23  H   LIG d   1       4.729   1.080  -0.699  0.00  0.00     0.063 H 
ATOM     24  H   LIG d   1       4.766  -1.301  -1.396  0.00  0.00     0.062 H 
ENDBRANCH  10  15
BRANCH   1  25
ATOM     25  C   LIG d   1       6.774  -6.627  -6.060  0.00  0.00    -0.039 C 
ATOM     26  H   LIG d   1       5.733  -6.436  -6.317  0.00  0.00     0.028 H 
ATOM     27  H   LIG d   1       7.299  -7.013  -6.934  0.00  0.00     0.028 H 
ATOM     28  H   LIG d   1       6.822  -7.360  -5.255  0.00  0.00     0.028 H 
ENDBRANCH   1  25
BRANCH   3  29
ATOM     29  O   LIG d   1      10.722  -3.846  -5.446  0.00  0.00    -0.426 OA
BRANCH  29  30
ATOM     30  C   LIG d   1      11.423  -3.634  -4.320  0.00  0.00     0.309 C 
ATOM     31  O   LIG d   1      11.952  -2.563  -4.130  0.00  0.00    -0.251 OA
BRANCH  30  32
ATOM     32  C   LIG d   1      11.552  -4.730  -3.293  0.00  0.00     0.034 C 
ATOM     33  H   LIG d   1      12.542  -5.179  -3.364  0.00  0.00     0.034 H 
ATOM     34  H   LIG d   1      11.412  -4.311  -2.296  0.00  0.00     0.034 H 
ATOM     35  H   LIG d   1      10.793  -5.491  -3.477  0.00  0.00     0.034 H 
ENDBRANCH  30  32
ENDBRANCH  29  30
ENDBRANCH   3  29
TORSDOF 5
ENDMDL
MODEL 6
REMARK VINA RESULT:      -5.7      3.464      6.962
REMARK  5 active torsions:
REMARK  status: ('A' for Active; 'I' for Inactive)
REMARK    1  A    between atoms: C_1  and  C_2 
REMARK    2  A    between atoms: C_4  and  O_19 
REMARK    3  A    between atoms: C_11  and  C_12 
REMARK    4  A    between atoms: O_19  and  C_20 
REMARK    5  A    between atoms: C_20  and  C_22 
ROOT
ATOM      1  C   LIG d   1       4.045  -4.369  -8.441  0.00  0.00    -0.033 A 
ATOM      2  C   LIG d   1       3.910  -3.714  -9.633  0.00  0.00    -0.015 A 
ATOM      3  C   LIG d   1       3.970  -2.324  -9.677  0.00  0.00     0.135 A 
ATOM      4  C   LIG d   1       4.167  -1.589  -8.519  0.00  0.00     0.024 A 
ATOM      5  C   LIG d   1       4.306  -2.240  -7.299  0.00  0.00     0.143 A 
ATOM      6  C   LIG d   1       4.245  -3.642  -7.267  0.00  0.00     0.071 A 
ATOM      7  C   LIG d   1       4.428  -4.034  -5.857  0.00  0.00     0.232 A 
ATOM      8  O   LIG d   1       4.446  -5.160  -5.392  0.00  0.00    -0.283 OA
ATOM      9  C   LIG d   1       4.584  -2.759  -5.138  0.00  0.00     0.176 A 
ATOM     10  C   LIG d   1       4.778  -2.610  -3.803  0.00  0.00    -0.007 C 
ATOM     11  O   LIG d   1       4.503  -1.763  -6.050  0.00  0.00    -0.451 OA
ATOM     12  H   LIG d   1       3.755  -4.276 -10.541  0.00  0.00     0.066 H 
ATOM     13  H   LIG d   1       4.211  -0.511  -8.565  0.00  0.00     0.069 H 
ATOM     14  H   LIG d   1       4.911  -3.479  -3.177  0.00  0.00     0.066 H 
ENDROOT
BRANCH  10  15
ATOM     15  C   LIG d   1       4.807  -1.265  -3.211  0.00  0.00    -0.003 A 
ATOM     16  C   LIG d   1       5.993  -0.524  -3.184  0.00  0.00     0.035 A 
ATOM     17  N   LIG d   1       6.018   0.680  -2.653  0.00  0.00    -0.263 NA
ATOM     18  H   LIG d   1       6.897  -0.943  -3.602  0.00  0.00     0.084 H 
ATOM     19  C   LIG d   1       4.940   1.234  -2.131  0.00  0.00     0.028 A 
ATOM     20  C   LIG d   1       3.727   0.568  -2.118  0.00  0.00    -0.043 A 
ATOM     21  H   LIG d   1       5.005   2.225  -1.705  0.00  0.00     0.083 H 
ATOM     22  C   LIG d   1       3.645  -0.700  -2.663  0.00  0.00    -0.052 A 
ATOM     23  H   LIG d   1       2.852   1.033  -1.688  0.00  0.00     0.063 H 
ATOM     24  H   LIG d   1       2.710  -1.243  -2.665  0.00  0.00     0.062 H 
ENDBRANCH  10  15
BRANCH   1  25
ATOM     25  C   LIG d   1       3.980  -5.873  -8.394  0.00  0.00    -0.039 C 
ATOM     26  H   LIG d   1       4.700  -6.291  -9.097  0.00  0.00     0.028 H 
ATOM     27  H   LIG d   1       4.215  -6.216  -7.387  0.00  0.00     0.028 H 
ATOM     28  H   LIG d   1       2.976  -6.202  -8.665  0.00  0.00     0.028 H 
ENDBRANCH   1  25
BRANCH   3  29
ATOM     29  O   LIG d   1       3.833  -1.682 -10.865  0.00  0.00    -0.426 OA
BRANCH  29  30
ATOM     30  C   LIG d   1       2.928  -0.691 -10.924  0.00  0.00     0.309 C 
ATOM     31  O   LIG d   1       3.292   0.448 -11.101  0.00  0.00    -0.251 OA
BRANCH  30  32
ATOM     32  C   LIG d   1       1.461  -0.998 -10.768  0.00  0.00     0.034 C 
ATOM     33  H   LIG d   1       1.059  -1.340 -11.722  0.00  0.00     0.034 H 
ATOM     34  H   LIG d   1       1.332  -1.779 -10.018  0.00  0.00     0.034 H 
ATOM     35  H   LIG d   1       0.933  -0.099 -10.452  0.00  0.00     0.034 H 
ENDBRANCH  30  32
ENDBRANCH  29  30
ENDBRANCH   3  29
TORSDOF 5
ENDMDL
MODEL 7
REMARK VINA RESULT:      -5.5      4.229      6.231
REMARK  5 active torsions:
REMARK  status: ('A' for Active; 'I' for Inactive)
REMARK    1  A    between atoms: C_1  and  C_2 
REMARK    2  A    between atoms: C_4  and  O_19 
REMARK    3  A    between atoms: C_11  and  C_12 
REMARK    4  A    between atoms: O_19  and  C_20 
REMARK    5  A    between atoms: C_20  and  C_22 
ROOT
ATOM      1  C   LIG d   1       7.427  -6.781  -5.515  0.00  0.00    -0.033 A 
ATOM      2  C   LIG d   1       6.651  -7.881  -5.755  0.00  0.00    -0.015 A 
ATOM      3  C   LIG d   1       5.264  -7.765  -5.780  0.00  0.00     0.135 A 
ATOM      4  C   LIG d   1       4.654  -6.540  -5.564  0.00  0.00     0.024 A 
ATOM      5  C   LIG d   1       5.429  -5.412  -5.318  0.00  0.00     0.143 A 
ATOM      6  C   LIG d   1       6.827  -5.541  -5.296  0.00  0.00     0.071 A 
ATOM      7  C   LIG d   1       7.363  -4.195  -5.022  0.00  0.00     0.232 A 
ATOM      8  O   LIG d   1       8.532  -3.864  -4.924  0.00  0.00    -0.283 OA
ATOM      9  C   LIG d   1       6.171  -3.342  -4.893  0.00  0.00     0.176 A 
ATOM     10  C   LIG d   1       6.161  -2.010  -4.636  0.00  0.00    -0.007 C 
ATOM     11  O   LIG d   1       5.085  -4.128  -5.081  0.00  0.00    -0.451 OA
ATOM     12  H   LIG d   1       7.115  -8.841  -5.924  0.00  0.00     0.066 H 
ATOM     13  H   LIG d   1       3.577  -6.461  -5.586  0.00  0.00     0.069 H 
ATOM     14  H   LIG d   1       7.092  -1.464  -4.585  0.00  0.00     0.066 H 
ENDROOT
BRANCH  10  15
ATOM     15  C   LIG d   1       4.886  -1.312  -4.425  0.00  0.00    -0.003 A 
ATOM     16  C   LIG d   1       4.393  -0.424  -5.388  0.00  0.00     0.035 A 
ATOM     17  N   LIG d   1       3.250   0.201  -5.198  0.00  0.00    -0.263 NA
ATOM     18  H   LIG d   1       4.954  -0.250  -6.294  0.00  0.00     0.084 H 
ATOM     19  C   LIG d   1       2.530   0.021  -4.108  0.00  0.00     0.028 A 
ATOM     20  C   LIG d   1       2.946  -0.840  -3.108  0.00  0.00    -0.043 A 
ATOM     21  H   LIG d   1       1.597   0.556  -3.993  0.00  0.00     0.083 H 
ATOM     22  C   LIG d   1       4.139  -1.522  -3.255  0.00  0.00    -0.052 A 
ATOM     23  H   LIG d   1       2.346  -0.978  -2.220  0.00  0.00     0.063 H 
ATOM     24  H   LIG d   1       4.488  -2.200  -2.490  0.00  0.00     0.062 H 
ENDBRANCH  10  15
BRANCH   1  25
ATOM     25  C   LIG d   1       8.928  -6.908  -5.487  0.00  0.00    -0.039 C 
ATOM     26  H   LIG d   1       9.271  -6.957  -4.454  0.00  0.00     0.028 H 
ATOM     27  H   LIG d   1       9.225  -7.816  -6.012  0.00  0.00     0.028 H 
ATOM     28  H   LIG d   1       9.374  -6.042  -5.977  0.00  0.00     0.028 H 
ENDBRANCH   1  25
BRANCH   3  29
ATOM     29  O   LIG d   1       4.502  -8.863  -6.018  0.00  0.00    -0.426 OA
BRANCH  29  30
ATOM     30  C   LIG d   1       4.389  -9.756  -5.020  0.00  0.00     0.309 C 
ATOM     31  O   LIG d   1       3.752  -9.478  -4.031  0.00  0.00    -0.251 OA
BRANCH  30  32
ATOM     32  C   LIG d   1       5.055 -11.102  -5.134  0.00  0.00     0.034 C 
ATOM     33  H   LIG d   1       6.091 -11.023  -4.804  0.00  0.00     0.034 H 
ATOM     34  H   LIG d   1       4.528 -11.822  -4.507  0.00  0.00     0.034 H 
ATOM     35  H   LIG d   1       5.027 -11.435  -6.171  0.00  0.00     0.034 H 
ENDBRANCH  30  32
ENDBRANCH  29  30
ENDBRANCH   3  29
TORSDOF 5
ENDMDL
MODEL 8
REMARK VINA RESULT:      -5.4      3.910      5.338
REMARK  5 active torsions:
REMARK  status: ('A' for Active; 'I' for Inactive)
REMARK    1  A    between atoms: C_1  and  C_2 
REMARK    2  A    between atoms: C_4  and  O_19 
REMARK    3  A    between atoms: C_11  and  C_12 
REMARK    4  A    between atoms: O_19  and  C_20 
REMARK    5  A    between atoms: C_20  and  C_22 
ROOT
ATOM      1  C   LIG d   1       5.365   0.183  -2.861  0.00  0.00    -0.033 A 
ATOM      2  C   LIG d   1       6.165   1.238  -3.200  0.00  0.00    -0.015 A 
ATOM      3  C   LIG d   1       7.034   1.137  -4.283  0.00  0.00     0.135 A 
ATOM      4  C   LIG d   1       7.100  -0.030  -5.027  0.00  0.00     0.024 A 
ATOM      5  C   LIG d   1       6.294  -1.113  -4.695  0.00  0.00     0.143 A 
ATOM      6  C   LIG d   1       5.420  -0.998  -3.601  0.00  0.00     0.071 A 
ATOM      7  C   LIG d   1       4.706  -2.284  -3.504  0.00  0.00     0.232 A 
ATOM      8  O   LIG d   1       3.855  -2.605  -2.693  0.00  0.00    -0.283 OA
ATOM      9  C   LIG d   1       5.254  -3.095  -4.603  0.00  0.00     0.176 A 
ATOM     10  C   LIG d   1       4.901  -4.367  -4.915  0.00  0.00    -0.007 C 
ATOM     11  O   LIG d   1       6.171  -2.338  -5.250  0.00  0.00    -0.451 OA
ATOM     12  H   LIG d   1       6.122   2.152  -2.627  0.00  0.00     0.066 H 
ATOM     13  H   LIG d   1       7.778  -0.099  -5.865  0.00  0.00     0.069 H 
ATOM     14  H   LIG d   1       4.095  -4.849  -4.382  0.00  0.00     0.066 H 
ENDROOT
BRANCH  10  15
ATOM     15  C   LIG d   1       5.616  -5.088  -5.977  0.00  0.00    -0.003 A 
ATOM     16  C   LIG d   1       5.145  -5.066  -7.295  0.00  0.00     0.035 A 
ATOM     17  N   LIG d   1       5.787  -5.712  -8.246  0.00  0.00    -0.263 NA
ATOM     18  H   LIG d   1       4.249  -4.513  -7.534  0.00  0.00     0.084 H 
ATOM     19  C   LIG d   1       6.886  -6.400  -8.001  0.00  0.00     0.028 A 
ATOM     20  C   LIG d   1       7.417  -6.473  -6.726  0.00  0.00    -0.043 A 
ATOM     21  H   LIG d   1       7.380  -6.917  -8.812  0.00  0.00     0.083 H 
ATOM     22  C   LIG d   1       6.784  -5.812  -5.689  0.00  0.00    -0.052 A 
ATOM     23  H   LIG d   1       8.318  -7.040  -6.540  0.00  0.00     0.063 H 
ATOM     24  H   LIG d   1       7.176  -5.853  -4.684  0.00  0.00     0.062 H 
ENDBRANCH  10  15
BRANCH   1  25
ATOM     25  C   LIG d   1       4.425   0.294  -1.689  0.00  0.00    -0.039 C 
ATOM     26  H   LIG d   1       3.439  -0.070  -1.977  0.00  0.00     0.028 H 
ATOM     27  H   LIG d   1       4.805  -0.303  -0.860  0.00  0.00     0.028 H 
ATOM     28  H   LIG d   1       4.351   1.338  -1.380  0.00  0.00     0.028 H 
ENDBRANCH   1  25
BRANCH   3  29
ATOM     29  O   LIG d   1       7.825   2.189  -4.611  0.00  0.00    -0.426 OA
BRANCH  29  30
ATOM     30  C   LIG d   1       9.010   2.282  -3.985  0.00  0.00     0.309 C 
ATOM     31  O   LIG d   1       9.131   3.006  -3.025  0.00  0.00    -0.251 OA
BRANCH  30  32
ATOM     32  C   LIG d   1      10.188   1.483  -4.480  0.00  0.00     0.034 C 
ATOM     33  H   LIG d   1      10.307   0.592  -3.863  0.00  0.00     0.034 H 
ATOM     34  H   LIG d   1      10.018   1.188  -5.516  0.00  0.00     0.034 H 
ATOM     35  H   LIG d   1      11.090   2.091  -4.419  0.00  0.00     0.034 H 
ENDBRANCH  30  32
ENDBRANCH  29  30
ENDBRANCH   3  29
TORSDOF 5
ENDMDL
MODEL 9
REMARK VINA RESULT:      -5.4      1.846      2.702
REMARK  5 active torsions:
REMARK  status: ('A' for Active; 'I' for Inactive)
REMARK    1  A    between atoms: C_1  and  C_2 
REMARK    2  A    between atoms: C_4  and  O_19 
REMARK    3  A    between atoms: C_11  and  C_12 
REMARK    4  A    between atoms: O_19  and  C_20 
REMARK    5  A    between atoms: C_20  and  C_22 
ROOT
ATOM      1  C   LIG d   1       3.777  -0.373  -4.782  0.00  0.00    -0.033 A 
ATOM      2  C   LIG d   1       4.380  -1.468  -4.230  0.00  0.00    -0.015 A 
ATOM      3  C   LIG d   1       4.863  -2.486  -5.047  0.00  0.00     0.135 A 
ATOM      4  C   LIG d   1       4.740  -2.403  -6.425  0.00  0.00     0.024 A 
ATOM      5  C   LIG d   1       4.130  -1.296  -7.002  0.00  0.00     0.143 A 
ATOM      6  C   LIG d   1       3.647  -0.274  -6.168  0.00  0.00     0.071 A 
ATOM      7  C   LIG d   1       3.069   0.749  -7.057  0.00  0.00     0.232 A 
ATOM      8  O   LIG d   1       2.546   1.803  -6.740  0.00  0.00    -0.283 OA
ATOM      9  C   LIG d   1       3.263   0.213  -8.414  0.00  0.00     0.176 A 
ATOM     10  C   LIG d   1       2.888   0.808  -9.573  0.00  0.00    -0.007 C 
ATOM     11  O   LIG d   1       3.891  -0.981  -8.294  0.00  0.00    -0.451 OA
ATOM     12  H   LIG d   1       4.480  -1.544  -3.158  0.00  0.00     0.066 H 
ATOM     13  H   LIG d   1       5.118  -3.199  -7.050  0.00  0.00     0.069 H 
ATOM     14  H   LIG d   1       2.467   1.802  -9.557  0.00  0.00     0.066 H 
ENDROOT
BRANCH  10  15
ATOM     15  C   LIG d   1       3.052   0.098 -10.850  0.00  0.00    -0.003 A 
ATOM     16  C   LIG d   1       2.064  -0.781 -11.308  0.00  0.00     0.035 A 
ATOM     17  N   LIG d   1       2.212  -1.415 -12.452  0.00  0.00    -0.263 NA
ATOM     18  H   LIG d   1       1.173  -0.939 -10.719  0.00  0.00     0.084 H 
ATOM     19  C   LIG d   1       3.283  -1.253 -13.205  0.00  0.00     0.028 A 
ATOM     20  C   LIG d   1       4.305  -0.402 -12.825  0.00  0.00    -0.043 A 
ATOM     21  H   LIG d   1       3.363  -1.795 -14.137  0.00  0.00     0.083 H 
ATOM     22  C   LIG d   1       4.201   0.290 -11.632  0.00  0.00    -0.052 A 
ATOM     23  H   LIG d   1       5.176  -0.279 -13.452  0.00  0.00     0.063 H 
ATOM     24  H   LIG d   1       4.985   0.960 -11.311  0.00  0.00     0.062 H 
ENDBRANCH  10  15
BRANCH   1  25
ATOM     25  C   LIG d   1       3.255   0.729  -3.897  0.00  0.00    -0.039 C 
ATOM     26  H   LIG d   1       2.300   0.428  -3.466  0.00  0.00     0.028 H 
ATOM     27  H   LIG d   1       3.969   0.920  -3.096  0.00  0.00     0.028 H 
ATOM     28  H   LIG d   1       3.118   1.635  -4.487  0.00  0.00     0.028 H 
ENDBRANCH   1  25
BRANCH   3  29
ATOM     29  O   LIG d   1       5.458  -3.571  -4.489  0.00  0.00    -0.426 OA
BRANCH  29  30
ATOM     30  C   LIG d   1       6.787  -3.686  -4.645  0.00  0.00     0.309 C 
ATOM     31  O   LIG d   1       7.527  -2.870  -4.147  0.00  0.00    -0.251 OA
BRANCH  30  32
ATOM     32  C   LIG d   1       7.356  -4.832  -5.442  0.00  0.00     0.034 C 
ATOM     33  H   LIG d   1       7.387  -5.726  -4.820  0.00  0.00     0.034 H 
ATOM     34  H   LIG d   1       6.727  -5.016  -6.314  0.00  0.00     0.034 H 
ATOM     35  H   LIG d   1       8.365  -4.582  -5.768  0.00  0.00     0.034 H 
ENDBRANCH  30  32
ENDBRANCH  29  30
ENDBRANCH   3  29
TORSDOF 5
ENDMDL
MODEL 10
REMARK VINA RESULT:      -5.3     13.672     15.778
REMARK  5 active torsions:
REMARK  status: ('A' for Active; 'I' for Inactive)
REMARK    1  A    between atoms: C_1  and  C_2 
REMARK    2  A    between atoms: C_4  and  O_19 
REMARK    3  A    between atoms: C_11  and  C_12 
REMARK    4  A    between atoms: O_19  and  C_20 
REMARK    5  A    between atoms: C_20  and  C_22 
ROOT
ATOM      1  C   LIG d   1      -3.321   9.720 -15.277  0.00  0.00    -0.033 A 
ATOM      2  C   LIG d   1      -1.965   9.838 -15.410  0.00  0.00    -0.015 A 
ATOM      3  C   LIG d   1      -1.143   8.734 -15.200  0.00  0.00     0.135 A 
ATOM      4  C   LIG d   1      -1.686   7.507 -14.854  0.00  0.00     0.024 A 
ATOM      5  C   LIG d   1      -3.062   7.370 -14.715  0.00  0.00     0.143 A 
ATOM      6  C   LIG d   1      -3.881   8.490 -14.931  0.00  0.00     0.071 A 
ATOM      7  C   LIG d   1      -5.268   8.038 -14.718  0.00  0.00     0.232 A 
ATOM      8  O   LIG d   1      -6.289   8.696 -14.809  0.00  0.00    -0.283 OA
ATOM      9  C   LIG d   1      -5.142   6.613 -14.369  0.00  0.00     0.176 A 
ATOM     10  C   LIG d   1      -6.160   5.764 -14.081  0.00  0.00    -0.007 C 
ATOM     11  O   LIG d   1      -3.824   6.303 -14.392  0.00  0.00    -0.451 OA
ATOM     12  H   LIG d   1      -1.532  10.789 -15.678  0.00  0.00     0.066 H 
ATOM     13  H   LIG d   1      -1.039   6.657 -14.693  0.00  0.00     0.069 H 
ATOM     14  H   LIG d   1      -7.183   6.099 -14.174  0.00  0.00     0.066 H 
ENDROOT
BRANCH  10  15
ATOM     15  C   LIG d   1      -5.871   4.392 -13.643  0.00  0.00    -0.003 A 
ATOM     16  C   LIG d   1      -5.729   3.361 -14.578  0.00  0.00     0.035 A 
ATOM     17  N   LIG d   1      -5.470   2.132 -14.184  0.00  0.00    -0.263 NA
ATOM     18  H   LIG d   1      -5.831   3.575 -15.631  0.00  0.00     0.084 H 
ATOM     19  C   LIG d   1      -5.336   1.823 -12.908  0.00  0.00     0.028 A 
ATOM     20  C   LIG d   1      -5.461   2.784 -11.920  0.00  0.00    -0.043 A 
ATOM     21  H   LIG d   1      -5.124   0.800 -12.629  0.00  0.00     0.083 H 
ATOM     22  C   LIG d   1      -5.733   4.091 -12.279  0.00  0.00    -0.052 A 
ATOM     23  H   LIG d   1      -5.348   2.517 -10.880  0.00  0.00     0.063 H 
ATOM     24  H   LIG d   1      -5.836   4.862 -11.528  0.00  0.00     0.062 H 
ENDBRANCH  10  15
BRANCH   1  25
ATOM     25  C   LIG d   1      -4.209  10.915 -15.505  0.00  0.00    -0.039 C 
ATOM     26  H   LIG d   1      -4.521  11.326 -14.545  0.00  0.00     0.028 H 
ATOM     27  H   LIG d   1      -3.660  11.674 -16.063  0.00  0.00     0.028 H 
ATOM     28  H   LIG d   1      -5.088  10.611 -16.073  0.00  0.00     0.028 H 
ENDBRANCH   1  25
BRANCH   3  29
ATOM     29  O   LIG d   1       0.201   8.862 -15.333  0.00  0.00    -0.426 OA
BRANCH  29  30
ATOM     30  C   LIG d   1       0.649   9.516 -16.417  0.00  0.00     0.309 C 
ATOM     31  O   LIG d   1       0.489   9.040 -17.518  0.00  0.00    -0.251 OA
BRANCH  30  32
ATOM     32  C   LIG d   1       1.349  10.841 -16.264  0.00  0.00     0.034 C 
ATOM     33  H   LIG d   1       1.124  11.259 -15.282  0.00  0.00     0.034 H 
ATOM     34  H   LIG d   1       2.426  10.696 -16.360  0.00  0.00     0.034 H 
ATOM     35  H   LIG d   1       1.004  11.526 -17.038  0.00  0.00     0.034 H 
ENDBRANCH  30  32
ENDBRANCH  29  30
ENDBRANCH   3  29
TORSDOF 5
ENDMDL
