MODEL 1
REMARK VINA RESULT:      -7.7      0.000      0.000
REMARK  7 active torsions:
REMARK  status: ('A' for Active; 'I' for Inactive)
REMARK    1  A    between atoms: C_1  and  O_2 
REMARK    2  A    between atoms: O_2  and  C_3 
REMARK    3  A    between atoms: C_6  and  C_9 
REMARK    4  A    between atoms: C_9  and  C_10 
REMARK    5  A    between atoms: C_10  and  N_11 
REMARK       I    between atoms: N_11  and  C_12 
REMARK    6  A    between atoms: C_12  and  C_14 
REMARK    7  A    between atoms: N_25  and  C_27 
ROOT
ATOM      1  C   LIG d   1       5.895  -0.221  -2.920  0.00  0.00     0.079 C 
ATOM      2  H   LIG d   1       6.603  -0.934  -2.500  0.00  0.00     0.043 H 
ATOM      3  C   LIG d   1       4.736   0.099  -1.898  0.00  0.00     0.090 C 
ATOM      4  H   LIG d   1       5.015   0.105  -0.845  0.00  0.00     0.065 H 
ATOM      5  C   LIG d   1       4.154   1.400  -2.465  0.00  0.00    -0.056 C 
ATOM      6  C   LIG d   1       3.510   1.037  -3.565  0.00  0.00    -0.052 C 
ATOM      7  C   LIG d   1       3.643  -0.474  -3.639  0.00  0.00     0.116 C 
ATOM      8  C   LIG d   1       5.124  -0.832  -4.063  0.00  0.00     0.084 C 
ATOM      9  H   LIG d   1       5.243  -1.914  -4.039  0.00  0.00     0.043 H 
ATOM     10  C   LIG d   1       5.111  -0.382  -5.467  0.00  0.00     0.227 C 
ATOM     11  O   LIG d   1       6.039   0.103  -6.078  0.00  0.00    -0.275 OA
ATOM     12  N   LIG d   1       3.847  -0.619  -5.951  0.00  0.00    -0.268 N 
ATOM     13  C   LIG d   1       2.954  -1.059  -4.833  0.00  0.00     0.053 C 
ATOM     14  O   LIG d   1       3.692  -0.885  -2.294  0.00  0.00    -0.359 OA
ATOM     15  H   LIG d   1       4.248   2.395  -2.058  0.00  0.00     0.060 H 
ATOM     16  H   LIG d   1       2.998   1.681  -4.264  0.00  0.00     0.060 H 
ATOM     17  H   LIG d   1       2.919  -2.147  -4.769  0.00  0.00     0.050 H 
ATOM     18  H   LIG d   1       1.952  -0.645  -4.948  0.00  0.00     0.050 H 
ENDROOT
BRANCH   1  19
ATOM     19  C   LIG d   1       6.595   1.041  -3.355  0.00  0.00     0.220 C 
ATOM     20  N   LIG d   1       7.760   0.966  -4.028  0.00  0.00    -0.315 N 
ATOM     21  H   LIG d   1       8.148   0.101  -4.234  0.00  0.00     0.149 HD
ATOM     22  O   LIG d   1       6.111   2.124  -3.099  0.00  0.00    -0.275 OA
BRANCH  20  23
ATOM     23  C   LIG d   1       8.441   2.193  -4.452  0.00  0.00     0.016 C 
ATOM     24  H   LIG d   1       7.714   3.000  -4.540  0.00  0.00     0.046 H 
ATOM     25  H   LIG d   1       8.920   2.028  -5.416  0.00  0.00     0.046 H 
BRANCH  23  26
ATOM     26  C   LIG d   1       9.500   2.572  -3.415  0.00  0.00    -0.012 C 
ATOM     27  H   LIG d   1      10.449   2.103  -3.676  0.00  0.00     0.033 H 
ATOM     28  H   LIG d   1       9.184   2.229  -2.429  0.00  0.00     0.033 H 
BRANCH  26  29
ATOM     29  C   LIG d   1       9.670   4.070  -3.394  0.00  0.00    -0.046 A 
ATOM     30  C   LIG d   1      10.232   4.685  -2.291  0.00  0.00    -0.055 A 
ATOM     31  C   LIG d   1      10.389   6.058  -2.269  0.00  0.00    -0.020 A 
ATOM     32  H   LIG d   1      10.549   4.092  -1.446  0.00  0.00     0.062 H 
ATOM     33  C   LIG d   1       9.981   6.818  -3.356  0.00  0.00     0.120 A 
ATOM     34  H   LIG d   1      10.829   6.537  -1.408  0.00  0.00     0.065 H 
ATOM     35  C   LIG d   1       9.417   6.198  -4.460  0.00  0.00    -0.020 A 
ATOM     36  C   LIG d   1       9.268   4.825  -4.479  0.00  0.00    -0.055 A 
ATOM     37  H   LIG d   1       9.099   6.788  -5.308  0.00  0.00     0.065 H 
ATOM     38  H   LIG d   1       8.833   4.341  -5.342  0.00  0.00     0.062 H 
BRANCH  33  39
ATOM     39  O   LIG d   1      10.135   8.168  -3.337  0.00  0.00    -0.495 OA
BRANCH  39  40
ATOM     40  C   LIG d   1      10.041   8.814  -2.065  0.00  0.00     0.079 C 
ATOM     41  H   LIG d   1       9.027   8.709  -1.679  0.00  0.00     0.066 H 
ATOM     42  H   LIG d   1      10.744   8.355  -1.372  0.00  0.00     0.066 H 
ATOM     43  H   LIG d   1      10.280   9.872  -2.178  0.00  0.00     0.066 H 
ENDBRANCH  39  40
ENDBRANCH  33  39
ENDBRANCH  26  29
ENDBRANCH  23  26
ENDBRANCH  20  23
ENDBRANCH   1  19
BRANCH  12  44
ATOM     44  C   LIG d   1       3.453  -0.469  -7.287  0.00  0.00     0.040 A 
ATOM     45  C   LIG d   1       3.552  -1.541  -8.164  0.00  0.00     0.005 A 
ATOM     46  C   LIG d   1       3.161  -1.393  -9.484  0.00  0.00     0.168 A 
ATOM     47  H   LIG d   1       3.933  -2.489  -7.816  0.00  0.00     0.067 H 
ATOM     48  C   LIG d   1       2.670  -0.168  -9.930  0.00  0.00     0.166 A 
ATOM     49  O   LIG d   1       3.157  -2.271 -10.530  0.00  0.00    -0.453 OA
ATOM     50  C   LIG d   1       2.574   0.900  -9.052  0.00  0.00    -0.014 A 
ATOM     51  O   LIG d   1       2.358  -0.280 -11.255  0.00  0.00    -0.453 OA
ATOM     52  C   LIG d   1       2.959   0.750  -7.733  0.00  0.00    -0.037 A 
ATOM     53  H   LIG d   1       2.192   1.849  -9.397  0.00  0.00     0.066 H 
ATOM     54  H   LIG d   1       2.878   1.582  -7.049  0.00  0.00     0.064 H 
ATOM     55  C   LIG d   1       3.044  -1.459 -11.713  0.00  0.00     0.233 C 
ATOM     56  H   LIG d   1       4.031  -1.204 -12.098  0.00  0.00     0.117 H 
ATOM     57  H   LIG d   1       2.458  -1.974 -12.475  0.00  0.00     0.117 H 
ENDBRANCH  12  44
TORSDOF 7
ENDMDL
MODEL 2
REMARK VINA RESULT:      -7.5      4.105      6.694
REMARK  7 active torsions:
REMARK  status: ('A' for Active; 'I' for Inactive)
REMARK    1  A    between atoms: C_1  and  O_2 
REMARK    2  A    between atoms: O_2  and  C_3 
REMARK    3  A    between atoms: C_6  and  C_9 
REMARK    4  A    between atoms: C_9  and  C_10 
REMARK    5  A    between atoms: C_10  and  N_11 
REMARK       I    between atoms: N_11  and  C_12 
REMARK    6  A    between atoms: C_12  and  C_14 
REMARK    7  A    between atoms: N_25  and  C_27 
ROOT
ATOM      1  C   LIG d   1       4.660  -1.614  -2.872  0.00  0.00     0.079 C 
ATOM      2  H   LIG d   1       4.387  -2.577  -2.441  0.00  0.00     0.043 H 
ATOM      3  C   LIG d   1       4.264  -0.427  -1.911  0.00  0.00     0.090 C 
ATOM      4  H   LIG d   1       4.340  -0.631  -0.843  0.00  0.00     0.065 H 
ATOM      5  C   LIG d   1       5.115   0.727  -2.455  0.00  0.00    -0.056 C 
ATOM      6  C   LIG d   1       4.550   1.056  -3.608  0.00  0.00    -0.052 C 
ATOM      7  C   LIG d   1       3.333   0.157  -3.740  0.00  0.00     0.116 C 
ATOM      8  C   LIG d   1       3.821  -1.306  -4.086  0.00  0.00     0.084 C 
ATOM      9  H   LIG d   1       2.957  -1.969  -4.103  0.00  0.00     0.043 H 
ATOM     10  C   LIG d   1       4.297  -1.105  -5.467  0.00  0.00     0.227 C 
ATOM     11  O   LIG d   1       5.233  -1.665  -5.998  0.00  0.00    -0.275 OA
ATOM     12  N   LIG d   1       3.477  -0.162  -6.039  0.00  0.00    -0.268 N 
ATOM     13  C   LIG d   1       2.562   0.406  -5.000  0.00  0.00     0.053 C 
ATOM     14  O   LIG d   1       2.913  -0.057  -2.414  0.00  0.00    -0.359 OA
ATOM     15  H   LIG d   1       5.984   1.175  -1.998  0.00  0.00     0.060 H 
ATOM     16  H   LIG d   1       4.885   1.807  -4.308  0.00  0.00     0.060 H 
ATOM     17  H   LIG d   1       1.611  -0.126  -4.986  0.00  0.00     0.050 H 
ATOM     18  H   LIG d   1       2.407   1.473  -5.158  0.00  0.00     0.050 H 
ENDROOT
BRANCH   1  19
ATOM     19  C   LIG d   1       6.130  -1.571  -3.206  0.00  0.00     0.220 C 
ATOM     20  N   LIG d   1       6.720  -2.636  -3.784  0.00  0.00    -0.315 N 
ATOM     21  H   LIG d   1       6.200  -3.430  -3.986  0.00  0.00     0.149 HD
ATOM     22  O   LIG d   1       6.781  -0.579  -2.955  0.00  0.00    -0.275 OA
BRANCH  20  23
ATOM     23  C   LIG d   1       8.148  -2.595  -4.110  0.00  0.00     0.016 C 
ATOM     24  H   LIG d   1       8.730  -2.580  -3.188  0.00  0.00     0.046 H 
ATOM     25  H   LIG d   1       8.363  -1.697  -4.689  0.00  0.00     0.046 H 
BRANCH  23  26
ATOM     26  C   LIG d   1       8.521  -3.832  -4.929  0.00  0.00    -0.012 C 
ATOM     27  H   LIG d   1       9.350  -3.591  -5.594  0.00  0.00     0.033 H 
ATOM     28  H   LIG d   1       7.661  -4.149  -5.520  0.00  0.00     0.033 H 
BRANCH  26  29
ATOM     29  C   LIG d   1       8.929  -4.946  -4.000  0.00  0.00    -0.046 A 
ATOM     30  C   LIG d   1       9.535  -4.650  -2.793  0.00  0.00    -0.055 A 
ATOM     31  C   LIG d   1       9.910  -5.669  -1.938  0.00  0.00    -0.020 A 
ATOM     32  H   LIG d   1       9.715  -3.621  -2.517  0.00  0.00     0.062 H 
ATOM     33  C   LIG d   1       9.679  -6.990  -2.294  0.00  0.00     0.120 A 
ATOM     34  H   LIG d   1      10.382  -5.437  -0.996  0.00  0.00     0.065 H 
ATOM     35  C   LIG d   1       9.071  -7.284  -3.505  0.00  0.00    -0.020 A 
ATOM     36  C   LIG d   1       8.693  -6.261  -4.353  0.00  0.00    -0.055 A 
ATOM     37  H   LIG d   1       8.890  -8.312  -3.784  0.00  0.00     0.065 H 
ATOM     38  H   LIG d   1       8.215  -6.489  -5.294  0.00  0.00     0.062 H 
BRANCH  33  39
ATOM     39  O   LIG d   1      10.047  -7.994  -1.455  0.00  0.00    -0.495 OA
BRANCH  39  40
ATOM     40  C   LIG d   1      11.071  -7.701  -0.502  0.00  0.00     0.079 C 
ATOM     41  H   LIG d   1      11.803  -7.030  -0.950  0.00  0.00     0.066 H 
ATOM     42  H   LIG d   1      10.628  -7.224   0.372  0.00  0.00     0.066 H 
ATOM     43  H   LIG d   1      11.562  -8.627  -0.201  0.00  0.00     0.066 H 
ENDBRANCH  39  40
ENDBRANCH  33  39
ENDBRANCH  26  29
ENDBRANCH  23  26
ENDBRANCH  20  23
ENDBRANCH   1  19
BRANCH  12  44
ATOM     44  C   LIG d   1       3.496   0.212  -7.389  0.00  0.00     0.040 A 
ATOM     45  C   LIG d   1       3.918  -0.692  -8.354  0.00  0.00     0.005 A 
ATOM     46  C   LIG d   1       3.935  -0.323  -9.689  0.00  0.00     0.168 A 
ATOM     47  H   LIG d   1       4.233  -1.684  -8.064  0.00  0.00     0.067 H 
ATOM     48  C   LIG d   1       3.528   0.956 -10.060  0.00  0.00     0.166 A 
ATOM     49  O   LIG d   1       4.299  -1.009 -10.812  0.00  0.00    -0.453 OA
ATOM     50  C   LIG d   1       3.108   1.856  -9.093  0.00  0.00    -0.014 A 
ATOM     51  O   LIG d   1       3.637   1.071 -11.417  0.00  0.00    -0.453 OA
ATOM     52  C   LIG d   1       3.085   1.485  -7.763  0.00  0.00    -0.037 A 
ATOM     53  H   LIG d   1       2.791   2.847  -9.382  0.00  0.00     0.066 H 
ATOM     54  H   LIG d   1       2.752   2.186  -7.013  0.00  0.00     0.064 H 
ATOM     55  C   LIG d   1       4.499  -0.006 -11.826  0.00  0.00     0.233 C 
ATOM     56  H   LIG d   1       5.538   0.320 -11.843  0.00  0.00     0.117 H 
ATOM     57  H   LIG d   1       4.202  -0.387 -12.804  0.00  0.00     0.117 H 
ENDBRANCH  12  44
TORSDOF 7
ENDMDL
MODEL 3
REMARK VINA RESULT:      -7.5      1.413      1.881
REMARK  7 active torsions:
REMARK  status: ('A' for Active; 'I' for Inactive)
REMARK    1  A    between atoms: C_1  and  O_2 
REMARK    2  A    between atoms: O_2  and  C_3 
REMARK    3  A    between atoms: C_6  and  C_9 
REMARK    4  A    between atoms: C_9  and  C_10 
REMARK    5  A    between atoms: C_10  and  N_11 
REMARK       I    between atoms: N_11  and  C_12 
REMARK    6  A    between atoms: C_12  and  C_14 
REMARK    7  A    between atoms: N_25  and  C_27 
ROOT
ATOM      1  C   LIG d   1       5.534  -0.450  -2.769  0.00  0.00     0.079 C 
ATOM      2  H   LIG d   1       6.080  -1.278  -2.318  0.00  0.00     0.043 H 
ATOM      3  C   LIG d   1       4.376   0.051  -1.822  0.00  0.00     0.090 C 
ATOM      4  H   LIG d   1       4.576  -0.001  -0.752  0.00  0.00     0.065 H 
ATOM      5  C   LIG d   1       4.064   1.438  -2.399  0.00  0.00    -0.056 C 
ATOM      6  C   LIG d   1       3.448   1.201  -3.548  0.00  0.00    -0.052 C 
ATOM      7  C   LIG d   1       3.329  -0.310  -3.647  0.00  0.00     0.116 C 
ATOM      8  C   LIG d   1       4.755  -0.909  -3.976  0.00  0.00     0.084 C 
ATOM      9  H   LIG d   1       4.688  -1.997  -3.968  0.00  0.00     0.043 H 
ATOM     10  C   LIG d   1       4.918  -0.450  -5.367  0.00  0.00     0.227 C 
ATOM     11  O   LIG d   1       5.956  -0.123  -5.902  0.00  0.00    -0.275 OA
ATOM     12  N   LIG d   1       3.670  -0.463  -5.942  0.00  0.00    -0.268 N 
ATOM     13  C   LIG d   1       2.639  -0.757  -4.898  0.00  0.00     0.053 C 
ATOM     14  O   LIG d   1       3.212  -0.737  -2.311  0.00  0.00    -0.359 OA
ATOM     15  H   LIG d   1       4.295   2.398  -1.964  0.00  0.00     0.060 H 
ATOM     16  H   LIG d   1       3.103   1.930  -4.266  0.00  0.00     0.060 H 
ATOM     17  H   LIG d   1       2.416  -1.824  -4.860  0.00  0.00     0.050 H 
ATOM     18  H   LIG d   1       1.732  -0.178  -5.072  0.00  0.00     0.050 H 
ENDROOT
BRANCH   1  19
ATOM     19  C   LIG d   1       6.467   0.679  -3.127  0.00  0.00     0.220 C 
ATOM     20  N   LIG d   1       7.713   0.410  -3.563  0.00  0.00    -0.315 N 
ATOM     21  H   LIG d   1       8.010  -0.509  -3.648  0.00  0.00     0.149 HD
ATOM     22  O   LIG d   1       6.096   1.829  -3.023  0.00  0.00    -0.275 OA
BRANCH  20  23
ATOM     23  C   LIG d   1       8.620   1.507  -3.912  0.00  0.00     0.016 C 
ATOM     24  H   LIG d   1       9.608   1.308  -3.497  0.00  0.00     0.046 H 
ATOM     25  H   LIG d   1       8.235   2.440  -3.501  0.00  0.00     0.046 H 
BRANCH  23  26
ATOM     26  C   LIG d   1       8.720   1.623  -5.434  0.00  0.00    -0.012 C 
ATOM     27  H   LIG d   1       7.752   1.396  -5.880  0.00  0.00     0.033 H 
ATOM     28  H   LIG d   1       9.464   0.917  -5.804  0.00  0.00     0.033 H 
BRANCH  26  29
ATOM     29  C   LIG d   1       9.128   3.025  -5.806  0.00  0.00    -0.046 A 
ATOM     30  C   LIG d   1       9.473   3.318  -7.112  0.00  0.00    -0.055 A 
ATOM     31  C   LIG d   1       9.847   4.603  -7.457  0.00  0.00    -0.020 A 
ATOM     32  H   LIG d   1       9.450   2.543  -7.864  0.00  0.00     0.062 H 
ATOM     33  C   LIG d   1       9.877   5.598  -6.490  0.00  0.00     0.120 A 
ATOM     34  H   LIG d   1      10.116   4.832  -8.477  0.00  0.00     0.065 H 
ATOM     35  C   LIG d   1       9.531   5.300  -5.181  0.00  0.00    -0.020 A 
ATOM     36  C   LIG d   1       9.152   4.015  -4.843  0.00  0.00    -0.055 A 
ATOM     37  H   LIG d   1       9.553   6.074  -4.426  0.00  0.00     0.065 H 
ATOM     38  H   LIG d   1       8.877   3.784  -3.824  0.00  0.00     0.062 H 
BRANCH  33  39
ATOM     39  O   LIG d   1      10.245   6.863  -6.827  0.00  0.00    -0.495 OA
BRANCH  39  40
ATOM     40  C   LIG d   1       9.650   7.930  -6.084  0.00  0.00     0.079 C 
ATOM     41  H   LIG d   1       8.645   8.118  -6.460  0.00  0.00     0.066 H 
ATOM     42  H   LIG d   1       9.599   7.655  -5.031  0.00  0.00     0.066 H 
ATOM     43  H   LIG d   1      10.255   8.830  -6.196  0.00  0.00     0.066 H 
ENDBRANCH  39  40
ENDBRANCH  33  39
ENDBRANCH  26  29
ENDBRANCH  23  26
ENDBRANCH  20  23
ENDBRANCH   1  19
BRANCH  12  44
ATOM     44  C   LIG d   1       3.404  -0.235  -7.298  0.00  0.00     0.040 A 
ATOM     45  C   LIG d   1       3.547  -1.266  -8.217  0.00  0.00     0.005 A 
ATOM     46  C   LIG d   1       3.282  -1.041  -9.557  0.00  0.00     0.168 A 
ATOM     47  H   LIG d   1       3.864  -2.244  -7.885  0.00  0.00     0.067 H 
ATOM     48  C   LIG d   1       2.873   0.221  -9.981  0.00  0.00     0.166 A 
ATOM     49  O   LIG d   1       3.344  -1.867 -10.642  0.00  0.00    -0.453 OA
ATOM     50  C   LIG d   1       2.733   1.248  -9.061  0.00  0.00    -0.014 A 
ATOM     51  O   LIG d   1       2.678   0.185 -11.333  0.00  0.00    -0.453 OA
ATOM     52  C   LIG d   1       2.991   1.021  -7.723  0.00  0.00    -0.037 A 
ATOM     53  H   LIG d   1       2.414   2.226  -9.390  0.00  0.00     0.066 H 
ATOM     54  H   LIG d   1       2.876   1.821  -7.008  0.00  0.00     0.064 H 
ATOM     55  C   LIG d   1       3.364  -0.996 -11.788  0.00  0.00     0.233 C 
ATOM     56  H   LIG d   1       4.390  -0.759 -12.070  0.00  0.00     0.117 H 
ATOM     57  H   LIG d   1       2.833  -1.451 -12.624  0.00  0.00     0.117 H 
ENDBRANCH  12  44
TORSDOF 7
ENDMDL
MODEL 4
REMARK VINA RESULT:      -7.5      3.212      7.513
REMARK  7 active torsions:
REMARK  status: ('A' for Active; 'I' for Inactive)
REMARK    1  A    between atoms: C_1  and  O_2 
REMARK    2  A    between atoms: O_2  and  C_3 
REMARK    3  A    between atoms: C_6  and  C_9 
REMARK    4  A    between atoms: C_9  and  C_10 
REMARK    5  A    between atoms: C_10  and  N_11 
REMARK       I    between atoms: N_11  and  C_12 
REMARK    6  A    between atoms: C_12  and  C_14 
REMARK    7  A    between atoms: N_25  and  C_27 
ROOT
ATOM      1  C   LIG d   1       3.105  -0.190  -8.271  0.00  0.00     0.079 C 
ATOM      2  H   LIG d   1       2.632  -1.171  -8.316  0.00  0.00     0.043 H 
ATOM      3  C   LIG d   1       2.608   0.735  -9.449  0.00  0.00     0.090 C 
ATOM      4  H   LIG d   1       1.573   0.600  -9.761  0.00  0.00     0.065 H 
ATOM      5  C   LIG d   1       3.003   2.131  -8.952  0.00  0.00    -0.056 C 
ATOM      6  C   LIG d   1       4.323   2.172  -9.057  0.00  0.00    -0.052 C 
ATOM      7  C   LIG d   1       4.729   0.842  -9.667  0.00  0.00     0.116 C 
ATOM      8  C   LIG d   1       4.580  -0.285  -8.568  0.00  0.00     0.084 C 
ATOM      9  H   LIG d   1       4.793  -1.251  -9.025  0.00  0.00     0.043 H 
ATOM     10  C   LIG d   1       5.692   0.075  -7.669  0.00  0.00     0.227 C 
ATOM     11  O   LIG d   1       5.714  -0.047  -6.463  0.00  0.00    -0.275 OA
ATOM     12  N   LIG d   1       6.699   0.575  -8.459  0.00  0.00    -0.268 N 
ATOM     13  C   LIG d   1       6.208   0.722  -9.866  0.00  0.00     0.053 C 
ATOM     14  O   LIG d   1       3.643   0.493 -10.492  0.00  0.00    -0.359 OA
ATOM     15  H   LIG d   1       2.348   2.911  -8.595  0.00  0.00     0.060 H 
ATOM     16  H   LIG d   1       4.976   2.982  -8.767  0.00  0.00     0.060 H 
ATOM     17  H   LIG d   1       6.452  -0.162 -10.457  0.00  0.00     0.050 H 
ATOM     18  H   LIG d   1       6.614   1.621 -10.329  0.00  0.00     0.050 H 
ENDROOT
BRANCH   1  19
ATOM     19  C   LIG d   1       2.863   0.462  -6.934  0.00  0.00     0.220 C 
ATOM     20  N   LIG d   1       2.754  -0.296  -5.825  0.00  0.00    -0.315 N 
ATOM     21  H   LIG d   1       2.831  -1.261  -5.887  0.00  0.00     0.149 HD
ATOM     22  O   LIG d   1       2.768   1.669  -6.855  0.00  0.00    -0.275 OA
BRANCH  20  23
ATOM     23  C   LIG d   1       2.521   0.338  -4.525  0.00  0.00     0.016 C 
ATOM     24  H   LIG d   1       1.492   0.694  -4.474  0.00  0.00     0.046 H 
ATOM     25  H   LIG d   1       3.202   1.179  -4.403  0.00  0.00     0.046 H 
BRANCH  23  26
ATOM     26  C   LIG d   1       2.763  -0.681  -3.410  0.00  0.00    -0.012 C 
ATOM     27  H   LIG d   1       2.060  -1.508  -3.514  0.00  0.00     0.033 H 
ATOM     28  H   LIG d   1       2.618  -0.202  -2.441  0.00  0.00     0.033 H 
BRANCH  26  29
ATOM     29  C   LIG d   1       4.173  -1.205  -3.505  0.00  0.00    -0.046 A 
ATOM     30  C   LIG d   1       5.222  -0.455  -3.008  0.00  0.00    -0.055 A 
ATOM     31  C   LIG d   1       6.516  -0.933  -3.093  0.00  0.00    -0.020 A 
ATOM     32  H   LIG d   1       5.031   0.505  -2.552  0.00  0.00     0.062 H 
ATOM     33  C   LIG d   1       6.760  -2.167  -3.680  0.00  0.00     0.120 A 
ATOM     34  H   LIG d   1       7.335  -0.347  -2.705  0.00  0.00     0.065 H 
ATOM     35  C   LIG d   1       5.706  -2.917  -4.177  0.00  0.00    -0.020 A 
ATOM     36  C   LIG d   1       4.414  -2.437  -4.084  0.00  0.00    -0.055 A 
ATOM     37  H   LIG d   1       5.894  -3.878  -4.634  0.00  0.00     0.065 H 
ATOM     38  H   LIG d   1       3.591  -3.023  -4.467  0.00  0.00     0.062 H 
BRANCH  33  39
ATOM     39  O   LIG d   1       8.032  -2.639  -3.765  0.00  0.00    -0.495 OA
BRANCH  39  40
ATOM     40  C   LIG d   1       8.730  -2.405  -4.990  0.00  0.00     0.079 C 
ATOM     41  H   LIG d   1       8.140  -2.784  -5.823  0.00  0.00     0.066 H 
ATOM     42  H   LIG d   1       8.893  -1.335  -5.116  0.00  0.00     0.066 H 
ATOM     43  H   LIG d   1       9.692  -2.917  -4.963  0.00  0.00     0.066 H 
ENDBRANCH  39  40
ENDBRANCH  33  39
ENDBRANCH  26  29
ENDBRANCH  23  26
ENDBRANCH  20  23
ENDBRANCH   1  19
BRANCH  12  44
ATOM     44  C   LIG d   1       7.987   0.900  -8.016  0.00  0.00     0.040 A 
ATOM     45  C   LIG d   1       8.273   2.193  -7.601  0.00  0.00     0.005 A 
ATOM     46  C   LIG d   1       9.547   2.513  -7.162  0.00  0.00     0.168 A 
ATOM     47  H   LIG d   1       7.502   2.949  -7.620  0.00  0.00     0.067 H 
ATOM     48  C   LIG d   1      10.539   1.536  -7.138  0.00  0.00     0.166 A 
ATOM     49  O   LIG d   1      10.079   3.687  -6.709  0.00  0.00    -0.453 OA
ATOM     50  C   LIG d   1      10.250   0.246  -7.554  0.00  0.00    -0.014 A 
ATOM     51  O   LIG d   1      11.693   2.098  -6.670  0.00  0.00    -0.453 OA
ATOM     52  C   LIG d   1       8.977  -0.074  -7.987  0.00  0.00    -0.037 A 
ATOM     53  H   LIG d   1      11.019  -0.511  -7.534  0.00  0.00     0.066 H 
ATOM     54  H   LIG d   1       8.753  -1.081  -8.305  0.00  0.00     0.064 H 
ATOM     55  C   LIG d   1      11.506   3.520  -6.795  0.00  0.00     0.233 C 
ATOM     56  H   LIG d   1      11.876   3.871  -7.758  0.00  0.00     0.117 H 
ATOM     57  H   LIG d   1      12.003   4.046  -5.980  0.00  0.00     0.117 H 
ENDBRANCH  12  44
TORSDOF 7
ENDMDL
MODEL 5
REMARK VINA RESULT:      -7.2      1.747      7.934
REMARK  7 active torsions:
REMARK  status: ('A' for Active; 'I' for Inactive)
REMARK    1  A    between atoms: C_1  and  O_2 
REMARK    2  A    between atoms: O_2  and  C_3 
REMARK    3  A    between atoms: C_6  and  C_9 
REMARK    4  A    between atoms: C_9  and  C_10 
REMARK    5  A    between atoms: C_10  and  N_11 
REMARK       I    between atoms: N_11  and  C_12 
REMARK    6  A    between atoms: C_12  and  C_14 
REMARK    7  A    between atoms: N_25  and  C_27 
ROOT
ATOM      1  C   LIG d   1       5.055  -1.581  -3.059  0.00  0.00     0.079 C 
ATOM      2  H   LIG d   1       4.900  -1.981  -2.057  0.00  0.00     0.043 H 
ATOM      3  C   LIG d   1       5.206  -2.741  -4.118  0.00  0.00     0.090 C 
ATOM      4  H   LIG d   1       4.615  -3.638  -3.933  0.00  0.00     0.065 H 
ATOM      5  C   LIG d   1       4.951  -2.007  -5.440  0.00  0.00    -0.056 C 
ATOM      6  C   LIG d   1       6.031  -1.264  -5.634  0.00  0.00    -0.052 C 
ATOM      7  C   LIG d   1       6.962  -1.584  -4.479  0.00  0.00     0.116 C 
ATOM      8  C   LIG d   1       6.397  -0.901  -3.169  0.00  0.00     0.084 C 
ATOM      9  H   LIG d   1       7.019  -1.195  -2.324  0.00  0.00     0.043 H 
ATOM     10  C   LIG d   1       6.651   0.517  -3.481  0.00  0.00     0.227 C 
ATOM     11  O   LIG d   1       5.965   1.462  -3.155  0.00  0.00    -0.275 OA
ATOM     12  N   LIG d   1       7.814   0.564  -4.211  0.00  0.00    -0.268 N 
ATOM     13  C   LIG d   1       8.253  -0.827  -4.547  0.00  0.00     0.053 C 
ATOM     14  O   LIG d   1       6.682  -2.928  -4.167  0.00  0.00    -0.359 OA
ATOM     15  H   LIG d   1       4.081  -2.080  -6.076  0.00  0.00     0.060 H 
ATOM     16  H   LIG d   1       6.211  -0.574  -6.445  0.00  0.00     0.060 H 
ATOM     17  H   LIG d   1       8.964  -1.201  -3.809  0.00  0.00     0.050 H 
ATOM     18  H   LIG d   1       8.678  -0.871  -5.550  0.00  0.00     0.050 H 
ENDROOT
BRANCH   1  19
ATOM     19  C   LIG d   1       3.941  -0.642  -3.442  0.00  0.00     0.220 C 
ATOM     20  N   LIG d   1       4.020   0.067  -4.586  0.00  0.00    -0.315 N 
ATOM     21  H   LIG d   1       4.794  -0.027  -5.163  0.00  0.00     0.149 HD
ATOM     22  O   LIG d   1       2.971  -0.524  -2.722  0.00  0.00    -0.275 OA
BRANCH  20  23
ATOM     23  C   LIG d   1       2.936   0.980  -4.959  0.00  0.00     0.016 C 
ATOM     24  H   LIG d   1       3.358   1.894  -5.377  0.00  0.00     0.046 H 
ATOM     25  H   LIG d   1       2.346   1.223  -4.076  0.00  0.00     0.046 H 
BRANCH  23  26
ATOM     26  C   LIG d   1       2.040   0.309  -6.002  0.00  0.00    -0.012 C 
ATOM     27  H   LIG d   1       1.043   0.747  -5.960  0.00  0.00     0.033 H 
ATOM     28  H   LIG d   1       1.976  -0.760  -5.793  0.00  0.00     0.033 H 
BRANCH  26  29
ATOM     29  C   LIG d   1       2.624   0.518  -7.375  0.00  0.00    -0.046 A 
ATOM     30  C   LIG d   1       2.945  -0.572  -8.162  0.00  0.00    -0.055 A 
ATOM     31  C   LIG d   1       3.480  -0.383  -9.422  0.00  0.00    -0.020 A 
ATOM     32  H   LIG d   1       2.779  -1.573  -7.791  0.00  0.00     0.062 H 
ATOM     33  C   LIG d   1       3.694   0.903  -9.896  0.00  0.00     0.120 A 
ATOM     34  H   LIG d   1       3.730  -1.235 -10.036  0.00  0.00     0.065 H 
ATOM     35  C   LIG d   1       3.371   1.995  -9.105  0.00  0.00    -0.020 A 
ATOM     36  C   LIG d   1       2.831   1.800  -7.849  0.00  0.00    -0.055 A 
ATOM     37  H   LIG d   1       3.536   2.997  -9.473  0.00  0.00     0.065 H 
ATOM     38  H   LIG d   1       2.574   2.650  -7.234  0.00  0.00     0.062 H 
BRANCH  33  39
ATOM     39  O   LIG d   1       4.220   1.092 -11.136  0.00  0.00    -0.495 OA
BRANCH  39  40
ATOM     40  C   LIG d   1       4.189  -0.023 -12.030  0.00  0.00     0.079 C 
ATOM     41  H   LIG d   1       4.883  -0.787 -11.682  0.00  0.00     0.066 H 
ATOM     42  H   LIG d   1       3.180  -0.434 -12.063  0.00  0.00     0.066 H 
ATOM     43  H   LIG d   1       4.479   0.305 -13.028  0.00  0.00     0.066 H 
ENDBRANCH  39  40
ENDBRANCH  33  39
ENDBRANCH  26  29
ENDBRANCH  23  26
ENDBRANCH  20  23
ENDBRANCH   1  19
BRANCH  12  44
ATOM     44  C   LIG d   1       8.487   1.735  -4.585  0.00  0.00     0.040 A 
ATOM     45  C   LIG d   1       9.079   2.534  -3.616  0.00  0.00     0.005 A 
ATOM     46  C   LIG d   1       9.745   3.690  -3.986  0.00  0.00     0.168 A 
ATOM     47  H   LIG d   1       9.021   2.252  -2.575  0.00  0.00     0.067 H 
ATOM     48  C   LIG d   1       9.818   4.049  -5.330  0.00  0.00     0.166 A 
ATOM     49  O   LIG d   1      10.400   4.632  -3.245  0.00  0.00    -0.453 OA
ATOM     50  C   LIG d   1       9.224   3.250  -6.293  0.00  0.00    -0.014 A 
ATOM     51  O   LIG d   1      10.520   5.217  -5.430  0.00  0.00    -0.453 OA
ATOM     52  C   LIG d   1       8.566   2.093  -5.924  0.00  0.00    -0.037 A 
ATOM     53  H   LIG d   1       9.283   3.528  -7.335  0.00  0.00     0.066 H 
ATOM     54  H   LIG d   1       8.109   1.468  -6.677  0.00  0.00     0.064 H 
ATOM     55  C   LIG d   1      10.522   5.780  -4.106  0.00  0.00     0.233 C 
ATOM     56  H   LIG d   1       9.672   6.450  -3.973  0.00  0.00     0.117 H 
ATOM     57  H   LIG d   1      11.457   6.306  -3.912  0.00  0.00     0.117 H 
ENDBRANCH  12  44
TORSDOF 7
ENDMDL
MODEL 6
REMARK VINA RESULT:      -7.2      3.986      6.826
REMARK  7 active torsions:
REMARK  status: ('A' for Active; 'I' for Inactive)
REMARK    1  A    between atoms: C_1  and  O_2 
REMARK    2  A    between atoms: O_2  and  C_3 
REMARK    3  A    between atoms: C_6  and  C_9 
REMARK    4  A    between atoms: C_9  and  C_10 
REMARK    5  A    between atoms: C_10  and  N_11 
REMARK       I    between atoms: N_11  and  C_12 
REMARK    6  A    between atoms: C_12  and  C_14 
REMARK    7  A    between atoms: N_25  and  C_27 
ROOT
ATOM      1  C   LIG d   1       4.529  -1.420  -2.667  0.00  0.00     0.079 C 
ATOM      2  H   LIG d   1       4.162  -2.279  -2.106  0.00  0.00     0.043 H 
ATOM      3  C   LIG d   1       4.424  -0.096  -1.815  0.00  0.00     0.090 C 
ATOM      4  H   LIG d   1       4.584  -0.204  -0.742  0.00  0.00     0.065 H 
ATOM      5  C   LIG d   1       5.374   0.846  -2.564  0.00  0.00    -0.056 C 
ATOM      6  C   LIG d   1       4.742   1.148  -3.689  0.00  0.00    -0.052 C 
ATOM      7  C   LIG d   1       3.397   0.449  -3.605  0.00  0.00     0.116 C 
ATOM      8  C   LIG d   1       3.618  -1.102  -3.825  0.00  0.00     0.084 C 
ATOM      9  H   LIG d   1       2.666  -1.615  -3.686  0.00  0.00     0.043 H 
ATOM     10  C   LIG d   1       3.964  -1.116  -5.259  0.00  0.00     0.227 C 
ATOM     11  O   LIG d   1       4.741  -1.869  -5.806  0.00  0.00    -0.275 OA
ATOM     12  N   LIG d   1       3.238  -0.114  -5.856  0.00  0.00    -0.268 N 
ATOM     13  C   LIG d   1       2.539   0.694  -4.807  0.00  0.00     0.053 C 
ATOM     14  O   LIG d   1       3.097   0.436  -2.229  0.00  0.00    -0.359 OA
ATOM     15  H   LIG d   1       6.346   1.191  -2.244  0.00  0.00     0.060 H 
ATOM     16  H   LIG d   1       5.107   1.762  -4.498  0.00  0.00     0.060 H 
ATOM     17  H   LIG d   1       1.525   0.326  -4.645  0.00  0.00     0.050 H 
ATOM     18  H   LIG d   1       2.529   1.751  -5.071  0.00  0.00     0.050 H 
ENDROOT
BRANCH   1  19
ATOM     19  C   LIG d   1       5.942  -1.648  -3.139  0.00  0.00     0.220 C 
ATOM     20  N   LIG d   1       6.262  -2.789  -3.781  0.00  0.00    -0.315 N 
ATOM     21  H   LIG d   1       5.583  -3.463  -3.940  0.00  0.00     0.149 HD
ATOM     22  O   LIG d   1       6.792  -0.805  -2.941  0.00  0.00    -0.275 OA
BRANCH  20  23
ATOM     23  C   LIG d   1       7.635  -3.011  -4.240  0.00  0.00     0.016 C 
ATOM     24  H   LIG d   1       8.325  -2.863  -3.409  0.00  0.00     0.046 H 
ATOM     25  H   LIG d   1       7.871  -2.306  -5.036  0.00  0.00     0.046 H 
BRANCH  23  26
ATOM     26  C   LIG d   1       7.772  -4.441  -4.768  0.00  0.00    -0.012 C 
ATOM     27  H   LIG d   1       7.800  -5.136  -3.929  0.00  0.00     0.033 H 
ATOM     28  H   LIG d   1       8.694  -4.529  -5.343  0.00  0.00     0.033 H 
BRANCH  26  29
ATOM     29  C   LIG d   1       6.595  -4.765  -5.651  0.00  0.00    -0.046 A 
ATOM     30  C   LIG d   1       5.492  -5.408  -5.121  0.00  0.00    -0.055 A 
ATOM     31  C   LIG d   1       4.411  -5.706  -5.929  0.00  0.00    -0.020 A 
ATOM     32  H   LIG d   1       5.474  -5.676  -4.075  0.00  0.00     0.062 H 
ATOM     33  C   LIG d   1       4.435  -5.361  -7.272  0.00  0.00     0.120 A 
ATOM     34  H   LIG d   1       3.550  -6.207  -5.514  0.00  0.00     0.065 H 
ATOM     35  C   LIG d   1       5.543  -4.717  -7.801  0.00  0.00    -0.020 A 
ATOM     36  C   LIG d   1       6.619  -4.416  -6.988  0.00  0.00    -0.055 A 
ATOM     37  H   LIG d   1       5.564  -4.447  -8.847  0.00  0.00     0.065 H 
ATOM     38  H   LIG d   1       7.481  -3.910  -7.398  0.00  0.00     0.062 H 
BRANCH  33  39
ATOM     39  O   LIG d   1       3.373  -5.654  -8.069  0.00  0.00    -0.495 OA
BRANCH  39  40
ATOM     40  C   LIG d   1       3.153  -4.802  -9.195  0.00  0.00     0.079 C 
ATOM     41  H   LIG d   1       2.173  -5.010  -9.623  0.00  0.00     0.066 H 
ATOM     42  H   LIG d   1       3.198  -3.760  -8.877  0.00  0.00     0.066 H 
ATOM     43  H   LIG d   1       3.923  -4.986  -9.945  0.00  0.00     0.066 H 
ENDBRANCH  39  40
ENDBRANCH  33  39
ENDBRANCH  26  29
ENDBRANCH  23  26
ENDBRANCH  20  23
ENDBRANCH   1  19
BRANCH  12  44
ATOM     44  C   LIG d   1       3.165   0.118  -7.236  0.00  0.00     0.040 A 
ATOM     45  C   LIG d   1       3.242  -0.947  -8.123  0.00  0.00     0.005 A 
ATOM     46  C   LIG d   1       3.167  -0.717  -9.487  0.00  0.00     0.168 A 
ATOM     47  H   LIG d   1       3.358  -1.953  -7.750  0.00  0.00     0.067 H 
ATOM     48  C   LIG d   1       3.016   0.582  -9.965  0.00  0.00     0.166 A 
ATOM     49  O   LIG d   1       3.217  -1.572 -10.551  0.00  0.00    -0.453 OA
ATOM     50  C   LIG d   1       2.941   1.642  -9.076  0.00  0.00    -0.014 A 
ATOM     51  O   LIG d   1       2.971   0.541 -11.330  0.00  0.00    -0.453 OA
ATOM     52  C   LIG d   1       3.009   1.412  -7.715  0.00  0.00    -0.037 A 
ATOM     53  H   LIG d   1       2.823   2.649  -9.447  0.00  0.00     0.066 H 
ATOM     54  H   LIG d   1       2.944   2.239  -7.024  0.00  0.00     0.064 H 
ATOM     55  C   LIG d   1       3.504  -0.745 -11.694  0.00  0.00     0.233 C 
ATOM     56  H   LIG d   1       4.580  -0.681 -11.859  0.00  0.00     0.117 H 
ATOM     57  H   LIG d   1       3.004  -1.132 -12.582  0.00  0.00     0.117 H 
ENDBRANCH  12  44
TORSDOF 7
ENDMDL
MODEL 7
REMARK VINA RESULT:      -7.2      4.395      8.055
REMARK  7 active torsions:
REMARK  status: ('A' for Active; 'I' for Inactive)
REMARK    1  A    between atoms: C_1  and  O_2 
REMARK    2  A    between atoms: O_2  and  C_3 
REMARK    3  A    between atoms: C_6  and  C_9 
REMARK    4  A    between atoms: C_9  and  C_10 
REMARK    5  A    between atoms: C_10  and  N_11 
REMARK       I    between atoms: N_11  and  C_12 
REMARK    6  A    between atoms: C_12  and  C_14 
REMARK    7  A    between atoms: N_25  and  C_27 
ROOT
ATOM      1  C   LIG d   1       4.037   0.776  -3.863  0.00  0.00     0.079 C 
ATOM      2  H   LIG d   1       4.321   1.827  -3.919  0.00  0.00     0.043 H 
ATOM      3  C   LIG d   1       3.370   0.440  -2.474  0.00  0.00     0.090 C 
ATOM      4  H   LIG d   1       2.768   1.231  -2.028  0.00  0.00     0.065 H 
ATOM      5  C   LIG d   1       2.658  -0.886  -2.770  0.00  0.00    -0.056 C 
ATOM      6  C   LIG d   1       3.629  -1.781  -2.876  0.00  0.00    -0.052 C 
ATOM      7  C   LIG d   1       4.915  -1.027  -2.588  0.00  0.00     0.116 C 
ATOM      8  C   LIG d   1       5.254  -0.112  -3.832  0.00  0.00     0.084 C 
ATOM      9  H   LIG d   1       6.133   0.489  -3.597  0.00  0.00     0.043 H 
ATOM     10  C   LIG d   1       5.630  -1.141  -4.820  0.00  0.00     0.227 C 
ATOM     11  O   LIG d   1       5.433  -1.099  -6.016  0.00  0.00    -0.275 OA
ATOM     12  N   LIG d   1       6.245  -2.156  -4.127  0.00  0.00    -0.268 N 
ATOM     13  C   LIG d   1       6.129  -1.903  -2.656  0.00  0.00     0.053 C 
ATOM     14  O   LIG d   1       4.535  -0.027  -1.674  0.00  0.00    -0.359 OA
ATOM     15  H   LIG d   1       1.596  -1.054  -2.870  0.00  0.00     0.060 H 
ATOM     16  H   LIG d   1       3.528  -2.828  -3.117  0.00  0.00     0.060 H 
ATOM     17  H   LIG d   1       7.009  -1.380  -2.281  0.00  0.00     0.050 H 
ATOM     18  H   LIG d   1       5.969  -2.833  -2.112  0.00  0.00     0.050 H 
ENDROOT
BRANCH   1  19
ATOM     19  C   LIG d   1       3.126   0.404  -5.005  0.00  0.00     0.220 C 
ATOM     20  N   LIG d   1       3.499   0.657  -6.275  0.00  0.00    -0.315 N 
ATOM     21  H   LIG d   1       4.354   1.079  -6.454  0.00  0.00     0.149 HD
ATOM     22  O   LIG d   1       2.057  -0.124  -4.781  0.00  0.00    -0.275 OA
BRANCH  20  23
ATOM     23  C   LIG d   1       2.614   0.295  -7.384  0.00  0.00     0.016 C 
ATOM     24  H   LIG d   1       1.578   0.308  -7.042  0.00  0.00     0.046 H 
ATOM     25  H   LIG d   1       2.866  -0.704  -7.739  0.00  0.00     0.046 H 
BRANCH  23  26
ATOM     26  C   LIG d   1       2.786   1.300  -8.524  0.00  0.00    -0.012 C 
ATOM     27  H   LIG d   1       3.689   1.888  -8.357  0.00  0.00     0.033 H 
ATOM     28  H   LIG d   1       1.922   1.964  -8.558  0.00  0.00     0.033 H 
BRANCH  26  29
ATOM     29  C   LIG d   1       2.903   0.561  -9.833  0.00  0.00    -0.046 A 
ATOM     30  C   LIG d   1       1.986  -0.422 -10.154  0.00  0.00    -0.055 A 
ATOM     31  C   LIG d   1       2.091  -1.101 -11.353  0.00  0.00    -0.020 A 
ATOM     32  H   LIG d   1       1.188  -0.660  -9.467  0.00  0.00     0.062 H 
ATOM     33  C   LIG d   1       3.117  -0.794 -12.234  0.00  0.00     0.120 A 
ATOM     34  H   LIG d   1       1.374  -1.868 -11.603  0.00  0.00     0.065 H 
ATOM     35  C   LIG d   1       4.036   0.193 -11.909  0.00  0.00    -0.020 A 
ATOM     36  C   LIG d   1       3.924   0.872 -10.712  0.00  0.00    -0.055 A 
ATOM     37  H   LIG d   1       4.836   0.433 -12.595  0.00  0.00     0.065 H 
ATOM     38  H   LIG d   1       4.636   1.645 -10.461  0.00  0.00     0.062 H 
BRANCH  33  39
ATOM     39  O   LIG d   1       3.222  -1.460 -13.415  0.00  0.00    -0.495 OA
BRANCH  39  40
ATOM     40  C   LIG d   1       4.019  -0.852 -14.434  0.00  0.00     0.079 C 
ATOM     41  H   LIG d   1       4.950  -0.489 -13.999  0.00  0.00     0.066 H 
ATOM     42  H   LIG d   1       4.241  -1.586 -15.208  0.00  0.00     0.066 H 
ATOM     43  H   LIG d   1       3.471  -0.017 -14.871  0.00  0.00     0.066 H 
ENDBRANCH  39  40
ENDBRANCH  33  39
ENDBRANCH  26  29
ENDBRANCH  23  26
ENDBRANCH  20  23
ENDBRANCH   1  19
BRANCH  12  44
ATOM     44  C   LIG d   1       6.882  -3.260  -4.708  0.00  0.00     0.040 A 
ATOM     45  C   LIG d   1       6.127  -4.308  -5.218  0.00  0.00     0.005 A 
ATOM     46  C   LIG d   1       6.757  -5.398  -5.794  0.00  0.00     0.168 A 
ATOM     47  H   LIG d   1       5.049  -4.271  -5.166  0.00  0.00     0.067 H 
ATOM     48  C   LIG d   1       8.148  -5.441  -5.859  0.00  0.00     0.166 A 
ATOM     49  O   LIG d   1       6.257  -6.537  -6.357  0.00  0.00    -0.453 OA
ATOM     50  C   LIG d   1       8.897  -4.394  -5.349  0.00  0.00    -0.014 A 
ATOM     51  O   LIG d   1       8.519  -6.608  -6.465  0.00  0.00    -0.453 OA
ATOM     52  C   LIG d   1       8.268  -3.303  -4.780  0.00  0.00    -0.037 A 
ATOM     53  H   LIG d   1       9.975  -4.427  -5.401  0.00  0.00     0.066 H 
ATOM     54  H   LIG d   1       8.854  -2.486  -4.388  0.00  0.00     0.064 H 
ATOM     55  C   LIG d   1       7.361  -7.460  -6.400  0.00  0.00     0.233 C 
ATOM     56  H   LIG d   1       7.385  -8.070  -5.497  0.00  0.00     0.117 H 
ATOM     57  H   LIG d   1       7.297  -8.092  -7.286  0.00  0.00     0.117 H 
ENDBRANCH  12  44
TORSDOF 7
ENDMDL
MODEL 8
REMARK VINA RESULT:      -6.8      3.742      4.452
REMARK  7 active torsions:
REMARK  status: ('A' for Active; 'I' for Inactive)
REMARK    1  A    between atoms: C_1  and  O_2 
REMARK    2  A    between atoms: O_2  and  C_3 
REMARK    3  A    between atoms: C_6  and  C_9 
REMARK    4  A    between atoms: C_9  and  C_10 
REMARK    5  A    between atoms: C_10  and  N_11 
REMARK       I    between atoms: N_11  and  C_12 
REMARK    6  A    between atoms: C_12  and  C_14 
REMARK    7  A    between atoms: N_25  and  C_27 
ROOT
ATOM      1  C   LIG d   1       4.679  -1.363  -2.634  0.00  0.00     0.079 C 
ATOM      2  H   LIG d   1       4.420  -2.264  -2.078  0.00  0.00     0.043 H 
ATOM      3  C   LIG d   1       4.388  -0.067  -1.783  0.00  0.00     0.090 C 
ATOM      4  H   LIG d   1       4.546  -0.155  -0.708  0.00  0.00     0.065 H 
ATOM      5  C   LIG d   1       5.218   0.994  -2.517  0.00  0.00    -0.056 C 
ATOM      6  C   LIG d   1       4.569   1.212  -3.651  0.00  0.00    -0.052 C 
ATOM      7  C   LIG d   1       3.326   0.343  -3.588  0.00  0.00     0.116 C 
ATOM      8  C   LIG d   1       3.751  -1.164  -3.806  0.00  0.00     0.084 C 
ATOM      9  H   LIG d   1       2.873  -1.798  -3.681  0.00  0.00     0.043 H 
ATOM     10  C   LIG d   1       4.118  -1.130  -5.233  0.00  0.00     0.227 C 
ATOM     11  O   LIG d   1       4.995  -1.774  -5.769  0.00  0.00    -0.275 OA
ATOM     12  N   LIG d   1       3.276  -0.230  -5.841  0.00  0.00    -0.268 N 
ATOM     13  C   LIG d   1       2.461   0.477  -4.803  0.00  0.00     0.053 C 
ATOM     14  O   LIG d   1       3.010   0.288  -2.217  0.00  0.00    -0.359 OA
ATOM     15  H   LIG d   1       6.131   1.462  -2.183  0.00  0.00     0.060 H 
ATOM     16  H   LIG d   1       4.863   1.871  -4.455  0.00  0.00     0.060 H 
ATOM     17  H   LIG d   1       1.502  -0.021  -4.656  0.00  0.00     0.050 H 
ATOM     18  H   LIG d   1       2.317   1.525  -5.066  0.00  0.00     0.050 H 
ENDROOT
BRANCH   1  19
ATOM     19  C   LIG d   1       6.117  -1.404  -3.084  0.00  0.00     0.220 C 
ATOM     20  N   LIG d   1       6.632  -2.541  -3.591  0.00  0.00    -0.315 N 
ATOM     21  H   LIG d   1       6.078  -3.334  -3.666  0.00  0.00     0.149 HD
ATOM     22  O   LIG d   1       6.810  -0.412  -2.991  0.00  0.00    -0.275 OA
BRANCH  20  23
ATOM     23  C   LIG d   1       8.030  -2.580  -4.029  0.00  0.00     0.016 C 
ATOM     24  H   LIG d   1       8.601  -3.227  -3.364  0.00  0.00     0.046 H 
ATOM     25  H   LIG d   1       8.447  -1.574  -4.004  0.00  0.00     0.046 H 
BRANCH  23  26
ATOM     26  C   LIG d   1       8.101  -3.126  -5.457  0.00  0.00    -0.012 C 
ATOM     27  H   LIG d   1       7.181  -3.663  -5.687  0.00  0.00     0.033 H 
ATOM     28  H   LIG d   1       8.949  -3.806  -5.544  0.00  0.00     0.033 H 
BRANCH  26  29
ATOM     29  C   LIG d   1       8.272  -1.983  -6.424  0.00  0.00    -0.046 A 
ATOM     30  C   LIG d   1       7.966  -2.160  -7.761  0.00  0.00    -0.055 A 
ATOM     31  C   LIG d   1       8.120  -1.114  -8.650  0.00  0.00    -0.020 A 
ATOM     32  H   LIG d   1       7.606  -3.116  -8.110  0.00  0.00     0.062 H 
ATOM     33  C   LIG d   1       8.583   0.114  -8.200  0.00  0.00     0.120 A 
ATOM     34  H   LIG d   1       7.881  -1.252  -9.694  0.00  0.00     0.065 H 
ATOM     35  C   LIG d   1       8.889   0.288  -6.859  0.00  0.00    -0.020 A 
ATOM     36  C   LIG d   1       8.727  -0.759  -5.973  0.00  0.00    -0.055 A 
ATOM     37  H   LIG d   1       9.249   1.245  -6.506  0.00  0.00     0.065 H 
ATOM     38  H   LIG d   1       8.961  -0.622  -4.927  0.00  0.00     0.062 H 
BRANCH  33  39
ATOM     39  O   LIG d   1       8.736   1.146  -9.073  0.00  0.00    -0.495 OA
BRANCH  39  40
ATOM     40  C   LIG d   1       8.393   2.451  -8.601  0.00  0.00     0.079 C 
ATOM     41  H   LIG d   1       7.590   2.859  -9.213  0.00  0.00     0.066 H 
ATOM     42  H   LIG d   1       8.065   2.387  -7.564  0.00  0.00     0.066 H 
ATOM     43  H   LIG d   1       9.267   3.100  -8.666  0.00  0.00     0.066 H 
ENDBRANCH  39  40
ENDBRANCH  33  39
ENDBRANCH  26  29
ENDBRANCH  23  26
ENDBRANCH  20  23
ENDBRANCH   1  19
BRANCH  12  44
ATOM     44  C   LIG d   1       3.193  -0.007  -7.222  0.00  0.00     0.040 A 
ATOM     45  C   LIG d   1       3.241  -1.079  -8.102  0.00  0.00     0.005 A 
ATOM     46  C   LIG d   1       3.158  -0.858  -9.467  0.00  0.00     0.168 A 
ATOM     47  H   LIG d   1       3.343  -2.085  -7.722  0.00  0.00     0.067 H 
ATOM     48  C   LIG d   1       3.027   0.441  -9.953  0.00  0.00     0.166 A 
ATOM     49  O   LIG d   1       3.181  -1.721 -10.525  0.00  0.00    -0.453 OA
ATOM     50  C   LIG d   1       2.981   1.508  -9.071  0.00  0.00    -0.014 A 
ATOM     51  O   LIG d   1       2.967   0.391 -11.317  0.00  0.00    -0.453 OA
ATOM     52  C   LIG d   1       3.057   1.287  -7.709  0.00  0.00    -0.037 A 
ATOM     53  H   LIG d   1       2.878   2.515  -9.448  0.00  0.00     0.066 H 
ATOM     54  H   LIG d   1       3.015   2.119  -7.023  0.00  0.00     0.064 H 
ATOM     55  C   LIG d   1       3.473  -0.908 -11.677  0.00  0.00     0.233 C 
ATOM     56  H   LIG d   1       4.548  -0.865 -11.853  0.00  0.00     0.117 H 
ATOM     57  H   LIG d   1       2.957  -1.292 -12.557  0.00  0.00     0.117 H 
ENDBRANCH  12  44
TORSDOF 7
ENDMDL
MODEL 9
REMARK VINA RESULT:      -6.8      3.917      5.629
REMARK  7 active torsions:
REMARK  status: ('A' for Active; 'I' for Inactive)
REMARK    1  A    between atoms: C_1  and  O_2 
REMARK    2  A    between atoms: O_2  and  C_3 
REMARK    3  A    between atoms: C_6  and  C_9 
REMARK    4  A    between atoms: C_9  and  C_10 
REMARK    5  A    between atoms: C_10  and  N_11 
REMARK       I    between atoms: N_11  and  C_12 
REMARK    6  A    between atoms: C_12  and  C_14 
REMARK    7  A    between atoms: N_25  and  C_27 
ROOT
ATOM      1  C   LIG d   1       4.675  -1.320  -2.621  0.00  0.00     0.079 C 
ATOM      2  H   LIG d   1       4.406  -2.210  -2.052  0.00  0.00     0.043 H 
ATOM      3  C   LIG d   1       4.395  -0.008  -1.791  0.00  0.00     0.090 C 
ATOM      4  H   LIG d   1       4.549  -0.080  -0.715  0.00  0.00     0.065 H 
ATOM      5  C   LIG d   1       5.237   1.033  -2.540  0.00  0.00    -0.056 C 
ATOM      6  C   LIG d   1       4.593   1.240  -3.680  0.00  0.00    -0.052 C 
ATOM      7  C   LIG d   1       3.341   0.383  -3.605  0.00  0.00     0.116 C 
ATOM      8  C   LIG d   1       3.753  -1.131  -3.798  0.00  0.00     0.084 C 
ATOM      9  H   LIG d   1       2.869  -1.754  -3.666  0.00  0.00     0.043 H 
ATOM     10  C   LIG d   1       4.123  -1.123  -5.225  0.00  0.00     0.227 C 
ATOM     11  O   LIG d   1       4.995  -1.784  -5.748  0.00  0.00    -0.275 OA
ATOM     12  N   LIG d   1       3.292  -0.225  -5.850  0.00  0.00    -0.268 N 
ATOM     13  C   LIG d   1       2.481   0.506  -4.825  0.00  0.00     0.053 C 
ATOM     14  O   LIG d   1       3.021   0.354  -2.235  0.00  0.00    -0.359 OA
ATOM     15  H   LIG d   1       6.154   1.498  -2.211  0.00  0.00     0.060 H 
ATOM     16  H   LIG d   1       4.895   1.883  -4.493  0.00  0.00     0.060 H 
ATOM     17  H   LIG d   1       1.517   0.020  -4.673  0.00  0.00     0.050 H 
ATOM     18  H   LIG d   1       2.348   1.551  -5.106  0.00  0.00     0.050 H 
ENDROOT
BRANCH   1  19
ATOM     19  C   LIG d   1       6.114  -1.382  -3.066  0.00  0.00     0.220 C 
ATOM     20  N   LIG d   1       6.613  -2.525  -3.576  0.00  0.00    -0.315 N 
ATOM     21  H   LIG d   1       6.047  -3.309  -3.656  0.00  0.00     0.149 HD
ATOM     22  O   LIG d   1       6.823  -0.402  -2.967  0.00  0.00    -0.275 OA
BRANCH  20  23
ATOM     23  C   LIG d   1       8.011  -2.584  -4.010  0.00  0.00     0.016 C 
ATOM     24  H   LIG d   1       8.627  -1.989  -3.335  0.00  0.00     0.046 H 
ATOM     25  H   LIG d   1       8.095  -2.189  -5.021  0.00  0.00     0.046 H 
BRANCH  23  26
ATOM     26  C   LIG d   1       8.491  -4.037  -3.988  0.00  0.00    -0.012 C 
ATOM     27  H   LIG d   1       8.150  -4.546  -4.890  0.00  0.00     0.033 H 
ATOM     28  H   LIG d   1       8.084  -4.542  -3.111  0.00  0.00     0.033 H 
BRANCH  26  29
ATOM     29  C   LIG d   1       9.997  -4.069  -3.932  0.00  0.00    -0.046 A 
ATOM     30  C   LIG d   1      10.727  -3.001  -4.419  0.00  0.00    -0.055 A 
ATOM     31  C   LIG d   1      12.108  -3.026  -4.368  0.00  0.00    -0.020 A 
ATOM     32  H   LIG d   1      10.218  -2.145  -4.839  0.00  0.00     0.062 H 
ATOM     33  C   LIG d   1      12.760  -4.126  -3.829  0.00  0.00     0.120 A 
ATOM     34  H   LIG d   1      12.678  -2.192  -4.748  0.00  0.00     0.065 H 
ATOM     35  C   LIG d   1      12.024  -5.196  -3.342  0.00  0.00    -0.020 A 
ATOM     36  C   LIG d   1      10.644  -5.162  -3.389  0.00  0.00    -0.055 A 
ATOM     37  H   LIG d   1      12.530  -6.053  -2.921  0.00  0.00     0.065 H 
ATOM     38  H   LIG d   1      10.070  -5.993  -3.005  0.00  0.00     0.062 H 
BRANCH  33  39
ATOM     39  O   LIG d   1      14.118  -4.154  -3.778  0.00  0.00    -0.495 OA
BRANCH  39  40
ATOM     40  C   LIG d   1      14.746  -3.352  -2.775  0.00  0.00     0.079 C 
ATOM     41  H   LIG d   1      15.795  -3.634  -2.689  0.00  0.00     0.066 H 
ATOM     42  H   LIG d   1      14.674  -2.300  -3.053  0.00  0.00     0.066 H 
ATOM     43  H   LIG d   1      14.246  -3.510  -1.819  0.00  0.00     0.066 H 
ENDBRANCH  39  40
ENDBRANCH  33  39
ENDBRANCH  26  29
ENDBRANCH  23  26
ENDBRANCH  20  23
ENDBRANCH   1  19
BRANCH  12  44
ATOM     44  C   LIG d   1       3.215  -0.023  -7.234  0.00  0.00     0.040 A 
ATOM     45  C   LIG d   1       3.224  -1.111  -8.096  0.00  0.00     0.005 A 
ATOM     46  C   LIG d   1       3.146  -0.911  -9.464  0.00  0.00     0.168 A 
ATOM     47  H   LIG d   1       3.290  -2.114  -7.699  0.00  0.00     0.067 H 
ATOM     48  C   LIG d   1       3.060   0.382  -9.972  0.00  0.00     0.166 A 
ATOM     49  O   LIG d   1       3.137  -1.793 -10.507  0.00  0.00    -0.453 OA
ATOM     50  C   LIG d   1       3.053   1.466  -9.109  0.00  0.00    -0.014 A 
ATOM     51  O   LIG d   1       2.997   0.311 -11.335  0.00  0.00    -0.453 OA
ATOM     52  C   LIG d   1       3.124   1.266  -7.744  0.00  0.00    -0.037 A 
ATOM     53  H   LIG d   1       2.985   2.469  -9.504  0.00  0.00     0.066 H 
ATOM     54  H   LIG d   1       3.113   2.111  -7.073  0.00  0.00     0.064 H 
ATOM     55  C   LIG d   1       3.456  -1.011 -11.673  0.00  0.00     0.233 C 
ATOM     56  H   LIG d   1       4.531  -1.009 -11.850  0.00  0.00     0.117 H 
ATOM     57  H   LIG d   1       2.925  -1.391 -12.546  0.00  0.00     0.117 H 
ENDBRANCH  12  44
TORSDOF 7
ENDMDL
