MODEL 1
REMARK VINA RESULT:      -5.5      0.000      0.000
REMARK  5 active torsions:
REMARK  status: ('A' for Active; 'I' for Inactive)
REMARK    1  A    between atoms: C_1  and  C_2 
REMARK    2  A    between atoms: C_5  and  C_8 
REMARK    3  A    between atoms: C_8  and  C_9 
REMARK    4  A    between atoms: C_8  and  C_16 
REMARK    5  A    between atoms: C_12  and  C_15 
ROOT
ATOM      1  C   LIG d   1       6.118  -3.586  -4.601  0.00  0.00     0.039 C 
ATOM      2  H   LIG d   1       5.981  -4.480  -3.993  0.00  0.00     0.042 H 
ENDROOT
BRANCH   1   3
ATOM      3  C   LIG d   1       5.679  -2.375  -3.820  0.00  0.00    -0.037 A 
ATOM      4  C   LIG d   1       4.483  -2.394  -3.129  0.00  0.00    -0.058 A 
ATOM      5  C   LIG d   1       4.081  -1.283  -2.410  0.00  0.00    -0.059 A 
ATOM      6  H   LIG d   1       3.861  -3.278  -3.148  0.00  0.00     0.062 H 
ATOM      7  C   LIG d   1       4.876  -0.153  -2.385  0.00  0.00    -0.050 A 
ATOM      8  H   LIG d   1       3.145  -1.299  -1.870  0.00  0.00     0.062 H 
ATOM      9  C   LIG d   1       6.070  -0.131  -3.081  0.00  0.00    -0.059 A 
ATOM     10  C   LIG d   1       6.474  -1.243  -3.795  0.00  0.00    -0.058 A 
ATOM     11  H   LIG d   1       6.689   0.754  -3.064  0.00  0.00     0.062 H 
ATOM     12  H   LIG d   1       7.410  -1.229  -4.335  0.00  0.00     0.062 H 
BRANCH   7  13
ATOM     13  C   LIG d   1       4.438   1.059  -1.603  0.00  0.00    -0.040 C 
ATOM     14  H   LIG d   1       3.356   1.038  -1.475  0.00  0.00     0.028 H 
ATOM     15  H   LIG d   1       4.920   1.054  -0.624  0.00  0.00     0.028 H 
ATOM     16  H   LIG d   1       4.723   1.962  -2.142  0.00  0.00     0.028 H 
ENDBRANCH   7  13
ENDBRANCH   1   3
BRANCH   1  17
ATOM     17  C   LIG d   1       5.290  -3.701  -5.856  0.00  0.00    -0.037 A 
ATOM     18  C   LIG d   1       4.522  -4.829  -6.075  0.00  0.00    -0.058 A 
ATOM     19  C   LIG d   1       3.760  -4.934  -7.224  0.00  0.00    -0.059 A 
ATOM     20  H   LIG d   1       4.515  -5.628  -5.347  0.00  0.00     0.062 H 
ATOM     21  C   LIG d   1       3.772  -3.914  -8.157  0.00  0.00    -0.050 A 
ATOM     22  H   LIG d   1       3.156  -5.813  -7.392  0.00  0.00     0.062 H 
ATOM     23  C   LIG d   1       4.545  -2.788  -7.940  0.00  0.00    -0.059 A 
ATOM     24  C   LIG d   1       5.304  -2.681  -6.789  0.00  0.00    -0.058 A 
ATOM     25  H   LIG d   1       4.554  -1.992  -8.669  0.00  0.00     0.062 H 
ATOM     26  H   LIG d   1       5.906  -1.802  -6.620  0.00  0.00     0.062 H 
BRANCH  21  27
ATOM     27  C   LIG d   1       2.944  -4.030  -9.410  0.00  0.00    -0.040 C 
ATOM     28  H   LIG d   1       3.230  -4.930  -9.954  0.00  0.00     0.028 H 
ATOM     29  H   LIG d   1       1.889  -4.084  -9.145  0.00  0.00     0.028 H 
ATOM     30  H   LIG d   1       3.114  -3.157 -10.040  0.00  0.00     0.028 H 
ENDBRANCH  21  27
ENDBRANCH   1  17
BRANCH   1  31
ATOM     31  C   LIG d   1       7.594  -3.445  -4.975  0.00  0.00     0.118 C 
ATOM     32 CL   LIG d   1       8.615  -3.738  -3.517  0.00  0.00    -0.104 Cl
ATOM     33 CL   LIG d   1       8.008  -4.650  -6.251  0.00  0.00    -0.104 Cl
ATOM     34  H   LIG d   1       7.779  -2.440  -5.352  0.00  0.00     0.064 H 
ENDBRANCH   1  31
TORSDOF 5
ENDMDL
MODEL 2
REMARK VINA RESULT:      -5.2      2.799      5.436
REMARK  5 active torsions:
REMARK  status: ('A' for Active; 'I' for Inactive)
REMARK    1  A    between atoms: C_1  and  C_2 
REMARK    2  A    between atoms: C_5  and  C_8 
REMARK    3  A    between atoms: C_8  and  C_9 
REMARK    4  A    between atoms: C_8  and  C_16 
REMARK    5  A    between atoms: C_12  and  C_15 
ROOT
ATOM      1  C   LIG d   1       8.199  -3.316  -4.863  0.00  0.00     0.039 C 
ATOM      2  H   LIG d   1       8.018  -3.743  -5.850  0.00  0.00     0.042 H 
ENDROOT
BRANCH   1   3
ATOM      3  C   LIG d   1       8.776  -4.373  -3.958  0.00  0.00    -0.037 A 
ATOM      4  C   LIG d   1       9.270  -4.024  -2.715  0.00  0.00    -0.058 A 
ATOM      5  C   LIG d   1       9.800  -4.993  -1.884  0.00  0.00    -0.059 A 
ATOM      6  H   LIG d   1       9.243  -2.993  -2.393  0.00  0.00     0.062 H 
ATOM      7  C   LIG d   1       9.834  -6.312  -2.296  0.00  0.00    -0.050 A 
ATOM      8  H   LIG d   1      10.186  -4.720  -0.913  0.00  0.00     0.062 H 
ATOM      9  C   LIG d   1       9.345  -6.661  -3.541  0.00  0.00    -0.059 A 
ATOM     10  C   LIG d   1       8.812  -5.692  -4.370  0.00  0.00    -0.058 A 
ATOM     11  H   LIG d   1       9.376  -7.691  -3.864  0.00  0.00     0.062 H 
ATOM     12  H   LIG d   1       8.425  -5.965  -5.341  0.00  0.00     0.062 H 
BRANCH   7  13
ATOM     13  C   LIG d   1      10.412  -7.370  -1.390  0.00  0.00    -0.040 C 
ATOM     14  H   LIG d   1      10.228  -7.098  -0.351  0.00  0.00     0.028 H 
ATOM     15  H   LIG d   1       9.938  -8.329  -1.604  0.00  0.00     0.028 H 
ATOM     16  H   LIG d   1      11.485  -7.449  -1.562  0.00  0.00     0.028 H 
ENDBRANCH   7  13
ENDBRANCH   1   3
BRANCH   1  17
ATOM     17  C   LIG d   1       6.899  -2.817  -4.287  0.00  0.00    -0.037 A 
ATOM     18  C   LIG d   1       6.898  -1.754  -3.404  0.00  0.00    -0.058 A 
ATOM     19  C   LIG d   1       5.705  -1.293  -2.878  0.00  0.00    -0.059 A 
ATOM     20  H   LIG d   1       7.829  -1.281  -3.127  0.00  0.00     0.062 H 
ATOM     21  C   LIG d   1       4.514  -1.900  -3.230  0.00  0.00    -0.050 A 
ATOM     22  H   LIG d   1       5.704  -0.459  -2.192  0.00  0.00     0.062 H 
ATOM     23  C   LIG d   1       4.516  -2.967  -4.109  0.00  0.00    -0.059 A 
ATOM     24  C   LIG d   1       5.708  -3.425  -4.638  0.00  0.00    -0.058 A 
ATOM     25  H   LIG d   1       3.585  -3.441  -4.383  0.00  0.00     0.062 H 
ATOM     26  H   LIG d   1       5.708  -4.258  -5.325  0.00  0.00     0.062 H 
BRANCH  21  27
ATOM     27  C   LIG d   1       3.215  -1.399  -2.654  0.00  0.00    -0.040 C 
ATOM     28  H   LIG d   1       3.367  -1.103  -1.616  0.00  0.00     0.028 H 
ATOM     29  H   LIG d   1       2.868  -0.543  -3.230  0.00  0.00     0.028 H 
ATOM     30  H   LIG d   1       2.468  -2.193  -2.698  0.00  0.00     0.028 H 
ENDBRANCH  21  27
ENDBRANCH   1  17
BRANCH   1  31
ATOM     31  C   LIG d   1       9.184  -2.153  -4.984  0.00  0.00     0.118 C 
ATOM     32 CL   LIG d   1      10.806  -2.784  -5.457  0.00  0.00    -0.104 Cl
ATOM     33 CL   LIG d   1       8.599  -0.998  -6.239  0.00  0.00    -0.104 Cl
ATOM     34  H   LIG d   1       9.260  -1.640  -4.026  0.00  0.00     0.064 H 
ENDBRANCH   1  31
TORSDOF 5
ENDMDL
MODEL 3
REMARK VINA RESULT:      -5.2      3.142      4.825
REMARK  5 active torsions:
REMARK  status: ('A' for Active; 'I' for Inactive)
REMARK    1  A    between atoms: C_1  and  C_2 
REMARK    2  A    between atoms: C_5  and  C_8 
REMARK    3  A    between atoms: C_8  and  C_9 
REMARK    4  A    between atoms: C_8  and  C_16 
REMARK    5  A    between atoms: C_12  and  C_15 
ROOT
ATOM      1  C   LIG d   1       4.826  -0.987  -4.587  0.00  0.00     0.039 C 
ATOM      2  H   LIG d   1       5.550  -0.345  -4.085  0.00  0.00     0.042 H 
ENDROOT
BRANCH   1   3
ATOM      3  C   LIG d   1       5.436  -2.343  -4.823  0.00  0.00    -0.037 A 
ATOM      4  C   LIG d   1       4.693  -3.341  -5.427  0.00  0.00    -0.058 A 
ATOM      5  C   LIG d   1       5.254  -4.586  -5.645  0.00  0.00    -0.059 A 
ATOM      6  H   LIG d   1       3.674  -3.148  -5.728  0.00  0.00     0.062 H 
ATOM      7  C   LIG d   1       6.559  -4.832  -5.259  0.00  0.00    -0.050 A 
ATOM      8  H   LIG d   1       4.673  -5.365  -6.116  0.00  0.00     0.062 H 
ATOM      9  C   LIG d   1       7.300  -3.836  -4.651  0.00  0.00    -0.059 A 
ATOM     10  C   LIG d   1       6.741  -2.591  -4.437  0.00  0.00    -0.058 A 
ATOM     11  H   LIG d   1       8.318  -4.031  -4.346  0.00  0.00     0.062 H 
ATOM     12  H   LIG d   1       7.322  -1.811  -3.967  0.00  0.00     0.062 H 
BRANCH   7  13
ATOM     13  C   LIG d   1       7.171  -6.189  -5.496  0.00  0.00    -0.040 C 
ATOM     14  H   LIG d   1       8.060  -6.084  -6.117  0.00  0.00     0.028 H 
ATOM     15  H   LIG d   1       7.446  -6.635  -4.539  0.00  0.00     0.028 H 
ATOM     16  H   LIG d   1       6.448  -6.831  -6.000  0.00  0.00     0.028 H 
ENDBRANCH   7  13
ENDBRANCH   1   3
BRANCH   1  17
ATOM     17  C   LIG d   1       4.440  -0.372  -5.908  0.00  0.00    -0.037 A 
ATOM     18  C   LIG d   1       5.402  -0.160  -6.878  0.00  0.00    -0.058 A 
ATOM     19  C   LIG d   1       5.049   0.400  -8.091  0.00  0.00    -0.059 A 
ATOM     20  H   LIG d   1       6.430  -0.436  -6.689  0.00  0.00     0.062 H 
ATOM     21  C   LIG d   1       3.735   0.756  -8.332  0.00  0.00    -0.050 A 
ATOM     22  H   LIG d   1       5.799   0.560  -8.851  0.00  0.00     0.062 H 
ATOM     23  C   LIG d   1       2.774   0.549  -7.360  0.00  0.00    -0.059 A 
ATOM     24  C   LIG d   1       3.126  -0.015  -6.148  0.00  0.00    -0.058 A 
ATOM     25  H   LIG d   1       1.748   0.827  -7.548  0.00  0.00     0.062 H 
ATOM     26  H   LIG d   1       2.376  -0.177  -5.389  0.00  0.00     0.062 H 
BRANCH  21  27
ATOM     27  C   LIG d   1       3.350   1.370  -9.653  0.00  0.00    -0.040 C 
ATOM     28  H   LIG d   1       3.922   2.284  -9.809  0.00  0.00     0.028 H 
ATOM     29  H   LIG d   1       3.563   0.665 -10.457  0.00  0.00     0.028 H 
ATOM     30  H   LIG d   1       2.286   1.604  -9.649  0.00  0.00     0.028 H 
ENDBRANCH  21  27
ENDBRANCH   1  17
BRANCH   1  31
ATOM     31  C   LIG d   1       3.581  -1.133  -3.710  0.00  0.00     0.118 C 
ATOM     32 CL   LIG d   1       3.887  -2.370  -2.433  0.00  0.00    -0.104 Cl
ATOM     33 CL   LIG d   1       3.203   0.450  -2.935  0.00  0.00    -0.104 Cl
ATOM     34  H   LIG d   1       2.738  -1.447  -4.325  0.00  0.00     0.064 H 
ENDBRANCH   1  31
TORSDOF 5
ENDMDL
MODEL 4
REMARK VINA RESULT:      -5.2      2.920      4.889
REMARK  5 active torsions:
REMARK  status: ('A' for Active; 'I' for Inactive)
REMARK    1  A    between atoms: C_1  and  C_2 
REMARK    2  A    between atoms: C_5  and  C_8 
REMARK    3  A    between atoms: C_8  and  C_9 
REMARK    4  A    between atoms: C_8  and  C_16 
REMARK    5  A    between atoms: C_12  and  C_15 
ROOT
ATOM      1  C   LIG d   1       5.006  -1.272  -3.571  0.00  0.00     0.039 C 
ATOM      2  H   LIG d   1       4.208  -1.723  -2.981  0.00  0.00     0.042 H 
ENDROOT
BRANCH   1   3
ATOM      3  C   LIG d   1       4.423  -0.665  -4.821  0.00  0.00    -0.037 A 
ATOM      4  C   LIG d   1       5.136  -0.699  -6.004  0.00  0.00    -0.058 A 
ATOM      5  C   LIG d   1       4.601  -0.143  -7.151  0.00  0.00    -0.059 A 
ATOM      6  H   LIG d   1       6.112  -1.162  -6.034  0.00  0.00     0.062 H 
ATOM      7  C   LIG d   1       3.352   0.448  -7.113  0.00  0.00    -0.050 A 
ATOM      8  H   LIG d   1       5.159  -0.170  -8.075  0.00  0.00     0.062 H 
ATOM      9  C   LIG d   1       2.641   0.487  -5.929  0.00  0.00    -0.059 A 
ATOM     10  C   LIG d   1       3.174  -0.073  -4.784  0.00  0.00    -0.058 A 
ATOM     11  H   LIG d   1       1.666   0.953  -5.899  0.00  0.00     0.062 H 
ATOM     12  H   LIG d   1       2.616  -0.047  -3.859  0.00  0.00     0.062 H 
BRANCH   7  13
ATOM     13  C   LIG d   1       2.768   1.056  -8.363  0.00  0.00    -0.040 C 
ATOM     14  H   LIG d   1       2.603   2.122  -8.206  0.00  0.00     0.028 H 
ATOM     15  H   LIG d   1       3.461   0.914  -9.194  0.00  0.00     0.028 H 
ATOM     16  H   LIG d   1       1.821   0.571  -8.595  0.00  0.00     0.028 H 
ENDBRANCH   7  13
ENDBRANCH   1   3
BRANCH   1  17
ATOM     17  C   LIG d   1       6.011  -2.330  -3.949  0.00  0.00    -0.037 A 
ATOM     18  C   LIG d   1       7.320  -2.223  -3.521  0.00  0.00    -0.058 A 
ATOM     19  C   LIG d   1       8.242  -3.195  -3.863  0.00  0.00    -0.059 A 
ATOM     20  H   LIG d   1       7.624  -1.380  -2.916  0.00  0.00     0.062 H 
ATOM     21  C   LIG d   1       7.855  -4.271  -4.640  0.00  0.00    -0.050 A 
ATOM     22  H   LIG d   1       9.264  -3.114  -3.525  0.00  0.00     0.062 H 
ATOM     23  C   LIG d   1       6.546  -4.376  -5.073  0.00  0.00    -0.059 A 
ATOM     24  C   LIG d   1       5.623  -3.405  -4.727  0.00  0.00    -0.058 A 
ATOM     25  H   LIG d   1       6.244  -5.216  -5.680  0.00  0.00     0.062 H 
ATOM     26  H   LIG d   1       4.602  -3.488  -5.065  0.00  0.00     0.062 H 
BRANCH  21  27
ATOM     27  C   LIG d   1       8.860  -5.329  -5.017  0.00  0.00    -0.040 C 
ATOM     28  H   LIG d   1       8.370  -6.302  -5.046  0.00  0.00     0.028 H 
ATOM     29  H   LIG d   1       9.278  -5.101  -5.997  0.00  0.00     0.028 H 
ATOM     30  H   LIG d   1       9.661  -5.348  -4.277  0.00  0.00     0.028 H 
ENDBRANCH  21  27
ENDBRANCH   1  17
BRANCH   1  31
ATOM     31  C   LIG d   1       5.696  -0.183  -2.748  0.00  0.00     0.118 C 
ATOM     32 CL   LIG d   1       6.411   1.047  -3.857  0.00  0.00    -0.104 Cl
ATOM     33 CL   LIG d   1       4.489   0.610  -1.669  0.00  0.00    -0.104 Cl
ATOM     34  H   LIG d   1       6.485  -0.630  -2.144  0.00  0.00     0.064 H 
ENDBRANCH   1  31
TORSDOF 5
ENDMDL
MODEL 5
REMARK VINA RESULT:      -5.2      2.239      5.463
REMARK  5 active torsions:
REMARK  status: ('A' for Active; 'I' for Inactive)
REMARK    1  A    between atoms: C_1  and  C_2 
REMARK    2  A    between atoms: C_5  and  C_8 
REMARK    3  A    between atoms: C_8  and  C_9 
REMARK    4  A    between atoms: C_8  and  C_16 
REMARK    5  A    between atoms: C_12  and  C_15 
ROOT
ATOM      1  C   LIG d   1       6.800  -3.263  -4.619  0.00  0.00     0.039 C 
ATOM      2  H   LIG d   1       6.340  -4.202  -4.310  0.00  0.00     0.042 H 
ENDROOT
BRANCH   1   3
ATOM      3  C   LIG d   1       8.282  -3.321  -4.357  0.00  0.00    -0.037 A 
ATOM      4  C   LIG d   1       8.759  -3.940  -3.217  0.00  0.00    -0.058 A 
ATOM      5  C   LIG d   1      10.120  -3.994  -2.977  0.00  0.00    -0.059 A 
ATOM      6  H   LIG d   1       8.069  -4.383  -2.513  0.00  0.00     0.062 H 
ATOM      7  C   LIG d   1      11.002  -3.428  -3.878  0.00  0.00    -0.050 A 
ATOM      8  H   LIG d   1      10.492  -4.477  -2.086  0.00  0.00     0.062 H 
ATOM      9  C   LIG d   1      10.525  -2.805  -5.015  0.00  0.00    -0.059 A 
ATOM     10  C   LIG d   1       9.166  -2.755  -5.257  0.00  0.00    -0.058 A 
ATOM     11  H   LIG d   1      11.216  -2.359  -5.717  0.00  0.00     0.062 H 
ATOM     12  H   LIG d   1       8.792  -2.272  -6.149  0.00  0.00     0.062 H 
BRANCH   7  13
ATOM     13  C   LIG d   1      12.486  -3.486  -3.616  0.00  0.00    -0.040 C 
ATOM     14  H   LIG d   1      12.679  -3.260  -2.567  0.00  0.00     0.028 H 
ATOM     15  H   LIG d   1      12.857  -4.486  -3.847  0.00  0.00     0.028 H 
ATOM     16  H   LIG d   1      12.994  -2.756  -4.246  0.00  0.00     0.028 H 
ENDBRANCH   7  13
ENDBRANCH   1   3
BRANCH   1  17
ATOM     17  C   LIG d   1       6.195  -2.127  -3.836  0.00  0.00    -0.037 A 
ATOM     18  C   LIG d   1       5.068  -2.342  -3.065  0.00  0.00    -0.058 A 
ATOM     19  C   LIG d   1       4.515  -1.300  -2.343  0.00  0.00    -0.059 A 
ATOM     20  H   LIG d   1       4.621  -3.325  -3.023  0.00  0.00     0.062 H 
ATOM     21  C   LIG d   1       5.084  -0.042  -2.398  0.00  0.00    -0.050 A 
ATOM     22  H   LIG d   1       3.638  -1.470  -1.736  0.00  0.00     0.062 H 
ATOM     23  C   LIG d   1       6.208   0.175  -3.174  0.00  0.00    -0.059 A 
ATOM     24  C   LIG d   1       6.764  -0.868  -3.893  0.00  0.00    -0.058 A 
ATOM     25  H   LIG d   1       6.653   1.158  -3.217  0.00  0.00     0.062 H 
ATOM     26  H   LIG d   1       7.641  -0.698  -4.498  0.00  0.00     0.062 H 
BRANCH  21  27
ATOM     27  C   LIG d   1       4.479   1.094  -1.614  0.00  0.00    -0.040 C 
ATOM     28  H   LIG d   1       5.096   1.302  -0.741  0.00  0.00     0.028 H 
ATOM     29  H   LIG d   1       4.426   1.982  -2.243  0.00  0.00     0.028 H 
ATOM     30  H   LIG d   1       3.475   0.818  -1.292  0.00  0.00     0.028 H 
ENDBRANCH  21  27
ENDBRANCH   1  17
BRANCH   1  31
ATOM     31  C   LIG d   1       6.553  -3.042  -6.112  0.00  0.00     0.118 C 
ATOM     32 CL   LIG d   1       6.755  -4.603  -6.993  0.00  0.00    -0.104 Cl
ATOM     33 CL   LIG d   1       4.878  -2.424  -6.359  0.00  0.00    -0.104 Cl
ATOM     34  H   LIG d   1       7.269  -2.315  -6.494  0.00  0.00     0.064 H 
ENDBRANCH   1  31
TORSDOF 5
ENDMDL
MODEL 6
REMARK VINA RESULT:      -5.1      3.386      6.838
REMARK  5 active torsions:
REMARK  status: ('A' for Active; 'I' for Inactive)
REMARK    1  A    between atoms: C_1  and  C_2 
REMARK    2  A    between atoms: C_5  and  C_8 
REMARK    3  A    between atoms: C_8  and  C_9 
REMARK    4  A    between atoms: C_8  and  C_16 
REMARK    5  A    between atoms: C_12  and  C_15 
ROOT
ATOM      1  C   LIG d   1       3.954   0.117  -8.295  0.00  0.00     0.039 C 
ATOM      2  H   LIG d   1       3.730   1.156  -8.540  0.00  0.00     0.042 H 
ENDROOT
BRANCH   1   3
ATOM      3  C   LIG d   1       3.061  -0.791  -9.100  0.00  0.00    -0.037 A 
ATOM      4  C   LIG d   1       2.094  -0.254  -9.928  0.00  0.00    -0.058 A 
ATOM      5  C   LIG d   1       1.275  -1.088 -10.667  0.00  0.00    -0.059 A 
ATOM      6  H   LIG d   1       1.977   0.817  -9.998  0.00  0.00     0.062 H 
ATOM      7  C   LIG d   1       1.425  -2.459 -10.577  0.00  0.00    -0.050 A 
ATOM      8  H   LIG d   1       0.519  -0.668 -11.314  0.00  0.00     0.062 H 
ATOM      9  C   LIG d   1       2.389  -2.997  -9.745  0.00  0.00    -0.059 A 
ATOM     10  C   LIG d   1       3.210  -2.163  -9.010  0.00  0.00    -0.058 A 
ATOM     11  H   LIG d   1       2.503  -4.069  -9.672  0.00  0.00     0.062 H 
ATOM     12  H   LIG d   1       3.967  -2.583  -8.363  0.00  0.00     0.062 H 
BRANCH   7  13
ATOM     13  C   LIG d   1       0.532  -3.369 -11.382  0.00  0.00    -0.040 C 
ATOM     14  H   LIG d   1      -0.229  -2.776 -11.888  0.00  0.00     0.028 H 
ATOM     15  H   LIG d   1       1.130  -3.902 -12.123  0.00  0.00     0.028 H 
ATOM     16  H   LIG d   1       0.053  -4.088 -10.718  0.00  0.00     0.028 H 
ENDBRANCH   7  13
ENDBRANCH   1   3
BRANCH   1  17
ATOM     17  C   LIG d   1       3.714  -0.116  -6.825  0.00  0.00    -0.037 A 
ATOM     18  C   LIG d   1       2.651   0.501  -6.193  0.00  0.00    -0.058 A 
ATOM     19  C   LIG d   1       2.428   0.285  -4.846  0.00  0.00    -0.059 A 
ATOM     20  H   LIG d   1       1.992   1.149  -6.753  0.00  0.00     0.062 H 
ATOM     21  C   LIG d   1       3.273  -0.542  -4.129  0.00  0.00    -0.050 A 
ATOM     22  H   LIG d   1       1.594   0.762  -4.353  0.00  0.00     0.062 H 
ATOM     23  C   LIG d   1       4.340  -1.154  -4.761  0.00  0.00    -0.059 A 
ATOM     24  C   LIG d   1       4.561  -0.941  -6.109  0.00  0.00    -0.058 A 
ATOM     25  H   LIG d   1       5.000  -1.799  -4.201  0.00  0.00     0.062 H 
ATOM     26  H   LIG d   1       5.393  -1.419  -6.601  0.00  0.00     0.062 H 
BRANCH  21  27
ATOM     27  C   LIG d   1       3.032  -0.774  -2.660  0.00  0.00    -0.040 C 
ATOM     28  H   LIG d   1       2.914   0.184  -2.155  0.00  0.00     0.028 H 
ATOM     29  H   LIG d   1       2.129  -1.369  -2.530  0.00  0.00     0.028 H 
ATOM     30  H   LIG d   1       3.882  -1.306  -2.233  0.00  0.00     0.028 H 
ENDBRANCH  21  27
ENDBRANCH   1  17
BRANCH   1  31
ATOM     31  C   LIG d   1       5.417  -0.180  -8.627  0.00  0.00     0.118 C 
ATOM     32 CL   LIG d   1       5.612  -0.320 -10.414  0.00  0.00    -0.104 Cl
ATOM     33 CL   LIG d   1       6.456   1.158  -8.011  0.00  0.00    -0.104 Cl
ATOM     34  H   LIG d   1       5.713  -1.117  -8.155  0.00  0.00     0.064 H 
ENDBRANCH   1  31
TORSDOF 5
ENDMDL
MODEL 7
REMARK VINA RESULT:      -5.0      2.263      4.683
REMARK  5 active torsions:
REMARK  status: ('A' for Active; 'I' for Inactive)
REMARK    1  A    between atoms: C_1  and  C_2 
REMARK    2  A    between atoms: C_5  and  C_8 
REMARK    3  A    between atoms: C_8  and  C_9 
REMARK    4  A    between atoms: C_8  and  C_16 
REMARK    5  A    between atoms: C_12  and  C_15 
ROOT
ATOM      1  C   LIG d   1       6.910  -2.830  -5.145  0.00  0.00     0.039 C 
ATOM      2  H   LIG d   1       6.918  -2.425  -6.157  0.00  0.00     0.042 H 
ENDROOT
BRANCH   1   3
ATOM      3  C   LIG d   1       6.291  -1.826  -4.208  0.00  0.00    -0.037 A 
ATOM      4  C   LIG d   1       5.277  -2.213  -3.352  0.00  0.00    -0.058 A 
ATOM      5  C   LIG d   1       4.710  -1.292  -2.491  0.00  0.00    -0.059 A 
ATOM      6  H   LIG d   1       4.927  -3.235  -3.356  0.00  0.00     0.062 H 
ATOM      7  C   LIG d   1       5.158   0.016  -2.486  0.00  0.00    -0.050 A 
ATOM      8  H   LIG d   1       3.917  -1.594  -1.823  0.00  0.00     0.062 H 
ATOM      9  C   LIG d   1       6.169   0.404  -3.345  0.00  0.00    -0.059 A 
ATOM     10  C   LIG d   1       6.739  -0.518  -4.202  0.00  0.00    -0.058 A 
ATOM     11  H   LIG d   1       6.516   1.427  -3.344  0.00  0.00     0.062 H 
ATOM     12  H   LIG d   1       7.533  -0.216  -4.871  0.00  0.00     0.062 H 
BRANCH   7  13
ATOM     13  C   LIG d   1       4.540   1.021  -1.548  0.00  0.00    -0.040 C 
ATOM     14  H   LIG d   1       5.299   1.733  -1.226  0.00  0.00     0.028 H 
ATOM     15  H   LIG d   1       3.738   1.553  -2.063  0.00  0.00     0.028 H 
ATOM     16  H   LIG d   1       4.132   0.504  -0.679  0.00  0.00     0.028 H 
ENDBRANCH   7  13
ENDBRANCH   1   3
BRANCH   1  17
ATOM     17  C   LIG d   1       8.324  -3.120  -4.710  0.00  0.00    -0.037 A 
ATOM     18  C   LIG d   1       9.378  -2.840  -5.558  0.00  0.00    -0.058 A 
ATOM     19  C   LIG d   1      10.676  -3.101  -5.157  0.00  0.00    -0.059 A 
ATOM     20  H   LIG d   1       9.190  -2.414  -6.533  0.00  0.00     0.062 H 
ATOM     21  C   LIG d   1      10.917  -3.650  -3.912  0.00  0.00    -0.050 A 
ATOM     22  H   LIG d   1      11.500  -2.878  -5.818  0.00  0.00     0.062 H 
ATOM     23  C   LIG d   1       9.862  -3.935  -3.066  0.00  0.00    -0.059 A 
ATOM     24  C   LIG d   1       8.564  -3.669  -3.464  0.00  0.00    -0.058 A 
ATOM     25  H   LIG d   1      10.051  -4.363  -2.093  0.00  0.00     0.062 H 
ATOM     26  H   LIG d   1       7.741  -3.892  -2.803  0.00  0.00     0.062 H 
BRANCH  21  27
ATOM     27  C   LIG d   1      12.331  -3.938  -3.477  0.00  0.00    -0.040 C 
ATOM     28  H   LIG d   1      12.666  -3.162  -2.790  0.00  0.00     0.028 H 
ATOM     29  H   LIG d   1      12.368  -4.907  -2.979  0.00  0.00     0.028 H 
ATOM     30  H   LIG d   1      12.983  -3.955  -4.351  0.00  0.00     0.028 H 
ENDBRANCH  21  27
ENDBRANCH   1  17
BRANCH   1  31
ATOM     31  C   LIG d   1       6.093  -4.123  -5.120  0.00  0.00     0.118 C 
ATOM     32 CL   LIG d   1       4.622  -3.926  -6.145  0.00  0.00    -0.104 Cl
ATOM     33 CL   LIG d   1       7.095  -5.478  -5.761  0.00  0.00    -0.104 Cl
ATOM     34  H   LIG d   1       5.795  -4.345  -4.096  0.00  0.00     0.064 H 
ENDBRANCH   1  31
TORSDOF 5
ENDMDL
MODEL 8
REMARK VINA RESULT:      -5.0      2.305      3.034
REMARK  5 active torsions:
REMARK  status: ('A' for Active; 'I' for Inactive)
REMARK    1  A    between atoms: C_1  and  C_2 
REMARK    2  A    between atoms: C_5  and  C_8 
REMARK    3  A    between atoms: C_8  and  C_9 
REMARK    4  A    between atoms: C_8  and  C_16 
REMARK    5  A    between atoms: C_12  and  C_15 
ROOT
ATOM      1  C   LIG d   1       4.655  -2.199  -6.269  0.00  0.00     0.039 C 
ATOM      2  H   LIG d   1       3.846  -2.928  -6.233  0.00  0.00     0.042 H 
ENDROOT
BRANCH   1   3
ATOM      3  C   LIG d   1       4.652  -1.384  -5.003  0.00  0.00    -0.037 A 
ATOM      4  C   LIG d   1       3.723  -1.646  -4.014  0.00  0.00    -0.058 A 
ATOM      5  C   LIG d   1       3.721  -0.898  -2.851  0.00  0.00    -0.059 A 
ATOM      6  H   LIG d   1       2.998  -2.435  -4.149  0.00  0.00     0.062 H 
ATOM      7  C   LIG d   1       4.649   0.111  -2.677  0.00  0.00    -0.050 A 
ATOM      8  H   LIG d   1       2.994  -1.103  -2.078  0.00  0.00     0.062 H 
ATOM      9  C   LIG d   1       5.575   0.377  -3.668  0.00  0.00    -0.059 A 
ATOM     10  C   LIG d   1       5.580  -0.373  -4.829  0.00  0.00    -0.058 A 
ATOM     11  H   LIG d   1       6.297   1.169  -3.534  0.00  0.00     0.062 H 
ATOM     12  H   LIG d   1       6.307  -0.169  -5.601  0.00  0.00     0.062 H 
BRANCH   7  13
ATOM     13  C   LIG d   1       4.647   0.927  -1.410  0.00  0.00    -0.040 C 
ATOM     14  H   LIG d   1       3.720   0.749  -0.864  0.00  0.00     0.028 H 
ATOM     15  H   LIG d   1       5.495   0.636  -0.789  0.00  0.00     0.028 H 
ATOM     16  H   LIG d   1       4.725   1.985  -1.658  0.00  0.00     0.028 H 
ENDBRANCH   7  13
ENDBRANCH   1   3
BRANCH   1  17
ATOM     17  C   LIG d   1       4.458  -1.288  -7.454  0.00  0.00    -0.037 A 
ATOM     18  C   LIG d   1       5.508  -1.038  -8.316  0.00  0.00    -0.058 A 
ATOM     19  C   LIG d   1       5.327  -0.205  -9.404  0.00  0.00    -0.059 A 
ATOM     20  H   LIG d   1       6.471  -1.495  -8.141  0.00  0.00     0.062 H 
ATOM     21  C   LIG d   1       4.096   0.384  -9.626  0.00  0.00    -0.050 A 
ATOM     22  H   LIG d   1       6.146  -0.014 -10.081  0.00  0.00     0.062 H 
ATOM     23  C   LIG d   1       3.046   0.138  -8.761  0.00  0.00    -0.059 A 
ATOM     24  C   LIG d   1       3.227  -0.698  -7.674  0.00  0.00    -0.058 A 
ATOM     25  H   LIG d   1       2.085   0.598  -8.934  0.00  0.00     0.062 H 
ATOM     26  H   LIG d   1       2.407  -0.890  -6.999  0.00  0.00     0.062 H 
BRANCH  21  27
ATOM     27  C   LIG d   1       3.899   1.294 -10.811  0.00  0.00    -0.040 C 
ATOM     28  H   LIG d   1       3.039   0.957 -11.390  0.00  0.00     0.028 H 
ATOM     29  H   LIG d   1       3.727   2.312 -10.463  0.00  0.00     0.028 H 
ATOM     30  H   LIG d   1       4.790   1.271 -11.439  0.00  0.00     0.028 H 
ENDBRANCH  21  27
ENDBRANCH   1  17
BRANCH   1  31
ATOM     31  C   LIG d   1       5.993  -2.928  -6.404  0.00  0.00     0.118 C 
ATOM     32 CL   LIG d   1       6.490  -3.575  -4.796  0.00  0.00    -0.104 Cl
ATOM     33 CL   LIG d   1       5.820  -4.290  -7.573  0.00  0.00    -0.104 Cl
ATOM     34  H   LIG d   1       6.751  -2.233  -6.766  0.00  0.00     0.064 H 
ENDBRANCH   1  31
TORSDOF 5
ENDMDL
MODEL 9
REMARK VINA RESULT:      -5.0      2.103      5.560
REMARK  5 active torsions:
REMARK  status: ('A' for Active; 'I' for Inactive)
REMARK    1  A    between atoms: C_1  and  C_2 
REMARK    2  A    between atoms: C_5  and  C_8 
REMARK    3  A    between atoms: C_8  and  C_9 
REMARK    4  A    between atoms: C_8  and  C_16 
REMARK    5  A    between atoms: C_12  and  C_15 
ROOT
ATOM      1  C   LIG d   1       4.947  -3.179  -5.807  0.00  0.00     0.039 C 
ATOM      2  H   LIG d   1       3.990  -3.691  -5.916  0.00  0.00     0.042 H 
ENDROOT
BRANCH   1   3
ATOM      3  C   LIG d   1       6.022  -4.186  -5.493  0.00  0.00    -0.037 A 
ATOM      4  C   LIG d   1       5.781  -5.534  -5.674  0.00  0.00    -0.058 A 
ATOM      5  C   LIG d   1       6.768  -6.459  -5.386  0.00  0.00    -0.059 A 
ATOM      6  H   LIG d   1       4.821  -5.867  -6.042  0.00  0.00     0.062 H 
ATOM      7  C   LIG d   1       7.996  -6.033  -4.917  0.00  0.00    -0.050 A 
ATOM      8  H   LIG d   1       6.579  -7.513  -5.528  0.00  0.00     0.062 H 
ATOM      9  C   LIG d   1       8.236  -4.684  -4.730  0.00  0.00    -0.059 A 
ATOM     10  C   LIG d   1       7.251  -3.761  -5.022  0.00  0.00    -0.058 A 
ATOM     11  H   LIG d   1       9.195  -4.353  -4.359  0.00  0.00     0.062 H 
ATOM     12  H   LIG d   1       7.439  -2.706  -4.881  0.00  0.00     0.062 H 
BRANCH   7  13
ATOM     13  C   LIG d   1       9.073  -7.040  -4.602  0.00  0.00    -0.040 C 
ATOM     14  H   LIG d   1       9.737  -6.636  -3.838  0.00  0.00     0.028 H 
ATOM     15  H   LIG d   1       8.614  -7.959  -4.234  0.00  0.00     0.028 H 
ATOM     16  H   LIG d   1       9.644  -7.255  -5.504  0.00  0.00     0.028 H 
ENDBRANCH   7  13
ENDBRANCH   1   3
BRANCH   1  17
ATOM     17  C   LIG d   1       4.854  -2.175  -4.686  0.00  0.00    -0.037 A 
ATOM     18  C   LIG d   1       5.297  -0.881  -4.880  0.00  0.00    -0.058 A 
ATOM     19  C   LIG d   1       5.209   0.041  -3.854  0.00  0.00    -0.059 A 
ATOM     20  H   LIG d   1       5.709  -0.588  -5.835  0.00  0.00     0.062 H 
ATOM     21  C   LIG d   1       4.685  -0.334  -2.631  0.00  0.00    -0.050 A 
ATOM     22  H   LIG d   1       5.550   1.054  -4.007  0.00  0.00     0.062 H 
ATOM     23  C   LIG d   1       4.248  -1.631  -2.435  0.00  0.00    -0.059 A 
ATOM     24  C   LIG d   1       4.332  -2.552  -3.463  0.00  0.00    -0.058 A 
ATOM     25  H   LIG d   1       3.839  -1.923  -1.480  0.00  0.00     0.062 H 
ATOM     26  H   LIG d   1       3.990  -3.564  -3.310  0.00  0.00     0.062 H 
BRANCH  21  27
ATOM     27  C   LIG d   1       4.593   0.670  -1.511  0.00  0.00    -0.040 C 
ATOM     28  H   LIG d   1       5.083   1.596  -1.811  0.00  0.00     0.028 H 
ATOM     29  H   LIG d   1       3.546   0.868  -1.286  0.00  0.00     0.028 H 
ATOM     30  H   LIG d   1       5.085   0.271  -0.624  0.00  0.00     0.028 H 
ENDBRANCH  21  27
ENDBRANCH   1  17
BRANCH   1  31
ATOM     31  C   LIG d   1       5.289  -2.457  -7.112  0.00  0.00     0.118 C 
ATOM     32 CL   LIG d   1       6.089  -3.610  -8.245  0.00  0.00    -0.104 Cl
ATOM     33 CL   LIG d   1       3.777  -1.826  -7.864  0.00  0.00    -0.104 Cl
ATOM     34  H   LIG d   1       5.964  -1.628  -6.901  0.00  0.00     0.064 H 
ENDBRANCH   1  31
TORSDOF 5
ENDMDL
MODEL 10
REMARK VINA RESULT:      -5.0      2.951      4.352
REMARK  5 active torsions:
REMARK  status: ('A' for Active; 'I' for Inactive)
REMARK    1  A    between atoms: C_1  and  C_2 
REMARK    2  A    between atoms: C_5  and  C_8 
REMARK    3  A    between atoms: C_8  and  C_9 
REMARK    4  A    between atoms: C_8  and  C_16 
REMARK    5  A    between atoms: C_12  and  C_15 
ROOT
ATOM      1  C   LIG d   1       5.208  -0.729  -4.167  0.00  0.00     0.039 C 
ATOM      2  H   LIG d   1       4.300  -0.437  -4.696  0.00  0.00     0.042 H 
ENDROOT
BRANCH   1   3
ATOM      3  C   LIG d   1       6.319   0.229  -4.512  0.00  0.00    -0.037 A 
ATOM      4  C   LIG d   1       6.883   1.017  -3.526  0.00  0.00    -0.058 A 
ATOM      5  C   LIG d   1       7.903   1.895  -3.841  0.00  0.00    -0.059 A 
ATOM      6  H   LIG d   1       6.527   0.947  -2.508  0.00  0.00     0.062 H 
ATOM      7  C   LIG d   1       8.359   1.984  -5.143  0.00  0.00    -0.050 A 
ATOM      8  H   LIG d   1       8.343   2.511  -3.071  0.00  0.00     0.062 H 
ATOM      9  C   LIG d   1       7.792   1.200  -6.130  0.00  0.00    -0.059 A 
ATOM     10  C   LIG d   1       6.775   0.319  -5.814  0.00  0.00    -0.058 A 
ATOM     11  H   LIG d   1       8.146   1.273  -7.148  0.00  0.00     0.062 H 
ATOM     12  H   LIG d   1       6.335  -0.298  -6.584  0.00  0.00     0.062 H 
BRANCH   7  13
ATOM     13  C   LIG d   1       9.471   2.942  -5.488  0.00  0.00    -0.040 C 
ATOM     14  H   LIG d   1       9.206   3.943  -5.150  0.00  0.00     0.028 H 
ATOM     15  H   LIG d   1      10.390   2.623  -4.996  0.00  0.00     0.028 H 
ATOM     16  H   LIG d   1       9.621   2.950  -6.567  0.00  0.00     0.028 H 
ENDBRANCH   7  13
ENDBRANCH   1   3
BRANCH   1  17
ATOM     17  C   LIG d   1       5.602  -2.124  -4.579  0.00  0.00    -0.037 A 
ATOM     18  C   LIG d   1       4.742  -2.886  -5.347  0.00  0.00    -0.058 A 
ATOM     19  C   LIG d   1       5.104  -4.165  -5.729  0.00  0.00    -0.059 A 
ATOM     20  H   LIG d   1       3.787  -2.482  -5.652  0.00  0.00     0.062 H 
ATOM     21  C   LIG d   1       6.323  -4.684  -5.335  0.00  0.00    -0.050 A 
ATOM     22  H   LIG d   1       4.434  -4.758  -6.333  0.00  0.00     0.062 H 
ATOM     23  C   LIG d   1       7.181  -3.924  -4.563  0.00  0.00    -0.059 A 
ATOM     24  C   LIG d   1       6.821  -2.643  -4.185  0.00  0.00    -0.058 A 
ATOM     25  H   LIG d   1       8.134  -4.329  -4.256  0.00  0.00     0.062 H 
ATOM     26  H   LIG d   1       7.491  -2.050  -3.582  0.00  0.00     0.062 H 
BRANCH  21  27
ATOM     27  C   LIG d   1       6.716  -6.079  -5.748  0.00  0.00    -0.040 C 
ATOM     28  H   LIG d   1       6.206  -6.803  -5.115  0.00  0.00     0.028 H 
ATOM     29  H   LIG d   1       6.436  -6.242  -6.788  0.00  0.00     0.028 H 
ATOM     30  H   LIG d   1       7.795  -6.199  -5.640  0.00  0.00     0.028 H 
ENDBRANCH  21  27
ENDBRANCH   1  17
BRANCH   1  31
ATOM     31  C   LIG d   1       4.953  -0.695  -2.659  0.00  0.00     0.118 C 
ATOM     32 CL   LIG d   1       4.037   0.801  -2.238  0.00  0.00    -0.104 Cl
ATOM     33 CL   LIG d   1       3.993  -2.143  -2.180  0.00  0.00    -0.104 Cl
ATOM     34  H   LIG d   1       5.905  -0.698  -2.130  0.00  0.00     0.064 H 
ENDBRANCH   1  31
TORSDOF 5
ENDMDL
