MODEL 1
REMARK VINA RESULT:      -5.8      0.000      0.000
REMARK  6 active torsions:
REMARK  status: ('A' for Active; 'I' for Inactive)
REMARK    1  A    between atoms: N_3  and  C_10 
REMARK    2  A    between atoms: C_12  and  O_26 
REMARK    3  A    between atoms: C_14  and  O_25 
REMARK    4  A    between atoms: C_16  and  C_19 
REMARK    5  A    between atoms: C_19  and  O_20 
REMARK    6  A    between atoms: O_20  and  P_21 
ROOT
ATOM      1  C   LIG d   1       9.794   9.029  -2.701  0.00  0.00     0.168 C 
ATOM      2  H   LIG d   1       8.957   8.331  -2.705  0.00  0.00     0.087 H 
ATOM      3  C   LIG d   1       9.361  10.385  -2.101  0.00  0.00     0.129 C 
ATOM      4  H   LIG d   1      10.186  10.845  -1.557  0.00  0.00     0.067 H 
ATOM      5  C   LIG d   1       8.984  11.238  -3.333  0.00  0.00     0.114 C 
ATOM      6  H   LIG d   1       9.623  12.119  -3.398  0.00  0.00     0.065 H 
ATOM      7  C   LIG d   1       9.234  10.296  -4.532  0.00  0.00     0.113 C 
ATOM      8  H   LIG d   1       8.311   9.793  -4.818  0.00  0.00     0.065 H 
ATOM      9  O   LIG d   1      10.201   9.335  -4.052  0.00  0.00    -0.346 OA
ENDROOT
BRANCH   1  10
ATOM     10  N   LIG d   1      10.918   8.473  -1.944  0.00  0.00    -0.272 N 
ATOM     11  C   LIG d   1      12.200   8.784  -2.306  0.00  0.00     0.017 A 
ATOM     12  C   LIG d   1      13.235   8.270  -1.608  0.00  0.00     0.019 A 
ATOM     13  H   LIG d   1      12.383   9.437  -3.147  0.00  0.00     0.081 H 
ATOM     14  C   LIG d   1      12.971   7.417  -0.511  0.00  0.00     0.254 A 
ATOM     15  H   LIG d   1      14.253   8.505  -1.887  0.00  0.00     0.069 H 
ATOM     16  N   LIG d   1      11.693   7.135  -0.184  0.00  0.00    -0.275 N 
ATOM     17  O   LIG d   1      13.889   6.942   0.134  0.00  0.00    -0.268 OA
ATOM     18  C   LIG d   1      10.679   7.661  -0.897  0.00  0.00     0.331 A 
ATOM     19  H   LIG d   1      11.504   6.551   0.566  0.00  0.00     0.173 HD
ATOM     20  O   LIG d   1       9.532   7.397  -0.593  0.00  0.00    -0.246 OA
ENDBRANCH   1  10
BRANCH   3  21
ATOM     21  O   LIG d   1       8.231  10.215  -1.242  0.00  0.00    -0.385 OA
ATOM     22  H   LIG d   1       7.734  11.028  -1.079  0.00  0.00     0.210 HD
ENDBRANCH   3  21
BRANCH   7  23
ATOM     23  C   LIG d   1       9.802  11.082  -5.716  0.00  0.00     0.080 C 
ATOM     24  H   LIG d   1      10.878  10.918  -5.779  0.00  0.00     0.059 H 
ATOM     25  H   LIG d   1       9.328  10.743  -6.638  0.00  0.00     0.059 H 
BRANCH  23  26
ATOM     26  O   LIG d   1       9.542  12.475  -5.532  0.00  0.00    -0.365 OA
BRANCH  26  27
ATOM     27  P   LIG d   1       9.735  13.565  -6.700  0.00  0.00    -0.015 P 
ATOM     28  O   LIG d   1       9.066  13.043  -8.017  0.00  0.00    -0.638 OA
ATOM     29  O   LIG d   1       9.062  14.914  -6.273  0.00  0.00    -0.577 OA
ATOM     30  O   LIG d   1      11.264  13.800  -6.948  0.00  0.00    -0.577 OA
ENDBRANCH  26  27
ENDBRANCH  23  26
ENDBRANCH   7  23
BRANCH   5  31
ATOM     31  O   LIG d   1       7.608  11.623  -3.274  0.00  0.00    -0.386 OA
ATOM     32  H   LIG d   1       7.392  12.395  -3.815  0.00  0.00     0.210 HD
ENDBRANCH   5  31
TORSDOF 6
ENDMDL
MODEL 2
REMARK VINA RESULT:      -5.4     12.488     14.507
REMARK  6 active torsions:
REMARK  status: ('A' for Active; 'I' for Inactive)
REMARK    1  A    between atoms: N_3  and  C_10 
REMARK    2  A    between atoms: C_12  and  O_26 
REMARK    3  A    between atoms: C_14  and  O_25 
REMARK    4  A    between atoms: C_16  and  C_19 
REMARK    5  A    between atoms: C_19  and  O_20 
REMARK    6  A    between atoms: O_20  and  P_21 
ROOT
ATOM      1  C   LIG d   1       4.421   0.251  -8.368  0.00  0.00     0.168 C 
ATOM      2  H   LIG d   1       5.105   1.095  -8.276  0.00  0.00     0.087 H 
ATOM      3  C   LIG d   1       3.062   0.588  -7.716  0.00  0.00     0.129 C 
ATOM      4  H   LIG d   1       2.248   0.106  -8.256  0.00  0.00     0.067 H 
ATOM      5  C   LIG d   1       3.178   0.013  -6.286  0.00  0.00     0.114 C 
ATOM      6  H   LIG d   1       2.422  -0.754  -6.120  0.00  0.00     0.065 H 
ATOM      7  C   LIG d   1       4.594  -0.604  -6.244  0.00  0.00     0.113 C 
ATOM      8  H   LIG d   1       5.306   0.108  -5.825  0.00  0.00     0.065 H 
ATOM      9  O   LIG d   1       4.918  -0.883  -7.624  0.00  0.00    -0.346 OA
ENDROOT
BRANCH   1  10
ATOM     10  N   LIG d   1       4.236  -0.104  -9.777  0.00  0.00    -0.272 N 
ATOM     11  C   LIG d   1       4.017  -1.409 -10.124  0.00  0.00     0.017 A 
ATOM     12  C   LIG d   1       3.848  -1.736 -11.422  0.00  0.00     0.019 A 
ATOM     13  H   LIG d   1       3.981  -2.174  -9.362  0.00  0.00     0.081 H 
ATOM     14  C   LIG d   1       3.899  -0.716 -12.402  0.00  0.00     0.254 A 
ATOM     15  H   LIG d   1       3.678  -2.764 -11.710  0.00  0.00     0.069 H 
ATOM     16  N   LIG d   1       4.117   0.559 -12.020  0.00  0.00    -0.275 N 
ATOM     17  O   LIG d   1       3.749  -0.987 -13.580  0.00  0.00    -0.268 OA
ATOM     18  C   LIG d   1       4.283   0.857 -10.718  0.00  0.00     0.331 A 
ATOM     19  H   LIG d   1       4.154   1.262 -12.685  0.00  0.00     0.173 HD
ATOM     20  O   LIG d   1       4.479   2.010 -10.387  0.00  0.00    -0.246 OA
ENDBRANCH   1  10
BRANCH   3  21
ATOM     21  O   LIG d   1       2.863   2.003  -7.674  0.00  0.00    -0.385 OA
ATOM     22  H   LIG d   1       1.937   2.269  -7.595  0.00  0.00     0.210 HD
ENDBRANCH   3  21
BRANCH   7  23
ATOM     23  C   LIG d   1       4.588  -1.895  -5.423  0.00  0.00     0.080 C 
ATOM     24  H   LIG d   1       3.958  -2.636  -5.915  0.00  0.00     0.059 H 
ATOM     25  H   LIG d   1       5.605  -2.280  -5.343  0.00  0.00     0.059 H 
BRANCH  23  26
ATOM     26  O   LIG d   1       4.076  -1.626  -4.116  0.00  0.00    -0.365 OA
BRANCH  26  27
ATOM     27  P   LIG d   1       4.976  -1.016  -2.930  0.00  0.00    -0.015 P 
ATOM     28  O   LIG d   1       4.412  -1.492  -1.548  0.00  0.00    -0.638 OA
ATOM     29  O   LIG d   1       6.454  -1.510  -3.088  0.00  0.00    -0.577 OA
ATOM     30  O   LIG d   1       4.939   0.549  -2.998  0.00  0.00    -0.577 OA
ENDBRANCH  26  27
ENDBRANCH  23  26
ENDBRANCH   7  23
BRANCH   5  31
ATOM     31  O   LIG d   1       3.054   1.055  -5.315  0.00  0.00    -0.386 OA
ATOM     32  H   LIG d   1       3.078   0.745  -4.400  0.00  0.00     0.210 HD
ENDBRANCH   5  31
TORSDOF 6
ENDMDL
MODEL 3
REMARK VINA RESULT:      -5.2      3.209      6.849
REMARK  6 active torsions:
REMARK  status: ('A' for Active; 'I' for Inactive)
REMARK    1  A    between atoms: N_3  and  C_10 
REMARK    2  A    between atoms: C_12  and  O_26 
REMARK    3  A    between atoms: C_14  and  O_25 
REMARK    4  A    between atoms: C_16  and  C_19 
REMARK    5  A    between atoms: C_19  and  O_20 
REMARK    6  A    between atoms: O_20  and  P_21 
ROOT
ATOM      1  C   LIG d   1      10.115  10.708  -3.768  0.00  0.00     0.168 C 
ATOM      2  H   LIG d   1      10.275  11.786  -3.788  0.00  0.00     0.087 H 
ATOM      3  C   LIG d   1       8.939  10.356  -2.831  0.00  0.00     0.129 C 
ATOM      4  H   LIG d   1       8.396   9.489  -3.207  0.00  0.00     0.067 H 
ATOM      5  C   LIG d   1       9.618  10.026  -1.483  0.00  0.00     0.114 C 
ATOM      6  H   LIG d   1       9.411   8.995  -1.193  0.00  0.00     0.065 H 
ATOM      7  C   LIG d   1      11.125  10.217  -1.765  0.00  0.00     0.113 C 
ATOM      8  H   LIG d   1      11.441  11.220  -1.477  0.00  0.00     0.065 H 
ATOM      9  O   LIG d   1      11.260  10.040  -3.193  0.00  0.00    -0.346 OA
ENDROOT
BRANCH   1  10
ATOM     10  N   LIG d   1       9.858  10.205  -5.120  0.00  0.00    -0.272 N 
ATOM     11  C   LIG d   1       9.685   8.864  -5.323  0.00  0.00     0.017 A 
ATOM     12  C   LIG d   1       9.448   8.401  -6.569  0.00  0.00     0.019 A 
ATOM     13  H   LIG d   1       9.737   8.178  -4.491  0.00  0.00     0.081 H 
ATOM     14  C   LIG d   1       9.384   9.319  -7.644  0.00  0.00     0.254 A 
ATOM     15  H   LIG d   1       9.313   7.343  -6.744  0.00  0.00     0.069 H 
ATOM     16  N   LIG d   1       9.560  10.635  -7.403  0.00  0.00    -0.275 N 
ATOM     17  O   LIG d   1       9.172   8.925  -8.777  0.00  0.00    -0.268 OA
ATOM     18  C   LIG d   1       9.794  11.069  -6.151  0.00  0.00     0.331 A 
ATOM     19  H   LIG d   1       9.518  11.269  -8.134  0.00  0.00     0.173 HD
ATOM     20  O   LIG d   1       9.952  12.257  -5.948  0.00  0.00    -0.246 OA
ENDBRANCH   1  10
BRANCH   3  21
ATOM     21  O   LIG d   1       8.059  11.474  -2.690  0.00  0.00    -0.385 OA
ATOM     22  H   LIG d   1       7.435  11.394  -1.956  0.00  0.00     0.210 HD
ENDBRANCH   3  21
BRANCH   7  23
ATOM     23  C   LIG d   1      11.945   9.165  -1.015  0.00  0.00     0.080 C 
ATOM     24  H   LIG d   1      12.229   8.368  -1.702  0.00  0.00     0.059 H 
ATOM     25  H   LIG d   1      12.842   9.628  -0.605  0.00  0.00     0.059 H 
BRANCH  23  26
ATOM     26  O   LIG d   1      11.161   8.620   0.048  0.00  0.00    -0.365 OA
BRANCH  26  27
ATOM     27  P   LIG d   1      11.390   7.139   0.636  0.00  0.00    -0.015 P 
ATOM     28  O   LIG d   1      11.344   7.186   2.202  0.00  0.00    -0.638 OA
ATOM     29  O   LIG d   1      10.262   6.188   0.110  0.00  0.00    -0.577 OA
ATOM     30  O   LIG d   1      12.785   6.602   0.170  0.00  0.00    -0.577 OA
ENDBRANCH  26  27
ENDBRANCH  23  26
ENDBRANCH   7  23
BRANCH   5  31
ATOM     31  O   LIG d   1       9.178  10.929  -0.466  0.00  0.00    -0.386 OA
ATOM     32  H   LIG d   1       9.897  11.367   0.010  0.00  0.00     0.210 HD
ENDBRANCH   5  31
TORSDOF 6
ENDMDL
MODEL 4
REMARK VINA RESULT:      -5.2      2.281      2.721
REMARK  6 active torsions:
REMARK  status: ('A' for Active; 'I' for Inactive)
REMARK    1  A    between atoms: N_3  and  C_10 
REMARK    2  A    between atoms: C_12  and  O_26 
REMARK    3  A    between atoms: C_14  and  O_25 
REMARK    4  A    between atoms: C_16  and  C_19 
REMARK    5  A    between atoms: C_19  and  O_20 
REMARK    6  A    between atoms: O_20  and  P_21 
ROOT
ATOM      1  C   LIG d   1      10.079   9.219  -1.739  0.00  0.00     0.168 C 
ATOM      2  H   LIG d   1       9.403   8.385  -1.924  0.00  0.00     0.087 H 
ATOM      3  C   LIG d   1       9.328  10.562  -1.884  0.00  0.00     0.129 C 
ATOM      4  H   LIG d   1       9.726  11.300  -1.188  0.00  0.00     0.067 H 
ATOM      5  C   LIG d   1       9.603  10.990  -3.343  0.00  0.00     0.114 C 
ATOM      6  H   LIG d   1      10.137  11.940  -3.368  0.00  0.00     0.065 H 
ATOM      7  C   LIG d   1      10.487   9.856  -3.908  0.00  0.00     0.113 C 
ATOM      8  H   LIG d   1       9.874   9.119  -4.426  0.00  0.00     0.065 H 
ATOM      9  O   LIG d   1      11.112   9.262  -2.748  0.00  0.00    -0.346 OA
ENDROOT
BRANCH   1  10
ATOM     10  N   LIG d   1      10.673   9.109  -0.405  0.00  0.00    -0.272 N 
ATOM     11  C   LIG d   1      11.241  10.209   0.178  0.00  0.00     0.017 A 
ATOM     12  C   LIG d   1      11.788  10.106   1.407  0.00  0.00     0.019 A 
ATOM     13  H   LIG d   1      11.251  11.154  -0.344  0.00  0.00     0.081 H 
ATOM     14  C   LIG d   1      11.763   8.857   2.071  0.00  0.00     0.254 A 
ATOM     15  H   LIG d   1      12.244  10.967   1.877  0.00  0.00     0.069 H 
ATOM     16  N   LIG d   1      11.193   7.796   1.463  0.00  0.00    -0.275 N 
ATOM     17  O   LIG d   1      12.251   8.740   3.181  0.00  0.00    -0.268 OA
ATOM     18  C   LIG d   1      10.654   7.926   0.237  0.00  0.00     0.331 A 
ATOM     19  H   LIG d   1      11.173   6.937   1.911  0.00  0.00     0.173 HD
ATOM     20  O   LIG d   1      10.145   6.961  -0.300  0.00  0.00    -0.246 OA
ENDBRANCH   1  10
BRANCH   3  21
ATOM     21  O   LIG d   1       7.927  10.378  -1.669  0.00  0.00    -0.385 OA
ATOM     22  H   LIG d   1       7.661  10.430  -0.742  0.00  0.00     0.210 HD
ENDBRANCH   3  21
BRANCH   7  23
ATOM     23  C   LIG d   1      11.546  10.427  -4.853  0.00  0.00     0.080 C 
ATOM     24  H   LIG d   1      11.395  11.501  -4.962  0.00  0.00     0.059 H 
ATOM     25  H   LIG d   1      12.538  10.240  -4.443  0.00  0.00     0.059 H 
BRANCH  23  26
ATOM     26  O   LIG d   1      11.432   9.797  -6.131  0.00  0.00    -0.365 OA
BRANCH  26  27
ATOM     27  P   LIG d   1      10.251  10.133  -7.172  0.00  0.00    -0.015 P 
ATOM     28  O   LIG d   1       9.637  11.533  -6.830  0.00  0.00    -0.638 OA
ATOM     29  O   LIG d   1      10.829  10.158  -8.628  0.00  0.00    -0.577 OA
ATOM     30  O   LIG d   1       9.138   9.035  -7.071  0.00  0.00    -0.577 OA
ENDBRANCH  26  27
ENDBRANCH  23  26
ENDBRANCH   7  23
BRANCH   5  31
ATOM     31  O   LIG d   1       8.379  11.086  -4.076  0.00  0.00    -0.386 OA
ATOM     32  H   LIG d   1       7.979  10.232  -4.288  0.00  0.00     0.210 HD
ENDBRANCH   5  31
TORSDOF 6
ENDMDL
MODEL 5
REMARK VINA RESULT:      -5.2      3.156      6.394
REMARK  6 active torsions:
REMARK  status: ('A' for Active; 'I' for Inactive)
REMARK    1  A    between atoms: N_3  and  C_10 
REMARK    2  A    between atoms: C_12  and  O_26 
REMARK    3  A    between atoms: C_14  and  O_25 
REMARK    4  A    between atoms: C_16  and  C_19 
REMARK    5  A    between atoms: C_19  and  O_20 
REMARK    6  A    between atoms: O_20  and  P_21 
ROOT
ATOM      1  C   LIG d   1      10.351  10.763  -4.339  0.00  0.00     0.168 C 
ATOM      2  H   LIG d   1      11.025  11.569  -4.629  0.00  0.00     0.087 H 
ATOM      3  C   LIG d   1       9.121  11.331  -3.597  0.00  0.00     0.129 C 
ATOM      4  H   LIG d   1       8.234  10.736  -3.815  0.00  0.00     0.067 H 
ATOM      5  C   LIG d   1       9.497  11.215  -2.103  0.00  0.00     0.114 C 
ATOM      6  H   LIG d   1       8.796  10.562  -1.582  0.00  0.00     0.065 H 
ATOM      7  C   LIG d   1      10.910  10.590  -2.118  0.00  0.00     0.113 C 
ATOM      8  H   LIG d   1      11.670  11.370  -2.066  0.00  0.00     0.065 H 
ATOM      9  O   LIG d   1      10.992   9.892  -3.381  0.00  0.00    -0.346 OA
ENDROOT
BRANCH   1  10
ATOM     10  N   LIG d   1       9.930  10.003  -5.517  0.00  0.00    -0.272 N 
ATOM     11  C   LIG d   1       9.655   8.667  -5.400  0.00  0.00     0.017 A 
ATOM     12  C   LIG d   1       9.268   7.967  -6.487  0.00  0.00     0.019 A 
ATOM     13  H   LIG d   1       9.750   8.177  -4.443  0.00  0.00     0.081 H 
ATOM     14  C   LIG d   1       9.152   8.632  -7.731  0.00  0.00     0.254 A 
ATOM     15  H   LIG d   1       9.052   6.910  -6.409  0.00  0.00     0.069 H 
ATOM     16  N   LIG d   1       9.431   9.949  -7.805  0.00  0.00    -0.275 N 
ATOM     17  O   LIG d   1       8.803   8.021  -8.725  0.00  0.00    -0.268 OA
ATOM     18  C   LIG d   1       9.815  10.624  -6.706  0.00  0.00     0.331 A 
ATOM     19  H   LIG d   1       9.354  10.412  -8.653  0.00  0.00     0.173 HD
ATOM     20  O   LIG d   1      10.064  11.811  -6.787  0.00  0.00    -0.246 OA
ENDBRANCH   1  10
BRANCH   3  21
ATOM     21  O   LIG d   1       8.906  12.698  -3.956  0.00  0.00    -0.385 OA
ATOM     22  H   LIG d   1       8.044  12.868  -4.359  0.00  0.00     0.210 HD
ENDBRANCH   3  21
BRANCH   7  23
ATOM     23  C   LIG d   1      11.072   9.611  -0.953  0.00  0.00     0.080 C 
ATOM     24  H   LIG d   1      12.013   9.809  -0.440  0.00  0.00     0.059 H 
ATOM     25  H   LIG d   1      10.244   9.736  -0.256  0.00  0.00     0.059 H 
BRANCH  23  26
ATOM     26  O   LIG d   1      11.075   8.272  -1.454  0.00  0.00    -0.365 OA
BRANCH  26  27
ATOM     27  P   LIG d   1       9.861   7.243  -1.212  0.00  0.00    -0.015 P 
ATOM     28  O   LIG d   1      10.234   6.260  -0.050  0.00  0.00    -0.638 OA
ATOM     29  O   LIG d   1       8.569   8.040  -0.826  0.00  0.00    -0.577 OA
ATOM     30  O   LIG d   1       9.599   6.426  -2.523  0.00  0.00    -0.577 OA
ENDBRANCH  26  27
ENDBRANCH  23  26
ENDBRANCH   7  23
BRANCH   5  31
ATOM     31  O   LIG d   1       9.524  12.506  -1.491  0.00  0.00    -0.386 OA
ATOM     32  H   LIG d   1       9.823  13.214  -2.078  0.00  0.00     0.210 HD
ENDBRANCH   5  31
TORSDOF 6
ENDMDL
MODEL 6
REMARK VINA RESULT:      -5.0     10.976     12.827
REMARK  6 active torsions:
REMARK  status: ('A' for Active; 'I' for Inactive)
REMARK    1  A    between atoms: N_3  and  C_10 
REMARK    2  A    between atoms: C_12  and  O_26 
REMARK    3  A    between atoms: C_14  and  O_25 
REMARK    4  A    between atoms: C_16  and  C_19 
REMARK    5  A    between atoms: C_19  and  O_20 
REMARK    6  A    between atoms: O_20  and  P_21 
ROOT
ATOM      1  C   LIG d   1       4.125  -0.271  -5.219  0.00  0.00     0.168 C 
ATOM      2  H   LIG d   1       3.351   0.452  -4.960  0.00  0.00     0.087 H 
ATOM      3  C   LIG d   1       4.108  -1.456  -4.228  0.00  0.00     0.129 C 
ATOM      4  H   LIG d   1       4.385  -2.381  -4.732  0.00  0.00     0.067 H 
ATOM      5  C   LIG d   1       5.170  -1.077  -3.171  0.00  0.00     0.114 C 
ATOM      6  H   LIG d   1       5.972  -1.815  -3.154  0.00  0.00     0.065 H 
ATOM      7  C   LIG d   1       5.703   0.292  -3.649  0.00  0.00     0.113 C 
ATOM      8  H   LIG d   1       5.173   1.102  -3.149  0.00  0.00     0.065 H 
ATOM      9  O   LIG d   1       5.435   0.319  -5.069  0.00  0.00    -0.346 OA
ENDROOT
BRANCH   1  10
ATOM     10  N   LIG d   1       3.936  -0.751  -6.590  0.00  0.00    -0.272 N 
ATOM     11  C   LIG d   1       4.357  -2.006  -6.934  0.00  0.00     0.017 A 
ATOM     12  C   LIG d   1       4.183  -2.447  -8.197  0.00  0.00     0.019 A 
ATOM     13  H   LIG d   1       4.828  -2.640  -6.197  0.00  0.00     0.081 H 
ATOM     14  C   LIG d   1       3.565  -1.598  -9.145  0.00  0.00     0.254 A 
ATOM     15  H   LIG d   1       4.516  -3.436  -8.482  0.00  0.00     0.069 H 
ATOM     16  N   LIG d   1       3.162  -0.367  -8.767  0.00  0.00    -0.275 N 
ATOM     17  O   LIG d   1       3.397  -1.974 -10.291  0.00  0.00    -0.268 OA
ATOM     18  C   LIG d   1       3.348   0.048  -7.500  0.00  0.00     0.331 A 
ATOM     19  H   LIG d   1       2.738   0.221  -9.411  0.00  0.00     0.173 HD
ATOM     20  O   LIG d   1       2.981   1.160  -7.174  0.00  0.00    -0.246 OA
ENDBRANCH   1  10
BRANCH   3  21
ATOM     21  O   LIG d   1       2.819  -1.584  -3.622  0.00  0.00    -0.385 OA
ATOM     22  H   LIG d   1       2.521  -2.497  -3.521  0.00  0.00     0.210 HD
ENDBRANCH   3  21
BRANCH   7  23
ATOM     23  C   LIG d   1       7.207   0.399  -3.386  0.00  0.00     0.080 C 
ATOM     24  H   LIG d   1       7.434  -0.012  -2.403  0.00  0.00     0.059 H 
ATOM     25  H   LIG d   1       7.750  -0.161  -4.148  0.00  0.00     0.059 H 
BRANCH  23  26
ATOM     26  O   LIG d   1       7.602   1.772  -3.432  0.00  0.00    -0.365 OA
BRANCH  26  27
ATOM     27  P   LIG d   1       8.987   2.264  -4.089  0.00  0.00    -0.015 P 
ATOM     28  O   LIG d   1       9.482   1.198  -5.124  0.00  0.00    -0.638 OA
ATOM     29  O   LIG d   1       8.762   3.633  -4.817  0.00  0.00    -0.577 OA
ATOM     30  O   LIG d   1      10.064   2.441  -2.965  0.00  0.00    -0.577 OA
ENDBRANCH  26  27
ENDBRANCH  23  26
ENDBRANCH   7  23
BRANCH   5  31
ATOM     31  O   LIG d   1       4.571  -0.960  -1.879  0.00  0.00    -0.386 OA
ATOM     32  H   LIG d   1       4.990  -0.300  -1.309  0.00  0.00     0.210 HD
ENDBRANCH   5  31
TORSDOF 6
ENDMDL
MODEL 7
REMARK VINA RESULT:      -5.0     12.947     14.919
REMARK  6 active torsions:
REMARK  status: ('A' for Active; 'I' for Inactive)
REMARK    1  A    between atoms: N_3  and  C_10 
REMARK    2  A    between atoms: C_12  and  O_26 
REMARK    3  A    between atoms: C_14  and  O_25 
REMARK    4  A    between atoms: C_16  and  C_19 
REMARK    5  A    between atoms: C_19  and  O_20 
REMARK    6  A    between atoms: O_20  and  P_21 
ROOT
ATOM      1  C   LIG d   1       3.411  -1.505  -8.185  0.00  0.00     0.168 C 
ATOM      2  H   LIG d   1       2.346  -1.671  -8.025  0.00  0.00     0.087 H 
ATOM      3  C   LIG d   1       4.215  -2.767  -7.802  0.00  0.00     0.129 C 
ATOM      4  H   LIG d   1       5.087  -2.877  -8.447  0.00  0.00     0.067 H 
ATOM      5  C   LIG d   1       4.651  -2.507  -6.343  0.00  0.00     0.114 C 
ATOM      6  H   LIG d   1       5.739  -2.487  -6.267  0.00  0.00     0.065 H 
ATOM      7  C   LIG d   1       4.059  -1.118  -6.016  0.00  0.00     0.113 C 
ATOM      8  H   LIG d   1       3.094  -1.223  -5.523  0.00  0.00     0.065 H 
ATOM      9  O   LIG d   1       3.898  -0.473  -7.300  0.00  0.00    -0.346 OA
ENDROOT
BRANCH   1  10
ATOM     10  N   LIG d   1       3.666  -1.142  -9.581  0.00  0.00    -0.272 N 
ATOM     11  C   LIG d   1       4.698  -0.297  -9.884  0.00  0.00     0.017 A 
ATOM     12  C   LIG d   1       4.933   0.038 -11.171  0.00  0.00     0.019 A 
ATOM     13  H   LIG d   1       5.322   0.101  -9.097  0.00  0.00     0.081 H 
ATOM     14  C   LIG d   1       4.102  -0.496 -12.184  0.00  0.00     0.254 A 
ATOM     15  H   LIG d   1       5.742   0.708 -11.423  0.00  0.00     0.069 H 
ATOM     16  N   LIG d   1       3.094  -1.327 -11.845  0.00  0.00    -0.275 N 
ATOM     17  O   LIG d   1       4.294  -0.209 -13.352  0.00  0.00    -0.268 OA
ATOM     18  C   LIG d   1       2.883  -1.644 -10.554  0.00  0.00     0.331 A 
ATOM     19  H   LIG d   1       2.521  -1.696 -12.533  0.00  0.00     0.173 HD
ATOM     20  O   LIG d   1       1.972  -2.394 -10.262  0.00  0.00    -0.246 OA
ENDBRANCH   1  10
BRANCH   3  21
ATOM     21  O   LIG d   1       3.388  -3.931  -7.880  0.00  0.00    -0.385 OA
ATOM     22  H   LIG d   1       2.448  -3.756  -7.740  0.00  0.00     0.210 HD
ENDBRANCH   3  21
BRANCH   7  23
ATOM     23  C   LIG d   1       5.024  -0.322  -5.135  0.00  0.00     0.080 C 
ATOM     24  H   LIG d   1       5.621  -1.010  -4.536  0.00  0.00     0.059 H 
ATOM     25  H   LIG d   1       5.682   0.277  -5.764  0.00  0.00     0.059 H 
BRANCH  23  26
ATOM     26  O   LIG d   1       4.279   0.539  -4.270  0.00  0.00    -0.365 OA
BRANCH  26  27
ATOM     27  P   LIG d   1       4.568   0.660  -2.691  0.00  0.00    -0.015 P 
ATOM     28  O   LIG d   1       4.688  -0.774  -2.072  0.00  0.00    -0.638 OA
ATOM     29  O   LIG d   1       5.907   1.440  -2.463  0.00  0.00    -0.577 OA
ATOM     30  O   LIG d   1       3.391   1.430  -2.002  0.00  0.00    -0.577 OA
ENDBRANCH  26  27
ENDBRANCH  23  26
ENDBRANCH   7  23
BRANCH   5  31
ATOM     31  O   LIG d   1       4.109  -3.502  -5.472  0.00  0.00    -0.386 OA
ATOM     32  H   LIG d   1       3.675  -3.144  -4.686  0.00  0.00     0.210 HD
ENDBRANCH   5  31
TORSDOF 6
ENDMDL
MODEL 8
REMARK VINA RESULT:      -5.0      4.771      6.939
REMARK  6 active torsions:
REMARK  status: ('A' for Active; 'I' for Inactive)
REMARK    1  A    between atoms: N_3  and  C_10 
REMARK    2  A    between atoms: C_12  and  O_26 
REMARK    3  A    between atoms: C_14  and  O_25 
REMARK    4  A    between atoms: C_16  and  C_19 
REMARK    5  A    between atoms: C_19  and  O_20 
REMARK    6  A    between atoms: O_20  and  P_21 
ROOT
ATOM      1  C   LIG d   1      11.435   6.615  -1.654  0.00  0.00     0.168 C 
ATOM      2  H   LIG d   1      12.508   6.465  -1.536  0.00  0.00     0.087 H 
ATOM      3  C   LIG d   1      10.655   5.429  -1.046  0.00  0.00     0.129 C 
ATOM      4  H   LIG d   1       9.711   5.769  -0.620  0.00  0.00     0.067 H 
ATOM      5  C   LIG d   1      10.400   4.491  -2.247  0.00  0.00     0.114 C 
ATOM      6  H   LIG d   1       9.330   4.369  -2.416  0.00  0.00     0.065 H 
ATOM      7  C   LIG d   1      11.056   5.222  -3.440  0.00  0.00     0.113 C 
ATOM      8  H   LIG d   1      12.071   4.857  -3.597  0.00  0.00     0.065 H 
ATOM      9  O   LIG d   1      11.078   6.615  -3.054  0.00  0.00    -0.346 OA
ENDROOT
BRANCH   1  10
ATOM     10  N   LIG d   1      11.025   7.872  -1.024  0.00  0.00    -0.272 N 
ATOM     11  C   LIG d   1       9.998   8.598  -1.564  0.00  0.00     0.017 A 
ATOM     12  C   LIG d   1       9.621   9.757  -0.983  0.00  0.00     0.019 A 
ATOM     13  H   LIG d   1       9.493   8.246  -2.451  0.00  0.00     0.081 H 
ATOM     14  C   LIG d   1      10.298  10.198   0.178  0.00  0.00     0.254 A 
ATOM     15  H   LIG d   1       8.814  10.342  -1.402  0.00  0.00     0.069 H 
ATOM     16  N   LIG d   1      11.305   9.454   0.680  0.00  0.00    -0.275 N 
ATOM     17  O   LIG d   1       9.975  11.240   0.720  0.00  0.00    -0.268 OA
ATOM     18  C   LIG d   1      11.661   8.302   0.082  0.00  0.00     0.331 A 
ATOM     19  H   LIG d   1      11.773   9.750   1.475  0.00  0.00     0.173 HD
ATOM     20  O   LIG d   1      12.570   7.642   0.544  0.00  0.00    -0.246 OA
ENDBRANCH   1  10
BRANCH   3  21
ATOM     21  O   LIG d   1      11.442   4.770  -0.051  0.00  0.00    -0.385 OA
ATOM     22  H   LIG d   1      11.364   5.155   0.832  0.00  0.00     0.210 HD
ENDBRANCH   3  21
BRANCH   7  23
ATOM     23  C   LIG d   1      10.220   5.031  -4.707  0.00  0.00     0.080 C 
ATOM     24  H   LIG d   1       9.806   5.990  -5.018  0.00  0.00     0.059 H 
ATOM     25  H   LIG d   1      10.851   4.632  -5.502  0.00  0.00     0.059 H 
BRANCH  23  26
ATOM     26  O   LIG d   1       9.154   4.116  -4.440  0.00  0.00    -0.365 OA
BRANCH  26  27
ATOM     27  P   LIG d   1       9.036   2.676  -5.150  0.00  0.00    -0.015 P 
ATOM     28  O   LIG d   1       9.303   2.828  -6.686  0.00  0.00    -0.638 OA
ATOM     29  O   LIG d   1      10.094   1.700  -4.531  0.00  0.00    -0.577 OA
ATOM     30  O   LIG d   1       7.598   2.098  -4.923  0.00  0.00    -0.577 OA
ENDBRANCH  26  27
ENDBRANCH  23  26
ENDBRANCH   7  23
BRANCH   5  31
ATOM     31  O   LIG d   1      11.021   3.222  -2.032  0.00  0.00    -0.386 OA
ATOM     32  H   LIG d   1      10.818   2.564  -2.712  0.00  0.00     0.210 HD
ENDBRANCH   5  31
TORSDOF 6
ENDMDL
MODEL 9
REMARK VINA RESULT:      -5.0     13.256     14.459
REMARK  6 active torsions:
REMARK  status: ('A' for Active; 'I' for Inactive)
REMARK    1  A    between atoms: N_3  and  C_10 
REMARK    2  A    between atoms: C_12  and  O_26 
REMARK    3  A    between atoms: C_14  and  O_25 
REMARK    4  A    between atoms: C_16  and  C_19 
REMARK    5  A    between atoms: C_19  and  O_20 
REMARK    6  A    between atoms: O_20  and  P_21 
ROOT
ATOM      1  C   LIG d   1       3.354   0.405  -7.420  0.00  0.00     0.168 C 
ATOM      2  H   LIG d   1       3.092   1.437  -7.186  0.00  0.00     0.087 H 
ATOM      3  C   LIG d   1       4.563   0.361  -8.381  0.00  0.00     0.129 C 
ATOM      4  H   LIG d   1       5.184  -0.510  -8.175  0.00  0.00     0.067 H 
ATOM      5  C   LIG d   1       3.925   0.252  -9.784  0.00  0.00     0.114 C 
ATOM      6  H   LIG d   1       4.230  -0.674 -10.271  0.00  0.00     0.065 H 
ATOM      7  C   LIG d   1       2.405   0.243  -9.505  0.00  0.00     0.113 C 
ATOM      8  H   LIG d   1       1.997   1.249  -9.592  0.00  0.00     0.065 H 
ATOM      9  O   LIG d   1       2.281  -0.234  -8.146  0.00  0.00    -0.346 OA
ENDROOT
BRANCH   1  10
ATOM     10  N   LIG d   1       3.651  -0.336  -6.192  0.00  0.00    -0.272 N 
ATOM     11  C   LIG d   1       4.391  -1.485  -6.256  0.00  0.00     0.017 A 
ATOM     12  C   LIG d   1       4.664  -2.169  -5.125  0.00  0.00     0.019 A 
ATOM     13  H   LIG d   1       4.754  -1.844  -7.208  0.00  0.00     0.081 H 
ATOM     14  C   LIG d   1       4.177  -1.679  -3.889  0.00  0.00     0.254 A 
ATOM     15  H   LIG d   1       5.243  -3.080  -5.162  0.00  0.00     0.069 H 
ATOM     16  N   LIG d   1       3.451  -0.542  -3.868  0.00  0.00    -0.275 N 
ATOM     17  O   LIG d   1       4.410  -2.278  -2.855  0.00  0.00    -0.268 OA
ATOM     18  C   LIG d   1       3.194   0.120  -5.011  0.00  0.00     0.331 A 
ATOM     19  H   LIG d   1       3.114  -0.200  -3.026  0.00  0.00     0.173 HD
ATOM     20  O   LIG d   1       2.538   1.143  -4.978  0.00  0.00    -0.246 OA
ENDBRANCH   1  10
BRANCH   3  21
ATOM     21  O   LIG d   1       5.334   1.560  -8.271  0.00  0.00    -0.385 OA
ATOM     22  H   LIG d   1       5.052   2.266  -8.868  0.00  0.00     0.210 HD
ENDBRANCH   3  21
BRANCH   7  23
ATOM     23  C   LIG d   1       1.692  -0.706 -10.472  0.00  0.00     0.080 C 
ATOM     24  H   LIG d   1       0.735  -0.274 -10.765  0.00  0.00     0.059 H 
ATOM     25  H   LIG d   1       2.311  -0.853 -11.357  0.00  0.00     0.059 H 
BRANCH  23  26
ATOM     26  O   LIG d   1       1.471  -1.963  -9.829  0.00  0.00    -0.365 OA
BRANCH  26  27
ATOM     27  P   LIG d   1       2.360  -3.271 -10.133  0.00  0.00    -0.015 P 
ATOM     28  O   LIG d   1       3.225  -3.027 -11.416  0.00  0.00    -0.638 OA
ATOM     29  O   LIG d   1       3.302  -3.557  -8.915  0.00  0.00    -0.577 OA
ATOM     30  O   LIG d   1       1.417  -4.501 -10.364  0.00  0.00    -0.577 OA
ENDBRANCH  26  27
ENDBRANCH  23  26
ENDBRANCH   7  23
BRANCH   5  31
ATOM     31  O   LIG d   1       4.282   1.380 -10.586  0.00  0.00    -0.386 OA
ATOM     32  H   LIG d   1       4.594   2.141 -10.078  0.00  0.00     0.210 HD
ENDBRANCH   5  31
TORSDOF 6
ENDMDL
