MODEL 1
REMARK VINA RESULT:      -5.5      0.000      0.000
REMARK  12 active torsions:
REMARK  status: ('A' for Active; 'I' for Inactive)
REMARK    1  A    between atoms: C_1  and  C_2 
REMARK    2  A    between atoms: C_4  and  C_10 
REMARK    3  A    between atoms: C_7  and  O_8 
REMARK    4  A    between atoms: O_8  and  C_9 
REMARK    5  A    between atoms: C_10  and  C_11 
REMARK    6  A    between atoms: C_12  and  C_23 
REMARK    7  A    between atoms: N_14  and  C_19 
REMARK    8  A    between atoms: C_19  and  C_20 
REMARK    9  A    between atoms: C_20  and  N_56 
REMARK   10  A    between atoms: C_21  and  N_56 
REMARK   11  A    between atoms: C_22  and  N_56 
REMARK   12  A    between atoms: C_26  and  O_29 
ROOT
ATOM      1  C   LIG d   1       5.913  -3.236  -6.035  0.00  0.00     0.112 A 
ATOM      2  C   LIG d   1       6.391  -3.356  -4.606  0.00  0.00     0.069 A 
ATOM      3  H   LIG d   1       6.054  -4.301  -4.179  0.00  0.00     0.056 H 
ATOM      4  N   LIG d   1       7.855  -3.319  -4.649  0.00  0.00    -0.282 N 
ATOM      5  C   LIG d   1       8.253  -3.192  -5.927  0.00  0.00     0.284 A 
ATOM      6  O   LIG d   1       9.408  -3.137  -6.293  0.00  0.00    -0.267 OA
ATOM      7  C   LIG d   1       7.068  -3.137  -6.825  0.00  0.00     0.230 A 
ATOM      8  O   LIG d   1       7.096  -3.024  -8.038  0.00  0.00    -0.286 OA
ATOM      9  H   LIG d   1       5.830  -4.147  -6.436  0.00  0.00     0.049 H 
ENDROOT
BRANCH   1  10
ATOM     10  C   LIG d   1       4.603  -3.225  -6.475  0.00  0.00     0.176 C 
ATOM     11  O   LIG d   1       3.821  -4.310  -6.292  0.00  0.00    -0.291 OA
BRANCH  10  12
ATOM     12  C   LIG d   1       4.061  -2.031  -7.141  0.00  0.00     0.019 A 
ATOM     13  C   LIG d   1       3.593  -2.114  -8.458  0.00  0.00    -0.045 A 
ATOM     14  C   LIG d   1       3.086  -0.994  -9.077  0.00  0.00    -0.008 A 
ATOM     15  H   LIG d   1       3.628  -3.055  -8.986  0.00  0.00     0.063 H 
ATOM     16  C   LIG d   1       3.040   0.218  -8.397  0.00  0.00     0.123 A 
ATOM     17  C   LIG d   1       3.503   0.306  -7.089  0.00  0.00    -0.019 A 
ATOM     18  C   LIG d   1       4.007  -0.809  -6.459  0.00  0.00    -0.048 A 
ATOM     19  H   LIG d   1       3.465   1.249  -6.566  0.00  0.00     0.065 H 
ATOM     20  H   LIG d   1       4.363  -0.741  -5.441  0.00  0.00     0.063 H 
BRANCH  14  21
ATOM     21  C   LIG d   1       2.580  -1.082 -10.494  0.00  0.00    -0.036 C 
ATOM     22  H   LIG d   1       2.299  -2.111 -10.717  0.00  0.00     0.028 H 
ATOM     23  H   LIG d   1       1.712  -0.433 -10.610  0.00  0.00     0.028 H 
ATOM     24  H   LIG d   1       3.366  -0.763 -11.179  0.00  0.00     0.028 H 
ENDBRANCH  14  21
BRANCH  16  25
ATOM     25  O   LIG d   1       2.540   1.319  -9.012  0.00  0.00    -0.495 OA
BRANCH  25  26
ATOM     26  C   LIG d   1       3.470   2.345  -9.364  0.00  0.00     0.079 C 
ATOM     27  H   LIG d   1       3.863   2.806  -8.458  0.00  0.00     0.066 H 
ATOM     28  H   LIG d   1       4.290   1.911  -9.937  0.00  0.00     0.066 H 
ATOM     29  H   LIG d   1       2.967   3.101  -9.967  0.00  0.00     0.066 H 
ENDBRANCH  25  26
ENDBRANCH  16  25
ENDBRANCH  10  12
ENDBRANCH   1  10
BRANCH   2  30
ATOM     30  C   LIG d   1       5.868  -2.203  -3.789  0.00  0.00    -0.026 A 
ATOM     31  C   LIG d   1       4.745  -2.371  -2.999  0.00  0.00    -0.053 A 
ATOM     32  C   LIG d   1       4.264  -1.316  -2.248  0.00  0.00    -0.020 A 
ATOM     33  H   LIG d   1       4.243  -3.327  -2.970  0.00  0.00     0.062 H 
ATOM     34  C   LIG d   1       4.907  -0.088  -2.287  0.00  0.00     0.117 A 
ATOM     35  H   LIG d   1       3.386  -1.447  -1.633  0.00  0.00     0.065 H 
ATOM     36  C   LIG d   1       6.034   0.077  -3.079  0.00  0.00    -0.020 A 
ATOM     37  C   LIG d   1       6.515  -0.982  -3.823  0.00  0.00    -0.053 A 
ATOM     38  H   LIG d   1       6.537   1.032  -3.111  0.00  0.00     0.065 H 
ATOM     39  H   LIG d   1       7.395  -0.855  -4.437  0.00  0.00     0.062 H 
BRANCH  34  40
ATOM     40  O   LIG d   1       4.436   0.951  -1.549  0.00  0.00    -0.507 OA
ATOM     41  H   LIG d   1       4.243   1.745  -2.065  0.00  0.00     0.292 HD
ENDBRANCH  34  40
ENDBRANCH   2  30
BRANCH   4  42
ATOM     42  C   LIG d   1       8.743  -3.406  -3.487  0.00  0.00     0.056 C 
ATOM     43  H   LIG d   1       9.595  -2.740  -3.629  0.00  0.00     0.052 H 
ATOM     44  H   LIG d   1       8.199  -3.114  -2.590  0.00  0.00     0.052 H 
BRANCH  42  45
ATOM     45  C   LIG d   1       9.242  -4.845  -3.334  0.00  0.00    -0.016 C 
ATOM     46  H   LIG d   1       9.189  -5.138  -2.286  0.00  0.00     0.083 H 
ATOM     47  H   LIG d   1       8.618  -5.511  -3.930  0.00  0.00     0.083 H 
BRANCH  45  48
ATOM     48  N   LIG d   1      10.635  -4.921  -3.824  0.00  0.00     0.232 N 
ATOM     49  H   LIG d   1      10.624  -4.997  -4.848  0.00  0.00     0.203 HD
BRANCH  48  50
ATOM     50  C   LIG d   1      11.373  -3.699  -3.440  0.00  0.00    -0.043 C 
ATOM     51  H   LIG d   1      12.139  -3.467  -4.178  0.00  0.00     0.078 H 
ATOM     52  H   LIG d   1      10.671  -2.868  -3.371  0.00  0.00     0.078 H 
ATOM     53  H   LIG d   1      11.841  -3.860  -2.468  0.00  0.00     0.078 H 
ENDBRANCH  48  50
BRANCH  48  54
ATOM     54  C   LIG d   1      11.304  -6.113  -3.261  0.00  0.00    -0.043 C 
ATOM     55  H   LIG d   1      10.567  -6.711  -2.724  0.00  0.00     0.078 H 
ATOM     56  H   LIG d   1      11.724  -6.701  -4.076  0.00  0.00     0.078 H 
ATOM     57  H   LIG d   1      12.100  -5.817  -2.577  0.00  0.00     0.078 H 
ENDBRANCH  48  54
ENDBRANCH  45  48
ENDBRANCH  42  45
ENDBRANCH   4  42
TORSDOF 12
ENDMDL
MODEL 2
REMARK VINA RESULT:      -5.5      2.792      6.414
REMARK  12 active torsions:
REMARK  status: ('A' for Active; 'I' for Inactive)
REMARK    1  A    between atoms: C_1  and  C_2 
REMARK    2  A    between atoms: C_4  and  C_10 
REMARK    3  A    between atoms: C_7  and  O_8 
REMARK    4  A    between atoms: O_8  and  C_9 
REMARK    5  A    between atoms: C_10  and  C_11 
REMARK    6  A    between atoms: C_12  and  C_23 
REMARK    7  A    between atoms: N_14  and  C_19 
REMARK    8  A    between atoms: C_19  and  C_20 
REMARK    9  A    between atoms: C_20  and  N_56 
REMARK   10  A    between atoms: C_21  and  N_56 
REMARK   11  A    between atoms: C_22  and  N_56 
REMARK   12  A    between atoms: C_26  and  O_29 
ROOT
ATOM      1  C   LIG d   1       5.603  -4.186  -6.077  0.00  0.00     0.112 A 
ATOM      2  C   LIG d   1       5.788  -3.811  -7.529  0.00  0.00     0.069 A 
ATOM      3  H   LIG d   1       6.775  -4.122  -7.872  0.00  0.00     0.056 H 
ATOM      4  N   LIG d   1       4.749  -4.520  -8.281  0.00  0.00    -0.282 N 
ATOM      5  C   LIG d   1       4.008  -5.245  -7.427  0.00  0.00     0.284 A 
ATOM      6  O   LIG d   1       3.071  -5.948  -7.743  0.00  0.00    -0.267 OA
ATOM      7  C   LIG d   1       4.510  -5.064  -6.038  0.00  0.00     0.230 A 
ATOM      8  O   LIG d   1       4.050  -5.587  -5.038  0.00  0.00    -0.286 OA
ATOM      9  H   LIG d   1       6.145  -5.001  -5.872  0.00  0.00     0.049 H 
ENDROOT
BRANCH   1  10
ATOM     10  C   LIG d   1       6.359  -3.753  -5.004  0.00  0.00     0.176 C 
ATOM     11  O   LIG d   1       7.501  -4.396  -4.680  0.00  0.00    -0.291 OA
BRANCH  10  12
ATOM     12  C   LIG d   1       5.919  -2.592  -4.216  0.00  0.00     0.019 A 
ATOM     13  C   LIG d   1       6.631  -1.389  -4.280  0.00  0.00    -0.045 A 
ATOM     14  C   LIG d   1       6.216  -0.306  -3.540  0.00  0.00    -0.008 A 
ATOM     15  H   LIG d   1       7.504  -1.311  -4.910  0.00  0.00     0.063 H 
ATOM     16  C   LIG d   1       5.091  -0.405  -2.729  0.00  0.00     0.123 A 
ATOM     17  C   LIG d   1       4.380  -1.598  -2.661  0.00  0.00    -0.019 A 
ATOM     18  C   LIG d   1       4.784  -2.686  -3.401  0.00  0.00    -0.048 A 
ATOM     19  H   LIG d   1       3.507  -1.671  -2.029  0.00  0.00     0.065 H 
ATOM     20  H   LIG d   1       4.228  -3.611  -3.351  0.00  0.00     0.063 H 
BRANCH  14  21
ATOM     21  C   LIG d   1       6.981   0.991  -3.609  0.00  0.00    -0.036 C 
ATOM     22  H   LIG d   1       8.003   0.829  -3.268  0.00  0.00     0.028 H 
ATOM     23  H   LIG d   1       6.993   1.352  -4.638  0.00  0.00     0.028 H 
ATOM     24  H   LIG d   1       6.497   1.731  -2.971  0.00  0.00     0.028 H 
ENDBRANCH  14  21
BRANCH  16  25
ATOM     25  O   LIG d   1       4.686   0.665  -2.001  0.00  0.00    -0.495 OA
BRANCH  25  26
ATOM     26  C   LIG d   1       3.572   1.406  -2.501  0.00  0.00     0.079 C 
ATOM     27  H   LIG d   1       2.662   0.814  -2.393  0.00  0.00     0.066 H 
ATOM     28  H   LIG d   1       3.470   2.335  -1.939  0.00  0.00     0.066 H 
ATOM     29  H   LIG d   1       3.731   1.636  -3.555  0.00  0.00     0.066 H 
ENDBRANCH  25  26
ENDBRANCH  16  25
ENDBRANCH  10  12
ENDBRANCH   1  10
BRANCH   2  30
ATOM     30  C   LIG d   1       5.626  -2.323  -7.701  0.00  0.00    -0.026 A 
ATOM     31  C   LIG d   1       4.473  -1.698  -7.262  0.00  0.00    -0.053 A 
ATOM     32  C   LIG d   1       4.323  -0.333  -7.417  0.00  0.00    -0.020 A 
ATOM     33  H   LIG d   1       3.689  -2.278  -6.798  0.00  0.00     0.062 H 
ATOM     34  C   LIG d   1       5.331   0.411  -8.014  0.00  0.00     0.117 A 
ATOM     35  H   LIG d   1       3.422   0.154  -7.076  0.00  0.00     0.065 H 
ATOM     36  C   LIG d   1       6.487  -0.218  -8.452  0.00  0.00    -0.020 A 
ATOM     37  C   LIG d   1       6.635  -1.582  -8.289  0.00  0.00    -0.053 A 
ATOM     38  H   LIG d   1       7.273   0.358  -8.917  0.00  0.00     0.065 H 
ATOM     39  H   LIG d   1       7.536  -2.072  -8.627  0.00  0.00     0.062 H 
BRANCH  34  40
ATOM     40  O   LIG d   1       5.186   1.752  -8.167  0.00  0.00    -0.507 OA
ATOM     41  H   LIG d   1       5.975   2.198  -8.505  0.00  0.00     0.292 HD
ENDBRANCH  34  40
ENDBRANCH   2  30
BRANCH   4  42
ATOM     42  C   LIG d   1       4.551  -4.450  -9.731  0.00  0.00     0.056 C 
ATOM     43  H   LIG d   1       5.455  -4.064 -10.204  0.00  0.00     0.052 H 
ATOM     44  H   LIG d   1       4.336  -5.446 -10.117  0.00  0.00     0.052 H 
BRANCH  42  45
ATOM     45  C   LIG d   1       3.377  -3.519 -10.041  0.00  0.00    -0.016 C 
ATOM     46  H   LIG d   1       3.311  -2.750  -9.272  0.00  0.00     0.083 H 
ATOM     47  H   LIG d   1       3.532  -3.049 -11.012  0.00  0.00     0.083 H 
BRANCH  45  48
ATOM     48  N   LIG d   1       2.133  -4.317 -10.083  0.00  0.00     0.232 N 
ATOM     49  H   LIG d   1       1.954  -4.704  -9.149  0.00  0.00     0.203 HD
BRANCH  48  50
ATOM     50  C   LIG d   1       0.995  -3.459 -10.476  0.00  0.00    -0.043 C 
ATOM     51  H   LIG d   1       1.337  -2.449 -10.697  0.00  0.00     0.078 H 
ATOM     52  H   LIG d   1       0.520  -3.884 -11.360  0.00  0.00     0.078 H 
ATOM     53  H   LIG d   1       0.277  -3.429  -9.656  0.00  0.00     0.078 H 
ENDBRANCH  48  50
BRANCH  48  54
ATOM     54  C   LIG d   1       2.281  -5.431 -11.043  0.00  0.00    -0.043 C 
ATOM     55  H   LIG d   1       2.245  -6.374 -10.498  0.00  0.00     0.078 H 
ATOM     56  H   LIG d   1       1.458  -5.394 -11.758  0.00  0.00     0.078 H 
ATOM     57  H   LIG d   1       3.229  -5.355 -11.575  0.00  0.00     0.078 H 
ENDBRANCH  48  54
ENDBRANCH  45  48
ENDBRANCH  42  45
ENDBRANCH   4  42
TORSDOF 12
ENDMDL
MODEL 3
REMARK VINA RESULT:      -5.4      3.405      7.233
REMARK  12 active torsions:
REMARK  status: ('A' for Active; 'I' for Inactive)
REMARK    1  A    between atoms: C_1  and  C_2 
REMARK    2  A    between atoms: C_4  and  C_10 
REMARK    3  A    between atoms: C_7  and  O_8 
REMARK    4  A    between atoms: O_8  and  C_9 
REMARK    5  A    between atoms: C_10  and  C_11 
REMARK    6  A    between atoms: C_12  and  C_23 
REMARK    7  A    between atoms: N_14  and  C_19 
REMARK    8  A    between atoms: C_19  and  C_20 
REMARK    9  A    between atoms: C_20  and  N_56 
REMARK   10  A    between atoms: C_21  and  N_56 
REMARK   11  A    between atoms: C_22  and  N_56 
REMARK   12  A    between atoms: C_26  and  O_29 
ROOT
ATOM      1  C   LIG d   1       4.621  -3.640  -7.654  0.00  0.00     0.112 A 
ATOM      2  C   LIG d   1       4.582  -3.252  -9.114  0.00  0.00     0.069 A 
ATOM      3  H   LIG d   1       5.570  -3.376  -9.559  0.00  0.00     0.056 H 
ATOM      4  N   LIG d   1       3.622  -4.150  -9.761  0.00  0.00    -0.282 N 
ATOM      5  C   LIG d   1       3.121  -4.992  -8.841  0.00  0.00     0.284 A 
ATOM      6  O   LIG d   1       2.304  -5.861  -9.065  0.00  0.00    -0.267 OA
ATOM      7  C   LIG d   1       3.721  -4.706  -7.510  0.00  0.00     0.230 A 
ATOM      8  O   LIG d   1       3.472  -5.295  -6.473  0.00  0.00    -0.286 OA
ATOM      9  H   LIG d   1       5.324  -4.337  -7.513  0.00  0.00     0.049 H 
ENDROOT
BRANCH   1  10
ATOM     10  C   LIG d   1       5.389  -3.062  -6.661  0.00  0.00     0.176 C 
ATOM     11  O   LIG d   1       6.719  -3.289  -6.618  0.00  0.00    -0.291 OA
BRANCH  10  12
ATOM     12  C   LIG d   1       4.758  -2.200  -5.650  0.00  0.00     0.019 A 
ATOM     13  C   LIG d   1       4.553  -2.676  -4.350  0.00  0.00    -0.045 A 
ATOM     14  C   LIG d   1       3.961  -1.865  -3.408  0.00  0.00    -0.008 A 
ATOM     15  H   LIG d   1       4.859  -3.677  -4.086  0.00  0.00     0.063 H 
ATOM     16  C   LIG d   1       3.567  -0.575  -3.747  0.00  0.00     0.123 A 
ATOM     17  C   LIG d   1       3.769  -0.097  -5.037  0.00  0.00    -0.019 A 
ATOM     18  C   LIG d   1       4.364  -0.898  -5.985  0.00  0.00    -0.048 A 
ATOM     19  H   LIG d   1       3.461   0.905  -5.296  0.00  0.00     0.065 H 
ATOM     20  H   LIG d   1       4.524  -0.524  -6.986  0.00  0.00     0.063 H 
BRANCH  14  21
ATOM     21  C   LIG d   1       3.741  -2.375  -2.008  0.00  0.00    -0.036 C 
ATOM     22  H   LIG d   1       4.661  -2.270  -1.433  0.00  0.00     0.028 H 
ATOM     23  H   LIG d   1       2.947  -1.799  -1.532  0.00  0.00     0.028 H 
ATOM     24  H   LIG d   1       3.454  -3.426  -2.046  0.00  0.00     0.028 H 
ENDBRANCH  14  21
BRANCH  16  25
ATOM     25  O   LIG d   1       2.984   0.220  -2.815  0.00  0.00    -0.495 OA
BRANCH  25  26
ATOM     26  C   LIG d   1       3.733   1.352  -2.369  0.00  0.00     0.079 C 
ATOM     27  H   LIG d   1       3.053   2.100  -1.960  0.00  0.00     0.066 H 
ATOM     28  H   LIG d   1       4.438   1.041  -1.597  0.00  0.00     0.066 H 
ATOM     29  H   LIG d   1       4.281   1.781  -3.208  0.00  0.00     0.066 H 
ENDBRANCH  25  26
ENDBRANCH  16  25
ENDBRANCH  10  12
ENDBRANCH   1  10
BRANCH   2  30
ATOM     30  C   LIG d   1       4.129  -1.822  -9.254  0.00  0.00    -0.026 A 
ATOM     31  C   LIG d   1       2.840  -1.468  -8.900  0.00  0.00    -0.053 A 
ATOM     32  C   LIG d   1       2.423  -0.157  -9.026  0.00  0.00    -0.020 A 
ATOM     33  H   LIG d   1       2.158  -2.217  -8.524  0.00  0.00     0.062 H 
ATOM     34  C   LIG d   1       3.298   0.805  -9.510  0.00  0.00     0.117 A 
ATOM     35  H   LIG d   1       1.415   0.119  -8.751  0.00  0.00     0.065 H 
ATOM     36  C   LIG d   1       4.591   0.447  -9.864  0.00  0.00    -0.020 A 
ATOM     37  C   LIG d   1       5.005  -0.863  -9.729  0.00  0.00    -0.053 A 
ATOM     38  H   LIG d   1       5.274   1.194 -10.241  0.00  0.00     0.065 H 
ATOM     39  H   LIG d   1       6.013  -1.141 -10.001  0.00  0.00     0.062 H 
BRANCH  34  40
ATOM     40  O   LIG d   1       2.890   2.094  -9.635  0.00  0.00    -0.507 OA
ATOM     41  H   LIG d   1       2.154   2.217 -10.250  0.00  0.00     0.292 HD
ENDBRANCH  34  40
ENDBRANCH   2  30
BRANCH   4  42
ATOM     42  C   LIG d   1       3.266  -4.134 -11.182  0.00  0.00     0.056 C 
ATOM     43  H   LIG d   1       3.941  -3.465 -11.718  0.00  0.00     0.052 H 
ATOM     44  H   LIG d   1       3.351  -5.140 -11.590  0.00  0.00     0.052 H 
BRANCH  42  45
ATOM     45  C   LIG d   1       1.826  -3.639 -11.341  0.00  0.00    -0.016 C 
ATOM     46  H   LIG d   1       1.146  -4.490 -11.316  0.00  0.00     0.083 H 
ATOM     47  H   LIG d   1       1.585  -2.956 -10.527  0.00  0.00     0.083 H 
BRANCH  45  48
ATOM     48  N   LIG d   1       1.709  -2.920 -12.627  0.00  0.00     0.232 N 
ATOM     49  H   LIG d   1       2.041  -3.531 -13.382  0.00  0.00     0.203 HD
BRANCH  48  50
ATOM     50  C   LIG d   1       0.295  -2.568 -12.881  0.00  0.00    -0.043 C 
ATOM     51  H   LIG d   1      -0.137  -2.074 -12.012  0.00  0.00     0.078 H 
ATOM     52  H   LIG d   1       0.246  -1.900 -13.741  0.00  0.00     0.078 H 
ATOM     53  H   LIG d   1      -0.262  -3.480 -13.096  0.00  0.00     0.078 H 
ENDBRANCH  48  50
BRANCH  48  54
ATOM     54  C   LIG d   1       2.537  -1.697 -12.599  0.00  0.00    -0.043 C 
ATOM     55  H   LIG d   1       1.884  -0.827 -12.676  0.00  0.00     0.078 H 
ATOM     56  H   LIG d   1       3.082  -1.659 -11.656  0.00  0.00     0.078 H 
ATOM     57  H   LIG d   1       3.244  -1.695 -13.429  0.00  0.00     0.078 H 
ENDBRANCH  48  54
ENDBRANCH  45  48
ENDBRANCH  42  45
ENDBRANCH   4  42
TORSDOF 12
ENDMDL
MODEL 4
REMARK VINA RESULT:      -5.3      5.947      8.019
REMARK  12 active torsions:
REMARK  status: ('A' for Active; 'I' for Inactive)
REMARK    1  A    between atoms: C_1  and  C_2 
REMARK    2  A    between atoms: C_4  and  C_10 
REMARK    3  A    between atoms: C_7  and  O_8 
REMARK    4  A    between atoms: O_8  and  C_9 
REMARK    5  A    between atoms: C_10  and  C_11 
REMARK    6  A    between atoms: C_12  and  C_23 
REMARK    7  A    between atoms: N_14  and  C_19 
REMARK    8  A    between atoms: C_19  and  C_20 
REMARK    9  A    between atoms: C_20  and  N_56 
REMARK   10  A    between atoms: C_21  and  N_56 
REMARK   11  A    between atoms: C_22  and  N_56 
REMARK   12  A    between atoms: C_26  and  O_29 
ROOT
ATOM      1  C   LIG d   1       9.599   2.063  -4.434  0.00  0.00     0.112 A 
ATOM      2  C   LIG d   1       9.980   3.357  -3.752  0.00  0.00     0.069 A 
ATOM      3  H   LIG d   1       9.348   3.517  -2.878  0.00  0.00     0.056 H 
ATOM      4  N   LIG d   1      11.379   3.217  -3.340  0.00  0.00    -0.282 N 
ATOM      5  C   LIG d   1      11.826   2.005  -3.709  0.00  0.00     0.284 A 
ATOM      6  O   LIG d   1      12.946   1.585  -3.507  0.00  0.00    -0.267 OA
ATOM      7  C   LIG d   1      10.743   1.252  -4.397  0.00  0.00     0.230 A 
ATOM      8  O   LIG d   1      10.833   0.124  -4.850  0.00  0.00    -0.286 OA
ATOM      9  H   LIG d   1       9.237   1.423  -3.757  0.00  0.00     0.049 H 
ENDROOT
BRANCH   1  10
ATOM     10  C   LIG d   1       8.373   1.744  -4.985  0.00  0.00     0.176 C 
ATOM     11  O   LIG d   1       8.025   2.239  -6.191  0.00  0.00    -0.291 OA
BRANCH  10  12
ATOM     12  C   LIG d   1       7.446   0.865  -4.256  0.00  0.00     0.019 A 
ATOM     13  C   LIG d   1       6.477   1.414  -3.408  0.00  0.00    -0.045 A 
ATOM     14  C   LIG d   1       5.612   0.587  -2.729  0.00  0.00    -0.008 A 
ATOM     15  H   LIG d   1       6.408   2.485  -3.289  0.00  0.00     0.063 H 
ATOM     16  C   LIG d   1       5.700  -0.792  -2.883  0.00  0.00     0.123 A 
ATOM     17  C   LIG d   1       6.660  -1.344  -3.724  0.00  0.00    -0.019 A 
ATOM     18  C   LIG d   1       7.527  -0.525  -4.412  0.00  0.00    -0.048 A 
ATOM     19  H   LIG d   1       6.725  -2.415  -3.841  0.00  0.00     0.065 H 
ATOM     20  H   LIG d   1       8.270  -0.954  -5.069  0.00  0.00     0.063 H 
BRANCH  14  21
ATOM     21  C   LIG d   1       4.568   1.176  -1.816  0.00  0.00    -0.036 C 
ATOM     22  H   LIG d   1       4.510   2.253  -1.976  0.00  0.00     0.028 H 
ATOM     23  H   LIG d   1       3.600   0.724  -2.032  0.00  0.00     0.028 H 
ATOM     24  H   LIG d   1       4.838   0.977  -0.779  0.00  0.00     0.028 H 
ENDBRANCH  14  21
BRANCH  16  25
ATOM     25  O   LIG d   1       4.845  -1.604  -2.210  0.00  0.00    -0.495 OA
BRANCH  25  26
ATOM     26  C   LIG d   1       4.042  -2.490  -2.992  0.00  0.00     0.079 C 
ATOM     27  H   LIG d   1       3.438  -3.112  -2.331  0.00  0.00     0.066 H 
ATOM     28  H   LIG d   1       3.387  -1.909  -3.642  0.00  0.00     0.066 H 
ATOM     29  H   LIG d   1       4.686  -3.125  -3.600  0.00  0.00     0.066 H 
ENDBRANCH  25  26
ENDBRANCH  16  25
ENDBRANCH  10  12
ENDBRANCH   1  10
BRANCH   2  30
ATOM     30  C   LIG d   1       9.835   4.508  -4.712  0.00  0.00    -0.026 A 
ATOM     31  C   LIG d   1      10.390   4.427  -5.976  0.00  0.00    -0.053 A 
ATOM     32  C   LIG d   1      10.257   5.481  -6.860  0.00  0.00    -0.020 A 
ATOM     33  H   LIG d   1      10.928   3.538  -6.274  0.00  0.00     0.062 H 
ATOM     34  C   LIG d   1       9.567   6.622  -6.477  0.00  0.00     0.117 A 
ATOM     35  H   LIG d   1      10.691   5.417  -7.846  0.00  0.00     0.065 H 
ATOM     36  C   LIG d   1       9.011   6.701  -5.209  0.00  0.00    -0.020 A 
ATOM     37  C   LIG d   1       9.141   5.642  -4.332  0.00  0.00    -0.053 A 
ATOM     38  H   LIG d   1       8.473   7.588  -4.909  0.00  0.00     0.065 H 
ATOM     39  H   LIG d   1       8.705   5.701  -3.345  0.00  0.00     0.062 H 
BRANCH  34  40
ATOM     40  O   LIG d   1       9.435   7.659  -7.344  0.00  0.00    -0.507 OA
ATOM     41  H   LIG d   1       9.767   7.475  -8.233  0.00  0.00     0.292 HD
ENDBRANCH  34  40
ENDBRANCH   2  30
BRANCH   4  42
ATOM     42  C   LIG d   1      12.165   4.236  -2.638  0.00  0.00     0.056 C 
ATOM     43  H   LIG d   1      13.056   3.776  -2.209  0.00  0.00     0.052 H 
ATOM     44  H   LIG d   1      12.461   5.015  -3.339  0.00  0.00     0.052 H 
BRANCH  42  45
ATOM     45  C   LIG d   1      11.320   4.850  -1.520  0.00  0.00    -0.016 C 
ATOM     46  H   LIG d   1      10.885   5.787  -1.867  0.00  0.00     0.083 H 
ATOM     47  H   LIG d   1      10.522   4.160  -1.246  0.00  0.00     0.083 H 
BRANCH  45  48
ATOM     48  N   LIG d   1      12.183   5.084  -0.343  0.00  0.00     0.232 N 
ATOM     49  H   LIG d   1      12.438   4.179   0.068  0.00  0.00     0.203 HD
BRANCH  48  50
ATOM     50  C   LIG d   1      13.415   5.791  -0.753  0.00  0.00    -0.043 C 
ATOM     51  H   LIG d   1      13.925   6.205   0.116  0.00  0.00     0.078 H 
ATOM     52  H   LIG d   1      14.075   5.086  -1.260  0.00  0.00     0.078 H 
ATOM     53  H   LIG d   1      13.149   6.597  -1.437  0.00  0.00     0.078 H 
ENDBRANCH  48  50
BRANCH  48  54
ATOM     54  C   LIG d   1      11.456   5.882   0.666  0.00  0.00    -0.043 C 
ATOM     55  H   LIG d   1      11.374   6.910   0.312  0.00  0.00     0.078 H 
ATOM     56  H   LIG d   1      10.458   5.463   0.798  0.00  0.00     0.078 H 
ATOM     57  H   LIG d   1      11.985   5.867   1.619  0.00  0.00     0.078 H 
ENDBRANCH  48  54
ENDBRANCH  45  48
ENDBRANCH  42  45
ENDBRANCH   4  42
TORSDOF 12
ENDMDL
MODEL 5
REMARK VINA RESULT:      -5.3      2.502      4.974
REMARK  12 active torsions:
REMARK  status: ('A' for Active; 'I' for Inactive)
REMARK    1  A    between atoms: C_1  and  C_2 
REMARK    2  A    between atoms: C_4  and  C_10 
REMARK    3  A    between atoms: C_7  and  O_8 
REMARK    4  A    between atoms: O_8  and  C_9 
REMARK    5  A    between atoms: C_10  and  C_11 
REMARK    6  A    between atoms: C_12  and  C_23 
REMARK    7  A    between atoms: N_14  and  C_19 
REMARK    8  A    between atoms: C_19  and  C_20 
REMARK    9  A    between atoms: C_20  and  N_56 
REMARK   10  A    between atoms: C_21  and  N_56 
REMARK   11  A    between atoms: C_22  and  N_56 
REMARK   12  A    between atoms: C_26  and  O_29 
ROOT
ATOM      1  C   LIG d   1       5.101  -0.740  -4.863  0.00  0.00     0.112 A 
ATOM      2  C   LIG d   1       6.516  -0.227  -4.998  0.00  0.00     0.069 A 
ATOM      3  H   LIG d   1       6.636   0.288  -5.952  0.00  0.00     0.056 H 
ATOM      4  N   LIG d   1       6.730   0.709  -3.891  0.00  0.00    -0.282 N 
ATOM      5  C   LIG d   1       5.609   0.780  -3.155  0.00  0.00     0.284 A 
ATOM      6  O   LIG d   1       5.466   1.475  -2.170  0.00  0.00    -0.267 OA
ATOM      7  C   LIG d   1       4.565  -0.111  -3.729  0.00  0.00     0.230 A 
ATOM      8  O   LIG d   1       3.440  -0.269  -3.291  0.00  0.00    -0.286 OA
ATOM      9  H   LIG d   1       4.480  -0.145  -5.372  0.00  0.00     0.049 H 
ENDROOT
BRANCH   1  10
ATOM     10  C   LIG d   1       4.464  -1.647  -5.688  0.00  0.00     0.176 C 
ATOM     11  O   LIG d   1       4.224  -2.903  -5.254  0.00  0.00    -0.291 OA
BRANCH  10  12
ATOM     12  C   LIG d   1       4.046  -1.244  -7.040  0.00  0.00     0.019 A 
ATOM     13  C   LIG d   1       3.598   0.060  -7.277  0.00  0.00    -0.045 A 
ATOM     14  C   LIG d   1       3.208   0.432  -8.543  0.00  0.00    -0.008 A 
ATOM     15  H   LIG d   1       3.561   0.774  -6.468  0.00  0.00     0.063 H 
ATOM     16  C   LIG d   1       3.257  -0.487  -9.586  0.00  0.00     0.123 A 
ATOM     17  C   LIG d   1       3.701  -1.785  -9.356  0.00  0.00    -0.019 A 
ATOM     18  C   LIG d   1       4.098  -2.165  -8.094  0.00  0.00    -0.048 A 
ATOM     19  H   LIG d   1       3.737  -2.495 -10.168  0.00  0.00     0.065 H 
ATOM     20  H   LIG d   1       4.447  -3.172  -7.917  0.00  0.00     0.063 H 
BRANCH  14  21
ATOM     21  C   LIG d   1       2.728   1.837  -8.801  0.00  0.00    -0.036 C 
ATOM     22  H   LIG d   1       2.573   1.978  -9.871  0.00  0.00     0.028 H 
ATOM     23  H   LIG d   1       1.789   2.002  -8.273  0.00  0.00     0.028 H 
ATOM     24  H   LIG d   1       3.475   2.546  -8.446  0.00  0.00     0.028 H 
ENDBRANCH  14  21
BRANCH  16  25
ATOM     25  O   LIG d   1       2.871  -0.116 -10.833  0.00  0.00    -0.495 OA
BRANCH  25  26
ATOM     26  C   LIG d   1       3.890  -0.040 -11.831  0.00  0.00     0.079 C 
ATOM     27  H   LIG d   1       4.661   0.662 -11.512  0.00  0.00     0.066 H 
ATOM     28  H   LIG d   1       4.333  -1.026 -11.975  0.00  0.00     0.066 H 
ATOM     29  H   LIG d   1       3.454   0.302 -12.770  0.00  0.00     0.066 H 
ENDBRANCH  25  26
ENDBRANCH  16  25
ENDBRANCH  10  12
ENDBRANCH   1  10
BRANCH   2  30
ATOM     30  C   LIG d   1       7.491  -1.372  -4.904  0.00  0.00    -0.026 A 
ATOM     31  C   LIG d   1       8.422  -1.570  -5.906  0.00  0.00    -0.053 A 
ATOM     32  C   LIG d   1       9.318  -2.619  -5.822  0.00  0.00    -0.020 A 
ATOM     33  H   LIG d   1       8.450  -0.904  -6.757  0.00  0.00     0.062 H 
ATOM     34  C   LIG d   1       9.282  -3.474  -4.730  0.00  0.00     0.117 A 
ATOM     35  H   LIG d   1      10.045  -2.773  -6.606  0.00  0.00     0.065 H 
ATOM     36  C   LIG d   1       8.347  -3.273  -3.725  0.00  0.00    -0.020 A 
ATOM     37  C   LIG d   1       7.458  -2.219  -3.812  0.00  0.00    -0.053 A 
ATOM     38  H   LIG d   1       8.316  -3.937  -2.875  0.00  0.00     0.065 H 
ATOM     39  H   LIG d   1       6.732  -2.060  -3.028  0.00  0.00     0.062 H 
BRANCH  34  40
ATOM     40  O   LIG d   1      10.162  -4.505  -4.645  0.00  0.00    -0.507 OA
ATOM     41  H   LIG d   1      10.347  -4.792  -3.740  0.00  0.00     0.292 HD
ENDBRANCH  34  40
ENDBRANCH   2  30
BRANCH   4  42
ATOM     42  C   LIG d   1       7.968   1.448  -3.630  0.00  0.00     0.056 C 
ATOM     43  H   LIG d   1       7.854   2.038  -2.720  0.00  0.00     0.052 H 
ATOM     44  H   LIG d   1       8.792   0.747  -3.507  0.00  0.00     0.052 H 
BRANCH  42  45
ATOM     45  C   LIG d   1       8.263   2.380  -4.807  0.00  0.00    -0.016 C 
ATOM     46  H   LIG d   1       8.269   1.805  -5.733  0.00  0.00     0.083 H 
ATOM     47  H   LIG d   1       7.494   3.150  -4.863  0.00  0.00     0.083 H 
BRANCH  45  48
ATOM     48  N   LIG d   1       9.576   3.024  -4.589  0.00  0.00     0.232 N 
ATOM     49  H   LIG d   1      10.260   2.612  -5.234  0.00  0.00     0.203 HD
BRANCH  48  50
ATOM     50  C   LIG d   1       9.477   4.475  -4.854  0.00  0.00    -0.043 C 
ATOM     51  H   LIG d   1       9.551   4.673  -5.923  0.00  0.00     0.078 H 
ATOM     52  H   LIG d   1       8.520   4.839  -4.482  0.00  0.00     0.078 H 
ATOM     53  H   LIG d   1      10.288   4.985  -4.332  0.00  0.00     0.078 H 
ENDBRANCH  48  50
BRANCH  48  54
ATOM     54  C   LIG d   1      10.026   2.794  -3.200  0.00  0.00    -0.043 C 
ATOM     55  H   LIG d   1      10.649   3.632  -2.888  0.00  0.00     0.078 H 
ATOM     56  H   LIG d   1       9.153   2.729  -2.550  0.00  0.00     0.078 H 
ATOM     57  H   LIG d   1      10.600   1.869  -3.132  0.00  0.00     0.078 H 
ENDBRANCH  48  54
ENDBRANCH  45  48
ENDBRANCH  42  45
ENDBRANCH   4  42
TORSDOF 12
ENDMDL
MODEL 6
REMARK VINA RESULT:      -5.2      2.738      5.065
REMARK  12 active torsions:
REMARK  status: ('A' for Active; 'I' for Inactive)
REMARK    1  A    between atoms: C_1  and  C_2 
REMARK    2  A    between atoms: C_4  and  C_10 
REMARK    3  A    between atoms: C_7  and  O_8 
REMARK    4  A    between atoms: O_8  and  C_9 
REMARK    5  A    between atoms: C_10  and  C_11 
REMARK    6  A    between atoms: C_12  and  C_23 
REMARK    7  A    between atoms: N_14  and  C_19 
REMARK    8  A    between atoms: C_19  and  C_20 
REMARK    9  A    between atoms: C_20  and  N_56 
REMARK   10  A    between atoms: C_21  and  N_56 
REMARK   11  A    between atoms: C_22  and  N_56 
REMARK   12  A    between atoms: C_26  and  O_29 
ROOT
ATOM      1  C   LIG d   1       4.924  -2.819  -7.047  0.00  0.00     0.112 A 
ATOM      2  C   LIG d   1       4.615  -1.568  -6.257  0.00  0.00     0.069 A 
ATOM      3  H   LIG d   1       3.744  -1.735  -5.622  0.00  0.00     0.056 H 
ATOM      4  N   LIG d   1       5.793  -1.292  -5.431  0.00  0.00    -0.282 N 
ATOM      5  C   LIG d   1       6.721  -2.236  -5.663  0.00  0.00     0.284 A 
ATOM      6  O   LIG d   1       7.809  -2.288  -5.127  0.00  0.00    -0.267 OA
ATOM      7  C   LIG d   1       6.217  -3.210  -6.667  0.00  0.00     0.230 A 
ATOM      8  O   LIG d   1       6.822  -4.179  -7.089  0.00  0.00    -0.286 OA
ATOM      9  H   LIG d   1       4.630  -3.622  -6.528  0.00  0.00     0.049 H 
ENDROOT
BRANCH   1  10
ATOM     10  C   LIG d   1       4.100  -3.451  -7.959  0.00  0.00     0.176 C 
ATOM     11  O   LIG d   1       3.483  -4.604  -7.625  0.00  0.00    -0.291 OA
BRANCH  10  12
ATOM     12  C   LIG d   1       3.895  -2.867  -9.293  0.00  0.00     0.019 A 
ATOM     13  C   LIG d   1       2.665  -2.288  -9.625  0.00  0.00    -0.045 A 
ATOM     14  C   LIG d   1       2.479  -1.744 -10.875  0.00  0.00    -0.008 A 
ATOM     15  H   LIG d   1       1.865  -2.267  -8.901  0.00  0.00     0.063 H 
ATOM     16  C   LIG d   1       3.510  -1.770 -11.808  0.00  0.00     0.123 A 
ATOM     17  C   LIG d   1       4.734  -2.344 -11.484  0.00  0.00    -0.019 A 
ATOM     18  C   LIG d   1       4.932  -2.886 -10.234  0.00  0.00    -0.048 A 
ATOM     19  H   LIG d   1       5.531  -2.362 -12.211  0.00  0.00     0.065 H 
ATOM     20  H   LIG d   1       5.885  -3.328  -9.982  0.00  0.00     0.063 H 
BRANCH  14  21
ATOM     21  C   LIG d   1       1.156  -1.118 -11.234  0.00  0.00    -0.036 C 
ATOM     22  H   LIG d   1       1.304  -0.065 -11.473  0.00  0.00     0.028 H 
ATOM     23  H   LIG d   1       0.733  -1.632 -12.097  0.00  0.00     0.028 H 
ATOM     24  H   LIG d   1       0.472  -1.206 -10.389  0.00  0.00     0.028 H 
ENDBRANCH  14  21
BRANCH  16  25
ATOM     25  O   LIG d   1       3.321  -1.232 -13.039  0.00  0.00    -0.495 OA
BRANCH  25  26
ATOM     26  C   LIG d   1       4.441  -0.582 -13.642  0.00  0.00     0.079 C 
ATOM     27  H   LIG d   1       4.178   0.448 -13.884  0.00  0.00     0.066 H 
ATOM     28  H   LIG d   1       5.283  -0.590 -12.949  0.00  0.00     0.066 H 
ATOM     29  H   LIG d   1       4.719  -1.109 -14.556  0.00  0.00     0.066 H 
ENDBRANCH  25  26
ENDBRANCH  16  25
ENDBRANCH  10  12
ENDBRANCH   1  10
BRANCH   2  30
ATOM     30  C   LIG d   1       4.359  -0.417  -7.195  0.00  0.00    -0.026 A 
ATOM     31  C   LIG d   1       5.365   0.028  -8.032  0.00  0.00    -0.053 A 
ATOM     32  C   LIG d   1       5.132   1.082  -8.894  0.00  0.00    -0.020 A 
ATOM     33  H   LIG d   1       6.334  -0.449  -8.013  0.00  0.00     0.062 H 
ATOM     34  C   LIG d   1       3.888   1.695  -8.918  0.00  0.00     0.117 A 
ATOM     35  H   LIG d   1       5.919   1.430  -9.547  0.00  0.00     0.065 H 
ATOM     36  C   LIG d   1       2.880   1.246  -8.077  0.00  0.00    -0.020 A 
ATOM     37  C   LIG d   1       3.116   0.187  -7.222  0.00  0.00    -0.053 A 
ATOM     38  H   LIG d   1       1.911   1.722  -8.094  0.00  0.00     0.065 H 
ATOM     39  H   LIG d   1       2.330  -0.165  -6.570  0.00  0.00     0.062 H 
BRANCH  34  40
ATOM     40  O   LIG d   1       3.656   2.732  -9.765  0.00  0.00    -0.507 OA
ATOM     41  H   LIG d   1       4.345   2.857 -10.432  0.00  0.00     0.292 HD
ENDBRANCH  34  40
ENDBRANCH   2  30
BRANCH   4  42
ATOM     42  C   LIG d   1       5.936  -0.169  -4.500  0.00  0.00     0.056 C 
ATOM     43  H   LIG d   1       6.987  -0.044  -4.239  0.00  0.00     0.052 H 
ATOM     44  H   LIG d   1       5.567   0.742  -4.970  0.00  0.00     0.052 H 
BRANCH  42  45
ATOM     45  C   LIG d   1       5.126  -0.452  -3.232  0.00  0.00    -0.016 C 
ATOM     46  H   LIG d   1       4.971  -1.526  -3.133  0.00  0.00     0.083 H 
ATOM     47  H   LIG d   1       5.671  -0.082  -2.364  0.00  0.00     0.083 H 
BRANCH  45  48
ATOM     48  N   LIG d   1       3.830   0.252  -3.327  0.00  0.00     0.232 N 
ATOM     49  H   LIG d   1       3.755   0.688  -4.254  0.00  0.00     0.203 HD
BRANCH  48  50
ATOM     50  C   LIG d   1       2.720  -0.708  -3.156  0.00  0.00    -0.043 C 
ATOM     51  H   LIG d   1       2.813  -1.236  -2.207  0.00  0.00     0.078 H 
ATOM     52  H   LIG d   1       1.775  -0.165  -3.178  0.00  0.00     0.078 H 
ATOM     53  H   LIG d   1       2.745  -1.427  -3.975  0.00  0.00     0.078 H 
ENDBRANCH  48  50
BRANCH  48  54
ATOM     54  C   LIG d   1       3.751   1.305  -2.293  0.00  0.00    -0.043 C 
ATOM     55  H   LIG d   1       3.499   2.252  -2.772  0.00  0.00     0.078 H 
ATOM     56  H   LIG d   1       2.972   1.042  -1.578  0.00  0.00     0.078 H 
ATOM     57  H   LIG d   1       4.704   1.404  -1.774  0.00  0.00     0.078 H 
ENDBRANCH  48  54
ENDBRANCH  45  48
ENDBRANCH  42  45
ENDBRANCH   4  42
TORSDOF 12
ENDMDL
MODEL 7
REMARK VINA RESULT:      -5.2      1.696      2.521
REMARK  12 active torsions:
REMARK  status: ('A' for Active; 'I' for Inactive)
REMARK    1  A    between atoms: C_1  and  C_2 
REMARK    2  A    between atoms: C_4  and  C_10 
REMARK    3  A    between atoms: C_7  and  O_8 
REMARK    4  A    between atoms: O_8  and  C_9 
REMARK    5  A    between atoms: C_10  and  C_11 
REMARK    6  A    between atoms: C_12  and  C_23 
REMARK    7  A    between atoms: N_14  and  C_19 
REMARK    8  A    between atoms: C_19  and  C_20 
REMARK    9  A    between atoms: C_20  and  N_56 
REMARK   10  A    between atoms: C_21  and  N_56 
REMARK   11  A    between atoms: C_22  and  N_56 
REMARK   12  A    between atoms: C_26  and  O_29 
ROOT
ATOM      1  C   LIG d   1       5.242  -1.414  -6.907  0.00  0.00     0.112 A 
ATOM      2  C   LIG d   1       5.322  -2.230  -5.637  0.00  0.00     0.069 A 
ATOM      3  H   LIG d   1       4.542  -2.992  -5.634  0.00  0.00     0.056 H 
ATOM      4  N   LIG d   1       6.643  -2.864  -5.629  0.00  0.00    -0.282 N 
ATOM      5  C   LIG d   1       7.309  -2.502  -6.738  0.00  0.00     0.284 A 
ATOM      6  O   LIG d   1       8.431  -2.866  -7.026  0.00  0.00    -0.267 OA
ATOM      7  C   LIG d   1       6.467  -1.596  -7.565  0.00  0.00     0.230 A 
ATOM      8  O   LIG d   1       6.787  -1.096  -8.629  0.00  0.00    -0.286 OA
ATOM      9  H   LIG d   1       4.870  -1.979  -7.643  0.00  0.00     0.049 H 
ENDROOT
BRANCH   1  10
ATOM     10  C   LIG d   1       4.176  -0.645  -7.334  0.00  0.00     0.176 C 
ATOM     11  O   LIG d   1       3.974   0.580  -6.806  0.00  0.00    -0.291 OA
BRANCH  10  12
ATOM     12  C   LIG d   1       3.263  -1.161  -8.365  0.00  0.00     0.019 A 
ATOM     13  C   LIG d   1       3.331  -2.503  -8.757  0.00  0.00    -0.045 A 
ATOM     14  C   LIG d   1       2.474  -2.980  -9.722  0.00  0.00    -0.008 A 
ATOM     15  H   LIG d   1       4.055  -3.162  -8.301  0.00  0.00     0.063 H 
ATOM     16  C   LIG d   1       1.542  -2.131 -10.308  0.00  0.00     0.123 A 
ATOM     17  C   LIG d   1       1.469  -0.797  -9.923  0.00  0.00    -0.019 A 
ATOM     18  C   LIG d   1       2.318  -0.311  -8.955  0.00  0.00    -0.048 A 
ATOM     19  H   LIG d   1       0.744  -0.142 -10.381  0.00  0.00     0.065 H 
ATOM     20  H   LIG d   1       2.258   0.724  -8.653  0.00  0.00     0.063 H 
BRANCH  14  21
ATOM     21  C   LIG d   1       2.545  -4.425 -10.144  0.00  0.00    -0.036 C 
ATOM     22  H   LIG d   1       1.922  -5.028  -9.484  0.00  0.00     0.028 H 
ATOM     23  H   LIG d   1       2.190  -4.522 -11.170  0.00  0.00     0.028 H 
ATOM     24  H   LIG d   1       3.578  -4.770 -10.083  0.00  0.00     0.028 H 
ENDBRANCH  14  21
BRANCH  16  25
ATOM     25  O   LIG d   1       0.699  -2.607 -11.259  0.00  0.00    -0.495 OA
BRANCH  25  26
ATOM     26  C   LIG d   1       0.720  -1.953 -12.530  0.00  0.00     0.079 C 
ATOM     27  H   LIG d   1       1.021  -0.914 -12.399  0.00  0.00     0.066 H 
ATOM     28  H   LIG d   1       1.429  -2.457 -13.187  0.00  0.00     0.066 H 
ATOM     29  H   LIG d   1      -0.275  -1.989 -12.974  0.00  0.00     0.066 H 
ENDBRANCH  25  26
ENDBRANCH  16  25
ENDBRANCH  10  12
ENDBRANCH   1  10
BRANCH   2  30
ATOM     30  C   LIG d   1       5.172  -1.331  -4.437  0.00  0.00    -0.026 A 
ATOM     31  C   LIG d   1       4.179  -1.581  -3.508  0.00  0.00    -0.053 A 
ATOM     32  C   LIG d   1       4.040  -0.759  -2.406  0.00  0.00    -0.020 A 
ATOM     33  H   LIG d   1       3.511  -2.420  -3.643  0.00  0.00     0.062 H 
ATOM     34  C   LIG d   1       4.897   0.318  -2.233  0.00  0.00     0.117 A 
ATOM     35  H   LIG d   1       3.264  -0.954  -1.681  0.00  0.00     0.065 H 
ATOM     36  C   LIG d   1       5.893   0.566  -3.167  0.00  0.00    -0.020 A 
ATOM     37  C   LIG d   1       6.031  -0.262  -4.263  0.00  0.00    -0.053 A 
ATOM     38  H   LIG d   1       6.561   1.404  -3.035  0.00  0.00     0.065 H 
ATOM     39  H   LIG d   1       6.809  -0.072  -4.988  0.00  0.00     0.062 H 
BRANCH  34  40
ATOM     40  O   LIG d   1       4.762   1.127  -1.151  0.00  0.00    -0.507 OA
ATOM     41  H   LIG d   1       3.979   0.941  -0.614  0.00  0.00     0.292 HD
ENDBRANCH  34  40
ENDBRANCH   2  30
BRANCH   4  42
ATOM     42  C   LIG d   1       7.155  -3.751  -4.581  0.00  0.00     0.056 C 
ATOM     43  H   LIG d   1       6.377  -3.920  -3.835  0.00  0.00     0.052 H 
ATOM     44  H   LIG d   1       7.449  -4.703  -5.021  0.00  0.00     0.052 H 
BRANCH  42  45
ATOM     45  C   LIG d   1       8.368  -3.101  -3.911  0.00  0.00    -0.016 C 
ATOM     46  H   LIG d   1       8.541  -2.119  -4.349  0.00  0.00     0.083 H 
ATOM     47  H   LIG d   1       8.180  -2.994  -2.843  0.00  0.00     0.083 H 
BRANCH  45  48
ATOM     48  N   LIG d   1       9.546  -3.972  -4.111  0.00  0.00     0.232 N 
ATOM     49  H   LIG d   1      10.153  -3.553  -4.824  0.00  0.00     0.203 HD
BRANCH  48  50
ATOM     50  C   LIG d   1      10.302  -4.095  -2.847  0.00  0.00    -0.043 C 
ATOM     51  H   LIG d   1       9.736  -4.673  -2.117  0.00  0.00     0.078 H 
ATOM     52  H   LIG d   1      11.250  -4.594  -3.049  0.00  0.00     0.078 H 
ATOM     53  H   LIG d   1      10.494  -3.097  -2.451  0.00  0.00     0.078 H 
ENDBRANCH  48  50
BRANCH  48  54
ATOM     54  C   LIG d   1       9.114  -5.308  -4.573  0.00  0.00    -0.043 C 
ATOM     55  H   LIG d   1       8.033  -5.299  -4.716  0.00  0.00     0.078 H 
ATOM     56  H   LIG d   1       9.604  -5.530  -5.521  0.00  0.00     0.078 H 
ATOM     57  H   LIG d   1       9.377  -6.070  -3.839  0.00  0.00     0.078 H 
ENDBRANCH  48  54
ENDBRANCH  45  48
ENDBRANCH  42  45
ENDBRANCH   4  42
TORSDOF 12
ENDMDL
MODEL 8
REMARK VINA RESULT:      -5.2      2.879      7.641
REMARK  12 active torsions:
REMARK  status: ('A' for Active; 'I' for Inactive)
REMARK    1  A    between atoms: C_1  and  C_2 
REMARK    2  A    between atoms: C_4  and  C_10 
REMARK    3  A    between atoms: C_7  and  O_8 
REMARK    4  A    between atoms: O_8  and  C_9 
REMARK    5  A    between atoms: C_10  and  C_11 
REMARK    6  A    between atoms: C_12  and  C_23 
REMARK    7  A    between atoms: N_14  and  C_19 
REMARK    8  A    between atoms: C_19  and  C_20 
REMARK    9  A    between atoms: C_20  and  N_56 
REMARK   10  A    between atoms: C_21  and  N_56 
REMARK   11  A    between atoms: C_22  and  N_56 
REMARK   12  A    between atoms: C_26  and  O_29 
ROOT
ATOM      1  C   LIG d   1       7.536  -2.859  -5.117  0.00  0.00     0.112 A 
ATOM      2  C   LIG d   1       6.124  -3.095  -4.631  0.00  0.00     0.069 A 
ATOM      3  H   LIG d   1       6.143  -3.597  -3.664  0.00  0.00     0.056 H 
ATOM      4  N   LIG d   1       5.500  -1.776  -4.500  0.00  0.00    -0.282 N 
ATOM      5  C   LIG d   1       6.390  -0.833  -4.853  0.00  0.00     0.284 A 
ATOM      6  O   LIG d   1       6.177   0.362  -4.847  0.00  0.00    -0.267 OA
ATOM      7  C   LIG d   1       7.676  -1.469  -5.246  0.00  0.00     0.230 A 
ATOM      8  O   LIG d   1       8.679  -0.884  -5.616  0.00  0.00    -0.286 OA
ATOM      9  H   LIG d   1       8.145  -2.754  -4.332  0.00  0.00     0.049 H 
ENDROOT
BRANCH   1  10
ATOM     10  C   LIG d   1       8.495  -3.818  -5.382  0.00  0.00     0.176 C 
ATOM     11  O   LIG d   1       9.098  -3.853  -6.589  0.00  0.00    -0.291 OA
BRANCH  10  12
ATOM     12  C   LIG d   1       8.858  -4.800  -4.349  0.00  0.00     0.019 A 
ATOM     13  C   LIG d   1       8.616  -6.163  -4.560  0.00  0.00    -0.045 A 
ATOM     14  C   LIG d   1       8.957  -7.078  -3.590  0.00  0.00    -0.008 A 
ATOM     15  H   LIG d   1       8.164  -6.495  -5.482  0.00  0.00     0.063 H 
ATOM     16  C   LIG d   1       9.540  -6.650  -2.403  0.00  0.00     0.123 A 
ATOM     17  C   LIG d   1       9.782  -5.298  -2.187  0.00  0.00    -0.019 A 
ATOM     18  C   LIG d   1       9.450  -4.375  -3.153  0.00  0.00    -0.048 A 
ATOM     19  H   LIG d   1      10.235  -4.971  -1.263  0.00  0.00     0.065 H 
ATOM     20  H   LIG d   1       9.642  -3.325  -2.987  0.00  0.00     0.063 H 
BRANCH  14  21
ATOM     21  C   LIG d   1       8.700  -8.545  -3.816  0.00  0.00    -0.036 C 
ATOM     22  H   LIG d   1       8.161  -8.956  -2.962  0.00  0.00     0.028 H 
ATOM     23  H   LIG d   1       8.103  -8.675  -4.719  0.00  0.00     0.028 H 
ATOM     24  H   LIG d   1       9.650  -9.067  -3.931  0.00  0.00     0.028 H 
ENDBRANCH  14  21
BRANCH  16  25
ATOM     25  O   LIG d   1       9.875  -7.556  -1.449  0.00  0.00    -0.495 OA
BRANCH  25  26
ATOM     26  C   LIG d   1      11.257  -7.652  -1.101  0.00  0.00     0.079 C 
ATOM     27  H   LIG d   1      11.396  -7.323  -0.071  0.00  0.00     0.066 H 
ATOM     28  H   LIG d   1      11.587  -8.686  -1.200  0.00  0.00     0.066 H 
ATOM     29  H   LIG d   1      11.844  -7.018  -1.766  0.00  0.00     0.066 H 
ENDBRANCH  25  26
ENDBRANCH  16  25
ENDBRANCH  10  12
ENDBRANCH   1  10
BRANCH   2  30
ATOM     30  C   LIG d   1       5.367  -3.928  -5.632  0.00  0.00    -0.026 A 
ATOM     31  C   LIG d   1       5.016  -3.388  -6.855  0.00  0.00    -0.053 A 
ATOM     32  C   LIG d   1       4.323  -4.151  -7.776  0.00  0.00    -0.020 A 
ATOM     33  H   LIG d   1       5.283  -2.369  -7.092  0.00  0.00     0.062 H 
ATOM     34  C   LIG d   1       3.979  -5.461  -7.471  0.00  0.00     0.117 A 
ATOM     35  H   LIG d   1       4.048  -3.729  -8.730  0.00  0.00     0.065 H 
ATOM     36  C   LIG d   1       4.334  -6.000  -6.243  0.00  0.00    -0.020 A 
ATOM     37  C   LIG d   1       5.032  -5.235  -5.329  0.00  0.00    -0.053 A 
ATOM     38  H   LIG d   1       4.068  -7.019  -6.004  0.00  0.00     0.065 H 
ATOM     39  H   LIG d   1       5.312  -5.656  -4.375  0.00  0.00     0.062 H 
BRANCH  34  40
ATOM     40  O   LIG d   1       3.299  -6.213  -8.374  0.00  0.00    -0.507 OA
ATOM     41  H   LIG d   1       3.848  -6.853  -8.847  0.00  0.00     0.292 HD
ENDBRANCH  34  40
ENDBRANCH   2  30
BRANCH   4  42
ATOM     42  C   LIG d   1       4.127  -1.525  -4.054  0.00  0.00     0.056 C 
ATOM     43  H   LIG d   1       3.736  -0.641  -4.560  0.00  0.00     0.052 H 
ATOM     44  H   LIG d   1       3.503  -2.386  -4.294  0.00  0.00     0.052 H 
BRANCH  42  45
ATOM     45  C   LIG d   1       4.116  -1.293  -2.541  0.00  0.00    -0.016 C 
ATOM     46  H   LIG d   1       3.501  -2.054  -2.062  0.00  0.00     0.083 H 
ATOM     47  H   LIG d   1       5.135  -1.354  -2.157  0.00  0.00     0.083 H 
BRANCH  45  48
ATOM     48  N   LIG d   1       3.577   0.056  -2.269  0.00  0.00     0.232 N 
ATOM     49  H   LIG d   1       2.806  -0.023  -1.596  0.00  0.00     0.203 HD
BRANCH  48  50
ATOM     50  C   LIG d   1       4.632   0.915  -1.692  0.00  0.00    -0.043 C 
ATOM     51  H   LIG d   1       4.377   1.967  -1.813  0.00  0.00     0.078 H 
ATOM     52  H   LIG d   1       4.735   0.686  -0.632  0.00  0.00     0.078 H 
ATOM     53  H   LIG d   1       5.574   0.708  -2.202  0.00  0.00     0.078 H 
ENDBRANCH  48  50
BRANCH  48  54
ATOM     54  C   LIG d   1       3.064   0.656  -3.518  0.00  0.00    -0.043 C 
ATOM     55  H   LIG d   1       2.108   1.139  -3.312  0.00  0.00     0.078 H 
ATOM     56  H   LIG d   1       3.777   1.400  -3.873  0.00  0.00     0.078 H 
ATOM     57  H   LIG d   1       2.926  -0.110  -4.282  0.00  0.00     0.078 H 
ENDBRANCH  48  54
ENDBRANCH  45  48
ENDBRANCH  42  45
ENDBRANCH   4  42
TORSDOF 12
ENDMDL
MODEL 9
REMARK VINA RESULT:      -5.2      2.852      5.622
REMARK  12 active torsions:
REMARK  status: ('A' for Active; 'I' for Inactive)
REMARK    1  A    between atoms: C_1  and  C_2 
REMARK    2  A    between atoms: C_4  and  C_10 
REMARK    3  A    between atoms: C_7  and  O_8 
REMARK    4  A    between atoms: O_8  and  C_9 
REMARK    5  A    between atoms: C_10  and  C_11 
REMARK    6  A    between atoms: C_12  and  C_23 
REMARK    7  A    between atoms: N_14  and  C_19 
REMARK    8  A    between atoms: C_19  and  C_20 
REMARK    9  A    between atoms: C_20  and  N_56 
REMARK   10  A    between atoms: C_21  and  N_56 
REMARK   11  A    between atoms: C_22  and  N_56 
REMARK   12  A    between atoms: C_26  and  O_29 
ROOT
ATOM      1  C   LIG d   1       3.761   0.122  -7.266  0.00  0.00     0.112 A 
ATOM      2  C   LIG d   1       5.019  -0.715  -7.248  0.00  0.00     0.069 A 
ATOM      3  H   LIG d   1       5.888  -0.085  -7.443  0.00  0.00     0.056 H 
ATOM      4  N   LIG d   1       5.114  -1.301  -5.909  0.00  0.00    -0.282 N 
ATOM      5  C   LIG d   1       4.063  -0.894  -5.178  0.00  0.00     0.284 A 
ATOM      6  O   LIG d   1       3.857  -1.205  -4.022  0.00  0.00    -0.267 OA
ATOM      7  C   LIG d   1       3.192  -0.002  -5.990  0.00  0.00     0.230 A 
ATOM      8  O   LIG d   1       2.163   0.529  -5.612  0.00  0.00    -0.286 OA
ATOM      9  H   LIG d   1       3.977   1.055  -6.977  0.00  0.00     0.049 H 
ENDROOT
BRANCH   1  10
ATOM     10  C   LIG d   1       3.269   0.861  -8.325  0.00  0.00     0.176 C 
ATOM     11  O   LIG d   1       3.179   2.204  -8.227  0.00  0.00    -0.291 OA
BRANCH  10  12
ATOM     12  C   LIG d   1       2.844   0.184  -9.560  0.00  0.00     0.019 A 
ATOM     13  C   LIG d   1       3.675   0.189 -10.686  0.00  0.00    -0.045 A 
ATOM     14  C   LIG d   1       3.273  -0.445 -11.839  0.00  0.00    -0.008 A 
ATOM     15  H   LIG d   1       4.632   0.689 -10.649  0.00  0.00     0.063 H 
ATOM     16  C   LIG d   1       2.042  -1.090 -11.886  0.00  0.00     0.123 A 
ATOM     17  C   LIG d   1       1.211  -1.098 -10.771  0.00  0.00    -0.019 A 
ATOM     18  C   LIG d   1       1.607  -0.471  -9.611  0.00  0.00    -0.048 A 
ATOM     19  H   LIG d   1       0.256  -1.599 -10.812  0.00  0.00     0.065 H 
ATOM     20  H   LIG d   1       0.963  -0.481  -8.744  0.00  0.00     0.063 H 
BRANCH  14  21
ATOM     21  C   LIG d   1       4.167  -0.442 -13.051  0.00  0.00    -0.036 C 
ATOM     22  H   LIG d   1       3.600  -0.771 -13.922  0.00  0.00     0.028 H 
ATOM     23  H   LIG d   1       4.545   0.566 -13.222  0.00  0.00     0.028 H 
ATOM     24  H   LIG d   1       5.004  -1.121 -12.886  0.00  0.00     0.028 H 
ENDBRANCH  14  21
BRANCH  16  25
ATOM     25  O   LIG d   1       1.649  -1.714 -13.025  0.00  0.00    -0.495 OA
BRANCH  25  26
ATOM     26  C   LIG d   1       0.807  -2.859 -12.881  0.00  0.00     0.079 C 
ATOM     27  H   LIG d   1       0.016  -2.641 -12.163  0.00  0.00     0.066 H 
ATOM     28  H   LIG d   1       0.364  -3.110 -13.845  0.00  0.00     0.066 H 
ATOM     29  H   LIG d   1       1.399  -3.702 -12.523  0.00  0.00     0.066 H 
ENDBRANCH  25  26
ENDBRANCH  16  25
ENDBRANCH  10  12
ENDBRANCH   1  10
BRANCH   2  30
ATOM     30  C   LIG d   1       4.928  -1.804  -8.285  0.00  0.00    -0.026 A 
ATOM     31  C   LIG d   1       5.879  -1.887  -9.285  0.00  0.00    -0.053 A 
ATOM     32  C   LIG d   1       5.798  -2.885 -10.237  0.00  0.00    -0.020 A 
ATOM     33  H   LIG d   1       6.687  -1.170  -9.323  0.00  0.00     0.062 H 
ATOM     34  C   LIG d   1       4.761  -3.805 -10.189  0.00  0.00     0.117 A 
ATOM     35  H   LIG d   1       6.541  -2.949 -11.018  0.00  0.00     0.065 H 
ATOM     36  C   LIG d   1       3.808  -3.720  -9.184  0.00  0.00    -0.020 A 
ATOM     37  C   LIG d   1       3.897  -2.724  -8.232  0.00  0.00    -0.053 A 
ATOM     38  H   LIG d   1       2.999  -4.435  -9.145  0.00  0.00     0.065 H 
ATOM     39  H   LIG d   1       3.158  -2.660  -7.447  0.00  0.00     0.062 H 
BRANCH  34  40
ATOM     40  O   LIG d   1       4.680  -4.788 -11.123  0.00  0.00    -0.507 OA
ATOM     41  H   LIG d   1       4.685  -5.683 -10.755  0.00  0.00     0.292 HD
ENDBRANCH  34  40
ENDBRANCH   2  30
BRANCH   4  42
ATOM     42  C   LIG d   1       6.182  -2.188  -5.442  0.00  0.00     0.056 C 
ATOM     43  H   LIG d   1       5.967  -2.513  -4.424  0.00  0.00     0.052 H 
ATOM     44  H   LIG d   1       6.245  -3.058  -6.095  0.00  0.00     0.052 H 
BRANCH  42  45
ATOM     45  C   LIG d   1       7.515  -1.436  -5.466  0.00  0.00    -0.016 C 
ATOM     46  H   LIG d   1       8.287  -2.079  -5.888  0.00  0.00     0.083 H 
ATOM     47  H   LIG d   1       7.416  -0.539  -6.077  0.00  0.00     0.083 H 
BRANCH  45  48
ATOM     48  N   LIG d   1       7.866  -1.044  -4.084  0.00  0.00     0.232 N 
ATOM     49  H   LIG d   1       8.882  -1.134  -3.961  0.00  0.00     0.203 HD
BRANCH  48  50
ATOM     50  C   LIG d   1       7.474   0.360  -3.843  0.00  0.00    -0.043 C 
ATOM     51  H   LIG d   1       7.418   0.908  -4.782  0.00  0.00     0.078 H 
ATOM     52  H   LIG d   1       6.500   0.377  -3.353  0.00  0.00     0.078 H 
ATOM     53  H   LIG d   1       8.216   0.827  -3.193  0.00  0.00     0.078 H 
ENDBRANCH  48  50
BRANCH  48  54
ATOM     54  C   LIG d   1       7.185  -1.932  -3.119  0.00  0.00    -0.043 C 
ATOM     55  H   LIG d   1       7.882  -2.184  -2.319  0.00  0.00     0.078 H 
ATOM     56  H   LIG d   1       6.326  -1.408  -2.700  0.00  0.00     0.078 H 
ATOM     57  H   LIG d   1       6.850  -2.846  -3.610  0.00  0.00     0.078 H 
ENDBRANCH  48  54
ENDBRANCH  45  48
ENDBRANCH  42  45
ENDBRANCH   4  42
TORSDOF 12
ENDMDL
