MODEL 1
REMARK VINA RESULT:      -5.0      0.000      0.000
REMARK  2 active torsions:
REMARK  status: ('A' for Active; 'I' for Inactive)
REMARK    1  A    between atoms: C_8  and  C_13 
REMARK    2  A    between atoms: C_13  and  N_14 
ROOT
ATOM      1  C   LIG d   1       8.392  -0.398  -4.810  0.00  0.00    -0.043 C 
ATOM      2  C   LIG d   1       7.918   1.041  -5.042  0.00  0.00    -0.012 C 
ATOM      3  C   LIG d   1       7.149   1.512  -3.809  0.00  0.00    -0.032 C 
ATOM      4  N   LIG d   1       5.977   0.653  -3.583  0.00  0.00     0.238 N 
ATOM      5  C   LIG d   1       5.240   1.183  -2.426  0.00  0.00    -0.032 C 
ATOM      6  C   LIG d   1       3.973   0.362  -2.187  0.00  0.00    -0.012 C 
ATOM      7  C   LIG d   1       4.372  -1.090  -1.902  0.00  0.00    -0.035 C 
ATOM      8  C   LIG d   1       5.179  -1.618  -3.089  0.00  0.00     0.042 C 
ATOM      9  H   LIG d   1       5.508  -2.636  -2.880  0.00  0.00     0.041 H 
ATOM     10  C   LIG d   1       6.403  -0.726  -3.322  0.00  0.00    -0.013 C 
ATOM     11  H   LIG d   1       7.043  -0.749  -2.441  0.00  0.00     0.086 H 
ATOM     12  C   LIG d   1       7.170  -1.275  -4.529  0.00  0.00    -0.009 C 
ATOM     13  H   LIG d   1       8.906  -0.762  -5.699  0.00  0.00     0.027 H 
ATOM     14  H   LIG d   1       9.067  -0.427  -3.955  0.00  0.00     0.027 H 
ATOM     15  H   LIG d   1       8.780   1.688  -5.204  0.00  0.00     0.032 H 
ATOM     16  H   LIG d   1       7.266   1.075  -5.914  0.00  0.00     0.032 H 
ATOM     17  H   LIG d   1       7.802   1.469  -2.936  0.00  0.00     0.081 H 
ATOM     18  H   LIG d   1       6.819   2.540  -3.959  0.00  0.00     0.081 H 
ATOM     19  H   LIG d   1       5.874   1.136  -1.541  0.00  0.00     0.081 H 
ATOM     20  H   LIG d   1       4.966   2.221  -2.617  0.00  0.00     0.081 H 
ATOM     21  H   LIG d   1       3.432   0.767  -1.331  0.00  0.00     0.032 H 
ATOM     22  H   LIG d   1       3.341   0.399  -3.074  0.00  0.00     0.032 H 
ATOM     23  H   LIG d   1       4.981  -1.131  -0.999  0.00  0.00     0.027 H 
ATOM     24  H   LIG d   1       3.476  -1.696  -1.770  0.00  0.00     0.027 H 
ATOM     25  H   LIG d   1       6.518  -1.279  -5.403  0.00  0.00     0.032 H 
ATOM     26  H   LIG d   1       7.497  -2.293  -4.319  0.00  0.00     0.032 H 
ATOM     27  H   LIG d   1       5.383   0.673  -4.398  0.00  0.00     0.204 HD
ENDROOT
BRANCH   8  28
ATOM     28  C   LIG d   1       4.302  -1.615  -4.343  0.00  0.00    -0.027 C 
ATOM     29  H   LIG d   1       3.365  -1.098  -4.129  0.00  0.00     0.082 H 
ATOM     30  H   LIG d   1       4.824  -1.101  -5.150  0.00  0.00     0.082 H 
BRANCH  28  31
ATOM     31  N   LIG d   1       4.016  -2.998  -4.745  0.00  0.00     0.219 N 
ATOM     32  H   LIG d   1       4.469  -3.194  -5.625  0.00  0.00     0.199 HD
ATOM     33  H   LIG d   1       4.363  -3.632  -4.040  0.00  0.00     0.199 HD
ATOM     34  H   LIG d   1       3.020  -3.121  -4.845  0.00  0.00     0.199 HD
ENDBRANCH  28  31
ENDBRANCH   8  28
TORSDOF 2
ENDMDL
MODEL 2
REMARK VINA RESULT:      -4.9      1.537      3.988
REMARK  2 active torsions:
REMARK  status: ('A' for Active; 'I' for Inactive)
REMARK    1  A    between atoms: C_8  and  C_13 
REMARK    2  A    between atoms: C_13  and  N_14 
ROOT
ATOM      1  C   LIG d   1       4.327   0.938  -1.869  0.00  0.00    -0.043 C 
ATOM      2  C   LIG d   1       3.136   0.370  -2.648  0.00  0.00    -0.012 C 
ATOM      3  C   LIG d   1       3.356  -1.126  -2.864  0.00  0.00    -0.032 C 
ATOM      4  N   LIG d   1       4.585  -1.351  -3.641  0.00  0.00     0.238 N 
ATOM      5  C   LIG d   1       4.718  -2.797  -3.874  0.00  0.00    -0.032 C 
ATOM      6  C   LIG d   1       5.949  -3.080  -4.734  0.00  0.00    -0.012 C 
ATOM      7  C   LIG d   1       7.194  -2.577  -3.996  0.00  0.00    -0.035 C 
ATOM      8  C   LIG d   1       7.026  -1.083  -3.715  0.00  0.00     0.042 C 
ATOM      9  H   LIG d   1       7.885  -0.721  -3.151  0.00  0.00     0.041 H 
ATOM     10  C   LIG d   1       5.748  -0.848  -2.902  0.00  0.00    -0.013 C 
ATOM     11  H   LIG d   1       5.825  -1.366  -1.947  0.00  0.00     0.086 H 
ATOM     12  C   LIG d   1       5.606   0.658  -2.662  0.00  0.00    -0.009 C 
ATOM     13  H   LIG d   1       4.204   2.014  -1.744  0.00  0.00     0.027 H 
ATOM     14  H   LIG d   1       4.390   0.458  -0.893  0.00  0.00     0.027 H 
ATOM     15  H   LIG d   1       2.220   0.526  -2.077  0.00  0.00     0.032 H 
ATOM     16  H   LIG d   1       3.056   0.871  -3.612  0.00  0.00     0.032 H 
ATOM     17  H   LIG d   1       3.444  -1.623  -1.898  0.00  0.00     0.081 H 
ATOM     18  H   LIG d   1       2.506  -1.543  -3.406  0.00  0.00     0.081 H 
ATOM     19  H   LIG d   1       4.819  -3.309  -2.917  0.00  0.00     0.081 H 
ATOM     20  H   LIG d   1       3.828  -3.164  -4.386  0.00  0.00     0.081 H 
ATOM     21  H   LIG d   1       6.035  -4.154  -4.905  0.00  0.00     0.032 H 
ATOM     22  H   LIG d   1       5.855  -2.562  -5.688  0.00  0.00     0.032 H 
ATOM     23  H   LIG d   1       7.304  -3.115  -3.055  0.00  0.00     0.027 H 
ATOM     24  H   LIG d   1       8.076  -2.736  -4.617  0.00  0.00     0.027 H 
ATOM     25  H   LIG d   1       5.560   1.176  -3.620  0.00  0.00     0.032 H 
ATOM     26  H   LIG d   1       6.467   1.018  -2.099  0.00  0.00     0.032 H 
ATOM     27  H   LIG d   1       4.515  -0.872  -4.526  0.00  0.00     0.204 HD
ENDROOT
BRANCH   8  28
ATOM     28  C   LIG d   1       6.932  -0.323  -5.041  0.00  0.00    -0.027 C 
ATOM     29  H   LIG d   1       6.498  -0.973  -5.802  0.00  0.00     0.082 H 
ATOM     30  H   LIG d   1       6.301   0.556  -4.911  0.00  0.00     0.082 H 
BRANCH  28  31
ATOM     31  N   LIG d   1       8.276   0.095  -5.462  0.00  0.00     0.219 N 
ATOM     32  H   LIG d   1       8.548  -0.426  -6.282  0.00  0.00     0.199 HD
ATOM     33  H   LIG d   1       8.270   1.080  -5.676  0.00  0.00     0.199 HD
ATOM     34  H   LIG d   1       8.932  -0.083  -4.717  0.00  0.00     0.199 HD
ENDBRANCH  28  31
ENDBRANCH   8  28
TORSDOF 2
ENDMDL
MODEL 3
REMARK VINA RESULT:      -4.8      1.608      2.579
REMARK  2 active torsions:
REMARK  status: ('A' for Active; 'I' for Inactive)
REMARK    1  A    between atoms: C_8  and  C_13 
REMARK    2  A    between atoms: C_13  and  N_14 
ROOT
ATOM      1  C   LIG d   1       5.726  -3.447  -4.704  0.00  0.00    -0.043 C 
ATOM      2  C   LIG d   1       6.814  -2.518  -5.254  0.00  0.00    -0.012 C 
ATOM      3  C   LIG d   1       7.121  -1.446  -4.210  0.00  0.00    -0.032 C 
ATOM      4  N   LIG d   1       5.914  -0.654  -3.926  0.00  0.00     0.238 N 
ATOM      5  C   LIG d   1       6.276   0.399  -2.965  0.00  0.00    -0.032 C 
ATOM      6  C   LIG d   1       5.069   1.293  -2.684  0.00  0.00    -0.012 C 
ATOM      7  C   LIG d   1       3.948   0.437  -2.087  0.00  0.00    -0.035 C 
ATOM      8  C   LIG d   1       3.611  -0.684  -3.072  0.00  0.00     0.042 C 
ATOM      9  H   LIG d   1       2.845  -1.328  -2.639  0.00  0.00     0.041 H 
ATOM     10  C   LIG d   1       4.867  -1.513  -3.364  0.00  0.00    -0.013 C 
ATOM     11  H   LIG d   1       5.224  -1.969  -2.442  0.00  0.00     0.086 H 
ATOM     12  C   LIG d   1       4.491  -2.608  -4.368  0.00  0.00    -0.009 C 
ATOM     13  H   LIG d   1       5.467  -4.192  -5.456  0.00  0.00     0.027 H 
ATOM     14  H   LIG d   1       6.088  -3.942  -3.804  0.00  0.00     0.027 H 
ATOM     15  H   LIG d   1       7.716  -3.095  -5.462  0.00  0.00     0.032 H 
ATOM     16  H   LIG d   1       6.462  -2.045  -6.170  0.00  0.00     0.032 H 
ATOM     17  H   LIG d   1       7.464  -1.922  -3.291  0.00  0.00     0.081 H 
ATOM     18  H   LIG d   1       7.904  -0.787  -4.586  0.00  0.00     0.081 H 
ATOM     19  H   LIG d   1       6.611  -0.060  -2.035  0.00  0.00     0.081 H 
ATOM     20  H   LIG d   1       7.085   1.003  -3.378  0.00  0.00     0.081 H 
ATOM     21  H   LIG d   1       5.350   2.073  -1.976  0.00  0.00     0.032 H 
ATOM     22  H   LIG d   1       4.727   1.747  -3.614  0.00  0.00     0.032 H 
ATOM     23  H   LIG d   1       4.280   0.006  -1.143  0.00  0.00     0.027 H 
ATOM     24  H   LIG d   1       3.066   1.055  -1.920  0.00  0.00     0.027 H 
ATOM     25  H   LIG d   1       4.106  -2.149  -5.279  0.00  0.00     0.032 H 
ATOM     26  H   LIG d   1       3.725  -3.249  -3.935  0.00  0.00     0.032 H 
ATOM     27  H   LIG d   1       5.582  -0.231  -4.779  0.00  0.00     0.204 HD
ENDROOT
BRANCH   8  28
ATOM     28  C   LIG d   1       3.088  -0.076  -4.375  0.00  0.00    -0.027 C 
ATOM     29  H   LIG d   1       3.262   1.001  -4.369  0.00  0.00     0.082 H 
ATOM     30  H   LIG d   1       3.610  -0.524  -5.220  0.00  0.00     0.082 H 
BRANCH  28  31
ATOM     31  N   LIG d   1       1.647  -0.338  -4.494  0.00  0.00     0.219 N 
ATOM     32  H   LIG d   1       1.132   0.484  -4.216  0.00  0.00     0.199 HD
ATOM     33  H   LIG d   1       1.425  -0.566  -5.451  0.00  0.00     0.199 HD
ATOM     34  H   LIG d   1       1.395  -1.111  -3.897  0.00  0.00     0.199 HD
ENDBRANCH  28  31
ENDBRANCH   8  28
TORSDOF 2
ENDMDL
MODEL 4
REMARK VINA RESULT:      -4.8      2.306      3.944
REMARK  2 active torsions:
REMARK  status: ('A' for Active; 'I' for Inactive)
REMARK    1  A    between atoms: C_8  and  C_13 
REMARK    2  A    between atoms: C_13  and  N_14 
ROOT
ATOM      1  C   LIG d   1       2.667   0.206  -6.778  0.00  0.00    -0.043 C 
ATOM      2  C   LIG d   1       4.055  -0.203  -7.281  0.00  0.00    -0.012 C 
ATOM      3  C   LIG d   1       4.533  -1.414  -6.481  0.00  0.00    -0.032 C 
ATOM      4  N   LIG d   1       4.623  -1.075  -5.053  0.00  0.00     0.238 N 
ATOM      5  C   LIG d   1       5.143  -2.250  -4.338  0.00  0.00    -0.032 C 
ATOM      6  C   LIG d   1       5.317  -1.929  -2.854  0.00  0.00    -0.012 C 
ATOM      7  C   LIG d   1       3.954  -1.551  -2.267  0.00  0.00    -0.035 C 
ATOM      8  C   LIG d   1       3.398  -0.359  -3.047  0.00  0.00     0.042 C 
ATOM      9  H   LIG d   1       2.407  -0.108  -2.668  0.00  0.00     0.041 H 
ATOM     10  C   LIG d   1       3.299  -0.713  -4.535  0.00  0.00    -0.013 C 
ATOM     11  H   LIG d   1       2.615  -1.551  -4.665  0.00  0.00     0.086 H 
ATOM     12  C   LIG d   1       2.761   0.512  -5.281  0.00  0.00    -0.009 C 
ATOM     13  H   LIG d   1       2.332   1.096  -7.311  0.00  0.00     0.027 H 
ATOM     14  H   LIG d   1       1.963  -0.609  -6.941  0.00  0.00     0.027 H 
ATOM     15  H   LIG d   1       3.998  -0.462  -8.339  0.00  0.00     0.032 H 
ATOM     16  H   LIG d   1       4.752   0.623  -7.144  0.00  0.00     0.032 H 
ATOM     17  H   LIG d   1       3.829  -2.236  -6.614  0.00  0.00     0.081 H 
ATOM     18  H   LIG d   1       5.515  -1.721  -6.842  0.00  0.00     0.081 H 
ATOM     19  H   LIG d   1       4.445  -3.079  -4.450  0.00  0.00     0.081 H 
ATOM     20  H   LIG d   1       6.107  -2.533  -4.762  0.00  0.00     0.081 H 
ATOM     21  H   LIG d   1       5.708  -2.805  -2.335  0.00  0.00     0.032 H 
ATOM     22  H   LIG d   1       6.008  -1.094  -2.739  0.00  0.00     0.032 H 
ATOM     23  H   LIG d   1       3.271  -2.396  -2.355  0.00  0.00     0.027 H 
ATOM     24  H   LIG d   1       4.070  -1.280  -1.218  0.00  0.00     0.027 H 
ATOM     25  H   LIG d   1       3.432   1.357  -5.125  0.00  0.00     0.032 H 
ATOM     26  H   LIG d   1       1.771   0.762  -4.900  0.00  0.00     0.032 H 
ATOM     27  H   LIG d   1       5.256  -0.299  -4.931  0.00  0.00     0.204 HD
ENDROOT
BRANCH   8  28
ATOM     28  C   LIG d   1       4.329   0.843  -2.871  0.00  0.00    -0.027 C 
ATOM     29  H   LIG d   1       5.284   0.637  -3.356  0.00  0.00     0.082 H 
ATOM     30  H   LIG d   1       3.874   1.724  -3.324  0.00  0.00     0.082 H 
BRANCH  28  31
ATOM     31  N   LIG d   1       4.550   1.086  -1.439  0.00  0.00     0.219 N 
ATOM     32  H   LIG d   1       4.603   2.079  -1.271  0.00  0.00     0.199 HD
ATOM     33  H   LIG d   1       3.785   0.696  -0.910  0.00  0.00     0.199 HD
ATOM     34  H   LIG d   1       5.413   0.649  -1.153  0.00  0.00     0.199 HD
ENDBRANCH  28  31
ENDBRANCH   8  28
TORSDOF 2
ENDMDL
MODEL 5
REMARK VINA RESULT:      -4.8      1.359      3.421
REMARK  2 active torsions:
REMARK  status: ('A' for Active; 'I' for Inactive)
REMARK    1  A    between atoms: C_8  and  C_13 
REMARK    2  A    between atoms: C_13  and  N_14 
ROOT
ATOM      1  C   LIG d   1       3.259   0.592  -2.462  0.00  0.00    -0.043 C 
ATOM      2  C   LIG d   1       4.608   0.860  -1.787  0.00  0.00    -0.012 C 
ATOM      3  C   LIG d   1       5.681   0.996  -2.866  0.00  0.00    -0.032 C 
ATOM      4  N   LIG d   1       5.775  -0.247  -3.647  0.00  0.00     0.238 N 
ATOM      5  C   LIG d   1       6.859  -0.088  -4.628  0.00  0.00    -0.032 C 
ATOM      6  C   LIG d   1       7.042  -1.378  -5.425  0.00  0.00    -0.012 C 
ATOM      7  C   LIG d   1       5.739  -1.690  -6.168  0.00  0.00    -0.035 C 
ATOM      8  C   LIG d   1       4.608  -1.806  -5.145  0.00  0.00     0.042 C 
ATOM      9  H   LIG d   1       3.666  -1.983  -5.664  0.00  0.00     0.041 H 
ATOM     10  C   LIG d   1       4.506  -0.510  -4.334  0.00  0.00    -0.013 C 
ATOM     11  H   LIG d   1       4.275   0.319  -5.001  0.00  0.00     0.086 H 
ATOM     12  C   LIG d   1       3.379  -0.676  -3.309  0.00  0.00    -0.009 C 
ATOM     13  H   LIG d   1       2.491   0.451  -1.701  0.00  0.00     0.027 H 
ATOM     14  H   LIG d   1       2.995   1.434  -3.101  0.00  0.00     0.027 H 
ATOM     15  H   LIG d   1       4.551   1.783  -1.210  0.00  0.00     0.032 H 
ATOM     16  H   LIG d   1       4.857   0.030  -1.126  0.00  0.00     0.032 H 
ATOM     17  H   LIG d   1       5.424   1.821  -3.531  0.00  0.00     0.081 H 
ATOM     18  H   LIG d   1       6.644   1.200  -2.396  0.00  0.00     0.081 H 
ATOM     19  H   LIG d   1       6.613   0.726  -5.309  0.00  0.00     0.081 H 
ATOM     20  H   LIG d   1       7.787   0.149  -4.106  0.00  0.00     0.081 H 
ATOM     21  H   LIG d   1       7.851  -1.251  -6.145  0.00  0.00     0.032 H 
ATOM     22  H   LIG d   1       7.280  -2.197  -4.746  0.00  0.00     0.032 H 
ATOM     23  H   LIG d   1       5.516  -0.885  -6.868  0.00  0.00     0.027 H 
ATOM     24  H   LIG d   1       5.842  -2.631  -6.708  0.00  0.00     0.027 H 
ATOM     25  H   LIG d   1       3.600  -1.525  -2.662  0.00  0.00     0.032 H 
ATOM     26  H   LIG d   1       2.439  -0.855  -3.830  0.00  0.00     0.032 H 
ATOM     27  H   LIG d   1       5.990  -1.016  -3.030  0.00  0.00     0.204 HD
ENDROOT
BRANCH   8  28
ATOM     28  C   LIG d   1       4.895  -2.976  -4.200  0.00  0.00    -0.027 C 
ATOM     29  H   LIG d   1       5.968  -3.037  -4.014  0.00  0.00     0.082 H 
ATOM     30  H   LIG d   1       4.372  -2.818  -3.257  0.00  0.00     0.082 H 
BRANCH  28  31
ATOM     31  N   LIG d   1       4.433  -4.227  -4.815  0.00  0.00     0.219 N 
ATOM     32  H   LIG d   1       4.695  -4.240  -5.789  0.00  0.00     0.199 HD
ATOM     33  H   LIG d   1       4.858  -5.011  -4.343  0.00  0.00     0.199 HD
ATOM     34  H   LIG d   1       3.429  -4.291  -4.735  0.00  0.00     0.199 HD
ENDBRANCH  28  31
ENDBRANCH   8  28
TORSDOF 2
ENDMDL
MODEL 6
REMARK VINA RESULT:      -4.6      1.736      3.956
REMARK  2 active torsions:
REMARK  status: ('A' for Active; 'I' for Inactive)
REMARK    1  A    between atoms: C_8  and  C_13 
REMARK    2  A    between atoms: C_13  and  N_14 
ROOT
ATOM      1  C   LIG d   1       4.445   0.629  -1.758  0.00  0.00    -0.043 C 
ATOM      2  C   LIG d   1       3.568   1.497  -2.667  0.00  0.00    -0.012 C 
ATOM      3  C   LIG d   1       3.188   0.687  -3.906  0.00  0.00    -0.032 C 
ATOM      4  N   LIG d   1       4.397   0.292  -4.643  0.00  0.00     0.238 N 
ATOM      5  C   LIG d   1       3.976  -0.430  -5.854  0.00  0.00    -0.032 C 
ATOM      6  C   LIG d   1       5.197  -0.809  -6.693  0.00  0.00    -0.012 C 
ATOM      7  C   LIG d   1       6.106  -1.718  -5.860  0.00  0.00    -0.035 C 
ATOM      8  C   LIG d   1       6.500  -0.979  -4.580  0.00  0.00     0.042 C 
ATOM      9  H   LIG d   1       7.110  -1.632  -3.957  0.00  0.00     0.041 H 
ATOM     10  C   LIG d   1       5.240  -0.570  -3.808  0.00  0.00    -0.013 C 
ATOM     11  H   LIG d   1       4.682  -1.462  -3.526  0.00  0.00     0.086 H 
ATOM     12  C   LIG d   1       5.677   0.184  -2.549  0.00  0.00    -0.009 C 
ATOM     13  H   LIG d   1       4.759   1.209  -0.890  0.00  0.00     0.027 H 
ATOM     14  H   LIG d   1       3.883  -0.246  -1.434  0.00  0.00     0.027 H 
ATOM     15  H   LIG d   1       2.665   1.790  -2.131  0.00  0.00     0.032 H 
ATOM     16  H   LIG d   1       4.121   2.386  -2.968  0.00  0.00     0.032 H 
ATOM     17  H   LIG d   1       2.643  -0.207  -3.601  0.00  0.00     0.081 H 
ATOM     18  H   LIG d   1       2.552   1.291  -4.553  0.00  0.00     0.081 H 
ATOM     19  H   LIG d   1       3.440  -1.334  -5.567  0.00  0.00     0.081 H 
ATOM     20  H   LIG d   1       3.317   0.208  -6.444  0.00  0.00     0.081 H 
ATOM     21  H   LIG d   1       4.873  -1.337  -7.589  0.00  0.00     0.032 H 
ATOM     22  H   LIG d   1       5.741   0.093  -6.973  0.00  0.00     0.032 H 
ATOM     23  H   LIG d   1       5.571  -2.633  -5.603  0.00  0.00     0.027 H 
ATOM     24  H   LIG d   1       7.001  -1.963  -6.432  0.00  0.00     0.027 H 
ATOM     25  H   LIG d   1       6.261   1.060  -2.834  0.00  0.00     0.032 H 
ATOM     26  H   LIG d   1       6.289  -0.470  -1.928  0.00  0.00     0.032 H 
ATOM     27  H   LIG d   1       4.915   1.117  -4.906  0.00  0.00     0.204 HD
ENDROOT
BRANCH   8  28
ATOM     28  C   LIG d   1       7.302   0.273  -4.943  0.00  0.00    -0.027 C 
ATOM     29  H   LIG d   1       7.304   0.402  -6.026  0.00  0.00     0.082 H 
ATOM     30  H   LIG d   1       6.845   1.145  -4.475  0.00  0.00     0.082 H 
BRANCH  28  31
ATOM     31  N   LIG d   1       8.683   0.126  -4.464  0.00  0.00     0.219 N 
ATOM     32  H   LIG d   1       9.181  -0.513  -5.066  0.00  0.00     0.199 HD
ATOM     33  H   LIG d   1       9.140   1.025  -4.476  0.00  0.00     0.199 HD
ATOM     34  H   LIG d   1       8.676  -0.236  -3.522  0.00  0.00     0.199 HD
ENDBRANCH  28  31
ENDBRANCH   8  28
TORSDOF 2
ENDMDL
MODEL 7
REMARK VINA RESULT:      -4.6      2.496      3.262
REMARK  2 active torsions:
REMARK  status: ('A' for Active; 'I' for Inactive)
REMARK    1  A    between atoms: C_8  and  C_13 
REMARK    2  A    between atoms: C_13  and  N_14 
ROOT
ATOM      1  C   LIG d   1       4.347   0.168  -7.258  0.00  0.00    -0.043 C 
ATOM      2  C   LIG d   1       2.843   0.125  -6.966  0.00  0.00    -0.012 C 
ATOM      3  C   LIG d   1       2.628   0.290  -5.463  0.00  0.00    -0.032 C 
ATOM      4  N   LIG d   1       3.288  -0.803  -4.733  0.00  0.00     0.238 N 
ATOM      5  C   LIG d   1       3.001  -0.633  -3.301  0.00  0.00    -0.032 C 
ATOM      6  C   LIG d   1       3.613  -1.782  -2.500  0.00  0.00    -0.012 C 
ATOM      7  C   LIG d   1       5.131  -1.776  -2.709  0.00  0.00    -0.035 C 
ATOM      8  C   LIG d   1       5.420  -1.904  -4.205  0.00  0.00     0.042 C 
ATOM      9  H   LIG d   1       6.496  -1.856  -4.371  0.00  0.00     0.041 H 
ATOM     10  C   LIG d   1       4.736  -0.764  -4.966  0.00  0.00    -0.013 C 
ATOM     11  H   LIG d   1       5.134   0.191  -4.625  0.00  0.00     0.086 H 
ATOM     12  C   LIG d   1       5.032  -0.942  -6.459  0.00  0.00    -0.009 C 
ATOM     13  H   LIG d   1       4.518   0.009  -8.323  0.00  0.00     0.027 H 
ATOM     14  H   LIG d   1       4.750   1.136  -6.960  0.00  0.00     0.027 H 
ATOM     15  H   LIG d   1       2.344   0.935  -7.498  0.00  0.00     0.032 H 
ATOM     16  H   LIG d   1       2.435  -0.832  -7.291  0.00  0.00     0.032 H 
ATOM     17  H   LIG d   1       3.045   1.244  -5.140  0.00  0.00     0.081 H 
ATOM     18  H   LIG d   1       1.559   0.274  -5.246  0.00  0.00     0.081 H 
ATOM     19  H   LIG d   1       3.422   0.312  -2.957  0.00  0.00     0.081 H 
ATOM     20  H   LIG d   1       1.921  -0.622  -3.148  0.00  0.00     0.081 H 
ATOM     21  H   LIG d   1       3.388  -1.649  -1.442  0.00  0.00     0.032 H 
ATOM     22  H   LIG d   1       3.200  -2.729  -2.848  0.00  0.00     0.032 H 
ATOM     23  H   LIG d   1       5.547  -0.841  -2.335  0.00  0.00     0.027 H 
ATOM     24  H   LIG d   1       5.576  -2.616  -2.176  0.00  0.00     0.027 H 
ATOM     25  H   LIG d   1       4.659  -1.911  -6.790  0.00  0.00     0.032 H 
ATOM     26  H   LIG d   1       6.108  -0.895  -6.623  0.00  0.00     0.032 H 
ATOM     27  H   LIG d   1       2.920  -1.688  -5.048  0.00  0.00     0.204 HD
ENDROOT
BRANCH   8  28
ATOM     28  C   LIG d   1       4.887  -3.246  -4.713  0.00  0.00    -0.027 C 
ATOM     29  H   LIG d   1       4.297  -3.723  -3.929  0.00  0.00     0.082 H 
ATOM     30  H   LIG d   1       4.260  -3.080  -5.588  0.00  0.00     0.082 H 
BRANCH  28  31
ATOM     31  N   LIG d   1       6.014  -4.116  -5.074  0.00  0.00     0.219 N 
ATOM     32  H   LIG d   1       5.914  -5.006  -4.610  0.00  0.00     0.199 HD
ATOM     33  H   LIG d   1       6.023  -4.258  -6.073  0.00  0.00     0.199 HD
ATOM     34  H   LIG d   1       6.879  -3.682  -4.789  0.00  0.00     0.199 HD
ENDBRANCH  28  31
ENDBRANCH   8  28
TORSDOF 2
ENDMDL
MODEL 8
REMARK VINA RESULT:      -4.4      2.400      4.563
REMARK  2 active torsions:
REMARK  status: ('A' for Active; 'I' for Inactive)
REMARK    1  A    between atoms: C_8  and  C_13 
REMARK    2  A    between atoms: C_13  and  N_14 
ROOT
ATOM      1  C   LIG d   1       4.365  -0.518  -2.428  0.00  0.00    -0.043 C 
ATOM      2  C   LIG d   1       3.647  -1.870  -2.377  0.00  0.00    -0.012 C 
ATOM      3  C   LIG d   1       4.286  -2.808  -3.400  0.00  0.00    -0.032 C 
ATOM      4  N   LIG d   1       4.155  -2.247  -4.753  0.00  0.00     0.238 N 
ATOM      5  C   LIG d   1       4.729  -3.212  -5.703  0.00  0.00    -0.032 C 
ATOM      6  C   LIG d   1       4.560  -2.706  -7.135  0.00  0.00    -0.012 C 
ATOM      7  C   LIG d   1       5.294  -1.369  -7.276  0.00  0.00    -0.035 C 
ATOM      8  C   LIG d   1       4.724  -0.386  -6.252  0.00  0.00     0.042 C 
ATOM      9  H   LIG d   1       5.269   0.556  -6.312  0.00  0.00     0.041 H 
ATOM     10  C   LIG d   1       4.865  -0.967  -4.841  0.00  0.00    -0.013 C 
ATOM     11  H   LIG d   1       5.919  -1.119  -4.614  0.00  0.00     0.086 H 
ATOM     12  C   LIG d   1       4.264   0.036  -3.851  0.00  0.00    -0.009 C 
ATOM     13  H   LIG d   1       3.891   0.175  -1.732  0.00  0.00     0.027 H 
ATOM     14  H   LIG d   1       5.413  -0.650  -2.161  0.00  0.00     0.027 H 
ATOM     15  H   LIG d   1       3.743  -2.297  -1.379  0.00  0.00     0.032 H 
ATOM     16  H   LIG d   1       2.592  -1.733  -2.616  0.00  0.00     0.032 H 
ATOM     17  H   LIG d   1       5.342  -2.936  -3.163  0.00  0.00     0.081 H 
ATOM     18  H   LIG d   1       3.790  -3.778  -3.362  0.00  0.00     0.081 H 
ATOM     19  H   LIG d   1       5.789  -3.343  -5.488  0.00  0.00     0.081 H 
ATOM     20  H   LIG d   1       4.220  -4.171  -5.596  0.00  0.00     0.081 H 
ATOM     21  H   LIG d   1       4.983  -3.431  -7.830  0.00  0.00     0.032 H 
ATOM     22  H   LIG d   1       3.501  -2.565  -7.350  0.00  0.00     0.032 H 
ATOM     23  H   LIG d   1       6.358  -1.514  -7.090  0.00  0.00     0.027 H 
ATOM     24  H   LIG d   1       5.148  -0.976  -8.282  0.00  0.00     0.027 H 
ATOM     25  H   LIG d   1       3.216   0.208  -4.100  0.00  0.00     0.032 H 
ATOM     26  H   LIG d   1       4.809   0.977  -3.913  0.00  0.00     0.032 H 
ATOM     27  H   LIG d   1       3.179  -2.106  -4.965  0.00  0.00     0.204 HD
ENDROOT
BRANCH   8  28
ATOM     28  C   LIG d   1       3.245  -0.137  -6.555  0.00  0.00    -0.027 C 
ATOM     29  H   LIG d   1       2.858  -0.951  -7.170  0.00  0.00     0.082 H 
ATOM     30  H   LIG d   1       2.686  -0.092  -5.620  0.00  0.00     0.082 H 
BRANCH  28  31
ATOM     31  N   LIG d   1       3.099   1.133  -7.277  0.00  0.00     0.219 N 
ATOM     32  H   LIG d   1       2.241   1.123  -7.807  0.00  0.00     0.199 HD
ATOM     33  H   LIG d   1       3.076   1.895  -6.616  0.00  0.00     0.199 HD
ATOM     34  H   LIG d   1       3.880   1.256  -7.903  0.00  0.00     0.199 HD
ENDBRANCH  28  31
ENDBRANCH   8  28
TORSDOF 2
ENDMDL
MODEL 9
REMARK VINA RESULT:      -4.3      1.635      3.563
REMARK  2 active torsions:
REMARK  status: ('A' for Active; 'I' for Inactive)
REMARK    1  A    between atoms: C_8  and  C_13 
REMARK    2  A    between atoms: C_13  and  N_14 
ROOT
ATOM      1  C   LIG d   1       5.237  -1.932  -6.802  0.00  0.00    -0.043 C 
ATOM      2  C   LIG d   1       5.566  -3.215  -6.032  0.00  0.00    -0.012 C 
ATOM      3  C   LIG d   1       4.678  -3.288  -4.791  0.00  0.00    -0.032 C 
ATOM      4  N   LIG d   1       4.928  -2.130  -3.920  0.00  0.00     0.238 N 
ATOM      5  C   LIG d   1       4.096  -2.278  -2.716  0.00  0.00    -0.032 C 
ATOM      6  C   LIG d   1       4.367  -1.130  -1.745  0.00  0.00    -0.012 C 
ATOM      7  C   LIG d   1       4.016   0.193  -2.433  0.00  0.00    -0.035 C 
ATOM      8  C   LIG d   1       4.850   0.317  -3.710  0.00  0.00     0.042 C 
ATOM      9  H   LIG d   1       4.577   1.233  -4.233  0.00  0.00     0.041 H 
ATOM     10  C   LIG d   1       4.587  -0.887  -4.620  0.00  0.00    -0.013 C 
ATOM     11  H   LIG d   1       3.535  -0.906  -4.904  0.00  0.00     0.086 H 
ATOM     12  C   LIG d   1       5.455  -0.735  -5.874  0.00  0.00    -0.009 C 
ATOM     13  H   LIG d   1       5.894  -1.846  -7.668  0.00  0.00     0.027 H 
ATOM     14  H   LIG d   1       4.198  -1.957  -7.128  0.00  0.00     0.027 H 
ATOM     15  H   LIG d   1       5.379  -4.081  -6.668  0.00  0.00     0.032 H 
ATOM     16  H   LIG d   1       6.614  -3.202  -5.732  0.00  0.00     0.032 H 
ATOM     17  H   LIG d   1       3.631  -3.292  -5.095  0.00  0.00     0.081 H 
ATOM     18  H   LIG d   1       4.896  -4.205  -4.243  0.00  0.00     0.081 H 
ATOM     19  H   LIG d   1       3.045  -2.272  -3.000  0.00  0.00     0.081 H 
ATOM     20  H   LIG d   1       4.332  -3.225  -2.229  0.00  0.00     0.081 H 
ATOM     21  H   LIG d   1       3.750  -1.253  -0.854  0.00  0.00     0.032 H 
ATOM     22  H   LIG d   1       5.420  -1.128  -1.465  0.00  0.00     0.032 H 
ATOM     23  H   LIG d   1       2.956   0.203  -2.687  0.00  0.00     0.027 H 
ATOM     24  H   LIG d   1       4.243   1.024  -1.766  0.00  0.00     0.027 H 
ATOM     25  H   LIG d   1       6.505  -0.687  -5.584  0.00  0.00     0.032 H 
ATOM     26  H   LIG d   1       5.182   0.182  -6.395  0.00  0.00     0.032 H 
ATOM     27  H   LIG d   1       5.902  -2.111  -3.657  0.00  0.00     0.204 HD
ENDROOT
BRANCH   8  28
ATOM     28  C   LIG d   1       6.335   0.363  -3.344  0.00  0.00    -0.027 C 
ATOM     29  H   LIG d   1       6.449   0.222  -2.269  0.00  0.00     0.082 H 
ATOM     30  H   LIG d   1       6.864  -0.431  -3.872  0.00  0.00     0.082 H 
BRANCH  28  31
ATOM     31  N   LIG d   1       6.894   1.666  -3.729  0.00  0.00     0.219 N 
ATOM     32  H   LIG d   1       7.036   2.228  -2.904  0.00  0.00     0.199 HD
ATOM     33  H   LIG d   1       7.778   1.528  -4.197  0.00  0.00     0.199 HD
ATOM     34  H   LIG d   1       6.254   2.136  -4.351  0.00  0.00     0.199 HD
ENDBRANCH  28  31
ENDBRANCH   8  28
TORSDOF 2
ENDMDL
