MODEL 1
REMARK VINA RESULT:      -7.4      0.000      0.000
REMARK  5 active torsions:
REMARK  status: ('A' for Active; 'I' for Inactive)
REMARK    1  A    between atoms: C_1  and  C_2 
REMARK    2  A    between atoms: C_6  and  C_32 
REMARK    3  A    between atoms: C_17  and  C_19 
REMARK    4  A    between atoms: C_19  and  N_20 
REMARK    5  A    between atoms: N_23  and  C_26 
ROOT
ATOM      1  C   LIG d   1       4.606  -0.488  -5.552  0.00  0.00     0.013 C 
ATOM      2  H   LIG d   1       5.005   0.537  -5.502  0.00  0.00     0.043 H 
ATOM      3  H   LIG d   1       5.432  -1.207  -5.463  0.00  0.00     0.043 H 
ENDROOT
BRANCH   1   4
ATOM      4  C   LIG d   1       3.615  -0.706  -4.406  0.00  0.00     0.079 C 
ATOM      5  C   LIG d   1       3.960  -1.987  -3.628  0.00  0.00     0.029 C 
ATOM      6  C   LIG d   1       4.729  -2.972  -4.428  0.00  0.00    -0.073 C 
ATOM      7  H   LIG d   1       3.083  -2.588  -3.342  0.00  0.00     0.039 H 
ATOM      8  C   LIG d   1       4.800  -1.416  -2.460  0.00  0.00     0.111 C 
ATOM      9  C   LIG d   1       6.043  -3.022  -4.456  0.00  0.00    -0.042 C 
ATOM     10  H   LIG d   1       4.140  -3.688  -5.021  0.00  0.00     0.058 H 
ATOM     11  C   LIG d   1       6.734  -4.134  -5.146  0.00  0.00    -0.051 C 
ATOM     12  C   LIG d   1       6.912  -2.033  -3.738  0.00  0.00    -0.003 C 
ATOM     13  C   LIG d   1       7.991  -4.403  -4.834  0.00  0.00    -0.081 C 
ATOM     14  C   LIG d   1       8.799  -3.642  -3.829  0.00  0.00    -0.033 C 
ATOM     15  H   LIG d   1       8.514  -5.236  -5.327  0.00  0.00     0.058 H 
ATOM     16  C   LIG d   1       7.918  -2.811  -2.893  0.00  0.00    -0.040 C 
ATOM     17  H   LIG d   1       9.381  -4.346  -3.217  0.00  0.00     0.031 H 
ATOM     18  H   LIG d   1       9.484  -2.957  -4.351  0.00  0.00     0.031 H 
ATOM     19  H   LIG d   1       7.387  -3.481  -2.199  0.00  0.00     0.028 H 
ATOM     20  H   LIG d   1       8.547  -2.114  -2.320  0.00  0.00     0.028 H 
ATOM     21  C   LIG d   1       6.170  -0.979  -2.973  0.00  0.00    -0.006 C 
ATOM     22  H   LIG d   1       6.761  -0.679  -2.095  0.00  0.00     0.031 H 
ATOM     23  H   LIG d   1       6.006  -0.104  -3.619  0.00  0.00     0.031 H 
ATOM     24  H   LIG d   1       4.930  -2.098  -1.606  0.00  0.00     0.074 H 
ATOM     25  O   LIG d   1       4.057  -0.170  -2.174  0.00  0.00    -0.461 OA
ATOM     26  C   LIG d   1       3.753   0.392  -3.363  0.00  0.00     0.312 C 
ATOM     27  O   LIG d   1       3.613   1.575  -3.566  0.00  0.00    -0.251 OA
ATOM     28  H   LIG d   1       2.616  -0.728  -4.864  0.00  0.00     0.043 H 
BRANCH  11  29
ATOM     29  C   LIG d   1       6.015  -4.950  -6.190  0.00  0.00    -0.040 C 
ATOM     30  H   LIG d   1       4.929  -4.828  -6.066  0.00  0.00     0.028 H 
ATOM     31  H   LIG d   1       6.282  -6.010  -6.074  0.00  0.00     0.028 H 
ATOM     32  H   LIG d   1       6.311  -4.605  -7.192  0.00  0.00     0.028 H 
ENDBRANCH  11  29
BRANCH  12  33
ATOM     33  C   LIG d   1       7.730  -1.310  -4.809  0.00  0.00    -0.055 C 
ATOM     34  H   LIG d   1       7.887  -0.264  -4.507  0.00  0.00     0.024 H 
ATOM     35  H   LIG d   1       7.186  -1.335  -5.766  0.00  0.00     0.024 H 
ATOM     36  H   LIG d   1       8.703  -1.808  -4.928  0.00  0.00     0.024 H 
ENDBRANCH  12  33
ENDBRANCH   1   4
BRANCH   1  37
ATOM     37  N   LIG d   1       3.920  -0.684  -6.836  0.00  0.00    -0.292 N 
ATOM     38  C   LIG d   1       4.855  -1.158  -7.865  0.00  0.00     0.039 C 
ATOM     39  C   LIG d   1       4.089  -1.426  -9.163  0.00  0.00    -0.018 C 
ATOM     40  H   LIG d   1       5.624  -0.393  -8.043  0.00  0.00     0.048 H 
ATOM     41  H   LIG d   1       5.336  -2.088  -7.524  0.00  0.00     0.048 H 
ATOM     42  N   LIG d   1       3.416  -0.193  -9.595  0.00  0.00     0.239 N 
ATOM     43  H   LIG d   1       3.338  -2.212  -8.991  0.00  0.00     0.083 H 
ATOM     44  H   LIG d   1       4.791  -1.753  -9.944  0.00  0.00     0.083 H 
ATOM     45  C   LIG d   1       2.482   0.282  -8.564  0.00  0.00    -0.018 C 
ATOM     46  H   LIG d   1       4.185   0.581  -9.737  0.00  0.00     0.204 HD
ATOM     47  C   LIG d   1       3.248   0.549  -7.268  0.00  0.00     0.039 C 
ATOM     48  H   LIG d   1       1.713  -0.484  -8.385  0.00  0.00     0.083 H 
ATOM     49  H   LIG d   1       2.001   1.211  -8.905  0.00  0.00     0.083 H 
ATOM     50  H   LIG d   1       2.546   0.877  -6.487  0.00  0.00     0.048 H 
ATOM     51  H   LIG d   1       3.998   1.335  -7.438  0.00  0.00     0.048 H 
BRANCH  42  52
ATOM     52  C   LIG d   1       2.731  -0.389 -10.879  0.00  0.00    -0.021 C 
ATOM     53  C   LIG d   1       3.623  -1.211 -11.811  0.00  0.00    -0.010 C 
ATOM     54  C   LIG d   1       2.910  -1.414 -13.150  0.00  0.00    -0.048 C 
ATOM     55  H   LIG d   1       4.571  -0.677 -11.978  0.00  0.00     0.032 H 
ATOM     56  H   LIG d   1       3.829  -2.189 -11.352  0.00  0.00     0.032 H 
ATOM     57  C   LIG d   1       1.592  -2.157 -12.918  0.00  0.00    -0.053 C 
ATOM     58  H   LIG d   1       3.551  -2.006 -13.820  0.00  0.00     0.027 H 
ATOM     59  H   LIG d   1       2.705  -0.436 -13.608  0.00  0.00     0.027 H 
ATOM     60  C   LIG d   1       0.701  -1.334 -11.986  0.00  0.00    -0.048 C 
ATOM     61  H   LIG d   1       1.799  -3.135 -12.459  0.00  0.00     0.026 H 
ATOM     62  H   LIG d   1       1.080  -2.303 -13.881  0.00  0.00     0.026 H 
ATOM     63  C   LIG d   1       1.414  -1.130 -10.647  0.00  0.00    -0.010 C 
ATOM     64  H   LIG d   1      -0.247  -1.867 -11.819  0.00  0.00     0.027 H 
ATOM     65  H   LIG d   1       0.495  -0.355 -12.444  0.00  0.00     0.027 H 
ATOM     66  H   LIG d   1       1.620  -2.109 -10.189  0.00  0.00     0.032 H 
ATOM     67  H   LIG d   1       0.773  -0.539  -9.977  0.00  0.00     0.032 H 
ATOM     68  H   LIG d   1       2.544   0.609 -11.304  0.00  0.00     0.085 H 
ENDBRANCH  42  52
ENDBRANCH   1  37
TORSDOF 5
ENDMDL
MODEL 2
REMARK VINA RESULT:      -7.2      2.027      3.614
REMARK  5 active torsions:
REMARK  status: ('A' for Active; 'I' for Inactive)
REMARK    1  A    between atoms: C_1  and  C_2 
REMARK    2  A    between atoms: C_6  and  C_32 
REMARK    3  A    between atoms: C_17  and  C_19 
REMARK    4  A    between atoms: C_19  and  N_20 
REMARK    5  A    between atoms: N_23  and  C_26 
ROOT
ATOM      1  C   LIG d   1       4.851  -1.492  -6.755  0.00  0.00     0.013 C 
ATOM      2  H   LIG d   1       4.151  -1.228  -5.948  0.00  0.00     0.043 H 
ATOM      3  H   LIG d   1       5.600  -0.695  -6.865  0.00  0.00     0.043 H 
ENDROOT
BRANCH   1   4
ATOM      4  C   LIG d   1       5.553  -2.807  -6.410  0.00  0.00     0.079 C 
ATOM      5  C   LIG d   1       6.229  -2.715  -5.030  0.00  0.00     0.029 C 
ATOM      6  C   LIG d   1       6.548  -1.324  -4.623  0.00  0.00    -0.073 C 
ATOM      7  H   LIG d   1       7.225  -3.181  -4.987  0.00  0.00     0.039 H 
ATOM      8  C   LIG d   1       5.146  -3.344  -4.120  0.00  0.00     0.111 C 
ATOM      9  C   LIG d   1       5.737  -0.566  -3.918  0.00  0.00    -0.042 C 
ATOM     10  H   LIG d   1       7.526  -0.933  -4.945  0.00  0.00     0.058 H 
ATOM     11  C   LIG d   1       6.194   0.747  -3.413  0.00  0.00    -0.051 C 
ATOM     12  C   LIG d   1       4.361  -1.001  -3.512  0.00  0.00    -0.003 C 
ATOM     13  C   LIG d   1       5.554   1.304  -2.397  0.00  0.00    -0.081 C 
ATOM     14  C   LIG d   1       4.364   0.707  -1.712  0.00  0.00    -0.033 C 
ATOM     15  H   LIG d   1       5.891   2.273  -1.999  0.00  0.00     0.058 H 
ATOM     16  C   LIG d   1       4.221  -0.788  -2.006  0.00  0.00    -0.040 C 
ATOM     17  H   LIG d   1       4.463   0.834  -0.625  0.00  0.00     0.031 H 
ATOM     18  H   LIG d   1       3.450   1.212  -2.059  0.00  0.00     0.031 H 
ATOM     19  H   LIG d   1       5.008  -1.343  -1.474  0.00  0.00     0.028 H 
ATOM     20  H   LIG d   1       3.234  -1.136  -1.668  0.00  0.00     0.028 H 
ATOM     21  C   LIG d   1       3.975  -2.377  -3.965  0.00  0.00    -0.006 C 
ATOM     22  H   LIG d   1       3.284  -2.823  -3.233  0.00  0.00     0.031 H 
ATOM     23  H   LIG d   1       3.478  -2.315  -4.944  0.00  0.00     0.031 H 
ATOM     24  H   LIG d   1       5.500  -3.653  -3.125  0.00  0.00     0.074 H 
ATOM     25  O   LIG d   1       4.658  -4.436  -4.991  0.00  0.00    -0.461 OA
ATOM     26  C   LIG d   1       4.539  -3.926  -6.236  0.00  0.00     0.312 C 
ATOM     27  O   LIG d   1       3.753  -4.298  -7.075  0.00  0.00    -0.251 OA
ATOM     28  H   LIG d   1       6.260  -3.003  -7.229  0.00  0.00     0.043 H 
BRANCH  11  29
ATOM     29  C   LIG d   1       7.371   1.443  -4.046  0.00  0.00    -0.040 C 
ATOM     30  H   LIG d   1       8.226   0.753  -4.086  0.00  0.00     0.028 H 
ATOM     31  H   LIG d   1       7.640   2.326  -3.448  0.00  0.00     0.028 H 
ATOM     32  H   LIG d   1       7.105   1.758  -5.066  0.00  0.00     0.028 H 
ENDBRANCH  11  29
BRANCH  12  33
ATOM     33  C   LIG d   1       3.382  -0.028  -4.170  0.00  0.00    -0.055 C 
ATOM     34  H   LIG d   1       3.318   0.890  -3.568  0.00  0.00     0.024 H 
ATOM     35  H   LIG d   1       2.386  -0.494  -4.232  0.00  0.00     0.024 H 
ATOM     36  H   LIG d   1       3.733   0.220  -5.182  0.00  0.00     0.024 H 
ENDBRANCH  12  33
ENDBRANCH   1   4
BRANCH   1  37
ATOM     37  N   LIG d   1       4.112  -1.648  -8.014  0.00  0.00    -0.292 N 
ATOM     38  C   LIG d   1       5.009  -1.526  -9.171  0.00  0.00     0.039 C 
ATOM     39  C   LIG d   1       4.216  -1.773 -10.457  0.00  0.00    -0.018 C 
ATOM     40  H   LIG d   1       5.443  -0.516  -9.194  0.00  0.00     0.048 H 
ATOM     41  H   LIG d   1       5.816  -2.269  -9.089  0.00  0.00     0.048 H 
ATOM     42  N   LIG d   1       3.115  -0.803 -10.544  0.00  0.00     0.239 N 
ATOM     43  H   LIG d   1       3.806  -2.793 -10.445  0.00  0.00     0.083 H 
ATOM     44  H   LIG d   1       4.880  -1.653 -11.326  0.00  0.00     0.083 H 
ATOM     45  C   LIG d   1       2.218  -0.924  -9.386  0.00  0.00    -0.018 C 
ATOM     46  H   LIG d   1       3.552   0.207 -10.531  0.00  0.00     0.204 HD
ATOM     47  C   LIG d   1       3.011  -0.678  -8.101  0.00  0.00     0.039 C 
ATOM     48  H   LIG d   1       1.785  -1.935  -9.362  0.00  0.00     0.083 H 
ATOM     49  H   LIG d   1       1.411  -0.181  -9.468  0.00  0.00     0.083 H 
ATOM     50  H   LIG d   1       2.348  -0.797  -7.232  0.00  0.00     0.048 H 
ATOM     51  H   LIG d   1       3.421   0.343  -8.112  0.00  0.00     0.048 H 
BRANCH  42  52
ATOM     52  C   LIG d   1       2.376  -0.958 -11.803  0.00  0.00    -0.021 C 
ATOM     53  C   LIG d   1       3.172  -1.854 -12.755  0.00  0.00    -0.010 C 
ATOM     54  C   LIG d   1       2.403  -2.014 -14.067  0.00  0.00    -0.048 C 
ATOM     55  H   LIG d   1       4.152  -1.395 -12.957  0.00  0.00     0.032 H 
ATOM     56  H   LIG d   1       3.319  -2.841 -12.291  0.00  0.00     0.032 H 
ATOM     57  C   LIG d   1       1.041  -2.653 -13.785  0.00  0.00    -0.053 C 
ATOM     58  H   LIG d   1       2.975  -2.659 -14.751  0.00  0.00     0.027 H 
ATOM     59  H   LIG d   1       2.257  -1.028 -14.530  0.00  0.00     0.027 H 
ATOM     60  C   LIG d   1       0.245  -1.756 -12.835  0.00  0.00    -0.048 C 
ATOM     61  H   LIG d   1       1.188  -3.640 -13.322  0.00  0.00     0.026 H 
ATOM     62  H   LIG d   1       0.488  -2.769 -14.730  0.00  0.00     0.026 H 
ATOM     63  C   LIG d   1       1.015  -1.595 -11.521  0.00  0.00    -0.010 C 
ATOM     64  H   LIG d   1      -0.734  -2.215 -12.631  0.00  0.00     0.027 H 
ATOM     65  H   LIG d   1       0.099  -0.769 -13.297  0.00  0.00     0.027 H 
ATOM     66  H   LIG d   1       1.161  -2.583 -11.059  0.00  0.00     0.032 H 
ATOM     67  H   LIG d   1       0.443  -0.951 -10.838  0.00  0.00     0.032 H 
ATOM     68  H   LIG d   1       2.251   0.047 -12.233  0.00  0.00     0.085 H 
ENDBRANCH  42  52
ENDBRANCH   1  37
TORSDOF 5
ENDMDL
MODEL 3
REMARK VINA RESULT:      -7.0      2.996      8.167
REMARK  5 active torsions:
REMARK  status: ('A' for Active; 'I' for Inactive)
REMARK    1  A    between atoms: C_1  and  C_2 
REMARK    2  A    between atoms: C_6  and  C_32 
REMARK    3  A    between atoms: C_17  and  C_19 
REMARK    4  A    between atoms: C_19  and  N_20 
REMARK    5  A    between atoms: N_23  and  C_26 
ROOT
ATOM      1  C   LIG d   1       3.852  -1.001  -9.434  0.00  0.00     0.013 C 
ATOM      2  H   LIG d   1       3.430  -0.154  -9.998  0.00  0.00     0.043 H 
ATOM      3  H   LIG d   1       3.207  -1.883  -9.561  0.00  0.00     0.043 H 
ENDROOT
BRANCH   1   4
ATOM      4  C   LIG d   1       5.255  -1.315  -9.959  0.00  0.00     0.079 C 
ATOM      5  C   LIG d   1       5.195  -2.398 -11.050  0.00  0.00     0.029 C 
ATOM      6  C   LIG d   1       3.992  -3.263 -10.956  0.00  0.00    -0.073 C 
ATOM      7  H   LIG d   1       5.998  -3.147 -10.983  0.00  0.00     0.039 H 
ATOM      8  C   LIG d   1       5.179  -1.534 -12.335  0.00  0.00     0.111 C 
ATOM      9  C   LIG d   1       2.867  -3.018 -11.590  0.00  0.00    -0.042 C 
ATOM     10  H   LIG d   1       4.078  -4.151 -10.311  0.00  0.00     0.058 H 
ATOM     11  C   LIG d   1       1.771  -4.012 -11.575  0.00  0.00    -0.051 C 
ATOM     12  C   LIG d   1       2.649  -1.790 -12.422  0.00  0.00    -0.003 C 
ATOM     13  C   LIG d   1       0.839  -3.958 -12.514  0.00  0.00    -0.081 C 
ATOM     14  C   LIG d   1       0.792  -2.934 -13.606  0.00  0.00    -0.033 C 
ATOM     15  H   LIG d   1       0.027  -4.699 -12.526  0.00  0.00     0.058 H 
ATOM     16  C   LIG d   1       2.138  -2.230 -13.793  0.00  0.00    -0.040 C 
ATOM     17  H   LIG d   1       0.526  -3.421 -14.555  0.00  0.00     0.031 H 
ATOM     18  H   LIG d   1       0.038  -2.171 -13.361  0.00  0.00     0.031 H 
ATOM     19  H   LIG d   1       2.855  -2.925 -14.255  0.00  0.00     0.028 H 
ATOM     20  H   LIG d   1       2.006  -1.353 -14.443  0.00  0.00     0.028 H 
ATOM     21  C   LIG d   1       3.820  -0.856 -12.486  0.00  0.00    -0.006 C 
ATOM     22  H   LIG d   1       3.824  -0.340 -13.459  0.00  0.00     0.031 H 
ATOM     23  H   LIG d   1       3.741  -0.112 -11.679  0.00  0.00     0.031 H 
ATOM     24  H   LIG d   1       5.423  -2.076 -13.261  0.00  0.00     0.074 H 
ATOM     25  O   LIG d   1       6.126  -0.463 -11.954  0.00  0.00    -0.461 OA
ATOM     26  C   LIG d   1       5.837  -0.111 -10.683  0.00  0.00     0.312 C 
ATOM     27  O   LIG d   1       6.012   0.982 -10.200  0.00  0.00    -0.251 OA
ATOM     28  H   LIG d   1       5.851  -1.609  -9.084  0.00  0.00     0.043 H 
BRANCH  11  29
ATOM     29  C   LIG d   1       1.715  -5.073 -10.506  0.00  0.00    -0.040 C 
ATOM     30  H   LIG d   1       1.710  -6.067 -10.976  0.00  0.00     0.028 H 
ATOM     31  H   LIG d   1       0.799  -4.944  -9.910  0.00  0.00     0.028 H 
ATOM     32  H   LIG d   1       2.594  -4.980  -9.852  0.00  0.00     0.028 H 
ENDBRANCH  11  29
BRANCH  12  33
ATOM     33  C   LIG d   1       1.501  -1.017 -11.771  0.00  0.00    -0.055 C 
ATOM     34  H   LIG d   1       1.902  -0.137 -11.248  0.00  0.00     0.024 H 
ATOM     35  H   LIG d   1       0.984  -1.667 -11.048  0.00  0.00     0.024 H 
ATOM     36  H   LIG d   1       0.791  -0.693 -12.545  0.00  0.00     0.024 H 
ENDBRANCH  12  33
ENDBRANCH   1   4
BRANCH   1  37
ATOM     37  N   LIG d   1       3.929  -0.651  -8.010  0.00  0.00    -0.292 N 
ATOM     38  C   LIG d   1       4.321  -1.814  -7.202  0.00  0.00     0.039 C 
ATOM     39  C   LIG d   1       4.467  -1.389  -5.739  0.00  0.00    -0.018 C 
ATOM     40  H   LIG d   1       3.550  -2.593  -7.284  0.00  0.00     0.048 H 
ATOM     41  H   LIG d   1       5.281  -2.208  -7.568  0.00  0.00     0.048 H 
ATOM     42  N   LIG d   1       3.195  -0.826  -5.265  0.00  0.00     0.239 N 
ATOM     43  H   LIG d   1       5.258  -0.629  -5.654  0.00  0.00     0.083 H 
ATOM     44  H   LIG d   1       4.732  -2.264  -5.127  0.00  0.00     0.083 H 
ATOM     45  C   LIG d   1       2.802   0.336  -6.074  0.00  0.00    -0.018 C 
ATOM     46  H   LIG d   1       2.419  -1.598  -5.381  0.00  0.00     0.204 HD
ATOM     47  C   LIG d   1       2.657  -0.088  -7.536  0.00  0.00     0.039 C 
ATOM     48  H   LIG d   1       3.574   1.116  -5.993  0.00  0.00     0.083 H 
ATOM     49  H   LIG d   1       1.843   0.731  -5.708  0.00  0.00     0.083 H 
ATOM     50  H   LIG d   1       2.392   0.786  -8.148  0.00  0.00     0.048 H 
ATOM     51  H   LIG d   1       1.866  -0.848  -7.622  0.00  0.00     0.048 H 
BRANCH  42  52
ATOM     52  C   LIG d   1       3.272  -0.477  -3.841  0.00  0.00    -0.021 C 
ATOM     53  C   LIG d   1       4.435  -1.230  -3.193  0.00  0.00    -0.010 C 
ATOM     54  C   LIG d   1       4.515  -0.868  -1.709  0.00  0.00    -0.048 C 
ATOM     55  H   LIG d   1       4.274  -2.314  -3.298  0.00  0.00     0.032 H 
ATOM     56  H   LIG d   1       5.375  -0.951  -3.691  0.00  0.00     0.032 H 
ATOM     57  C   LIG d   1       4.739   0.639  -1.564  0.00  0.00    -0.053 C 
ATOM     58  H   LIG d   1       5.352  -1.409  -1.243  0.00  0.00     0.027 H 
ATOM     59  H   LIG d   1       3.575  -1.149  -1.212  0.00  0.00     0.027 H 
ATOM     60  C   LIG d   1       3.575   1.392  -2.211  0.00  0.00    -0.048 C 
ATOM     61  H   LIG d   1       5.680   0.919  -2.062  0.00  0.00     0.026 H 
ATOM     62  H   LIG d   1       4.797   0.900  -0.497  0.00  0.00     0.026 H 
ATOM     63  C   LIG d   1       3.496   1.029  -3.696  0.00  0.00    -0.010 C 
ATOM     64  H   LIG d   1       3.736   2.475  -2.107  0.00  0.00     0.027 H 
ATOM     65  H   LIG d   1       2.635   1.112  -1.714  0.00  0.00     0.027 H 
ATOM     66  H   LIG d   1       4.436   1.309  -4.193  0.00  0.00     0.032 H 
ATOM     67  H   LIG d   1       2.659   1.571  -4.161  0.00  0.00     0.032 H 
ATOM     68  H   LIG d   1       2.317  -0.772  -3.381  0.00  0.00     0.085 H 
ENDBRANCH  42  52
ENDBRANCH   1  37
TORSDOF 5
ENDMDL
MODEL 4
REMARK VINA RESULT:      -6.9      3.405      5.228
REMARK  5 active torsions:
REMARK  status: ('A' for Active; 'I' for Inactive)
REMARK    1  A    between atoms: C_1  and  C_2 
REMARK    2  A    between atoms: C_6  and  C_32 
REMARK    3  A    between atoms: C_17  and  C_19 
REMARK    4  A    between atoms: C_19  and  N_20 
REMARK    5  A    between atoms: N_23  and  C_26 
ROOT
ATOM      1  C   LIG d   1       5.197  -3.571  -5.119  0.00  0.00     0.013 C 
ATOM      2  H   LIG d   1       5.379  -4.206  -4.237  0.00  0.00     0.043 H 
ATOM      3  H   LIG d   1       4.589  -2.704  -4.826  0.00  0.00     0.043 H 
ENDROOT
BRANCH   1   4
ATOM      4  C   LIG d   1       6.535  -3.089  -5.684  0.00  0.00     0.079 C 
ATOM      5  C   LIG d   1       6.635  -1.556  -5.605  0.00  0.00     0.029 C 
ATOM      6  C   LIG d   1       5.314  -0.881  -5.565  0.00  0.00    -0.073 C 
ATOM      7  H   LIG d   1       7.082  -1.089  -6.496  0.00  0.00     0.039 H 
ATOM      8  C   LIG d   1       7.413  -1.370  -4.280  0.00  0.00     0.111 C 
ATOM      9  C   LIG d   1       4.685  -0.575  -4.452  0.00  0.00    -0.042 C 
ATOM     10  H   LIG d   1       4.860  -0.637  -6.538  0.00  0.00     0.058 H 
ATOM     11  C   LIG d   1       3.452   0.243  -4.492  0.00  0.00    -0.051 C 
ATOM     12  C   LIG d   1       5.202  -0.945  -3.094  0.00  0.00    -0.003 C 
ATOM     13  C   LIG d   1       3.065   0.877  -3.397  0.00  0.00    -0.081 C 
ATOM     14  C   LIG d   1       3.780   0.819  -2.083  0.00  0.00    -0.033 C 
ATOM     15  H   LIG d   1       2.159   1.501  -3.415  0.00  0.00     0.058 H 
ATOM     16  C   LIG d   1       5.218   0.316  -2.232  0.00  0.00    -0.040 C 
ATOM     17  H   LIG d   1       3.813   1.824  -1.637  0.00  0.00     0.031 H 
ATOM     18  H   LIG d   1       3.247   0.135  -1.405  0.00  0.00     0.031 H 
ATOM     19  H   LIG d   1       5.830   1.093  -2.714  0.00  0.00     0.028 H 
ATOM     20  H   LIG d   1       5.631   0.087  -1.239  0.00  0.00     0.028 H 
ATOM     21  C   LIG d   1       6.503  -1.690  -3.096  0.00  0.00    -0.006 C 
ATOM     22  H   LIG d   1       7.067  -1.446  -2.183  0.00  0.00     0.031 H 
ATOM     23  H   LIG d   1       6.307  -2.772  -3.126  0.00  0.00     0.031 H 
ATOM     24  H   LIG d   1       7.859  -0.374  -4.140  0.00  0.00     0.074 H 
ATOM     25  O   LIG d   1       8.373  -2.492  -4.368  0.00  0.00    -0.461 OA
ATOM     26  C   LIG d   1       7.687  -3.566  -4.814  0.00  0.00     0.312 C 
ATOM     27  O   LIG d   1       7.946  -4.719  -4.563  0.00  0.00    -0.251 OA
ATOM     28  H   LIG d   1       6.593  -3.478  -6.711  0.00  0.00     0.043 H 
BRANCH  11  29
ATOM     29  C   LIG d   1       2.647   0.351  -5.761  0.00  0.00    -0.040 C 
ATOM     30  H   LIG d   1       1.785  -0.330  -5.708  0.00  0.00     0.028 H 
ATOM     31  H   LIG d   1       3.279   0.078  -6.619  0.00  0.00     0.028 H 
ATOM     32  H   LIG d   1       2.291   1.385  -5.883  0.00  0.00     0.028 H 
ENDBRANCH  11  29
BRANCH  12  33
ATOM     33  C   LIG d   1       4.161  -1.874  -2.467  0.00  0.00    -0.055 C 
ATOM     34  H   LIG d   1       4.443  -2.090  -1.426  0.00  0.00     0.024 H 
ATOM     35  H   LIG d   1       4.119  -2.815  -3.037  0.00  0.00     0.024 H 
ATOM     36  H   LIG d   1       3.175  -1.388  -2.488  0.00  0.00     0.024 H 
ENDBRANCH  12  33
ENDBRANCH   1   4
BRANCH   1  37
ATOM     37  N   LIG d   1       4.485  -4.347  -6.142  0.00  0.00    -0.292 N 
ATOM     38  C   LIG d   1       5.080  -5.681  -6.301  0.00  0.00     0.039 C 
ATOM     39  C   LIG d   1       4.263  -6.484  -7.316  0.00  0.00    -0.018 C 
ATOM     40  H   LIG d   1       6.115  -5.581  -6.658  0.00  0.00     0.048 H 
ATOM     41  H   LIG d   1       5.076  -6.202  -5.332  0.00  0.00     0.048 H 
ATOM     42  N   LIG d   1       4.237  -5.766  -8.598  0.00  0.00     0.239 N 
ATOM     43  H   LIG d   1       3.235  -6.608  -6.945  0.00  0.00     0.083 H 
ATOM     44  H   LIG d   1       4.724  -7.473  -7.459  0.00  0.00     0.083 H 
ATOM     45  C   LIG d   1       3.643  -4.432  -8.439  0.00  0.00    -0.018 C 
ATOM     46  H   LIG d   1       5.277  -5.637  -8.935  0.00  0.00     0.204 HD
ATOM     47  C   LIG d   1       4.459  -3.629  -7.425  0.00  0.00     0.039 C 
ATOM     48  H   LIG d   1       2.608  -4.532  -8.080  0.00  0.00     0.083 H 
ATOM     49  H   LIG d   1       3.646  -3.911  -9.408  0.00  0.00     0.083 H 
ATOM     50  H   LIG d   1       4.000  -2.641  -7.282  0.00  0.00     0.048 H 
ATOM     51  H   LIG d   1       5.488  -3.505  -7.795  0.00  0.00     0.048 H 
BRANCH  42  52
ATOM     52  C   LIG d   1       3.526  -6.543  -9.622  0.00  0.00    -0.021 C 
ATOM     53  C   LIG d   1       3.401  -7.997  -9.163  0.00  0.00    -0.010 C 
ATOM     54  C   LIG d   1       2.661  -8.806 -10.230  0.00  0.00    -0.048 C 
ATOM     55  H   LIG d   1       4.405  -8.421  -9.011  0.00  0.00     0.032 H 
ATOM     56  H   LIG d   1       2.840  -8.036  -8.217  0.00  0.00     0.032 H 
ATOM     57  C   LIG d   1       1.265  -8.216 -10.440  0.00  0.00    -0.053 C 
ATOM     58  H   LIG d   1       2.570  -9.852  -9.900  0.00  0.00     0.027 H 
ATOM     59  H   LIG d   1       3.222  -8.768 -11.174  0.00  0.00     0.027 H 
ATOM     60  C   LIG d   1       1.390  -6.762 -10.899  0.00  0.00    -0.048 C 
ATOM     61  H   LIG d   1       0.704  -8.255  -9.494  0.00  0.00     0.026 H 
ATOM     62  H   LIG d   1       0.732  -8.799 -11.207  0.00  0.00     0.026 H 
ATOM     63  C   LIG d   1       2.131  -5.953  -9.832  0.00  0.00    -0.010 C 
ATOM     64  H   LIG d   1       0.387  -6.337 -11.050  0.00  0.00     0.027 H 
ATOM     65  H   LIG d   1       1.951  -6.723 -11.844  0.00  0.00     0.027 H 
ATOM     66  H   LIG d   1       1.570  -5.992  -8.887  0.00  0.00     0.032 H 
ATOM     67  H   LIG d   1       2.221  -4.907 -10.163  0.00  0.00     0.032 H 
ATOM     68  H   LIG d   1       4.116  -6.479 -10.548  0.00  0.00     0.085 H 
ENDBRANCH  42  52
ENDBRANCH   1  37
TORSDOF 5
ENDMDL
MODEL 5
REMARK VINA RESULT:      -6.5      2.785      4.394
REMARK  5 active torsions:
REMARK  status: ('A' for Active; 'I' for Inactive)
REMARK    1  A    between atoms: C_1  and  C_2 
REMARK    2  A    between atoms: C_6  and  C_32 
REMARK    3  A    between atoms: C_17  and  C_19 
REMARK    4  A    between atoms: C_19  and  N_20 
REMARK    5  A    between atoms: N_23  and  C_26 
ROOT
ATOM      1  C   LIG d   1       4.965  -2.697  -7.270  0.00  0.00     0.013 C 
ATOM      2  H   LIG d   1       5.359  -3.634  -6.848  0.00  0.00     0.043 H 
ATOM      3  H   LIG d   1       4.325  -2.202  -6.526  0.00  0.00     0.043 H 
ENDROOT
BRANCH   1   4
ATOM      4  C   LIG d   1       6.129  -1.774  -7.637  0.00  0.00     0.079 C 
ATOM      5  C   LIG d   1       6.234  -0.610  -6.636  0.00  0.00     0.029 C 
ATOM      6  C   LIG d   1       4.954  -0.310  -5.947  0.00  0.00    -0.073 C 
ATOM      7  H   LIG d   1       6.456   0.362  -7.100  0.00  0.00     0.039 H 
ATOM      8  C   LIG d   1       7.300  -1.151  -5.652  0.00  0.00     0.111 C 
ATOM      9  C   LIG d   1       4.603  -0.842  -4.797  0.00  0.00    -0.042 C 
ATOM     10  H   LIG d   1       4.283   0.402  -6.452  0.00  0.00     0.058 H 
ATOM     11  C   LIG d   1       3.389  -0.368  -4.096  0.00  0.00    -0.051 C 
ATOM     12  C   LIG d   1       5.427  -1.875  -4.091  0.00  0.00    -0.003 C 
ATOM     13  C   LIG d   1       3.265  -0.595  -2.798  0.00  0.00    -0.081 C 
ATOM     14  C   LIG d   1       4.269  -1.329  -1.964  0.00  0.00    -0.033 C 
ATOM     15  H   LIG d   1       2.376  -0.236  -2.259  0.00  0.00     0.058 H 
ATOM     16  C   LIG d   1       5.635  -1.413  -2.650  0.00  0.00    -0.040 C 
ATOM     17  H   LIG d   1       4.399  -0.810  -1.004  0.00  0.00     0.031 H 
ATOM     18  H   LIG d   1       3.915  -2.355  -1.782  0.00  0.00     0.031 H 
ATOM     19  H   LIG d   1       6.111  -0.420  -2.639  0.00  0.00     0.028 H 
ATOM     20  H   LIG d   1       6.272  -2.131  -2.113  0.00  0.00     0.028 H 
ATOM     21  C   LIG d   1       6.696  -2.257  -4.790  0.00  0.00    -0.006 C 
ATOM     22  H   LIG d   1       7.457  -2.535  -4.045  0.00  0.00     0.031 H 
ATOM     23  H   LIG d   1       6.506  -3.113  -5.454  0.00  0.00     0.031 H 
ATOM     24  H   LIG d   1       7.759  -0.391  -5.003  0.00  0.00     0.074 H 
ATOM     25  O   LIG d   1       8.220  -1.827  -6.593  0.00  0.00    -0.461 OA
ATOM     26  C   LIG d   1       7.457  -2.499  -7.481  0.00  0.00     0.312 C 
ATOM     27  O   LIG d   1       7.776  -3.512  -8.057  0.00  0.00    -0.251 OA
ATOM     28  H   LIG d   1       5.947  -1.446  -8.670  0.00  0.00     0.043 H 
BRANCH  11  29
ATOM     29  C   LIG d   1       2.307   0.365  -4.848  0.00  0.00    -0.040 C 
ATOM     30  H   LIG d   1       2.583   0.434  -5.911  0.00  0.00     0.028 H 
ATOM     31  H   LIG d   1       2.192   1.376  -4.432  0.00  0.00     0.028 H 
ATOM     32  H   LIG d   1       1.358  -0.182  -4.750  0.00  0.00     0.028 H 
ENDBRANCH  11  29
BRANCH  12  33
ATOM     33  C   LIG d   1       4.569  -3.139  -4.009  0.00  0.00    -0.055 C 
ATOM     34  H   LIG d   1       3.909  -3.192  -4.887  0.00  0.00     0.024 H 
ATOM     35  H   LIG d   1       3.958  -3.109  -3.094  0.00  0.00     0.024 H 
ATOM     36  H   LIG d   1       5.220  -4.025  -3.985  0.00  0.00     0.024 H 
ENDBRANCH  12  33
ENDBRANCH   1   4
BRANCH   1  37
ATOM     37  N   LIG d   1       4.179  -2.995  -8.473  0.00  0.00    -0.292 N 
ATOM     38  C   LIG d   1       3.155  -1.966  -8.702  0.00  0.00     0.039 C 
ATOM     39  C   LIG d   1       2.412  -2.270 -10.005  0.00  0.00    -0.018 C 
ATOM     40  H   LIG d   1       2.443  -1.964  -7.864  0.00  0.00     0.048 H 
ATOM     41  H   LIG d   1       3.637  -0.980  -8.775  0.00  0.00     0.048 H 
ATOM     42  N   LIG d   1       1.802  -3.605  -9.919  0.00  0.00     0.239 N 
ATOM     43  H   LIG d   1       3.120  -2.244 -10.847  0.00  0.00     0.083 H 
ATOM     44  H   LIG d   1       1.625  -1.517 -10.164  0.00  0.00     0.083 H 
ATOM     45  C   LIG d   1       2.826  -4.634  -9.689  0.00  0.00    -0.018 C 
ATOM     46  H   LIG d   1       1.117  -3.609  -9.058  0.00  0.00     0.204 HD
ATOM     47  C   LIG d   1       3.569  -4.330  -8.387  0.00  0.00     0.039 C 
ATOM     48  H   LIG d   1       3.539  -4.635 -10.527  0.00  0.00     0.083 H 
ATOM     49  H   LIG d   1       2.344  -5.620  -9.616  0.00  0.00     0.083 H 
ATOM     50  H   LIG d   1       4.355  -5.082  -8.228  0.00  0.00     0.048 H 
ATOM     51  H   LIG d   1       2.861  -4.356  -7.545  0.00  0.00     0.048 H 
BRANCH  42  52
ATOM     52  C   LIG d   1       1.015  -3.902 -11.122  0.00  0.00    -0.021 C 
ATOM     53  C   LIG d   1      -0.332  -4.503 -10.714  0.00  0.00    -0.010 C 
ATOM     54  C   LIG d   1      -1.152  -4.814 -11.968  0.00  0.00    -0.048 C 
ATOM     55  H   LIG d   1      -0.163  -5.431 -10.147  0.00  0.00     0.032 H 
ATOM     56  H   LIG d   1      -0.879  -3.784 -10.087  0.00  0.00     0.032 H 
ATOM     57  C   LIG d   1      -1.387  -3.524 -12.757  0.00  0.00    -0.053 C 
ATOM     58  H   LIG d   1      -2.120  -5.246 -11.675  0.00  0.00     0.027 H 
ATOM     59  H   LIG d   1      -0.606  -5.534 -12.594  0.00  0.00     0.027 H 
ATOM     60  C   LIG d   1      -0.040  -2.924 -13.165  0.00  0.00    -0.048 C 
ATOM     61  H   LIG d   1      -1.934  -2.805 -12.129  0.00  0.00     0.026 H 
ATOM     62  H   LIG d   1      -1.977  -3.748 -13.658  0.00  0.00     0.026 H 
ATOM     63  C   LIG d   1       0.780  -2.613 -11.911  0.00  0.00    -0.010 C 
ATOM     64  H   LIG d   1      -0.208  -1.997 -13.732  0.00  0.00     0.027 H 
ATOM     65  H   LIG d   1       0.507  -3.643 -13.792  0.00  0.00     0.027 H 
ATOM     66  H   LIG d   1       0.233  -1.894 -11.284  0.00  0.00     0.032 H 
ATOM     67  H   LIG d   1       1.749  -2.181 -12.205  0.00  0.00     0.032 H 
ATOM     68  H   LIG d   1       1.593  -4.622 -11.721  0.00  0.00     0.085 H 
ENDBRANCH  42  52
ENDBRANCH   1  37
TORSDOF 5
ENDMDL
MODEL 6
REMARK VINA RESULT:      -6.5      5.992      8.736
REMARK  5 active torsions:
REMARK  status: ('A' for Active; 'I' for Inactive)
REMARK    1  A    between atoms: C_1  and  C_2 
REMARK    2  A    between atoms: C_6  and  C_32 
REMARK    3  A    between atoms: C_17  and  C_19 
REMARK    4  A    between atoms: C_19  and  N_20 
REMARK    5  A    between atoms: N_23  and  C_26 
ROOT
ATOM      1  C   LIG d   1       9.590   2.699  -5.352  0.00  0.00     0.013 C 
ATOM      2  H   LIG d   1       9.748   3.354  -4.481  0.00  0.00     0.043 H 
ATOM      3  H   LIG d   1       9.214   3.296  -6.195  0.00  0.00     0.043 H 
ENDROOT
BRANCH   1   4
ATOM      4  C   LIG d   1      10.915   2.040  -5.742  0.00  0.00     0.079 C 
ATOM      5  C   LIG d   1      11.601   2.831  -6.869  0.00  0.00     0.029 C 
ATOM      6  C   LIG d   1      10.657   3.637  -7.682  0.00  0.00    -0.073 C 
ATOM      7  H   LIG d   1      12.060   2.200  -7.645  0.00  0.00     0.039 H 
ATOM      8  C   LIG d   1      12.572   3.728  -6.063  0.00  0.00     0.111 C 
ATOM      9  C   LIG d   1      10.358   4.891  -7.423  0.00  0.00    -0.042 C 
ATOM     10  H   LIG d   1      10.196   3.129  -8.543  0.00  0.00     0.058 H 
ATOM     11  C   LIG d   1       9.536   5.675  -8.373  0.00  0.00    -0.051 C 
ATOM     12  C   LIG d   1      10.883   5.624  -6.226  0.00  0.00    -0.003 C 
ATOM     13  C   LIG d   1       9.581   6.996  -8.325  0.00  0.00    -0.081 C 
ATOM     14  C   LIG d   1      10.400   7.784  -7.349  0.00  0.00    -0.033 C 
ATOM     15  H   LIG d   1       8.988   7.593  -9.034  0.00  0.00     0.058 H 
ATOM     16  C   LIG d   1      11.500   6.937  -6.706  0.00  0.00    -0.040 C 
ATOM     17  H   LIG d   1      10.876   8.628  -7.867  0.00  0.00     0.031 H 
ATOM     18  H   LIG d   1       9.749   8.165  -6.547  0.00  0.00     0.031 H 
ATOM     19  H   LIG d   1      12.286   6.732  -7.448  0.00  0.00     0.028 H 
ATOM     20  H   LIG d   1      11.932   7.482  -5.854  0.00  0.00     0.028 H 
ATOM     21  C   LIG d   1      11.788   4.821  -5.341  0.00  0.00    -0.006 C 
ATOM     22  H   LIG d   1      12.526   5.488  -4.869  0.00  0.00     0.031 H 
ATOM     23  H   LIG d   1      11.192   4.326  -4.560  0.00  0.00     0.031 H 
ATOM     24  H   LIG d   1      13.378   4.187  -6.654  0.00  0.00     0.074 H 
ATOM     25  O   LIG d   1      13.009   2.782  -5.014  0.00  0.00    -0.461 OA
ATOM     26  C   LIG d   1      11.910   2.119  -4.595  0.00  0.00     0.312 C 
ATOM     27  O   LIG d   1      11.744   1.662  -3.489  0.00  0.00    -0.251 OA
ATOM     28  H   LIG d   1      10.673   1.005  -6.020  0.00  0.00     0.043 H 
BRANCH  11  29
ATOM     29  C   LIG d   1       8.661   4.977  -9.382  0.00  0.00    -0.040 C 
ATOM     30  H   LIG d   1       8.554   5.611 -10.274  0.00  0.00     0.028 H 
ATOM     31  H   LIG d   1       7.670   4.792  -8.942  0.00  0.00     0.028 H 
ATOM     32  H   LIG d   1       9.121   4.019  -9.666  0.00  0.00     0.028 H 
ENDBRANCH  11  29
BRANCH  12  33
ATOM     33  C   LIG d   1       9.668   6.012  -5.381  0.00  0.00    -0.055 C 
ATOM     34  H   LIG d   1       8.747   5.784  -5.937  0.00  0.00     0.024 H 
ATOM     35  H   LIG d   1       9.704   7.090  -5.160  0.00  0.00     0.024 H 
ATOM     36  H   LIG d   1       9.679   5.445  -4.440  0.00  0.00     0.024 H 
ENDBRANCH  12  33
ENDBRANCH   1   4
BRANCH   1  37
ATOM     37  N   LIG d   1       8.609   1.660  -5.011  0.00  0.00    -0.292 N 
ATOM     38  C   LIG d   1       7.815   1.279  -6.187  0.00  0.00     0.039 C 
ATOM     39  C   LIG d   1       6.863   0.142  -5.809  0.00  0.00    -0.018 C 
ATOM     40  H   LIG d   1       7.235   2.146  -6.535  0.00  0.00     0.048 H 
ATOM     41  H   LIG d   1       8.488   0.943  -6.990  0.00  0.00     0.048 H 
ATOM     42  N   LIG d   1       5.991   0.581  -4.710  0.00  0.00     0.239 N 
ATOM     43  H   LIG d   1       7.445  -0.734  -5.488  0.00  0.00     0.083 H 
ATOM     44  H   LIG d   1       6.247  -0.126  -6.681  0.00  0.00     0.083 H 
ATOM     45  C   LIG d   1       6.785   0.963  -3.534  0.00  0.00    -0.018 C 
ATOM     46  H   LIG d   1       5.439   1.469  -5.050  0.00  0.00     0.204 HD
ATOM     47  C   LIG d   1       7.738   2.099  -3.911  0.00  0.00     0.039 C 
ATOM     48  H   LIG d   1       7.367   0.097  -3.186  0.00  0.00     0.083 H 
ATOM     49  H   LIG d   1       6.113   1.299  -2.731  0.00  0.00     0.083 H 
ATOM     50  H   LIG d   1       8.353   2.368  -3.041  0.00  0.00     0.048 H 
ATOM     51  H   LIG d   1       7.156   2.976  -4.232  0.00  0.00     0.048 H 
BRANCH  42  52
ATOM     52  C   LIG d   1       5.010  -0.457  -4.370  0.00  0.00    -0.021 C 
ATOM     53  C   LIG d   1       5.738  -1.690  -3.831  0.00  0.00    -0.010 C 
ATOM     54  C   LIG d   1       4.717  -2.773  -3.478  0.00  0.00    -0.048 C 
ATOM     55  H   LIG d   1       6.428  -2.074  -4.599  0.00  0.00     0.032 H 
ATOM     56  H   LIG d   1       6.309  -1.416  -2.932  0.00  0.00     0.032 H 
ATOM     57  C   LIG d   1       3.758  -2.240  -2.410  0.00  0.00    -0.053 C 
ATOM     58  H   LIG d   1       5.240  -3.659  -3.091  0.00  0.00     0.027 H 
ATOM     59  H   LIG d   1       4.148  -3.048  -4.378  0.00  0.00     0.027 H 
ATOM     60  C   LIG d   1       3.030  -1.007  -2.950  0.00  0.00    -0.048 C 
ATOM     61  H   LIG d   1       4.328  -1.965  -1.511  0.00  0.00     0.026 H 
ATOM     62  H   LIG d   1       3.024  -3.018  -2.156  0.00  0.00     0.026 H 
ATOM     63  C   LIG d   1       4.053   0.075  -3.303  0.00  0.00    -0.010 C 
ATOM     64  H   LIG d   1       2.341  -0.623  -2.182  0.00  0.00     0.027 H 
ATOM     65  H   LIG d   1       2.460  -1.282  -3.850  0.00  0.00     0.027 H 
ATOM     66  H   LIG d   1       4.622   0.350  -2.403  0.00  0.00     0.032 H 
ATOM     67  H   LIG d   1       3.528   0.962  -3.690  0.00  0.00     0.032 H 
ATOM     68  H   LIG d   1       4.463  -0.704  -5.292  0.00  0.00     0.085 H 
ENDBRANCH  42  52
ENDBRANCH   1  37
TORSDOF 5
ENDMDL
MODEL 7
REMARK VINA RESULT:      -6.5      2.279      3.880
REMARK  5 active torsions:
REMARK  status: ('A' for Active; 'I' for Inactive)
REMARK    1  A    between atoms: C_1  and  C_2 
REMARK    2  A    between atoms: C_6  and  C_32 
REMARK    3  A    between atoms: C_17  and  C_19 
REMARK    4  A    between atoms: C_19  and  N_20 
REMARK    5  A    between atoms: N_23  and  C_26 
ROOT
ATOM      1  C   LIG d   1       6.066  -2.255  -7.112  0.00  0.00     0.013 C 
ATOM      2  H   LIG d   1       6.422  -3.283  -6.941  0.00  0.00     0.043 H 
ATOM      3  H   LIG d   1       5.277  -2.015  -6.386  0.00  0.00     0.043 H 
ENDROOT
BRANCH   1   4
ATOM      4  C   LIG d   1       7.231  -1.278  -6.943  0.00  0.00     0.079 C 
ATOM      5  C   LIG d   1       6.941  -0.281  -5.807  0.00  0.00     0.029 C 
ATOM      6  C   LIG d   1       5.492  -0.100  -5.539  0.00  0.00    -0.073 C 
ATOM      7  H   LIG d   1       7.244   0.753  -6.030  0.00  0.00     0.039 H 
ATOM      8  C   LIG d   1       7.663  -0.958  -4.617  0.00  0.00     0.111 C 
ATOM      9  C   LIG d   1       4.820  -0.805  -4.656  0.00  0.00    -0.042 C 
ATOM     10  H   LIG d   1       4.979   0.676  -6.129  0.00  0.00     0.058 H 
ATOM     11  C   LIG d   1       3.420  -0.454  -4.331  0.00  0.00    -0.051 C 
ATOM     12  C   LIG d   1       5.431  -1.929  -3.875  0.00  0.00    -0.003 C 
ATOM     13  C   LIG d   1       2.898  -0.880  -3.191  0.00  0.00    -0.081 C 
ATOM     14  C   LIG d   1       3.621  -1.726  -2.189  0.00  0.00    -0.033 C 
ATOM     15  H   LIG d   1       1.864  -0.615  -2.927  0.00  0.00     0.058 H 
ATOM     16  C   LIG d   1       5.137  -1.692  -2.394  0.00  0.00    -0.040 C 
ATOM     17  H   LIG d   1       3.404  -1.359  -1.175  0.00  0.00     0.031 H 
ATOM     18  H   LIG d   1       3.287  -2.770  -2.281  0.00  0.00     0.031 H 
ATOM     19  H   LIG d   1       5.527  -0.709  -2.087  0.00  0.00     0.028 H 
ATOM     20  H   LIG d   1       5.607  -2.479  -1.787  0.00  0.00     0.028 H 
ATOM     21  C   LIG d   1       6.878  -2.188  -4.167  0.00  0.00    -0.006 C 
ATOM     22  H   LIG d   1       7.372  -2.571  -3.262  0.00  0.00     0.031 H 
ATOM     23  H   LIG d   1       6.961  -2.933  -4.972  0.00  0.00     0.031 H 
ATOM     24  H   LIG d   1       7.843  -0.303  -3.752  0.00  0.00     0.074 H 
ATOM     25  O   LIG d   1       8.874  -1.474  -5.291  0.00  0.00    -0.461 OA
ATOM     26  C   LIG d   1       8.477  -2.007  -6.466  0.00  0.00     0.312 C 
ATOM     27  O   LIG d   1       9.023  -2.917  -7.045  0.00  0.00    -0.251 OA
ATOM     28  H   LIG d   1       7.373  -0.796  -7.921  0.00  0.00     0.043 H 
BRANCH  11  29
ATOM     29  C   LIG d   1       2.598   0.376  -5.283  0.00  0.00    -0.040 C 
ATOM     30  H   LIG d   1       3.048   0.337  -6.286  0.00  0.00     0.028 H 
ATOM     31  H   LIG d   1       2.573   1.418  -4.932  0.00  0.00     0.028 H 
ATOM     32  H   LIG d   1       1.573  -0.020  -5.324  0.00  0.00     0.028 H 
ENDBRANCH  11  29
BRANCH  12  33
ATOM     33  C   LIG d   1       4.667  -3.197  -4.259  0.00  0.00    -0.055 C 
ATOM     34  H   LIG d   1       3.588  -3.027  -4.134  0.00  0.00     0.024 H 
ATOM     35  H   LIG d   1       4.984  -4.027  -3.610  0.00  0.00     0.024 H 
ATOM     36  H   LIG d   1       4.880  -3.450  -5.308  0.00  0.00     0.024 H 
ENDBRANCH  12  33
ENDBRANCH   1   4
BRANCH   1  37
ATOM     37  N   LIG d   1       5.529  -2.145  -8.475  0.00  0.00    -0.292 N 
ATOM     38  C   LIG d   1       6.168  -1.041  -9.205  0.00  0.00     0.039 C 
ATOM     39  C   LIG d   1       5.639  -1.010 -10.641  0.00  0.00    -0.018 C 
ATOM     40  H   LIG d   1       5.936  -0.089  -8.706  0.00  0.00     0.048 H 
ATOM     41  H   LIG d   1       7.257  -1.192  -9.218  0.00  0.00     0.048 H 
ATOM     42  N   LIG d   1       4.178  -0.847 -10.620  0.00  0.00     0.239 N 
ATOM     43  H   LIG d   1       5.895  -1.952 -11.148  0.00  0.00     0.083 H 
ATOM     44  H   LIG d   1       6.094  -0.166 -11.182  0.00  0.00     0.083 H 
ATOM     45  C   LIG d   1       3.540  -1.950  -9.888  0.00  0.00    -0.018 C 
ATOM     46  H   LIG d   1       3.950   0.089 -10.089  0.00  0.00     0.204 HD
ATOM     47  C   LIG d   1       4.068  -1.982  -8.453  0.00  0.00     0.039 C 
ATOM     48  H   LIG d   1       3.772  -2.904 -10.386  0.00  0.00     0.083 H 
ATOM     49  H   LIG d   1       2.450  -1.800  -9.876  0.00  0.00     0.083 H 
ATOM     50  H   LIG d   1       3.613  -2.825  -7.912  0.00  0.00     0.048 H 
ATOM     51  H   LIG d   1       3.812  -1.040  -7.946  0.00  0.00     0.048 H 
BRANCH  42  52
ATOM     52  C   LIG d   1       3.641  -0.736 -11.982  0.00  0.00    -0.021 C 
ATOM     53  C   LIG d   1       4.797  -0.660 -12.981  0.00  0.00    -0.010 C 
ATOM     54  C   LIG d   1       4.238  -0.542 -14.400  0.00  0.00    -0.048 C 
ATOM     55  H   LIG d   1       5.419   0.221 -12.757  0.00  0.00     0.032 H 
ATOM     56  H   LIG d   1       5.410  -1.570 -12.902  0.00  0.00     0.032 H 
ATOM     57  C   LIG d   1       3.375  -1.767 -14.711  0.00  0.00    -0.053 C 
ATOM     58  H   LIG d   1       5.069  -0.488 -15.119  0.00  0.00     0.027 H 
ATOM     59  H   LIG d   1       3.626   0.368 -14.479  0.00  0.00     0.027 H 
ATOM     60  C   LIG d   1       2.218  -1.842 -13.712  0.00  0.00    -0.048 C 
ATOM     61  H   LIG d   1       3.988  -2.677 -14.632  0.00  0.00     0.026 H 
ATOM     62  H   LIG d   1       2.973  -1.682 -15.732  0.00  0.00     0.026 H 
ATOM     63  C   LIG d   1       2.778  -1.959 -12.292  0.00  0.00    -0.010 C 
ATOM     64  H   LIG d   1       1.598  -2.722 -13.935  0.00  0.00     0.027 H 
ATOM     65  H   LIG d   1       1.606  -0.932 -13.790  0.00  0.00     0.027 H 
ATOM     66  H   LIG d   1       3.391  -2.869 -12.214  0.00  0.00     0.032 H 
ATOM     67  H   LIG d   1       1.947  -2.013 -11.574  0.00  0.00     0.032 H 
ATOM     68  H   LIG d   1       3.037   0.183 -12.020  0.00  0.00     0.085 H 
ENDBRANCH  42  52
ENDBRANCH   1  37
TORSDOF 5
ENDMDL
MODEL 8
REMARK VINA RESULT:      -6.4      2.453      4.157
REMARK  5 active torsions:
REMARK  status: ('A' for Active; 'I' for Inactive)
REMARK    1  A    between atoms: C_1  and  C_2 
REMARK    2  A    between atoms: C_6  and  C_32 
REMARK    3  A    between atoms: C_17  and  C_19 
REMARK    4  A    between atoms: C_19  and  N_20 
REMARK    5  A    between atoms: N_23  and  C_26 
ROOT
ATOM      1  C   LIG d   1       4.715  -1.377  -6.840  0.00  0.00     0.013 C 
ATOM      2  H   LIG d   1       3.647  -1.593  -6.683  0.00  0.00     0.043 H 
ATOM      3  H   LIG d   1       5.044  -0.611  -6.123  0.00  0.00     0.043 H 
ENDROOT
BRANCH   1   4
ATOM      4  C   LIG d   1       5.530  -2.656  -6.631  0.00  0.00     0.079 C 
ATOM      5  C   LIG d   1       6.283  -2.604  -5.290  0.00  0.00     0.029 C 
ATOM      6  C   LIG d   1       6.528  -1.223  -4.806  0.00  0.00    -0.073 C 
ATOM      7  H   LIG d   1       7.311  -2.995  -5.338  0.00  0.00     0.039 H 
ATOM      8  C   LIG d   1       5.309  -3.371  -4.364  0.00  0.00     0.111 C 
ATOM      9  C   LIG d   1       5.713  -0.576  -4.003  0.00  0.00    -0.042 C 
ATOM     10  H   LIG d   1       7.453  -0.739  -5.156  0.00  0.00     0.058 H 
ATOM     11  C   LIG d   1       6.106   0.732  -3.434  0.00  0.00    -0.051 C 
ATOM     12  C   LIG d   1       4.400  -1.139  -3.548  0.00  0.00    -0.003 C 
ATOM     13  C   LIG d   1       5.495   1.171  -2.345  0.00  0.00    -0.081 C 
ATOM     14  C   LIG d   1       4.396   0.442  -1.636  0.00  0.00    -0.033 C 
ATOM     15  H   LIG d   1       5.787   2.134  -1.901  0.00  0.00     0.058 H 
ATOM     16  C   LIG d   1       4.341  -1.037  -2.025  0.00  0.00    -0.040 C 
ATOM     17  H   LIG d   1       4.555   0.505  -0.550  0.00  0.00     0.031 H 
ATOM     18  H   LIG d   1       3.428   0.899  -1.891  0.00  0.00     0.031 H 
ATOM     19  H   LIG d   1       5.198  -1.565  -1.580  0.00  0.00     0.028 H 
ATOM     20  H   LIG d   1       3.405  -1.479  -1.654  0.00  0.00     0.028 H 
ATOM     21  C   LIG d   1       4.084  -2.507  -4.073  0.00  0.00    -0.006 C 
ATOM     22  H   LIG d   1       3.475  -3.051  -3.334  0.00  0.00     0.031 H 
ATOM     23  H   LIG d   1       3.522  -2.419  -5.015  0.00  0.00     0.031 H 
ATOM     24  H   LIG d   1       5.746  -3.717  -3.416  0.00  0.00     0.074 H 
ATOM     25  O   LIG d   1       4.845  -4.436  -5.280  0.00  0.00    -0.461 OA
ATOM     26  C   LIG d   1       4.610  -3.856  -6.476  0.00  0.00     0.312 C 
ATOM     27  O   LIG d   1       3.801  -4.231  -7.292  0.00  0.00    -0.251 OA
ATOM     28  H   LIG d   1       6.194  -2.743  -7.502  0.00  0.00     0.043 H 
BRANCH  11  29
ATOM     29  C   LIG d   1       7.189   1.555  -4.085  0.00  0.00    -0.040 C 
ATOM     30  H   LIG d   1       7.490   2.367  -3.407  0.00  0.00     0.028 H 
ATOM     31  H   LIG d   1       6.808   1.982  -5.025  0.00  0.00     0.028 H 
ATOM     32  H   LIG d   1       8.057   0.914  -4.299  0.00  0.00     0.028 H 
ENDBRANCH  11  29
BRANCH  12  33
ATOM     33  C   LIG d   1       3.314  -0.201  -4.077  0.00  0.00    -0.055 C 
ATOM     34  H   LIG d   1       3.104  -0.439  -5.130  0.00  0.00     0.024 H 
ATOM     35  H   LIG d   1       3.660   0.841  -4.000  0.00  0.00     0.024 H 
ATOM     36  H   LIG d   1       2.397  -0.327  -3.482  0.00  0.00     0.024 H 
ENDBRANCH  12  33
ENDBRANCH   1   4
BRANCH   1  37
ATOM     37  N   LIG d   1       4.920  -0.886  -8.209  0.00  0.00    -0.292 N 
ATOM     38  C   LIG d   1       3.717  -1.092  -9.028  0.00  0.00     0.039 C 
ATOM     39  C   LIG d   1       3.943  -0.496 -10.420  0.00  0.00    -0.018 C 
ATOM     40  H   LIG d   1       3.514  -2.169  -9.117  0.00  0.00     0.048 H 
ATOM     41  H   LIG d   1       2.859  -0.596  -8.551  0.00  0.00     0.048 H 
ATOM     42  N   LIG d   1       5.114  -1.134 -11.039  0.00  0.00     0.239 N 
ATOM     43  H   LIG d   1       4.118   0.586 -10.333  0.00  0.00     0.083 H 
ATOM     44  H   LIG d   1       3.055  -0.676 -11.045  0.00  0.00     0.083 H 
ATOM     45  C   LIG d   1       6.316  -0.929 -10.219  0.00  0.00    -0.018 C 
ATOM     46  H   LIG d   1       4.921  -2.216 -11.093  0.00  0.00     0.204 HD
ATOM     47  C   LIG d   1       6.091  -1.523  -8.828  0.00  0.00     0.039 C 
ATOM     48  H   LIG d   1       6.519   0.149 -10.130  0.00  0.00     0.083 H 
ATOM     49  H   LIG d   1       7.174  -1.424 -10.697  0.00  0.00     0.083 H 
ATOM     50  H   LIG d   1       6.978  -1.345  -8.204  0.00  0.00     0.048 H 
ATOM     51  H   LIG d   1       5.915  -2.606  -8.915  0.00  0.00     0.048 H 
BRANCH  42  52
ATOM     52  C   LIG d   1       5.317  -0.644 -12.408  0.00  0.00    -0.021 C 
ATOM     53  C   LIG d   1       6.533  -1.340 -13.023  0.00  0.00    -0.010 C 
ATOM     54  C   LIG d   1       6.746  -0.828 -14.449  0.00  0.00    -0.048 C 
ATOM     55  H   LIG d   1       7.426  -1.122 -12.418  0.00  0.00     0.032 H 
ATOM     56  H   LIG d   1       6.362  -2.426 -13.044  0.00  0.00     0.032 H 
ATOM     57  C   LIG d   1       5.505  -1.131 -15.291  0.00  0.00    -0.053 C 
ATOM     58  H   LIG d   1       7.620  -1.329 -14.892  0.00  0.00     0.027 H 
ATOM     59  H   LIG d   1       6.919   0.258 -14.427  0.00  0.00     0.027 H 
ATOM     60  C   LIG d   1       4.290  -0.435 -14.676  0.00  0.00    -0.048 C 
ATOM     61  H   LIG d   1       5.333  -2.218 -15.312  0.00  0.00     0.026 H 
ATOM     62  H   LIG d   1       5.659  -0.764 -16.316  0.00  0.00     0.026 H 
ATOM     63  C   LIG d   1       4.077  -0.947 -13.249  0.00  0.00    -0.010 C 
ATOM     64  H   LIG d   1       3.397  -0.653 -15.280  0.00  0.00     0.027 H 
ATOM     65  H   LIG d   1       4.462   0.651 -14.653  0.00  0.00     0.027 H 
ATOM     66  H   LIG d   1       3.905  -2.033 -13.271  0.00  0.00     0.032 H 
ATOM     67  H   LIG d   1       3.203  -0.446 -12.807  0.00  0.00     0.032 H 
ATOM     68  H   LIG d   1       5.485   0.442 -12.344  0.00  0.00     0.085 H 
ENDBRANCH  42  52
ENDBRANCH   1  37
TORSDOF 5
ENDMDL
MODEL 9
REMARK VINA RESULT:      -6.1      6.128      9.059
REMARK  5 active torsions:
REMARK  status: ('A' for Active; 'I' for Inactive)
REMARK    1  A    between atoms: C_1  and  C_2 
REMARK    2  A    between atoms: C_6  and  C_32 
REMARK    3  A    between atoms: C_17  and  C_19 
REMARK    4  A    between atoms: C_19  and  N_20 
REMARK    5  A    between atoms: N_23  and  C_26 
ROOT
ATOM      1  C   LIG d   1       9.872   2.565  -5.828  0.00  0.00     0.013 C 
ATOM      2  H   LIG d   1      10.768   1.951  -6.007  0.00  0.00     0.043 H 
ATOM      3  H   LIG d   1      10.097   3.328  -5.070  0.00  0.00     0.043 H 
ENDROOT
BRANCH   1   4
ATOM      4  C   LIG d   1       9.454   3.248  -7.132  0.00  0.00     0.079 C 
ATOM      5  C   LIG d   1       9.740   4.759  -7.067  0.00  0.00     0.029 C 
ATOM      6  C   LIG d   1       9.791   5.289  -5.682  0.00  0.00    -0.073 C 
ATOM      7  H   LIG d   1       8.946   5.384  -7.502  0.00  0.00     0.039 H 
ATOM      8  C   LIG d   1      11.121   4.837  -7.761  0.00  0.00     0.111 C 
ATOM      9  C   LIG d   1      10.896   5.378  -4.975  0.00  0.00    -0.042 C 
ATOM     10  H   LIG d   1       8.833   5.619  -5.249  0.00  0.00     0.058 H 
ATOM     11  C   LIG d   1      10.892   6.068  -3.666  0.00  0.00    -0.051 C 
ATOM     12  C   LIG d   1      12.221   4.877  -5.467  0.00  0.00    -0.003 C 
ATOM     13  C   LIG d   1      12.036   6.506  -3.166  0.00  0.00    -0.081 C 
ATOM     14  C   LIG d   1      13.371   6.339  -3.824  0.00  0.00    -0.033 C 
ATOM     15  H   LIG d   1      12.047   7.035  -2.202  0.00  0.00     0.058 H 
ATOM     16  C   LIG d   1      13.241   6.004  -5.311  0.00  0.00    -0.040 C 
ATOM     17  H   LIG d   1      13.945   7.272  -3.732  0.00  0.00     0.031 H 
ATOM     18  H   LIG d   1      13.920   5.520  -3.335  0.00  0.00     0.031 H 
ATOM     19  H   LIG d   1      12.902   6.896  -5.860  0.00  0.00     0.028 H 
ATOM     20  H   LIG d   1      14.218   5.683  -5.702  0.00  0.00     0.028 H 
ATOM     21  C   LIG d   1      12.197   4.271  -6.838  0.00  0.00    -0.006 C 
ATOM     22  H   LIG d   1      13.166   4.442  -7.331  0.00  0.00     0.031 H 
ATOM     23  H   LIG d   1      12.014   3.189  -6.757  0.00  0.00     0.031 H 
ATOM     24  H   LIG d   1      11.416   5.843  -8.094  0.00  0.00     0.074 H 
ATOM     25  O   LIG d   1      10.942   3.837  -8.836  0.00  0.00    -0.461 OA
ATOM     26  C   LIG d   1      10.320   2.772  -8.288  0.00  0.00     0.312 C 
ATOM     27  O   LIG d   1      10.432   1.626  -8.655  0.00  0.00    -0.251 OA
ATOM     28  H   LIG d   1       8.391   3.011  -7.276  0.00  0.00     0.043 H 
BRANCH  11  29
ATOM     29  C   LIG d   1       9.602   6.269  -2.912  0.00  0.00    -0.040 C 
ATOM     30  H   LIG d   1       9.392   5.379  -2.302  0.00  0.00     0.028 H 
ATOM     31  H   LIG d   1       8.781   6.428  -3.627  0.00  0.00     0.028 H 
ATOM     32  H   LIG d   1       9.694   7.150  -2.259  0.00  0.00     0.028 H 
ENDBRANCH  11  29
BRANCH  12  33
ATOM     33  C   LIG d   1      12.659   3.774  -4.502  0.00  0.00    -0.055 C 
ATOM     34  H   LIG d   1      13.721   3.908  -4.251  0.00  0.00     0.024 H 
ATOM     35  H   LIG d   1      12.517   2.792  -4.979  0.00  0.00     0.024 H 
ATOM     36  H   LIG d   1      12.055   3.827  -3.585  0.00  0.00     0.024 H 
ENDBRANCH  12  33
ENDBRANCH   1   4
BRANCH   1  37
ATOM     37  N   LIG d   1       8.778   1.708  -5.353  0.00  0.00    -0.292 N 
ATOM     38  C   LIG d   1       8.294   2.153  -4.039  0.00  0.00     0.039 C 
ATOM     39  C   LIG d   1       7.105   1.286  -3.616  0.00  0.00    -0.018 C 
ATOM     40  H   LIG d   1       9.101   2.058  -3.299  0.00  0.00     0.048 H 
ATOM     41  H   LIG d   1       7.977   3.205  -4.102  0.00  0.00     0.048 H 
ATOM     42  N   LIG d   1       7.521  -0.123  -3.570  0.00  0.00     0.239 N 
ATOM     43  H   LIG d   1       6.287   1.403  -4.342  0.00  0.00     0.083 H 
ATOM     44  H   LIG d   1       6.759   1.598  -2.619  0.00  0.00     0.083 H 
ATOM     45  C   LIG d   1       8.007  -0.568  -4.884  0.00  0.00    -0.018 C 
ATOM     46  H   LIG d   1       8.353  -0.208  -2.855  0.00  0.00     0.204 HD
ATOM     47  C   LIG d   1       9.195   0.299  -5.307  0.00  0.00     0.039 C 
ATOM     48  H   LIG d   1       7.200  -0.471  -5.625  0.00  0.00     0.083 H 
ATOM     49  H   LIG d   1       8.324  -1.619  -4.821  0.00  0.00     0.083 H 
ATOM     50  H   LIG d   1       9.541  -0.013  -6.303  0.00  0.00     0.048 H 
ATOM     51  H   LIG d   1      10.013   0.182  -4.581  0.00  0.00     0.048 H 
BRANCH  42  52
ATOM     52  C   LIG d   1       6.428  -0.980  -3.094  0.00  0.00    -0.021 C 
ATOM     53  C   LIG d   1       5.349  -0.113  -2.443  0.00  0.00    -0.010 C 
ATOM     54  C   LIG d   1       4.210  -1.005  -1.945  0.00  0.00    -0.048 C 
ATOM     55  H   LIG d   1       5.782   0.437  -1.593  0.00  0.00     0.032 H 
ATOM     56  H   LIG d   1       4.958   0.603  -3.181  0.00  0.00     0.032 H 
ATOM     57  C   LIG d   1       3.607  -1.769  -3.126  0.00  0.00    -0.053 C 
ATOM     58  H   LIG d   1       3.433  -0.382  -1.477  0.00  0.00     0.027 H 
ATOM     59  H   LIG d   1       4.600  -1.720  -1.206  0.00  0.00     0.027 H 
ATOM     60  C   LIG d   1       4.687  -2.636  -3.777  0.00  0.00    -0.048 C 
ATOM     61  H   LIG d   1       3.217  -1.053  -3.865  0.00  0.00     0.026 H 
ATOM     62  H   LIG d   1       2.788  -2.410  -2.768  0.00  0.00     0.026 H 
ATOM     63  C   LIG d   1       5.826  -1.743  -4.274  0.00  0.00    -0.010 C 
ATOM     64  H   LIG d   1       4.254  -3.184  -4.626  0.00  0.00     0.027 H 
ATOM     65  H   LIG d   1       5.077  -3.351  -3.038  0.00  0.00     0.027 H 
ATOM     66  H   LIG d   1       5.435  -1.027  -5.013  0.00  0.00     0.032 H 
ATOM     67  H   LIG d   1       6.602  -2.366  -4.742  0.00  0.00     0.032 H 
ATOM     68  H   LIG d   1       6.857  -1.678  -2.360  0.00  0.00     0.085 H 
ENDBRANCH  42  52
ENDBRANCH   1  37
TORSDOF 5
ENDMDL
