MODEL 1
REMARK VINA RESULT:      -8.1      0.000      0.000
REMARK  3 active torsions:
REMARK  status: ('A' for Active; 'I' for Inactive)
REMARK    1  A    between atoms: C_1  and  C_2 
REMARK    2  A    between atoms: C_18  and  O_23 
REMARK    3  A    between atoms: C_24  and  C_30 
ROOT
ATOM      1  C   LIG d   1       3.135  -0.707  -9.832  0.00  0.00     0.101 C 
ATOM      2  H   LIG d   1       2.436   0.046  -9.469  0.00  0.00     0.073 H 
ATOM      3  C   LIG d   1       2.397  -1.728 -10.705  0.00  0.00    -0.015 C 
ATOM      4  C   LIG d   1       1.905  -1.070 -11.991  0.00  0.00    -0.043 C 
ATOM      5  C   LIG d   1       0.909  -2.003 -12.687  0.00  0.00     0.006 C 
ATOM      6  C   LIG d   1       1.627  -3.239 -13.165  0.00  0.00     0.133 C 
ATOM      7  O   LIG d   1       2.378  -3.171 -14.108  0.00  0.00    -0.297 OA
ATOM      8  C   LIG d   1       1.411  -4.559 -12.470  0.00  0.00     0.006 C 
ATOM      9  C   LIG d   1       2.564  -5.510 -12.802  0.00  0.00    -0.043 C 
ATOM     10  C   LIG d   1       2.580  -6.669 -11.804  0.00  0.00    -0.034 C 
ATOM     11  C   LIG d   1       3.622  -6.411 -10.744  0.00  0.00    -0.083 C 
ATOM     12  C   LIG d   1       3.544  -5.322  -9.994  0.00  0.00    -0.058 C 
ATOM     13  C   LIG d   1       4.549  -5.025  -8.957  0.00  0.00    -0.004 A 
ATOM     14  C   LIG d   1       5.465  -5.975  -8.531  0.00  0.00    -0.011 A 
ATOM     15  C   LIG d   1       6.400  -5.649  -7.559  0.00  0.00     0.140 A 
ATOM     16  C   LIG d   1       6.434  -4.371  -7.014  0.00  0.00     0.045 A 
ATOM     17  C   LIG d   1       5.528  -3.409  -7.425  0.00  0.00     0.139 A 
ATOM     18  C   LIG d   1       4.568  -3.727  -8.393  0.00  0.00     0.108 A 
ATOM     19  C   LIG d   1       3.558  -2.763  -8.823  0.00  0.00     0.344 C 
ATOM     20  O   LIG d   1       2.528  -3.192  -9.304  0.00  0.00    -0.245 OA
ATOM     21  O   LIG d   1       3.700  -1.431  -8.719  0.00  0.00    -0.458 OA
ATOM     22  C   LIG d   1       7.473  -4.039  -5.975  0.00  0.00     0.031 C 
ATOM     23  H   LIG d   1       8.417  -3.798  -6.465  0.00  0.00     0.041 H 
ATOM     24  C   LIG d   1       7.665  -5.252  -5.063  0.00  0.00     0.057 C 
ATOM     25  C   LIG d   1       7.728  -6.523  -5.865  0.00  0.00     0.313 C 
ATOM     26  O   LIG d   1       8.185  -7.518  -5.355  0.00  0.00    -0.250 OA
ATOM     27  O   LIG d   1       7.291  -6.578  -7.130  0.00  0.00    -0.425 OA
ATOM     28  H   LIG d   1       3.074  -2.545 -10.954  0.00  0.00     0.030 H 
ATOM     29  H   LIG d   1       1.544  -2.124 -10.154  0.00  0.00     0.030 H 
ATOM     30  H   LIG d   1       1.413  -0.126 -11.753  0.00  0.00     0.027 H 
ATOM     31  H   LIG d   1       2.751  -0.883 -12.652  0.00  0.00     0.027 H 
ATOM     32  H   LIG d   1       0.125  -2.287 -11.984  0.00  0.00     0.034 H 
ATOM     33  H   LIG d   1       0.464  -1.489 -13.539  0.00  0.00     0.034 H 
ATOM     34  H   LIG d   1       1.372  -4.400 -11.392  0.00  0.00     0.034 H 
ATOM     35  H   LIG d   1       0.472  -4.997 -12.806  0.00  0.00     0.034 H 
ATOM     36  H   LIG d   1       2.432  -5.901 -13.811  0.00  0.00     0.027 H 
ATOM     37  H   LIG d   1       3.508  -4.969 -12.744  0.00  0.00     0.027 H 
ATOM     38  H   LIG d   1       1.599  -6.756 -11.335  0.00  0.00     0.031 H 
ATOM     39  H   LIG d   1       2.816  -7.595 -12.327  0.00  0.00     0.031 H 
ATOM     40  H   LIG d   1       4.426  -7.113 -10.600  0.00  0.00     0.057 H 
ATOM     41  H   LIG d   1       2.712  -4.638 -10.131  0.00  0.00     0.062 H 
ATOM     42  H   LIG d   1       5.449  -6.969  -8.956  0.00  0.00     0.066 H 
ATOM     43  H   LIG d   1       8.592  -5.136  -4.503  0.00  0.00     0.039 H 
ATOM     44  H   LIG d   1       6.830  -5.310  -4.365  0.00  0.00     0.039 H 
ENDROOT
BRANCH  22  45
ATOM     45  C   LIG d   1       7.013  -2.860  -5.157  0.00  0.00     0.026 A 
ATOM     46  C   LIG d   1       7.658  -1.614  -5.318  0.00  0.00     0.256 A 
ATOM     47  N   LIG d   1       7.276  -0.529  -4.610  0.00  0.00    -0.307 N 
ATOM     48  O   LIG d   1       8.574  -1.514  -6.116  0.00  0.00    -0.267 OA
ATOM     49  C   LIG d   1       6.252  -0.651  -3.717  0.00  0.00     0.055 A 
ATOM     50  C   LIG d   1       7.755   0.860  -4.579  0.00  0.00     0.031 A 
ATOM     51  C   LIG d   1       5.572  -1.853  -3.500  0.00  0.00    -0.001 A 
ATOM     52  C   LIG d   1       5.934   0.503  -3.036  0.00  0.00    -0.021 A 
ATOM     53  C   LIG d   1       5.990  -3.021  -4.276  0.00  0.00    -0.044 A 
ATOM     54  C   LIG d   1       4.537  -1.877  -2.560  0.00  0.00    -0.053 A 
ATOM     55  H   LIG d   1       5.502  -3.977  -4.154  0.00  0.00     0.063 H 
ATOM     56  C   LIG d   1       4.226  -0.726  -1.886  0.00  0.00    -0.061 A 
ATOM     57  H   LIG d   1       3.992  -2.789  -2.369  0.00  0.00     0.062 H 
ATOM     58  C   LIG d   1       4.912   0.462  -2.113  0.00  0.00    -0.057 A 
ATOM     59  H   LIG d   1       3.427  -0.742  -1.159  0.00  0.00     0.062 H 
ATOM     60  H   LIG d   1       4.644   1.354  -1.567  0.00  0.00     0.062 H 
ATOM     61  C   LIG d   1       6.872   1.576  -3.534  0.00  0.00    -0.008 A 
ATOM     62  H   LIG d   1       6.312   2.386  -3.998  0.00  0.00     0.033 H 
ATOM     63  H   LIG d   1       7.484   1.955  -2.716  0.00  0.00     0.033 H 
ATOM     64  H   LIG d   1       8.802   0.892  -4.276  0.00  0.00     0.050 H 
ATOM     65  H   LIG d   1       7.630   1.324  -5.558  0.00  0.00     0.050 H 
ENDBRANCH  22  45
BRANCH  17  66
ATOM     66  O   LIG d   1       5.569  -2.164  -6.890  0.00  0.00    -0.505 OA
ATOM     67  H   LIG d   1       5.005  -1.523  -7.344  0.00  0.00     0.292 HD
ENDBRANCH  17  66
BRANCH   1  68
ATOM     68  C   LIG d   1       4.249  -0.038 -10.640  0.00  0.00    -0.028 C 
ATOM     69  H   LIG d   1       4.621  -0.735 -11.391  0.00  0.00     0.026 H 
ATOM     70  H   LIG d   1       3.857   0.852 -11.131  0.00  0.00     0.026 H 
ATOM     71  H   LIG d   1       5.063   0.244  -9.972  0.00  0.00     0.026 H 
ENDBRANCH   1  68
TORSDOF 3
ENDMDL
MODEL 2
REMARK VINA RESULT:      -8.0      3.070      5.305
REMARK  3 active torsions:
REMARK  status: ('A' for Active; 'I' for Inactive)
REMARK    1  A    between atoms: C_1  and  C_2 
REMARK    2  A    between atoms: C_18  and  O_23 
REMARK    3  A    between atoms: C_24  and  C_30 
ROOT
ATOM      1  C   LIG d   1       3.625  -6.754  -8.687  0.00  0.00     0.101 C 
ATOM      2  H   LIG d   1       2.549  -6.590  -8.736  0.00  0.00     0.073 H 
ATOM      3  C   LIG d   1       3.918  -8.244  -8.476  0.00  0.00    -0.015 C 
ATOM      4  C   LIG d   1       3.507  -9.046  -9.708  0.00  0.00    -0.043 C 
ATOM      5  C   LIG d   1       3.504 -10.538  -9.361  0.00  0.00     0.006 C 
ATOM      6  C   LIG d   1       4.915 -10.993  -9.088  0.00  0.00     0.133 C 
ATOM      7  O   LIG d   1       5.699 -11.103 -10.000  0.00  0.00    -0.297 OA
ATOM      8  C   LIG d   1       5.350 -11.313  -7.681  0.00  0.00     0.006 C 
ATOM      9  C   LIG d   1       6.878 -11.275  -7.594  0.00  0.00    -0.043 C 
ATOM     10  C   LIG d   1       7.308 -11.185  -6.128  0.00  0.00    -0.034 C 
ATOM     11  C   LIG d   1       7.649  -9.755  -5.788  0.00  0.00    -0.083 C 
ATOM     12  C   LIG d   1       6.735  -8.808  -5.929  0.00  0.00    -0.058 C 
ATOM     13  C   LIG d   1       7.030  -7.397  -5.620  0.00  0.00    -0.004 A 
ATOM     14  C   LIG d   1       8.171  -7.022  -4.927  0.00  0.00    -0.011 A 
ATOM     15  C   LIG d   1       8.415  -5.681  -4.667  0.00  0.00     0.140 A 
ATOM     16  C   LIG d   1       7.527  -4.705  -5.106  0.00  0.00     0.045 A 
ATOM     17  C   LIG d   1       6.383  -5.060  -5.799  0.00  0.00     0.139 A 
ATOM     18  C   LIG d   1       6.114  -6.409  -6.055  0.00  0.00     0.108 A 
ATOM     19  C   LIG d   1       4.896  -6.837  -6.737  0.00  0.00     0.344 C 
ATOM     20  O   LIG d   1       4.507  -7.973  -6.552  0.00  0.00    -0.245 OA
ATOM     21  O   LIG d   1       4.178  -6.049  -7.556  0.00  0.00    -0.458 OA
ATOM     22  C   LIG d   1       7.827  -3.255  -4.828  0.00  0.00     0.031 C 
ATOM     23  H   LIG d   1       8.529  -2.877  -5.571  0.00  0.00     0.041 H 
ATOM     24  C   LIG d   1       8.446  -3.138  -3.434  0.00  0.00     0.057 C 
ATOM     25  C   LIG d   1       9.473  -4.214  -3.209  0.00  0.00     0.313 C 
ATOM     26  O   LIG d   1      10.272  -4.087  -2.312  0.00  0.00    -0.250 OA
ATOM     27  O   LIG d   1       9.524  -5.309  -3.979  0.00  0.00    -0.425 OA
ATOM     28  H   LIG d   1       4.985  -8.379  -8.297  0.00  0.00     0.030 H 
ATOM     29  H   LIG d   1       3.361  -8.602  -7.610  0.00  0.00     0.030 H 
ATOM     30  H   LIG d   1       2.508  -8.744 -10.023  0.00  0.00     0.027 H 
ATOM     31  H   LIG d   1       4.215  -8.861 -10.516  0.00  0.00     0.027 H 
ATOM     32  H   LIG d   1       2.890 -10.704  -8.476  0.00  0.00     0.034 H 
ATOM     33  H   LIG d   1       3.096 -11.105 -10.198  0.00  0.00     0.034 H 
ATOM     34  H   LIG d   1       4.930 -10.577  -6.995  0.00  0.00     0.034 H 
ATOM     35  H   LIG d   1       4.996 -12.307  -7.408  0.00  0.00     0.034 H 
ATOM     36  H   LIG d   1       7.289 -12.182  -8.038  0.00  0.00     0.027 H 
ATOM     37  H   LIG d   1       7.251 -10.406  -8.136  0.00  0.00     0.027 H 
ATOM     38  H   LIG d   1       6.493 -11.526  -5.490  0.00  0.00     0.031 H 
ATOM     39  H   LIG d   1       8.183 -11.814  -5.968  0.00  0.00     0.031 H 
ATOM     40  H   LIG d   1       8.635  -9.509  -5.430  0.00  0.00     0.057 H 
ATOM     41  H   LIG d   1       5.736  -9.075  -6.262  0.00  0.00     0.062 H 
ATOM     42  H   LIG d   1       8.869  -7.774  -4.589  0.00  0.00     0.066 H 
ATOM     43  H   LIG d   1       8.921  -2.163  -3.334  0.00  0.00     0.039 H 
ATOM     44  H   LIG d   1       7.660  -3.231  -2.685  0.00  0.00     0.039 H 
ENDROOT
BRANCH  22  45
ATOM     45  C   LIG d   1       6.552  -2.455  -4.882  0.00  0.00     0.026 A 
ATOM     46  C   LIG d   1       6.254  -1.710  -6.045  0.00  0.00     0.256 A 
ATOM     47  N   LIG d   1       5.120  -0.982  -6.141  0.00  0.00    -0.307 N 
ATOM     48  O   LIG d   1       7.033  -1.729  -6.983  0.00  0.00    -0.267 OA
ATOM     49  C   LIG d   1       4.257  -0.963  -5.085  0.00  0.00     0.055 A 
ATOM     50  C   LIG d   1       4.566  -0.135  -7.207  0.00  0.00     0.031 A 
ATOM     51  C   LIG d   1       4.489  -1.670  -3.901  0.00  0.00    -0.001 A 
ATOM     52  C   LIG d   1       3.130  -0.192  -5.268  0.00  0.00    -0.021 A 
ATOM     53  C   LIG d   1       5.717  -2.460  -3.809  0.00  0.00    -0.044 A 
ATOM     54  C   LIG d   1       3.543  -1.585  -2.874  0.00  0.00    -0.053 A 
ATOM     55  H   LIG d   1       5.951  -3.029  -2.922  0.00  0.00     0.063 H 
ATOM     56  C   LIG d   1       2.426  -0.815  -3.062  0.00  0.00    -0.061 A 
ATOM     57  H   LIG d   1       3.692  -2.118  -1.948  0.00  0.00     0.062 H 
ATOM     58  C   LIG d   1       2.210  -0.119  -4.247  0.00  0.00    -0.057 A 
ATOM     59  H   LIG d   1       1.694  -0.748  -2.271  0.00  0.00     0.062 H 
ATOM     60  H   LIG d   1       1.319   0.480  -4.367  0.00  0.00     0.062 H 
ATOM     61  C   LIG d   1       3.232   0.406  -6.651  0.00  0.00    -0.008 A 
ATOM     62  H   LIG d   1       2.398   0.077  -7.270  0.00  0.00     0.033 H 
ATOM     63  H   LIG d   1       3.258   1.494  -6.594  0.00  0.00     0.033 H 
ATOM     64  H   LIG d   1       5.247   0.687  -7.428  0.00  0.00     0.050 H 
ATOM     65  H   LIG d   1       4.387  -0.728  -8.105  0.00  0.00     0.050 H 
ENDBRANCH  22  45
BRANCH  17  66
ATOM     66  O   LIG d   1       5.523  -4.101  -6.225  0.00  0.00    -0.505 OA
ATOM     67  H   LIG d   1       5.197  -3.524  -5.521  0.00  0.00     0.292 HD
ENDBRANCH  17  66
BRANCH   1  68
ATOM     68  C   LIG d   1       4.287  -6.270  -9.979  0.00  0.00    -0.028 C 
ATOM     69  H   LIG d   1       4.311  -5.180  -9.988  0.00  0.00     0.026 H 
ATOM     70  H   LIG d   1       5.304  -6.657 -10.034  0.00  0.00     0.026 H 
ATOM     71  H   LIG d   1       3.715  -6.628 -10.835  0.00  0.00     0.026 H 
ENDBRANCH   1  68
TORSDOF 3
ENDMDL
MODEL 3
REMARK VINA RESULT:      -7.6      6.569     12.487
REMARK  3 active torsions:
REMARK  status: ('A' for Active; 'I' for Inactive)
REMARK    1  A    between atoms: C_1  and  C_2 
REMARK    2  A    between atoms: C_18  and  O_23 
REMARK    3  A    between atoms: C_24  and  C_30 
ROOT
ATOM      1  C   LIG d   1      10.923   5.307  -1.766  0.00  0.00     0.101 C 
ATOM      2  H   LIG d   1      10.535   4.711  -0.940  0.00  0.00     0.073 H 
ATOM      3  C   LIG d   1      10.545   6.780  -1.570  0.00  0.00    -0.015 C 
ATOM      4  C   LIG d   1      11.274   7.358  -0.360  0.00  0.00    -0.043 C 
ATOM      5  C   LIG d   1      10.649   8.708   0.007  0.00  0.00     0.006 C 
ATOM      6  C   LIG d   1      10.923   9.704  -1.090  0.00  0.00     0.133 C 
ATOM      7  O   LIG d   1      12.037  10.146  -1.238  0.00  0.00    -0.297 OA
ATOM      8  C   LIG d   1       9.811  10.152  -2.003  0.00  0.00     0.006 C 
ATOM      9  C   LIG d   1      10.405  10.752  -3.281  0.00  0.00    -0.043 C 
ATOM     10  C   LIG d   1       9.328  10.824  -4.365  0.00  0.00    -0.034 C 
ATOM     11  C   LIG d   1       9.484   9.661  -5.313  0.00  0.00    -0.083 C 
ATOM     12  C   LIG d   1       9.414   8.421  -4.851  0.00  0.00    -0.058 C 
ATOM     13  C   LIG d   1       9.575   7.256  -5.740  0.00  0.00    -0.004 A 
ATOM     14  C   LIG d   1       9.543   7.378  -7.121  0.00  0.00    -0.011 A 
ATOM     15  C   LIG d   1       9.708   6.256  -7.920  0.00  0.00     0.140 A 
ATOM     16  C   LIG d   1       9.918   5.007  -7.346  0.00  0.00     0.045 A 
ATOM     17  C   LIG d   1       9.952   4.865  -5.971  0.00  0.00     0.139 A 
ATOM     18  C   LIG d   1       9.771   5.984  -5.151  0.00  0.00     0.108 A 
ATOM     19  C   LIG d   1       9.748   5.878  -3.694  0.00  0.00     0.344 C 
ATOM     20  O   LIG d   1       9.174   6.746  -3.067  0.00  0.00    -0.245 OA
ATOM     21  O   LIG d   1      10.323   4.877  -3.006  0.00  0.00    -0.458 OA
ATOM     22  C   LIG d   1      10.115   3.809  -8.239  0.00  0.00     0.031 C 
ATOM     23  H   LIG d   1      11.151   3.769  -8.575  0.00  0.00     0.041 H 
ATOM     24  C   LIG d   1       9.188   3.937  -9.449  0.00  0.00     0.057 C 
ATOM     25  C   LIG d   1       9.205   5.338  -9.994  0.00  0.00     0.313 C 
ATOM     26  O   LIG d   1       8.793   5.540 -11.112  0.00  0.00    -0.250 OA
ATOM     27  O   LIG d   1       9.666   6.368  -9.272  0.00  0.00    -0.425 OA
ATOM     28  H   LIG d   1      10.821   7.343  -2.461  0.00  0.00     0.030 H 
ATOM     29  H   LIG d   1       9.469   6.858  -1.415  0.00  0.00     0.030 H 
ATOM     30  H   LIG d   1      11.181   6.674   0.483  0.00  0.00     0.027 H 
ATOM     31  H   LIG d   1      12.327   7.498  -0.602  0.00  0.00     0.027 H 
ATOM     32  H   LIG d   1       9.572   8.589   0.130  0.00  0.00     0.034 H 
ATOM     33  H   LIG d   1      11.083   9.068   0.941  0.00  0.00     0.034 H 
ATOM     34  H   LIG d   1       9.187   9.297  -2.262  0.00  0.00     0.034 H 
ATOM     35  H   LIG d   1       9.205  10.904  -1.498  0.00  0.00     0.034 H 
ATOM     36  H   LIG d   1      10.777  11.755  -3.072  0.00  0.00     0.027 H 
ATOM     37  H   LIG d   1      11.227  10.126  -3.627  0.00  0.00     0.027 H 
ATOM     38  H   LIG d   1       8.343  10.784  -3.900  0.00  0.00     0.031 H 
ATOM     39  H   LIG d   1       9.431  11.758  -4.917  0.00  0.00     0.031 H 
ATOM     40  H   LIG d   1       9.651   9.841  -6.361  0.00  0.00     0.057 H 
ATOM     41  H   LIG d   1       9.217   8.254  -3.796  0.00  0.00     0.062 H 
ATOM     42  H   LIG d   1       9.388   8.347  -7.574  0.00  0.00     0.066 H 
ATOM     43  H   LIG d   1       9.515   3.246 -10.225  0.00  0.00     0.039 H 
ATOM     44  H   LIG d   1       8.172   3.682  -9.149  0.00  0.00     0.039 H 
ENDROOT
BRANCH  22  45
ATOM     45  C   LIG d   1       9.782   2.551  -7.478  0.00  0.00     0.026 A 
ATOM     46  C   LIG d   1      10.831   1.722  -7.023  0.00  0.00     0.256 A 
ATOM     47  N   LIG d   1      10.581   0.589  -6.333  0.00  0.00    -0.307 N 
ATOM     48  O   LIG d   1      11.986   2.039  -7.253  0.00  0.00    -0.267 OA
ATOM     49  C   LIG d   1       9.285   0.240  -6.085  0.00  0.00     0.055 A 
ATOM     50  C   LIG d   1      11.457  -0.437  -5.749  0.00  0.00     0.031 A 
ATOM     51  C   LIG d   1       8.197   1.007  -6.510  0.00  0.00    -0.001 A 
ATOM     52  C   LIG d   1       9.123  -0.933  -5.381  0.00  0.00    -0.021 A 
ATOM     53  C   LIG d   1       8.479   2.237  -7.251  0.00  0.00    -0.044 A 
ATOM     54  C   LIG d   1       6.905   0.564  -6.207  0.00  0.00    -0.053 A 
ATOM     55  H   LIG d   1       7.681   2.873  -7.604  0.00  0.00     0.063 H 
ATOM     56  C   LIG d   1       6.751  -0.603  -5.508  0.00  0.00    -0.061 A 
ATOM     57  H   LIG d   1       6.044   1.133  -6.520  0.00  0.00     0.062 H 
ATOM     58  C   LIG d   1       7.845  -1.356  -5.092  0.00  0.00    -0.057 A 
ATOM     59  H   LIG d   1       5.755  -0.949  -5.273  0.00  0.00     0.062 H 
ATOM     60  H   LIG d   1       7.693  -2.272  -4.540  0.00  0.00     0.062 H 
ATOM     61  C   LIG d   1      10.507  -1.469  -5.102  0.00  0.00    -0.008 A 
ATOM     62  H   LIG d   1      10.683  -1.529  -4.029  0.00  0.00     0.033 H 
ATOM     63  H   LIG d   1      10.637  -2.447  -5.565  0.00  0.00     0.033 H 
ATOM     64  H   LIG d   1      12.056  -0.910  -6.528  0.00  0.00     0.050 H 
ATOM     65  H   LIG d   1      12.104   0.007  -4.991  0.00  0.00     0.050 H 
ENDBRANCH  22  45
BRANCH  17  66
ATOM     66  O   LIG d   1      10.159   3.643  -5.419  0.00  0.00    -0.505 OA
ATOM     67  H   LIG d   1      11.045   3.522  -5.053  0.00  0.00     0.292 HD
ENDBRANCH  17  66
BRANCH   1  68
ATOM     68  C   LIG d   1      12.444   5.164  -1.843  0.00  0.00    -0.028 C 
ATOM     69  H   LIG d   1      12.741   5.003  -2.880  0.00  0.00     0.026 H 
ATOM     70  H   LIG d   1      12.914   6.072  -1.467  0.00  0.00     0.026 H 
ATOM     71  H   LIG d   1      12.760   4.314  -1.239  0.00  0.00     0.026 H 
ENDBRANCH   1  68
TORSDOF 3
ENDMDL
MODEL 4
REMARK VINA RESULT:      -7.6      3.493      5.308
REMARK  3 active torsions:
REMARK  status: ('A' for Active; 'I' for Inactive)
REMARK    1  A    between atoms: C_1  and  C_2 
REMARK    2  A    between atoms: C_18  and  O_23 
REMARK    3  A    between atoms: C_24  and  C_30 
ROOT
ATOM      1  C   LIG d   1       7.549  -0.460 -10.747  0.00  0.00     0.101 C 
ATOM      2  H   LIG d   1       8.229   0.188 -11.299  0.00  0.00     0.073 H 
ATOM      3  C   LIG d   1       6.177  -0.484 -11.432  0.00  0.00    -0.015 C 
ATOM      4  C   LIG d   1       6.275  -1.171 -12.791  0.00  0.00    -0.043 C 
ATOM      5  C   LIG d   1       4.993  -0.902 -13.586  0.00  0.00     0.006 C 
ATOM      6  C   LIG d   1       3.832  -1.590 -12.915  0.00  0.00     0.133 C 
ATOM      7  O   LIG d   1       3.733  -2.793 -12.968  0.00  0.00    -0.297 OA
ATOM      8  C   LIG d   1       2.793  -0.783 -12.180  0.00  0.00     0.006 C 
ATOM      9  C   LIG d   1       2.027  -1.690 -11.213  0.00  0.00    -0.043 C 
ATOM     10  C   LIG d   1       1.280  -0.835 -10.187  0.00  0.00    -0.034 C 
ATOM     11  C   LIG d   1       2.064  -0.790  -8.898  0.00  0.00    -0.083 C 
ATOM     12  C   LIG d   1       3.300  -0.316  -8.895  0.00  0.00    -0.058 C 
ATOM     13  C   LIG d   1       4.105  -0.267  -7.661  0.00  0.00    -0.004 A 
ATOM     14  C   LIG d   1       3.540  -0.460  -6.410  0.00  0.00    -0.011 A 
ATOM     15  C   LIG d   1       4.338  -0.415  -5.275  0.00  0.00     0.140 A 
ATOM     16  C   LIG d   1       5.705  -0.188  -5.383  0.00  0.00     0.045 A 
ATOM     17  C   LIG d   1       6.287   0.008  -6.623  0.00  0.00     0.139 A 
ATOM     18  C   LIG d   1       5.494  -0.018  -7.775  0.00  0.00     0.108 A 
ATOM     19  C   LIG d   1       6.053   0.233  -9.101  0.00  0.00     0.344 C 
ATOM     20  O   LIG d   1       5.301   0.623  -9.973  0.00  0.00    -0.245 OA
ATOM     21  O   LIG d   1       7.348   0.059  -9.415  0.00  0.00    -0.458 OA
ATOM     22  C   LIG d   1       6.550  -0.165  -4.135  0.00  0.00     0.031 C 
ATOM     23  H   LIG d   1       6.796  -1.185  -3.840  0.00  0.00     0.041 H 
ATOM     24  C   LIG d   1       5.759   0.515  -3.016  0.00  0.00     0.057 C 
ATOM     25  C   LIG d   1       4.334   0.033  -2.996  0.00  0.00     0.313 C 
ATOM     26  O   LIG d   1       3.666   0.216  -2.006  0.00  0.00    -0.250 OA
ATOM     27  O   LIG d   1       3.788  -0.592  -4.047  0.00  0.00    -0.425 OA
ATOM     28  H   LIG d   1       5.470  -1.026 -10.804  0.00  0.00     0.030 H 
ATOM     29  H   LIG d   1       5.825   0.538 -11.569  0.00  0.00     0.030 H 
ATOM     30  H   LIG d   1       7.131  -0.777 -13.339  0.00  0.00     0.027 H 
ATOM     31  H   LIG d   1       6.396  -2.245 -12.649  0.00  0.00     0.027 H 
ATOM     32  H   LIG d   1       4.807   0.171 -13.624  0.00  0.00     0.034 H 
ATOM     33  H   LIG d   1       5.106  -1.286 -14.600  0.00  0.00     0.034 H 
ATOM     34  H   LIG d   1       3.283   0.013 -11.618  0.00  0.00     0.034 H 
ATOM     35  H   LIG d   1       2.097  -0.347 -12.896  0.00  0.00     0.034 H 
ATOM     36  H   LIG d   1       1.312  -2.294 -11.771  0.00  0.00     0.027 H 
ATOM     37  H   LIG d   1       2.729  -2.345 -10.697  0.00  0.00     0.027 H 
ATOM     38  H   LIG d   1       1.162   0.176 -10.576  0.00  0.00     0.031 H 
ATOM     39  H   LIG d   1       0.298  -1.269  -9.999  0.00  0.00     0.031 H 
ATOM     40  H   LIG d   1       1.615  -1.143  -7.985  0.00  0.00     0.057 H 
ATOM     41  H   LIG d   1       3.729   0.063  -9.818  0.00  0.00     0.062 H 
ATOM     42  H   LIG d   1       2.480  -0.644  -6.319  0.00  0.00     0.066 H 
ATOM     43  H   LIG d   1       6.227   0.289  -2.059  0.00  0.00     0.039 H 
ATOM     44  H   LIG d   1       5.770   1.593  -3.174  0.00  0.00     0.039 H 
ENDROOT
BRANCH  22  45
ATOM     45  C   LIG d   1       7.818   0.606  -4.397  0.00  0.00     0.026 A 
ATOM     46  C   LIG d   1       9.004  -0.100  -4.696  0.00  0.00     0.256 A 
ATOM     47  N   LIG d   1      10.163   0.549  -4.942  0.00  0.00    -0.307 N 
ATOM     48  O   LIG d   1       8.981  -1.318  -4.737  0.00  0.00    -0.267 OA
ATOM     49  C   LIG d   1      10.181   1.912  -4.890  0.00  0.00     0.055 A 
ATOM     50  C   LIG d   1      11.517   0.081  -5.276  0.00  0.00     0.031 A 
ATOM     51  C   LIG d   1       9.047   2.676  -4.594  0.00  0.00    -0.001 A 
ATOM     52  C   LIG d   1      11.404   2.489  -5.149  0.00  0.00    -0.021 A 
ATOM     53  C   LIG d   1       7.795   1.963  -4.334  0.00  0.00    -0.044 A 
ATOM     54  C   LIG d   1       9.168   4.068  -4.562  0.00  0.00    -0.053 A 
ATOM     55  H   LIG d   1       6.886   2.498  -4.102  0.00  0.00     0.063 H 
ATOM     56  C   LIG d   1      10.388   4.635  -4.819  0.00  0.00    -0.061 A 
ATOM     57  H   LIG d   1       8.313   4.687  -4.337  0.00  0.00     0.062 H 
ATOM     58  C   LIG d   1      11.506   3.861  -5.112  0.00  0.00    -0.057 A 
ATOM     59  H   LIG d   1      10.484   5.711  -4.795  0.00  0.00     0.062 H 
ATOM     60  H   LIG d   1      12.455   4.337  -5.313  0.00  0.00     0.062 H 
ATOM     61  C   LIG d   1      12.369   1.360  -5.422  0.00  0.00    -0.008 A 
ATOM     62  H   LIG d   1      12.771   1.438  -6.431  0.00  0.00     0.033 H 
ATOM     63  H   LIG d   1      13.176   1.363  -4.689  0.00  0.00     0.033 H 
ATOM     64  H   LIG d   1      11.907  -0.546  -4.474  0.00  0.00     0.050 H 
ATOM     65  H   LIG d   1      11.503  -0.473  -6.216  0.00  0.00     0.050 H 
ENDBRANCH  22  45
BRANCH  17  66
ATOM     66  O   LIG d   1       7.622   0.227  -6.719  0.00  0.00    -0.505 OA
ATOM     67  H   LIG d   1       7.853   1.074  -7.123  0.00  0.00     0.292 HD
ENDBRANCH  17  66
BRANCH   1  68
ATOM     68  C   LIG d   1       8.120  -1.878 -10.675  0.00  0.00    -0.028 C 
ATOM     69  H   LIG d   1       7.461  -2.563 -11.208  0.00  0.00     0.026 H 
ATOM     70  H   LIG d   1       9.110  -1.894 -11.132  0.00  0.00     0.026 H 
ATOM     71  H   LIG d   1       8.196  -2.185  -9.632  0.00  0.00     0.026 H 
ENDBRANCH   1  68
TORSDOF 3
ENDMDL
MODEL 5
REMARK VINA RESULT:      -7.5      4.765      8.822
REMARK  3 active torsions:
REMARK  status: ('A' for Active; 'I' for Inactive)
REMARK    1  A    between atoms: C_1  and  C_2 
REMARK    2  A    between atoms: C_18  and  O_23 
REMARK    3  A    between atoms: C_24  and  C_30 
ROOT
ATOM      1  C   LIG d   1       7.284  -1.231  -8.390  0.00  0.00     0.101 C 
ATOM      2  H   LIG d   1       6.877  -1.201  -9.401  0.00  0.00     0.073 H 
ATOM      3  C   LIG d   1       6.215  -1.728  -7.411  0.00  0.00    -0.015 C 
ATOM      4  C   LIG d   1       5.880  -3.192  -7.688  0.00  0.00    -0.043 C 
ATOM      5  C   LIG d   1       4.604  -3.570  -6.930  0.00  0.00     0.006 C 
ATOM      6  C   LIG d   1       4.871  -3.535  -5.447  0.00  0.00     0.133 C 
ATOM      7  O   LIG d   1       5.550  -4.394  -4.937  0.00  0.00    -0.297 OA
ATOM      8  C   LIG d   1       4.293  -2.432  -4.598  0.00  0.00     0.006 C 
ATOM      9  C   LIG d   1       5.070  -2.335  -3.282  0.00  0.00    -0.043 C 
ATOM     10  C   LIG d   1       4.779  -0.992  -2.610  0.00  0.00    -0.034 C 
ATOM     11  C   LIG d   1       5.909  -0.031  -2.888  0.00  0.00    -0.083 C 
ATOM     12  C   LIG d   1       6.219   0.278  -4.138  0.00  0.00    -0.058 C 
ATOM     13  C   LIG d   1       7.324   1.201  -4.453  0.00  0.00    -0.004 A 
ATOM     14  C   LIG d   1       7.920   1.990  -3.482  0.00  0.00    -0.011 A 
ATOM     15  C   LIG d   1       8.964   2.839  -3.822  0.00  0.00     0.140 A 
ATOM     16  C   LIG d   1       9.427   2.896  -5.131  0.00  0.00     0.045 A 
ATOM     17  C   LIG d   1       8.845   2.117  -6.115  0.00  0.00     0.139 A 
ATOM     18  C   LIG d   1       7.780   1.269  -5.792  0.00  0.00     0.108 A 
ATOM     19  C   LIG d   1       7.100   0.464  -6.804  0.00  0.00     0.344 C 
ATOM     20  O   LIG d   1       5.961   0.105  -6.577  0.00  0.00    -0.245 OA
ATOM     21  O   LIG d   1       7.657   0.098  -7.971  0.00  0.00    -0.458 OA
ATOM     22  C   LIG d   1      10.576   3.811  -5.468  0.00  0.00     0.031 C 
ATOM     23  H   LIG d   1      11.519   3.325  -5.212  0.00  0.00     0.041 H 
ATOM     24  C   LIG d   1      10.431   5.103  -4.663  0.00  0.00     0.057 C 
ATOM     25  C   LIG d   1      10.047   4.809  -3.239  0.00  0.00     0.313 C 
ATOM     26  O   LIG d   1      10.199   5.665  -2.400  0.00  0.00    -0.250 OA
ATOM     27  O   LIG d   1       9.543   3.622  -2.877  0.00  0.00    -0.425 OA
ATOM     28  H   LIG d   1       6.587  -1.630  -6.391  0.00  0.00     0.030 H 
ATOM     29  H   LIG d   1       5.314  -1.125  -7.524  0.00  0.00     0.030 H 
ATOM     30  H   LIG d   1       5.723  -3.334  -8.757  0.00  0.00     0.027 H 
ATOM     31  H   LIG d   1       6.703  -3.823  -7.354  0.00  0.00     0.027 H 
ATOM     32  H   LIG d   1       3.812  -2.861  -7.174  0.00  0.00     0.034 H 
ATOM     33  H   LIG d   1       4.294  -4.574  -7.219  0.00  0.00     0.034 H 
ATOM     34  H   LIG d   1       4.368  -1.485  -5.133  0.00  0.00     0.034 H 
ATOM     35  H   LIG d   1       3.246  -2.647  -4.385  0.00  0.00     0.034 H 
ATOM     36  H   LIG d   1       4.765  -3.146  -2.620  0.00  0.00     0.027 H 
ATOM     37  H   LIG d   1       6.138  -2.416  -3.484  0.00  0.00     0.027 H 
ATOM     38  H   LIG d   1       3.850  -0.583  -3.005  0.00  0.00     0.031 H 
ATOM     39  H   LIG d   1       4.684  -1.138  -1.534  0.00  0.00     0.031 H 
ATOM     40  H   LIG d   1       6.461   0.401  -2.069  0.00  0.00     0.057 H 
ATOM     41  H   LIG d   1       5.636  -0.143  -4.952  0.00  0.00     0.062 H 
ATOM     42  H   LIG d   1       7.570   1.946  -2.460  0.00  0.00     0.066 H 
ATOM     43  H   LIG d   1      11.378   5.641  -4.675  0.00  0.00     0.039 H 
ATOM     44  H   LIG d   1       9.661   5.724  -5.120  0.00  0.00     0.039 H 
ENDROOT
BRANCH  22  45
ATOM     45  C   LIG d   1      10.555   4.129  -6.941  0.00  0.00     0.026 A 
ATOM     46  C   LIG d   1      11.533   3.556  -7.784  0.00  0.00     0.256 A 
ATOM     47  N   LIG d   1      11.550   3.809  -9.111  0.00  0.00    -0.307 N 
ATOM     48  O   LIG d   1      12.376   2.816  -7.306  0.00  0.00    -0.267 OA
ATOM     49  C   LIG d   1      10.607   4.642  -9.636  0.00  0.00     0.055 A 
ATOM     50  C   LIG d   1      12.428   3.358 -10.201  0.00  0.00     0.031 A 
ATOM     51  C   LIG d   1       9.613   5.249  -8.862  0.00  0.00    -0.001 A 
ATOM     52  C   LIG d   1      10.703   4.847 -10.995  0.00  0.00    -0.021 A 
ATOM     53  C   LIG d   1       9.599   4.964  -7.427  0.00  0.00    -0.044 A 
ATOM     54  C   LIG d   1       8.691   6.089  -9.495  0.00  0.00    -0.053 A 
ATOM     55  H   LIG d   1       8.856   5.401  -6.777  0.00  0.00     0.063 H 
ATOM     56  C   LIG d   1       8.793   6.290 -10.845  0.00  0.00    -0.061 A 
ATOM     57  H   LIG d   1       7.912   6.573  -8.926  0.00  0.00     0.062 H 
ATOM     58  C   LIG d   1       9.788   5.678 -11.602  0.00  0.00    -0.057 A 
ATOM     59  H   LIG d   1       8.083   6.939 -11.337  0.00  0.00     0.062 H 
ATOM     60  H   LIG d   1       9.842   5.854 -12.666  0.00  0.00     0.062 H 
ATOM     61  C   LIG d   1      11.882   4.036 -11.476  0.00  0.00    -0.008 A 
ATOM     62  H   LIG d   1      11.560   3.288 -12.199  0.00  0.00     0.033 H 
ATOM     63  H   LIG d   1      12.639   4.687 -11.912  0.00  0.00     0.033 H 
ATOM     64  H   LIG d   1      13.454   3.673 -10.013  0.00  0.00     0.050 H 
ATOM     65  H   LIG d   1      12.378   2.273 -10.300  0.00  0.00     0.050 H 
ENDBRANCH  22  45
BRANCH  17  66
ATOM     66  O   LIG d   1       9.304   2.178  -7.390  0.00  0.00    -0.505 OA
ATOM     67  H   LIG d   1       9.801   2.982  -7.591  0.00  0.00     0.292 HD
ENDBRANCH  17  66
BRANCH   1  68
ATOM     68  C   LIG d   1       8.503  -2.155  -8.345  0.00  0.00    -0.028 C 
ATOM     69  H   LIG d   1       8.793  -2.423  -9.361  0.00  0.00     0.026 H 
ATOM     70  H   LIG d   1       9.330  -1.642  -7.854  0.00  0.00     0.026 H 
ATOM     71  H   LIG d   1       8.253  -3.058  -7.789  0.00  0.00     0.026 H 
ENDBRANCH   1  68
TORSDOF 3
ENDMDL
MODEL 6
REMARK VINA RESULT:      -7.3      9.009     12.276
REMARK  3 active torsions:
REMARK  status: ('A' for Active; 'I' for Inactive)
REMARK    1  A    between atoms: C_1  and  C_2 
REMARK    2  A    between atoms: C_18  and  O_23 
REMARK    3  A    between atoms: C_24  and  C_30 
ROOT
ATOM      1  C   LIG d   1      12.448   9.872  -7.455  0.00  0.00     0.101 C 
ATOM      2  H   LIG d   1      12.377  10.922  -7.171  0.00  0.00     0.073 H 
ATOM      3  C   LIG d   1      11.802   9.658  -8.829  0.00  0.00    -0.015 C 
ATOM      4  C   LIG d   1      12.613  10.361  -9.914  0.00  0.00    -0.043 C 
ATOM      5  C   LIG d   1      11.793  10.409 -11.206  0.00  0.00     0.006 C 
ATOM      6  C   LIG d   1      11.612   9.011 -11.740  0.00  0.00     0.133 C 
ATOM      7  O   LIG d   1      12.548   8.430 -12.235  0.00  0.00    -0.297 OA
ATOM      8  C   LIG d   1      10.268   8.335 -11.658  0.00  0.00     0.006 C 
ATOM      9  C   LIG d   1      10.444   6.821 -11.802  0.00  0.00    -0.043 C 
ATOM     10  C   LIG d   1       9.181   6.107 -11.315  0.00  0.00    -0.034 C 
ATOM     11  C   LIG d   1       9.396   5.599  -9.911  0.00  0.00    -0.083 C 
ATOM     12  C   LIG d   1       9.697   6.449  -8.941  0.00  0.00    -0.058 C 
ATOM     13  C   LIG d   1       9.928   5.992  -7.558  0.00  0.00    -0.004 A 
ATOM     14  C   LIG d   1       9.591   4.713  -7.143  0.00  0.00    -0.011 A 
ATOM     15  C   LIG d   1       9.836   4.322  -5.834  0.00  0.00     0.140 A 
ATOM     16  C   LIG d   1      10.428   5.202  -4.935  0.00  0.00     0.045 A 
ATOM     17  C   LIG d   1      10.770   6.483  -5.330  0.00  0.00     0.139 A 
ATOM     18  C   LIG d   1      10.515   6.898  -6.642  0.00  0.00     0.108 A 
ATOM     19  C   LIG d   1      10.811   8.255  -7.093  0.00  0.00     0.344 C 
ATOM     20  O   LIG d   1      10.198   8.685  -8.050  0.00  0.00    -0.245 OA
ATOM     21  O   LIG d   1      11.721   9.057  -6.513  0.00  0.00    -0.458 OA
ATOM     22  C   LIG d   1      10.700   4.744  -3.525  0.00  0.00     0.031 C 
ATOM     23  H   LIG d   1      11.630   4.175  -3.498  0.00  0.00     0.041 H 
ATOM     24  C   LIG d   1       9.543   3.858  -3.062  0.00  0.00     0.057 C 
ATOM     25  C   LIG d   1       9.140   2.892  -4.142  0.00  0.00     0.313 C 
ATOM     26  O   LIG d   1       8.476   1.926  -3.848  0.00  0.00    -0.250 OA
ATOM     27  O   LIG d   1       9.498   3.075  -5.419  0.00  0.00    -0.425 OA
ATOM     28  H   LIG d   1      11.760   8.590  -9.044  0.00  0.00     0.030 H 
ATOM     29  H   LIG d   1      10.789  10.061  -8.818  0.00  0.00     0.030 H 
ATOM     30  H   LIG d   1      12.847  11.377  -9.594  0.00  0.00     0.027 H 
ATOM     31  H   LIG d   1      13.538   9.813 -10.090  0.00  0.00     0.027 H 
ATOM     32  H   LIG d   1      10.817  10.849 -11.002  0.00  0.00     0.034 H 
ATOM     33  H   LIG d   1      12.316  11.015 -11.947  0.00  0.00     0.034 H 
ATOM     34  H   LIG d   1       9.809   8.556 -10.693  0.00  0.00     0.034 H 
ATOM     35  H   LIG d   1       9.626   8.703 -12.457  0.00  0.00     0.034 H 
ATOM     36  H   LIG d   1      10.619   6.574 -12.849  0.00  0.00     0.027 H 
ATOM     37  H   LIG d   1      11.296   6.496 -11.206  0.00  0.00     0.027 H 
ATOM     38  H   LIG d   1       8.344   6.805 -11.324  0.00  0.00     0.031 H 
ATOM     39  H   LIG d   1       8.962   5.268 -11.975  0.00  0.00     0.031 H 
ATOM     40  H   LIG d   1       9.303   4.546  -9.701  0.00  0.00     0.057 H 
ATOM     41  H   LIG d   1       9.758   7.511  -9.161  0.00  0.00     0.062 H 
ATOM     42  H   LIG d   1       9.138   4.022  -7.838  0.00  0.00     0.066 H 
ATOM     43  H   LIG d   1       9.851   3.300  -2.179  0.00  0.00     0.039 H 
ATOM     44  H   LIG d   1       8.690   4.487  -2.808  0.00  0.00     0.039 H 
ENDROOT
BRANCH  22  45
ATOM     45  C   LIG d   1      10.814   5.942  -2.618  0.00  0.00     0.026 A 
ATOM     46  C   LIG d   1      12.076   6.282  -2.080  0.00  0.00     0.256 A 
ATOM     47  N   LIG d   1      12.226   7.349  -1.266  0.00  0.00    -0.307 N 
ATOM     48  O   LIG d   1      13.048   5.602  -2.360  0.00  0.00    -0.267 OA
ATOM     49  C   LIG d   1      11.132   8.101  -0.954  0.00  0.00     0.055 A 
ATOM     50  C   LIG d   1      13.394   7.925  -0.582  0.00  0.00     0.031 A 
ATOM     51  C   LIG d   1       9.852   7.820  -1.443  0.00  0.00    -0.001 A 
ATOM     52  C   LIG d   1      11.377   9.165  -0.115  0.00  0.00    -0.021 A 
ATOM     53  C   LIG d   1       9.701   6.666  -2.329  0.00  0.00    -0.044 A 
ATOM     54  C   LIG d   1       8.793   8.651  -1.064  0.00  0.00    -0.053 A 
ATOM     55  H   LIG d   1       8.738   6.399  -2.741  0.00  0.00     0.063 H 
ATOM     56  C   LIG d   1       9.043   9.706  -0.228  0.00  0.00    -0.061 A 
ATOM     57  H   LIG d   1       7.793   8.462  -1.424  0.00  0.00     0.062 H 
ATOM     58  C   LIG d   1      10.323   9.972   0.250  0.00  0.00    -0.057 A 
ATOM     59  H   LIG d   1       8.227  10.349   0.067  0.00  0.00     0.062 H 
ATOM     60  H   LIG d   1      10.490  10.813   0.907  0.00  0.00     0.062 H 
ATOM     61  C   LIG d   1      12.855   9.144   0.195  0.00  0.00    -0.008 A 
ATOM     62  H   LIG d   1      13.330  10.060  -0.154  0.00  0.00     0.033 H 
ATOM     63  H   LIG d   1      13.017   9.014   1.265  0.00  0.00     0.033 H 
ATOM     64  H   LIG d   1      13.825   7.197   0.105  0.00  0.00     0.050 H 
ATOM     65  H   LIG d   1      14.139   8.242  -1.312  0.00  0.00     0.050 H 
ENDBRANCH  22  45
BRANCH  17  66
ATOM     66  O   LIG d   1      11.349   7.335  -4.447  0.00  0.00    -0.505 OA
ATOM     67  H   LIG d   1      12.203   7.032  -4.113  0.00  0.00     0.292 HD
ENDBRANCH  17  66
BRANCH   1  68
ATOM     68  C   LIG d   1      13.915   9.441  -7.496  0.00  0.00    -0.028 C 
ATOM     69  H   LIG d   1      14.232   9.329  -8.533  0.00  0.00     0.026 H 
ATOM     70  H   LIG d   1      14.530  10.196  -7.007  0.00  0.00     0.026 H 
ATOM     71  H   LIG d   1      14.028   8.489  -6.978  0.00  0.00     0.026 H 
ENDBRANCH   1  68
TORSDOF 3
ENDMDL
MODEL 7
REMARK VINA RESULT:      -7.3      5.041      8.948
REMARK  3 active torsions:
REMARK  status: ('A' for Active; 'I' for Inactive)
REMARK    1  A    between atoms: C_1  and  C_2 
REMARK    2  A    between atoms: C_18  and  O_23 
REMARK    3  A    between atoms: C_24  and  C_30 
ROOT
ATOM      1  C   LIG d   1       6.967   0.598  -3.118  0.00  0.00     0.101 C 
ATOM      2  H   LIG d   1       7.235   0.287  -2.108  0.00  0.00     0.073 H 
ATOM      3  C   LIG d   1       6.829  -0.631  -4.024  0.00  0.00    -0.015 C 
ATOM      4  C   LIG d   1       5.630  -1.474  -3.597  0.00  0.00    -0.043 C 
ATOM      5  C   LIG d   1       5.698  -2.837  -4.291  0.00  0.00     0.006 C 
ATOM      6  C   LIG d   1       5.503  -2.657  -5.775  0.00  0.00     0.133 C 
ATOM      7  O   LIG d   1       4.411  -2.377  -6.208  0.00  0.00    -0.297 OA
ATOM      8  C   LIG d   1       6.665  -2.825  -6.719  0.00  0.00     0.006 C 
ATOM      9  C   LIG d   1       6.349  -2.140  -8.051  0.00  0.00    -0.043 C 
ATOM     10  C   LIG d   1       7.639  -1.942  -8.849  0.00  0.00    -0.034 C 
ATOM     11  C   LIG d   1       8.122  -0.521  -8.687  0.00  0.00    -0.083 C 
ATOM     12  C   LIG d   1       8.397  -0.052  -7.480  0.00  0.00    -0.058 C 
ATOM     13  C   LIG d   1       8.857   1.334  -7.277  0.00  0.00    -0.004 A 
ATOM     14  C   LIG d   1       9.277   2.128  -8.333  0.00  0.00    -0.011 A 
ATOM     15  C   LIG d   1       9.694   3.431  -8.097  0.00  0.00     0.140 A 
ATOM     16  C   LIG d   1       9.683   3.952  -6.808  0.00  0.00     0.045 A 
ATOM     17  C   LIG d   1       9.269   3.174  -5.741  0.00  0.00     0.139 A 
ATOM     18  C   LIG d   1       8.862   1.853  -5.960  0.00  0.00     0.108 A 
ATOM     19  C   LIG d   1       8.464   0.977  -4.861  0.00  0.00     0.344 C 
ATOM     20  O   LIG d   1       8.544  -0.224  -5.031  0.00  0.00    -0.245 OA
ATOM     21  O   LIG d   1       8.016   1.418  -3.674  0.00  0.00    -0.458 OA
ATOM     22  C   LIG d   1      10.122   5.376  -6.584  0.00  0.00     0.031 C 
ATOM     23  H   LIG d   1       9.296   6.053  -6.807  0.00  0.00     0.041 H 
ATOM     24  C   LIG d   1      11.299   5.682  -7.511  0.00  0.00     0.057 C 
ATOM     25  C   LIG d   1      11.051   5.140  -8.892  0.00  0.00     0.313 C 
ATOM     26  O   LIG d   1      11.712   5.555  -9.814  0.00  0.00    -0.250 OA
ATOM     27  O   LIG d   1      10.116   4.209  -9.125  0.00  0.00    -0.425 OA
ATOM     28  H   LIG d   1       6.692  -0.305  -5.055  0.00  0.00     0.030 H 
ATOM     29  H   LIG d   1       7.735  -1.233  -3.956  0.00  0.00     0.030 H 
ATOM     30  H   LIG d   1       5.649  -1.615  -2.516  0.00  0.00     0.027 H 
ATOM     31  H   LIG d   1       4.708  -0.966  -3.881  0.00  0.00     0.027 H 
ATOM     32  H   LIG d   1       6.671  -3.292  -4.105  0.00  0.00     0.034 H 
ATOM     33  H   LIG d   1       4.914  -3.485  -3.898  0.00  0.00     0.034 H 
ATOM     34  H   LIG d   1       7.556  -2.372  -6.282  0.00  0.00     0.034 H 
ATOM     35  H   LIG d   1       6.845  -3.885  -6.891  0.00  0.00     0.034 H 
ATOM     36  H   LIG d   1       5.660  -2.761  -8.624  0.00  0.00     0.027 H 
ATOM     37  H   LIG d   1       5.888  -1.171  -7.861  0.00  0.00     0.027 H 
ATOM     38  H   LIG d   1       8.402  -2.628  -8.480  0.00  0.00     0.031 H 
ATOM     39  H   LIG d   1       7.449  -2.143  -9.903  0.00  0.00     0.031 H 
ATOM     40  H   LIG d   1       8.242   0.106  -9.554  0.00  0.00     0.057 H 
ATOM     41  H   LIG d   1       8.299  -0.705  -6.618  0.00  0.00     0.062 H 
ATOM     42  H   LIG d   1       9.281   1.733  -9.338  0.00  0.00     0.066 H 
ATOM     43  H   LIG d   1      11.438   6.761  -7.569  0.00  0.00     0.039 H 
ATOM     44  H   LIG d   1      12.202   5.226  -7.105  0.00  0.00     0.039 H 
ENDROOT
BRANCH  22  45
ATOM     45  C   LIG d   1      10.549   5.554  -5.150  0.00  0.00     0.026 A 
ATOM     46  C   LIG d   1       9.690   6.228  -4.253  0.00  0.00     0.256 A 
ATOM     47  N   LIG d   1      10.029   6.407  -2.959  0.00  0.00    -0.307 N 
ATOM     48  O   LIG d   1       8.620   6.652  -4.655  0.00  0.00    -0.267 OA
ATOM     49  C   LIG d   1      11.230   5.934  -2.519  0.00  0.00     0.055 A 
ATOM     50  C   LIG d   1       9.344   7.052  -1.828  0.00  0.00     0.031 A 
ATOM     51  C   LIG d   1      12.133   5.263  -3.350  0.00  0.00    -0.001 A 
ATOM     52  C   LIG d   1      11.495   6.165  -1.187  0.00  0.00    -0.021 A 
ATOM     53  C   LIG d   1      11.754   5.069  -4.750  0.00  0.00    -0.044 A 
ATOM     54  C   LIG d   1      13.341   4.817  -2.805  0.00  0.00    -0.053 A 
ATOM     55  H   LIG d   1      12.408   4.557  -5.440  0.00  0.00     0.063 H 
ATOM     56  C   LIG d   1      13.598   5.051  -1.480  0.00  0.00    -0.061 A 
ATOM     57  H   LIG d   1      14.059   4.296  -3.419  0.00  0.00     0.062 H 
ATOM     58  C   LIG d   1      12.689   5.720  -0.666  0.00  0.00    -0.057 A 
ATOM     59  H   LIG d   1      14.531   4.708  -1.056  0.00  0.00     0.062 H 
ATOM     60  H   LIG d   1      12.919   5.889   0.375  0.00  0.00     0.062 H 
ATOM     61  C   LIG d   1      10.302   6.903  -0.627  0.00  0.00    -0.008 A 
ATOM     62  H   LIG d   1       9.833   6.323   0.166  0.00  0.00     0.033 H 
ATOM     63  H   LIG d   1      10.601   7.884  -0.257  0.00  0.00     0.033 H 
ATOM     64  H   LIG d   1       9.169   8.106  -2.046  0.00  0.00     0.050 H 
ATOM     65  H   LIG d   1       8.400   6.547  -1.622  0.00  0.00     0.050 H 
ENDBRANCH  22  45
BRANCH  17  66
ATOM     66  O   LIG d   1       9.261   3.690  -4.487  0.00  0.00    -0.505 OA
ATOM     67  H   LIG d   1       8.509   4.270  -4.306  0.00  0.00     0.292 HD
ENDBRANCH  17  66
BRANCH   1  68
ATOM     68  C   LIG d   1       5.651   1.378  -3.092  0.00  0.00    -0.028 C 
ATOM     69  H   LIG d   1       5.854   2.437  -3.252  0.00  0.00     0.026 H 
ATOM     70  H   LIG d   1       4.995   1.010  -3.880  0.00  0.00     0.026 H 
ATOM     71  H   LIG d   1       5.168   1.243  -2.124  0.00  0.00     0.026 H 
ENDBRANCH   1  68
TORSDOF 3
ENDMDL
MODEL 8
REMARK VINA RESULT:      -6.8      3.515      8.372
REMARK  3 active torsions:
REMARK  status: ('A' for Active; 'I' for Inactive)
REMARK    1  A    between atoms: C_1  and  C_2 
REMARK    2  A    between atoms: C_18  and  O_23 
REMARK    3  A    between atoms: C_24  and  C_30 
ROOT
ATOM      1  C   LIG d   1      10.239   1.428  -6.842  0.00  0.00     0.101 C 
ATOM      2  H   LIG d   1      10.505   1.978  -7.744  0.00  0.00     0.073 H 
ATOM      3  C   LIG d   1      11.446   0.628  -6.340  0.00  0.00    -0.015 C 
ATOM      4  C   LIG d   1      12.543   1.571  -5.853  0.00  0.00    -0.043 C 
ATOM      5  C   LIG d   1      13.841   0.781  -5.664  0.00  0.00     0.006 C 
ATOM      6  C   LIG d   1      13.675  -0.196  -4.529  0.00  0.00     0.133 C 
ATOM      7  O   LIG d   1      13.634   0.205  -3.390  0.00  0.00    -0.297 OA
ATOM      8  C   LIG d   1      13.559  -1.673  -4.809  0.00  0.00     0.006 C 
ATOM      9  C   LIG d   1      12.931  -2.377  -3.603  0.00  0.00    -0.043 C 
ATOM     10  C   LIG d   1      12.434  -3.764  -4.018  0.00  0.00    -0.034 C 
ATOM     11  C   LIG d   1      10.946  -3.716  -4.263  0.00  0.00    -0.083 C 
ATOM     12  C   LIG d   1      10.455  -2.895  -5.179  0.00  0.00    -0.058 C 
ATOM     13  C   LIG d   1       9.007  -2.807  -5.440  0.00  0.00    -0.004 A 
ATOM     14  C   LIG d   1       8.116  -3.746  -4.946  0.00  0.00    -0.011 A 
ATOM     15  C   LIG d   1       6.758  -3.620  -5.209  0.00  0.00     0.140 A 
ATOM     16  C   LIG d   1       6.283  -2.549  -5.957  0.00  0.00     0.045 A 
ATOM     17  C   LIG d   1       7.157  -1.602  -6.460  0.00  0.00     0.139 A 
ATOM     18  C   LIG d   1       8.530  -1.724  -6.218  0.00  0.00     0.108 A 
ATOM     19  C   LIG d   1       9.498  -0.779  -6.768  0.00  0.00     0.344 C 
ATOM     20  O   LIG d   1      10.647  -1.152  -6.903  0.00  0.00    -0.245 OA
ATOM     21  O   LIG d   1       9.194   0.477  -7.137  0.00  0.00    -0.458 OA
ATOM     22  C   LIG d   1       4.802  -2.425  -6.209  0.00  0.00     0.031 C 
ATOM     23  H   LIG d   1       4.320  -1.967  -5.345  0.00  0.00     0.041 H 
ATOM     24  C   LIG d   1       4.223  -3.822  -6.439  0.00  0.00     0.057 C 
ATOM     25  C   LIG d   1       4.774  -4.804  -5.442  0.00  0.00     0.313 C 
ATOM     26  O   LIG d   1       4.201  -5.854  -5.272  0.00  0.00    -0.250 OA
ATOM     27  O   LIG d   1       5.883  -4.543  -4.737  0.00  0.00    -0.425 OA
ATOM     28  H   LIG d   1      11.135  -0.018  -5.519  0.00  0.00     0.030 H 
ATOM     29  H   LIG d   1      11.834   0.013  -7.153  0.00  0.00     0.030 H 
ATOM     30  H   LIG d   1      12.701   2.358  -6.591  0.00  0.00     0.027 H 
ATOM     31  H   LIG d   1      12.246   2.016  -4.904  0.00  0.00     0.027 H 
ATOM     32  H   LIG d   1      14.073   0.238  -6.581  0.00  0.00     0.034 H 
ATOM     33  H   LIG d   1      14.656   1.469  -5.434  0.00  0.00     0.034 H 
ATOM     34  H   LIG d   1      12.931  -1.828  -5.686  0.00  0.00     0.034 H 
ATOM     35  H   LIG d   1      14.550  -2.086  -4.995  0.00  0.00     0.034 H 
ATOM     36  H   LIG d   1      13.676  -2.480  -2.814  0.00  0.00     0.027 H 
ATOM     37  H   LIG d   1      12.093  -1.787  -3.234  0.00  0.00     0.027 H 
ATOM     38  H   LIG d   1      12.943  -4.072  -4.931  0.00  0.00     0.031 H 
ATOM     39  H   LIG d   1      12.648  -4.478  -3.223  0.00  0.00     0.031 H 
ATOM     40  H   LIG d   1      10.288  -4.350  -3.693  0.00  0.00     0.057 H 
ATOM     41  H   LIG d   1      11.134  -2.282  -5.766  0.00  0.00     0.062 H 
ATOM     42  H   LIG d   1       8.477  -4.577  -4.357  0.00  0.00     0.066 H 
ATOM     43  H   LIG d   1       3.138  -3.780  -6.339  0.00  0.00     0.039 H 
ATOM     44  H   LIG d   1       4.476  -4.154  -7.445  0.00  0.00     0.039 H 
ENDROOT
BRANCH  22  45
ATOM     45  C   LIG d   1       4.567  -1.574  -7.430  0.00  0.00     0.026 A 
ATOM     46  C   LIG d   1       4.113  -0.246  -7.268  0.00  0.00     0.256 A 
ATOM     47  N   LIG d   1       3.892   0.554  -8.333  0.00  0.00    -0.307 N 
ATOM     48  O   LIG d   1       3.920   0.186  -6.145  0.00  0.00    -0.267 OA
ATOM     49  C   LIG d   1       4.106   0.060  -9.586  0.00  0.00     0.055 A 
ATOM     50  C   LIG d   1       3.434   1.946  -8.456  0.00  0.00     0.031 A 
ATOM     51  C   LIG d   1       4.548  -1.245  -9.823  0.00  0.00    -0.001 A 
ATOM     52  C   LIG d   1       3.851   0.944 -10.612  0.00  0.00    -0.021 A 
ATOM     53  C   LIG d   1       4.790  -2.103  -8.662  0.00  0.00    -0.044 A 
ATOM     54  C   LIG d   1       4.736  -1.659 -11.146  0.00  0.00    -0.053 A 
ATOM     55  H   LIG d   1       5.134  -3.120  -8.781  0.00  0.00     0.063 H 
ATOM     56  C   LIG d   1       4.480  -0.776 -12.160  0.00  0.00    -0.061 A 
ATOM     57  H   LIG d   1       5.077  -2.660 -11.363  0.00  0.00     0.062 H 
ATOM     58  C   LIG d   1       4.040   0.520 -11.908  0.00  0.00    -0.057 A 
ATOM     59  H   LIG d   1       4.623  -1.093 -13.183  0.00  0.00     0.062 H 
ATOM     60  H   LIG d   1       3.848   1.195 -12.729  0.00  0.00     0.062 H 
ATOM     61  C   LIG d   1       3.399   2.235  -9.972  0.00  0.00    -0.008 A 
ATOM     62  H   LIG d   1       4.083   3.044 -10.223  0.00  0.00     0.033 H 
ATOM     63  H   LIG d   1       2.385   2.481 -10.288  0.00  0.00     0.033 H 
ATOM     64  H   LIG d   1       2.438   2.054  -8.026  0.00  0.00     0.050 H 
ATOM     65  H   LIG d   1       4.135   2.619  -7.960  0.00  0.00     0.050 H 
ENDBRANCH  22  45
BRANCH  17  66
ATOM     66  O   LIG d   1       6.684  -0.560  -7.187  0.00  0.00    -0.505 OA
ATOM     67  H   LIG d   1       6.052  -0.004  -6.712  0.00  0.00     0.292 HD
ENDBRANCH  17  66
BRANCH   1  68
ATOM     68  C   LIG d   1       9.770   2.400  -5.757  0.00  0.00    -0.028 C 
ATOM     69  H   LIG d   1      10.234   2.135  -4.807  0.00  0.00     0.026 H 
ATOM     70  H   LIG d   1      10.055   3.415  -6.031  0.00  0.00     0.026 H 
ATOM     71  H   LIG d   1       8.686   2.340  -5.660  0.00  0.00     0.026 H 
ENDBRANCH   1  68
TORSDOF 3
ENDMDL
MODEL 9
REMARK VINA RESULT:      -6.8      7.781     13.474
REMARK  3 active torsions:
REMARK  status: ('A' for Active; 'I' for Inactive)
REMARK    1  A    between atoms: C_1  and  C_2 
REMARK    2  A    between atoms: C_18  and  O_23 
REMARK    3  A    between atoms: C_24  and  C_30 
ROOT
ATOM      1  C   LIG d   1      10.703   5.451  -3.086  0.00  0.00     0.101 C 
ATOM      2  H   LIG d   1      10.248   4.622  -2.545  0.00  0.00     0.073 H 
ATOM      3  C   LIG d   1      10.245   6.784  -2.483  0.00  0.00    -0.015 C 
ATOM      4  C   LIG d   1      10.804   6.949  -1.072  0.00  0.00    -0.043 C 
ATOM      5  C   LIG d   1      10.086   8.109  -0.377  0.00  0.00     0.006 C 
ATOM      6  C   LIG d   1      10.443   9.404  -1.061  0.00  0.00     0.133 C 
ATOM      7  O   LIG d   1      11.548   9.872  -0.924  0.00  0.00    -0.297 OA
ATOM      8  C   LIG d   1       9.426  10.117  -1.915  0.00  0.00     0.006 C 
ATOM      9  C   LIG d   1      10.137  11.094  -2.854  0.00  0.00    -0.043 C 
ATOM     10  C   LIG d   1       9.190  11.505  -3.983  0.00  0.00    -0.034 C 
ATOM     11  C   LIG d   1       9.503  10.705  -5.223  0.00  0.00    -0.083 C 
ATOM     12  C   LIG d   1       9.432   9.383  -5.189  0.00  0.00    -0.058 C 
ATOM     13  C   LIG d   1       9.742   8.562  -6.374  0.00  0.00    -0.004 A 
ATOM     14  C   LIG d   1       9.864   9.118  -7.639  0.00  0.00    -0.011 A 
ATOM     15  C   LIG d   1      10.166   8.309  -8.726  0.00  0.00     0.140 A 
ATOM     16  C   LIG d   1      10.360   6.944  -8.554  0.00  0.00     0.045 A 
ATOM     17  C   LIG d   1      10.242   6.370  -7.301  0.00  0.00     0.139 A 
ATOM     18  C   LIG d   1       9.921   7.169  -6.198  0.00  0.00     0.108 A 
ATOM     19  C   LIG d   1       9.735   6.604  -4.864  0.00  0.00     0.344 C 
ATOM     20  O   LIG d   1       9.058   7.226  -4.070  0.00  0.00    -0.245 OA
ATOM     21  O   LIG d   1      10.268   5.437  -4.462  0.00  0.00    -0.458 OA
ATOM     22  C   LIG d   1      10.708   6.092  -9.749  0.00  0.00     0.031 C 
ATOM     23  H   LIG d   1      11.777   6.165  -9.951  0.00  0.00     0.041 H 
ATOM     24  C   LIG d   1       9.921   6.597 -10.960  0.00  0.00     0.057 C 
ATOM     25  C   LIG d   1       9.944   8.099 -11.028  0.00  0.00     0.313 C 
ATOM     26  O   LIG d   1       9.655   8.645 -12.066  0.00  0.00    -0.250 OA
ATOM     27  O   LIG d   1      10.275   8.846  -9.967  0.00  0.00    -0.425 OA
ATOM     28  H   LIG d   1      10.598   7.603  -3.109  0.00  0.00     0.030 H 
ATOM     29  H   LIG d   1       9.156   6.807  -2.444  0.00  0.00     0.030 H 
ATOM     30  H   LIG d   1      10.644   6.031  -0.507  0.00  0.00     0.027 H 
ATOM     31  H   LIG d   1      11.872   7.161  -1.127  0.00  0.00     0.027 H 
ATOM     32  H   LIG d   1       9.008   7.954  -0.431  0.00  0.00     0.034 H 
ATOM     33  H   LIG d   1      10.395   8.154   0.668  0.00  0.00     0.034 H 
ATOM     34  H   LIG d   1       8.872   9.387  -2.504  0.00  0.00     0.034 H 
ATOM     35  H   LIG d   1       8.736  10.667  -1.275  0.00  0.00     0.034 H 
ATOM     36  H   LIG d   1      10.441  11.979  -2.295  0.00  0.00     0.027 H 
ATOM     37  H   LIG d   1      11.019  10.614  -3.278  0.00  0.00     0.027 H 
ATOM     38  H   LIG d   1       8.161  11.317  -3.679  0.00  0.00     0.031 H 
ATOM     39  H   LIG d   1       9.318  12.567  -4.195  0.00  0.00     0.031 H 
ATOM     40  H   LIG d   1       9.782  11.210  -6.133  0.00  0.00     0.057 H 
ATOM     41  H   LIG d   1       9.121   8.888  -4.274  0.00  0.00     0.062 H 
ATOM     42  H   LIG d   1       9.722  10.180  -7.778  0.00  0.00     0.066 H 
ATOM     43  H   LIG d   1      10.364   6.190 -11.868  0.00  0.00     0.039 H 
ATOM     44  H   LIG d   1       8.889   6.257 -10.883  0.00  0.00     0.039 H 
ENDROOT
BRANCH  22  45
ATOM     45  C   LIG d   1      10.342   4.657  -9.471  0.00  0.00     0.026 A 
ATOM     46  C   LIG d   1      11.370   3.704  -9.300  0.00  0.00     0.256 A 
ATOM     47  N   LIG d   1      11.090   2.408  -9.044  0.00  0.00    -0.307 N 
ATOM     48  O   LIG d   1      12.533   4.059  -9.379  0.00  0.00    -0.267 OA
ATOM     49  C   LIG d   1       9.785   2.019  -8.963  0.00  0.00     0.055 A 
ATOM     50  C   LIG d   1      11.939   1.229  -8.823  0.00  0.00     0.031 A 
ATOM     51  C   LIG d   1       8.716   2.904  -9.128  0.00  0.00    -0.001 A 
ATOM     52  C   LIG d   1       9.592   0.679  -8.705  0.00  0.00    -0.021 A 
ATOM     53  C   LIG d   1       9.030   4.308  -9.398  0.00  0.00    -0.044 A 
ATOM     54  C   LIG d   1       7.412   2.408  -9.027  0.00  0.00    -0.053 A 
ATOM     55  H   LIG d   1       8.248   5.040  -9.532  0.00  0.00     0.063 H 
ATOM     56  C   LIG d   1       7.228   1.075  -8.771  0.00  0.00    -0.061 A 
ATOM     57  H   LIG d   1       6.565   3.065  -9.149  0.00  0.00     0.062 H 
ATOM     58  C   LIG d   1       8.303   0.206  -8.609  0.00  0.00    -0.057 A 
ATOM     59  H   LIG d   1       6.222   0.688  -8.693  0.00  0.00     0.062 H 
ATOM     60  H   LIG d   1       8.126  -0.840  -8.407  0.00  0.00     0.062 H 
ATOM     61  C   LIG d   1      10.963   0.056  -8.591  0.00  0.00    -0.008 A 
ATOM     62  H   LIG d   1      11.106  -0.370  -7.598  0.00  0.00     0.033 H 
ATOM     63  H   LIG d   1      11.098  -0.708  -9.356  0.00  0.00     0.033 H 
ATOM     64  H   LIG d   1      12.558   1.039  -9.701  0.00  0.00     0.050 H 
ATOM     65  H   LIG d   1      12.567   1.376  -7.943  0.00  0.00     0.050 H 
ENDBRANCH  22  45
BRANCH  17  66
ATOM     66  O   LIG d   1      10.434   5.037  -7.143  0.00  0.00    -0.505 OA
ATOM     67  H   LIG d   1      10.959   4.630  -7.845  0.00  0.00     0.292 HD
ENDBRANCH  17  66
BRANCH   1  68
ATOM     68  C   LIG d   1      12.228   5.345  -3.018  0.00  0.00    -0.028 C 
ATOM     69  H   LIG d   1      12.520   4.923  -2.056  0.00  0.00     0.026 H 
ATOM     70  H   LIG d   1      12.583   4.699  -3.822  0.00  0.00     0.026 H 
ATOM     71  H   LIG d   1      12.666   6.337  -3.128  0.00  0.00     0.026 H 
ENDBRANCH   1  68
TORSDOF 3
ENDMDL
MODEL 10
REMARK VINA RESULT:      -6.7      2.826      5.415
REMARK  3 active torsions:
REMARK  status: ('A' for Active; 'I' for Inactive)
REMARK    1  A    between atoms: C_1  and  C_2 
REMARK    2  A    between atoms: C_18  and  O_23 
REMARK    3  A    between atoms: C_24  and  C_30 
ROOT
ATOM      1  C   LIG d   1       6.353  -4.337 -10.128  0.00  0.00     0.101 C 
ATOM      2  H   LIG d   1       7.169  -4.498 -10.832  0.00  0.00     0.073 H 
ATOM      3  C   LIG d   1       5.152  -3.716 -10.851  0.00  0.00    -0.015 C 
ATOM      4  C   LIG d   1       4.556  -4.712 -11.842  0.00  0.00    -0.043 C 
ATOM      5  C   LIG d   1       3.582  -3.980 -12.770  0.00  0.00     0.006 C 
ATOM      6  C   LIG d   1       2.393  -3.504 -11.976  0.00  0.00     0.133 C 
ATOM      7  O   LIG d   1       1.576  -4.301 -11.581  0.00  0.00    -0.297 OA
ATOM      8  C   LIG d   1       2.218  -2.038 -11.674  0.00  0.00     0.006 C 
ATOM      9  C   LIG d   1       1.256  -1.866 -10.496  0.00  0.00    -0.043 C 
ATOM     10  C   LIG d   1       1.391  -0.454  -9.923  0.00  0.00    -0.034 C 
ATOM     11  C   LIG d   1       2.263  -0.487  -8.692  0.00  0.00    -0.083 C 
ATOM     12  C   LIG d   1       3.507  -0.935  -8.778  0.00  0.00    -0.058 C 
ATOM     13  C   LIG d   1       4.388  -0.998  -7.598  0.00  0.00    -0.004 A 
ATOM     14  C   LIG d   1       4.068  -0.359  -6.410  0.00  0.00    -0.011 A 
ATOM     15  C   LIG d   1       4.922  -0.452  -5.320  0.00  0.00     0.140 A 
ATOM     16  C   LIG d   1       6.095  -1.193  -5.406  0.00  0.00     0.045 A 
ATOM     17  C   LIG d   1       6.433  -1.837  -6.584  0.00  0.00     0.139 A 
ATOM     18  C   LIG d   1       5.590  -1.739  -7.696  0.00  0.00     0.108 A 
ATOM     19  C   LIG d   1       5.926  -2.358  -8.975  0.00  0.00     0.344 C 
ATOM     20  O   LIG d   1       5.421  -1.901  -9.982  0.00  0.00    -0.245 OA
ATOM     21  O   LIG d   1       6.762  -3.403  -9.107  0.00  0.00    -0.458 OA
ATOM     22  C   LIG d   1       6.995  -1.294  -4.201  0.00  0.00     0.031 C 
ATOM     23  H   LIG d   1       6.619  -2.065  -3.528  0.00  0.00     0.041 H 
ATOM     24  C   LIG d   1       7.006   0.055  -3.479  0.00  0.00     0.057 C 
ATOM     25  C   LIG d   1       5.617   0.625  -3.383  0.00  0.00     0.313 C 
ATOM     26  O   LIG d   1       5.397   1.504  -2.585  0.00  0.00    -0.250 OA
ATOM     27  O   LIG d   1       4.620   0.181  -4.159  0.00  0.00    -0.425 OA
ATOM     28  H   LIG d   1       4.395  -3.439 -10.118  0.00  0.00     0.030 H 
ATOM     29  H   LIG d   1       5.476  -2.824 -11.387  0.00  0.00     0.030 H 
ATOM     30  H   LIG d   1       5.355  -5.160 -12.434  0.00  0.00     0.027 H 
ATOM     31  H   LIG d   1       4.024  -5.493 -11.299  0.00  0.00     0.027 H 
ATOM     32  H   LIG d   1       4.084  -3.123 -13.221  0.00  0.00     0.034 H 
ATOM     33  H   LIG d   1       3.247  -4.658 -13.555  0.00  0.00     0.034 H 
ATOM     34  H   LIG d   1       3.185  -1.603 -11.419  0.00  0.00     0.034 H 
ATOM     35  H   LIG d   1       1.813  -1.532 -12.550  0.00  0.00     0.034 H 
ATOM     36  H   LIG d   1       0.233  -2.023 -10.837  0.00  0.00     0.027 H 
ATOM     37  H   LIG d   1       1.496  -2.595  -9.723  0.00  0.00     0.027 H 
ATOM     38  H   LIG d   1       1.842   0.199 -10.670  0.00  0.00     0.031 H 
ATOM     39  H   LIG d   1       0.404  -0.075  -9.657  0.00  0.00     0.031 H 
ATOM     40  H   LIG d   1       1.873  -0.146  -7.748  0.00  0.00     0.057 H 
ATOM     41  H   LIG d   1       3.896  -1.249  -9.742  0.00  0.00     0.062 H 
ATOM     42  H   LIG d   1       3.154   0.213  -6.333  0.00  0.00     0.066 H 
ATOM     43  H   LIG d   1       7.408  -0.080  -2.476  0.00  0.00     0.039 H 
ATOM     44  H   LIG d   1       7.641   0.749  -4.029  0.00  0.00     0.039 H 
ENDROOT
BRANCH  22  45
ATOM     45  C   LIG d   1       8.393  -1.643  -4.641  0.00  0.00     0.026 A 
ATOM     46  C   LIG d   1       8.880  -2.950  -4.418  0.00  0.00     0.256 A 
ATOM     47  N   LIG d   1      10.125  -3.309  -4.799  0.00  0.00    -0.307 N 
ATOM     48  O   LIG d   1       8.161  -3.771  -3.875  0.00  0.00    -0.267 OA
ATOM     49  C   LIG d   1      10.924  -2.382  -5.402  0.00  0.00     0.055 A 
ATOM     50  C   LIG d   1      10.873  -4.570  -4.699  0.00  0.00     0.031 A 
ATOM     51  C   LIG d   1      10.512  -1.069  -5.649  0.00  0.00    -0.001 A 
ATOM     52  C   LIG d   1      12.177  -2.834  -5.752  0.00  0.00    -0.021 A 
ATOM     53  C   LIG d   1       9.159  -0.692  -5.237  0.00  0.00    -0.044 A 
ATOM     54  C   LIG d   1      11.406  -0.192  -6.272  0.00  0.00    -0.053 A 
ATOM     55  H   LIG d   1       8.783   0.307  -5.403  0.00  0.00     0.063 H 
ATOM     56  C   LIG d   1      12.651  -0.647  -6.616  0.00  0.00    -0.061 A 
ATOM     57  H   LIG d   1      11.119   0.828  -6.477  0.00  0.00     0.062 H 
ATOM     58  C   LIG d   1      13.045  -1.957  -6.364  0.00  0.00    -0.057 A 
ATOM     59  H   LIG d   1      13.344   0.028  -7.097  0.00  0.00     0.062 H 
ATOM     60  H   LIG d   1      14.033  -2.288  -6.648  0.00  0.00     0.062 H 
ATOM     61  C   LIG d   1      12.252  -4.282  -5.332  0.00  0.00    -0.008 A 
ATOM     62  H   LIG d   1      12.416  -4.922  -6.198  0.00  0.00     0.033 H 
ATOM     63  H   LIG d   1      13.044  -4.425  -4.597  0.00  0.00     0.033 H 
ATOM     64  H   LIG d   1      10.989  -4.859  -3.654  0.00  0.00     0.050 H 
ATOM     65  H   LIG d   1      10.361  -5.358  -5.254  0.00  0.00     0.050 H 
ENDBRANCH  22  45
BRANCH  17  66
ATOM     66  O   LIG d   1       7.579  -2.559  -6.659  0.00  0.00    -0.505 OA
ATOM     67  H   LIG d   1       8.081  -2.414  -7.471  0.00  0.00     0.292 HD
ENDBRANCH  17  66
BRANCH   1  68
ATOM     68  C   LIG d   1       5.946  -5.666  -9.488  0.00  0.00    -0.028 C 
ATOM     69  H   LIG d   1       5.987  -6.457 -10.237  0.00  0.00     0.026 H 
ATOM     70  H   LIG d   1       6.630  -5.901  -8.673  0.00  0.00     0.026 H 
ATOM     71  H   LIG d   1       4.931  -5.586  -9.100  0.00  0.00     0.026 H 
ENDBRANCH   1  68
TORSDOF 3
ENDMDL
