MODEL 1
REMARK VINA RESULT:      -5.6      0.000      0.000
REMARK  8 active torsions:
REMARK  status: ('A' for Active; 'I' for Inactive)
REMARK    1  A    between atoms: C_1  and  O_2 
REMARK    2  A    between atoms: O_2  and  C_3 
REMARK    3  A    between atoms: C_3  and  C_4 
REMARK       I    between atoms: C_4  and  N_6 
REMARK    4  A    between atoms: N_11  and  C_12 
REMARK    5  A    between atoms: C_12  and  C_13 
REMARK    6  A    between atoms: C_21  and  C_23 
REMARK    7  A    between atoms: C_23  and  O_25 
REMARK    8  A    between atoms: O_25  and  C_26 
ROOT
ATOM      1  C   LIG d   1       4.324  -0.473  -8.941  0.00  0.00     0.242 C 
ATOM      2  O   LIG d   1       3.717  -0.128  -9.932  0.00  0.00    -0.273 OA
ATOM      3  N   LIG d   1       4.623  -1.773  -8.752  0.00  0.00    -0.280 N 
ATOM      4  C   LIG d   1       5.475  -2.199  -7.625  0.00  0.00     0.062 C 
ATOM      5  C   LIG d   1       4.824  -3.420  -7.016  0.00  0.00     0.108 A 
ATOM      6  C   LIG d   1       3.810  -4.104  -7.585  0.00  0.00     0.207 A 
ATOM      7  C   LIG d   1       4.281  -5.096  -5.730  0.00  0.00     0.247 A 
ATOM      8  N   LIG d   1       5.122  -4.043  -5.843  0.00  0.00    -0.287 N 
ATOM      9  C   LIG d   1       3.172  -3.740  -8.902  0.00  0.00     0.063 C 
ATOM     10  C   LIG d   1       4.115  -2.805  -9.669  0.00  0.00     0.133 C 
ATOM     11  H   LIG d   1       4.951  -3.379 -10.070  0.00  0.00     0.062 H 
ATOM     12  H   LIG d   1       6.472  -2.447  -7.987  0.00  0.00     0.053 H 
ATOM     13  H   LIG d   1       5.536  -1.401  -6.885  0.00  0.00     0.053 H 
ATOM     14  H   LIG d   1       4.258  -5.798  -4.911  0.00  0.00     0.160 H 
ATOM     15  H   LIG d   1       2.223  -3.233  -8.722  0.00  0.00     0.040 H 
ATOM     16  H   LIG d   1       2.997  -4.642  -9.488  0.00  0.00     0.040 H 
ATOM     17  N   LIG d   1       3.500  -5.123  -6.779  0.00  0.00    -0.198 N 
ATOM     18  H   LIG d   1       2.765  -5.817  -6.954  0.00  0.00     0.454 HD
ENDROOT
BRANCH   8  19
ATOM     19  C   LIG d   1       6.159  -3.649  -4.886  0.00  0.00     0.053 C 
ATOM     20  H   LIG d   1       6.371  -4.482  -4.217  0.00  0.00     0.054 H 
ATOM     21  H   LIG d   1       7.067  -3.375  -5.424  0.00  0.00     0.054 H 
BRANCH  19  22
ATOM     22  C   LIG d   1       5.677  -2.469  -4.081  0.00  0.00    -0.028 A 
ATOM     23  C   LIG d   1       4.477  -2.542  -3.399  0.00  0.00    -0.056 A 
ATOM     24  C   LIG d   1       4.035  -1.460  -2.661  0.00  0.00    -0.043 A 
ATOM     25  H   LIG d   1       3.885  -3.444  -3.443  0.00  0.00     0.062 H 
ATOM     26  C   LIG d   1       4.793  -0.304  -2.605  0.00  0.00     0.041 A 
ATOM     27  H   LIG d   1       3.098  -1.517  -2.128  0.00  0.00     0.063 H 
ATOM     28  C   LIG d   1       5.994  -0.232  -3.289  0.00  0.00    -0.043 A 
ATOM     29 CL   LIG d   1       4.237   1.055  -1.679  0.00  0.00    -0.084 Cl
ATOM     30  C   LIG d   1       6.438  -1.316  -4.021  0.00  0.00    -0.056 A 
ATOM     31  H   LIG d   1       6.586   0.670  -3.245  0.00  0.00     0.063 H 
ATOM     32  H   LIG d   1       7.378  -1.262  -4.552  0.00  0.00     0.062 H 
ENDBRANCH  19  22
ENDBRANCH   8  19
BRANCH   1  33
ATOM     33  C   LIG d   1       4.742   0.552  -7.919  0.00  0.00     0.123 C 
ATOM     34  H   LIG d   1       5.445   0.101  -7.218  0.00  0.00     0.066 H 
ATOM     35  H   LIG d   1       5.220   1.393  -8.421  0.00  0.00     0.066 H 
BRANCH  33  36
ATOM     36  O   LIG d   1       3.591   1.014  -7.208  0.00  0.00    -0.374 OA
BRANCH  36  37
ATOM     37  C   LIG d   1       3.183   0.155  -6.141  0.00  0.00     0.037 C 
ATOM     38  H   LIG d   1       4.039  -0.061  -5.501  0.00  0.00     0.052 H 
ATOM     39  H   LIG d   1       2.407   0.647  -5.556  0.00  0.00     0.052 H 
ATOM     40  H   LIG d   1       2.794  -0.776  -6.553  0.00  0.00     0.052 H 
ENDBRANCH  36  37
ENDBRANCH  33  36
ENDBRANCH   1  33
BRANCH  10  41
ATOM     41  C   LIG d   1       3.365  -2.149 -10.799  0.00  0.00     0.328 C 
ATOM     42  O   LIG d   1       3.956  -1.799 -11.793  0.00  0.00    -0.249 OA
BRANCH  41  43
ATOM     43  O   LIG d   1       2.040  -1.953 -10.703  0.00  0.00    -0.467 OA
BRANCH  43  44
ATOM     44  C   LIG d   1       1.320  -1.697 -11.936  0.00  0.00     0.082 C 
ATOM     45  H   LIG d   1       1.608  -2.435 -12.685  0.00  0.00     0.066 H 
ATOM     46  H   LIG d   1       0.247  -1.766 -11.753  0.00  0.00     0.066 H 
ATOM     47  H   LIG d   1       1.563  -0.698 -12.298  0.00  0.00     0.066 H 
ENDBRANCH  43  44
ENDBRANCH  41  43
ENDBRANCH  10  41
TORSDOF 8
ENDMDL
MODEL 2
REMARK VINA RESULT:      -5.4      3.857      7.425
REMARK  8 active torsions:
REMARK  status: ('A' for Active; 'I' for Inactive)
REMARK    1  A    between atoms: C_1  and  O_2 
REMARK    2  A    between atoms: O_2  and  C_3 
REMARK    3  A    between atoms: C_3  and  C_4 
REMARK       I    between atoms: C_4  and  N_6 
REMARK    4  A    between atoms: N_11  and  C_12 
REMARK    5  A    between atoms: C_12  and  C_13 
REMARK    6  A    between atoms: C_21  and  C_23 
REMARK    7  A    between atoms: C_23  and  O_25 
REMARK    8  A    between atoms: O_25  and  C_26 
ROOT
ATOM      1  C   LIG d   1       4.551  -2.614  -4.459  0.00  0.00     0.242 C 
ATOM      2  O   LIG d   1       4.140  -2.751  -3.327  0.00  0.00    -0.273 OA
ATOM      3  N   LIG d   1       4.571  -1.391  -5.025  0.00  0.00    -0.280 N 
ATOM      4  C   LIG d   1       5.191  -1.179  -6.346  0.00  0.00     0.062 C 
ATOM      5  C   LIG d   1       4.252  -0.296  -7.137  0.00  0.00     0.108 A 
ATOM      6  C   LIG d   1       3.197   0.357  -6.608  0.00  0.00     0.207 A 
ATOM      7  C   LIG d   1       3.253   0.841  -8.708  0.00  0.00     0.247 A 
ATOM      8  N   LIG d   1       4.289   0.005  -8.464  0.00  0.00    -0.287 N 
ATOM      9  C   LIG d   1       2.795   0.290  -5.156  0.00  0.00     0.063 C 
ATOM     10  C   LIG d   1       3.983  -0.232  -4.337  0.00  0.00     0.133 C 
ATOM     11  H   LIG d   1       4.732   0.554  -4.240  0.00  0.00     0.062 H 
ATOM     12  H   LIG d   1       6.156  -0.688  -6.229  0.00  0.00     0.053 H 
ATOM     13  H   LIG d   1       5.319  -2.135  -6.854  0.00  0.00     0.053 H 
ATOM     14  H   LIG d   1       3.002   1.269  -9.666  0.00  0.00     0.160 H 
ATOM     15  H   LIG d   1       1.948  -0.386  -5.041  0.00  0.00     0.040 H 
ATOM     16  H   LIG d   1       2.519   1.284  -4.804  0.00  0.00     0.040 H 
ATOM     17  N   LIG d   1       2.607   1.045  -7.589  0.00  0.00    -0.198 N 
ATOM     18  H   LIG d   1       1.777   1.639  -7.483  0.00  0.00     0.454 HD
ENDROOT
BRANCH   8  19
ATOM     19  C   LIG d   1       5.265  -0.481  -9.442  0.00  0.00     0.053 C 
ATOM     20  H   LIG d   1       5.982   0.309  -9.663  0.00  0.00     0.054 H 
ATOM     21  H   LIG d   1       5.789  -1.345  -9.034  0.00  0.00     0.054 H 
BRANCH  19  22
ATOM     22  C   LIG d   1       4.551  -0.878 -10.709  0.00  0.00    -0.028 A 
ATOM     23  C   LIG d   1       4.668  -0.096 -11.842  0.00  0.00    -0.056 A 
ATOM     24  C   LIG d   1       4.014  -0.460 -13.004  0.00  0.00    -0.043 A 
ATOM     25  H   LIG d   1       5.270   0.800 -11.820  0.00  0.00     0.062 H 
ATOM     26  C   LIG d   1       3.241  -1.609 -13.032  0.00  0.00     0.041 A 
ATOM     27  H   LIG d   1       4.105   0.150 -13.890  0.00  0.00     0.063 H 
ATOM     28  C   LIG d   1       3.125  -2.391 -11.896  0.00  0.00    -0.043 A 
ATOM     29 CL   LIG d   1       2.419  -2.066 -14.491  0.00  0.00    -0.084 Cl
ATOM     30  C   LIG d   1       3.784  -2.029 -10.737  0.00  0.00    -0.056 A 
ATOM     31  H   LIG d   1       2.522  -3.287 -11.918  0.00  0.00     0.063 H 
ATOM     32  H   LIG d   1       3.697  -2.641  -9.852  0.00  0.00     0.062 H 
ENDBRANCH  19  22
ENDBRANCH   8  19
BRANCH   1  33
ATOM     33  C   LIG d   1       5.039  -3.811  -5.234  0.00  0.00     0.123 C 
ATOM     34  H   LIG d   1       5.661  -3.477  -6.064  0.00  0.00     0.066 H 
ATOM     35  H   LIG d   1       5.625  -4.455  -4.578  0.00  0.00     0.066 H 
BRANCH  33  36
ATOM     36  O   LIG d   1       3.919  -4.540  -5.739  0.00  0.00    -0.374 OA
BRANCH  36  37
ATOM     37  C   LIG d   1       3.918  -4.692  -7.160  0.00  0.00     0.037 C 
ATOM     38  H   LIG d   1       3.513  -3.792  -7.623  0.00  0.00     0.052 H 
ATOM     39  H   LIG d   1       4.938  -4.851  -7.509  0.00  0.00     0.052 H 
ATOM     40  H   LIG d   1       3.302  -5.549  -7.434  0.00  0.00     0.052 H 
ENDBRANCH  36  37
ENDBRANCH  33  36
ENDBRANCH   1  33
BRANCH  10  41
ATOM     41  C   LIG d   1       3.507  -0.647  -2.968  0.00  0.00     0.328 C 
ATOM     42  O   LIG d   1       2.411  -1.134  -2.831  0.00  0.00    -0.249 OA
BRANCH  41  43
ATOM     43  O   LIG d   1       4.304  -0.475  -1.900  0.00  0.00    -0.467 OA
BRANCH  43  44
ATOM     44  C   LIG d   1       4.668   0.889  -1.562  0.00  0.00     0.082 C 
ATOM     45  H   LIG d   1       5.111   1.372  -2.432  0.00  0.00     0.066 H 
ATOM     46  H   LIG d   1       3.778   1.437  -1.254  0.00  0.00     0.066 H 
ATOM     47  H   LIG d   1       5.389   0.879  -0.744  0.00  0.00     0.066 H 
ENDBRANCH  43  44
ENDBRANCH  41  43
ENDBRANCH  10  41
TORSDOF 8
ENDMDL
MODEL 3
REMARK VINA RESULT:      -5.3      4.055      6.943
REMARK  8 active torsions:
REMARK  status: ('A' for Active; 'I' for Inactive)
REMARK    1  A    between atoms: C_1  and  O_2 
REMARK    2  A    between atoms: O_2  and  C_3 
REMARK    3  A    between atoms: C_3  and  C_4 
REMARK       I    between atoms: C_4  and  N_6 
REMARK    4  A    between atoms: N_11  and  C_12 
REMARK    5  A    between atoms: C_12  and  C_13 
REMARK    6  A    between atoms: C_21  and  C_23 
REMARK    7  A    between atoms: C_23  and  O_25 
REMARK    8  A    between atoms: O_25  and  C_26 
ROOT
ATOM      1  C   LIG d   1       4.329  -0.934  -4.535  0.00  0.00     0.242 C 
ATOM      2  O   LIG d   1       4.848  -1.565  -3.641  0.00  0.00    -0.273 OA
ATOM      3  N   LIG d   1       4.867  -0.949  -5.771  0.00  0.00    -0.280 N 
ATOM      4  C   LIG d   1       4.180  -0.300  -6.903  0.00  0.00     0.062 C 
ATOM      5  C   LIG d   1       5.230   0.466  -7.676  0.00  0.00     0.108 A 
ATOM      6  C   LIG d   1       6.559   0.338  -7.483  0.00  0.00     0.207 A 
ATOM      7  C   LIG d   1       6.285   1.780  -9.062  0.00  0.00     0.247 A 
ATOM      8  N   LIG d   1       5.053   1.377  -8.671  0.00  0.00    -0.287 N 
ATOM      9  C   LIG d   1       7.187  -0.576  -6.460  0.00  0.00     0.063 C 
ATOM     10  C   LIG d   1       6.150  -1.620  -6.026  0.00  0.00     0.133 C 
ATOM     11  H   LIG d   1       6.024  -2.359  -6.818  0.00  0.00     0.062 H 
ATOM     12  H   LIG d   1       3.722  -1.055  -7.542  0.00  0.00     0.053 H 
ATOM     13  H   LIG d   1       3.418   0.386  -6.532  0.00  0.00     0.053 H 
ATOM     14  H   LIG d   1       6.494   2.500  -9.838  0.00  0.00     0.160 H 
ATOM     15  H   LIG d   1       7.503   0.006  -5.595  0.00  0.00     0.040 H 
ATOM     16  H   LIG d   1       8.050  -1.078  -6.896  0.00  0.00     0.040 H 
ATOM     17  N   LIG d   1       7.178   1.150  -8.344  0.00  0.00    -0.198 N 
ATOM     18  H   LIG d   1       8.194   1.264  -8.429  0.00  0.00     0.454 HD
ENDROOT
BRANCH   8  19
ATOM     19  C   LIG d   1       3.773   1.835  -9.217  0.00  0.00     0.053 C 
ATOM     20  H   LIG d   1       3.072   2.010  -8.402  0.00  0.00     0.054 H 
ATOM     21  H   LIG d   1       3.925   2.762  -9.772  0.00  0.00     0.054 H 
BRANCH  19  22
ATOM     22  C   LIG d   1       3.216   0.782 -10.140  0.00  0.00    -0.028 A 
ATOM     23  C   LIG d   1       3.879   0.469 -11.312  0.00  0.00    -0.056 A 
ATOM     24  C   LIG d   1       3.368  -0.496 -12.158  0.00  0.00    -0.043 A 
ATOM     25  H   LIG d   1       4.796   0.979 -11.566  0.00  0.00     0.062 H 
ATOM     26  C   LIG d   1       2.192  -1.150 -11.833  0.00  0.00     0.041 A 
ATOM     27  H   LIG d   1       3.886  -0.741 -13.073  0.00  0.00     0.063 H 
ATOM     28  C   LIG d   1       1.529  -0.835 -10.661  0.00  0.00    -0.043 A 
ATOM     29 CL   LIG d   1       1.550  -2.362 -12.897  0.00  0.00    -0.084 Cl
ATOM     30  C   LIG d   1       2.043   0.126  -9.812  0.00  0.00    -0.056 A 
ATOM     31  H   LIG d   1       0.611  -1.345 -10.407  0.00  0.00     0.063 H 
ATOM     32  H   LIG d   1       1.528   0.369  -8.894  0.00  0.00     0.062 H 
ENDBRANCH  19  22
ENDBRANCH   8  19
BRANCH   1  33
ATOM     33  C   LIG d   1       3.083  -0.130  -4.266  0.00  0.00     0.123 C 
ATOM     34  H   LIG d   1       2.464  -0.107  -5.163  0.00  0.00     0.066 H 
ATOM     35  H   LIG d   1       2.523  -0.590  -3.451  0.00  0.00     0.066 H 
BRANCH  33  36
ATOM     36  O   LIG d   1       3.446   1.203  -3.902  0.00  0.00    -0.374 OA
BRANCH  36  37
ATOM     37  C   LIG d   1       3.543   1.415  -2.492  0.00  0.00     0.037 C 
ATOM     38  H   LIG d   1       4.154   2.297  -2.298  0.00  0.00     0.052 H 
ATOM     39  H   LIG d   1       2.547   1.566  -2.078  0.00  0.00     0.052 H 
ATOM     40  H   LIG d   1       4.003   0.545  -2.025  0.00  0.00     0.052 H 
ENDBRANCH  36  37
ENDBRANCH  33  36
ENDBRANCH   1  33
BRANCH  10  41
ATOM     41  C   LIG d   1       6.620  -2.304  -4.768  0.00  0.00     0.328 C 
ATOM     42  O   LIG d   1       7.293  -1.700  -3.968  0.00  0.00    -0.249 OA
BRANCH  41  43
ATOM     43  O   LIG d   1       6.290  -3.585  -4.537  0.00  0.00    -0.467 OA
BRANCH  43  44
ATOM     44  C   LIG d   1       5.896  -4.382  -5.685  0.00  0.00     0.082 C 
ATOM     45  H   LIG d   1       4.925  -4.836  -5.494  0.00  0.00     0.066 H 
ATOM     46  H   LIG d   1       5.832  -3.744  -6.566  0.00  0.00     0.066 H 
ATOM     47  H   LIG d   1       6.637  -5.163  -5.855  0.00  0.00     0.066 H 
ENDBRANCH  43  44
ENDBRANCH  41  43
ENDBRANCH  10  41
TORSDOF 8
ENDMDL
MODEL 4
REMARK VINA RESULT:      -5.2      8.334     11.294
REMARK  8 active torsions:
REMARK  status: ('A' for Active; 'I' for Inactive)
REMARK    1  A    between atoms: C_1  and  O_2 
REMARK    2  A    between atoms: O_2  and  C_3 
REMARK    3  A    between atoms: C_3  and  C_4 
REMARK       I    between atoms: C_4  and  N_6 
REMARK    4  A    between atoms: N_11  and  C_12 
REMARK    5  A    between atoms: C_12  and  C_13 
REMARK    6  A    between atoms: C_21  and  C_23 
REMARK    7  A    between atoms: C_23  and  O_25 
REMARK    8  A    between atoms: O_25  and  C_26 
ROOT
ATOM      1  C   LIG d   1       9.948   8.334  -3.656  0.00  0.00     0.242 C 
ATOM      2  O   LIG d   1      10.105   9.343  -3.003  0.00  0.00    -0.273 OA
ATOM      3  N   LIG d   1       9.612   7.181  -3.044  0.00  0.00    -0.280 N 
ATOM      4  C   LIG d   1       9.285   5.975  -3.829  0.00  0.00     0.062 C 
ATOM      5  C   LIG d   1       9.989   4.813  -3.167  0.00  0.00     0.108 A 
ATOM      6  C   LIG d   1      10.575   4.871  -1.953  0.00  0.00     0.207 A 
ATOM      7  C   LIG d   1      10.836   2.861  -2.686  0.00  0.00     0.247 A 
ATOM      8  N   LIG d   1      10.155   3.545  -3.634  0.00  0.00    -0.287 N 
ATOM      9  C   LIG d   1      10.622   6.107  -1.089  0.00  0.00     0.063 C 
ATOM     10  C   LIG d   1       9.555   7.094  -1.578  0.00  0.00     0.133 C 
ATOM     11  H   LIG d   1       8.568   6.745  -1.271  0.00  0.00     0.062 H 
ATOM     12  H   LIG d   1       8.207   5.811  -3.825  0.00  0.00     0.053 H 
ATOM     13  H   LIG d   1       9.639   6.091  -4.853  0.00  0.00     0.053 H 
ATOM     14  H   LIG d   1      11.128   1.824  -2.747  0.00  0.00     0.160 H 
ATOM     15  H   LIG d   1      11.607   6.568  -1.164  0.00  0.00     0.040 H 
ATOM     16  H   LIG d   1      10.424   5.838  -0.052  0.00  0.00     0.040 H 
ATOM     17  N   LIG d   1      11.082   3.665  -1.685  0.00  0.00    -0.198 N 
ATOM     18  H   LIG d   1      11.585   3.409  -0.828  0.00  0.00     0.454 HD
ENDROOT
BRANCH   8  19
ATOM     19  C   LIG d   1       9.683   3.020  -4.918  0.00  0.00     0.053 C 
ATOM     20  H   LIG d   1       9.072   3.772  -5.415  0.00  0.00     0.054 H 
ATOM     21  H   LIG d   1      10.539   2.773  -5.546  0.00  0.00     0.054 H 
BRANCH  19  22
ATOM     22  C   LIG d   1       8.859   1.780  -4.681  0.00  0.00    -0.028 A 
ATOM     23  C   LIG d   1       7.712   1.849  -3.913  0.00  0.00    -0.056 A 
ATOM     24  C   LIG d   1       6.956   0.713  -3.696  0.00  0.00    -0.043 A 
ATOM     25  H   LIG d   1       7.405   2.791  -3.484  0.00  0.00     0.062 H 
ATOM     26  C   LIG d   1       7.349  -0.495  -4.246  0.00  0.00     0.041 A 
ATOM     27  H   LIG d   1       6.060   0.766  -3.097  0.00  0.00     0.063 H 
ATOM     28  C   LIG d   1       8.499  -0.563  -5.014  0.00  0.00    -0.043 A 
ATOM     29 CL   LIG d   1       6.401  -1.923  -3.973  0.00  0.00    -0.084 Cl
ATOM     30  C   LIG d   1       9.250   0.575  -5.235  0.00  0.00    -0.056 A 
ATOM     31  H   LIG d   1       8.805  -1.505  -5.443  0.00  0.00     0.063 H 
ATOM     32  H   LIG d   1      10.145   0.523  -5.838  0.00  0.00     0.062 H 
ENDBRANCH  19  22
ENDBRANCH   8  19
BRANCH   1  33
ATOM     33  C   LIG d   1      10.130   8.368  -5.151  0.00  0.00     0.123 C 
ATOM     34  H   LIG d   1      11.171   8.592  -5.385  0.00  0.00     0.066 H 
ATOM     35  H   LIG d   1       9.864   7.398  -5.572  0.00  0.00     0.066 H 
BRANCH  33  36
ATOM     36  O   LIG d   1       9.287   9.377  -5.711  0.00  0.00    -0.374 OA
BRANCH  36  37
ATOM     37  C   LIG d   1       9.992  10.380  -6.446  0.00  0.00     0.037 C 
ATOM     38  H   LIG d   1      10.065  10.080  -7.492  0.00  0.00     0.052 H 
ATOM     39  H   LIG d   1       9.454  11.326  -6.378  0.00  0.00     0.052 H 
ATOM     40  H   LIG d   1      10.992  10.499  -6.032  0.00  0.00     0.052 H 
ENDBRANCH  36  37
ENDBRANCH  33  36
ENDBRANCH   1  33
BRANCH  10  41
ATOM     41  C   LIG d   1       9.816   8.454  -0.982  0.00  0.00     0.328 C 
ATOM     42  O   LIG d   1       8.902   9.224  -0.812  0.00  0.00    -0.249 OA
BRANCH  41  43
ATOM     43  O   LIG d   1      11.065   8.808  -0.640  0.00  0.00    -0.467 OA
BRANCH  43  44
ATOM     44  C   LIG d   1      11.246   9.406   0.671  0.00  0.00     0.082 C 
ATOM     45  H   LIG d   1      11.390  10.480   0.563  0.00  0.00     0.066 H 
ATOM     46  H   LIG d   1      10.363   9.217   1.281  0.00  0.00     0.066 H 
ATOM     47  H   LIG d   1      12.120   8.967   1.152  0.00  0.00     0.066 H 
ENDBRANCH  43  44
ENDBRANCH  41  43
ENDBRANCH  10  41
TORSDOF 8
ENDMDL
MODEL 5
REMARK VINA RESULT:      -5.2      3.437      6.043
REMARK  8 active torsions:
REMARK  status: ('A' for Active; 'I' for Inactive)
REMARK    1  A    between atoms: C_1  and  O_2 
REMARK    2  A    between atoms: O_2  and  C_3 
REMARK    3  A    between atoms: C_3  and  C_4 
REMARK       I    between atoms: C_4  and  N_6 
REMARK    4  A    between atoms: N_11  and  C_12 
REMARK    5  A    between atoms: C_12  and  C_13 
REMARK    6  A    between atoms: C_21  and  C_23 
REMARK    7  A    between atoms: C_23  and  O_25 
REMARK    8  A    between atoms: O_25  and  C_26 
ROOT
ATOM      1  C   LIG d   1       5.111  -0.735  -6.302  0.00  0.00     0.242 C 
ATOM      2  O   LIG d   1       4.641   0.331  -5.970  0.00  0.00    -0.273 OA
ATOM      3  N   LIG d   1       5.449  -1.644  -5.366  0.00  0.00    -0.280 N 
ATOM      4  C   LIG d   1       5.895  -2.996  -5.749  0.00  0.00     0.062 C 
ATOM      5  C   LIG d   1       7.095  -3.325  -4.891  0.00  0.00     0.108 A 
ATOM      6  C   LIG d   1       7.483  -2.603  -3.819  0.00  0.00     0.207 A 
ATOM      7  C   LIG d   1       8.865  -4.247  -4.009  0.00  0.00     0.247 A 
ATOM      8  N   LIG d   1       7.967  -4.363  -5.015  0.00  0.00    -0.287 N 
ATOM      9  C   LIG d   1       6.785  -1.358  -3.333  0.00  0.00     0.063 C 
ATOM     10  C   LIG d   1       5.374  -1.315  -3.934  0.00  0.00     0.133 C 
ATOM     11  H   LIG d   1       4.739  -2.041  -3.426  0.00  0.00     0.062 H 
ATOM     12  H   LIG d   1       5.097  -3.716  -5.569  0.00  0.00     0.053 H 
ATOM     13  H   LIG d   1       6.177  -3.009  -6.802  0.00  0.00     0.053 H 
ATOM     14  H   LIG d   1       9.691  -4.916  -3.824  0.00  0.00     0.160 H 
ATOM     15  H   LIG d   1       7.344  -0.478  -3.650  0.00  0.00     0.040 H 
ATOM     16  H   LIG d   1       6.718  -1.375  -2.246  0.00  0.00     0.040 H 
ATOM     17  N   LIG d   1       8.565  -3.191  -3.300  0.00  0.00    -0.198 N 
ATOM     18  H   LIG d   1       9.080  -2.864  -2.475  0.00  0.00     0.454 HD
ENDROOT
BRANCH   8  19
ATOM     19  C   LIG d   1       7.939  -5.408  -6.041  0.00  0.00     0.053 C 
ATOM     20  H   LIG d   1       7.514  -5.004  -6.959  0.00  0.00     0.054 H 
ATOM     21  H   LIG d   1       8.954  -5.757  -6.233  0.00  0.00     0.054 H 
BRANCH  19  22
ATOM     22  C   LIG d   1       7.093  -6.560  -5.561  0.00  0.00    -0.028 A 
ATOM     23  C   LIG d   1       5.742  -6.593  -5.850  0.00  0.00    -0.056 A 
ATOM     24  C   LIG d   1       4.967  -7.649  -5.410  0.00  0.00    -0.043 A 
ATOM     25  H   LIG d   1       5.292  -5.793  -6.419  0.00  0.00     0.062 H 
ATOM     26  C   LIG d   1       5.543  -8.674  -4.680  0.00  0.00     0.041 A 
ATOM     27  H   LIG d   1       3.911  -7.675  -5.636  0.00  0.00     0.063 H 
ATOM     28  C   LIG d   1       6.896  -8.639  -4.391  0.00  0.00    -0.043 A 
ATOM     29 CL   LIG d   1       4.570 -10.000  -4.126  0.00  0.00    -0.084 Cl
ATOM     30  C   LIG d   1       7.672  -7.586  -4.836  0.00  0.00    -0.056 A 
ATOM     31  H   LIG d   1       7.346  -9.439  -3.821  0.00  0.00     0.063 H 
ATOM     32  H   LIG d   1       8.728  -7.561  -4.615  0.00  0.00     0.062 H 
ENDBRANCH  19  22
ENDBRANCH   8  19
BRANCH   1  33
ATOM     33  C   LIG d   1       5.320  -1.045  -7.762  0.00  0.00     0.123 C 
ATOM     34  H   LIG d   1       5.958  -0.281  -8.208  0.00  0.00     0.066 H 
ATOM     35  H   LIG d   1       5.798  -2.020  -7.862  0.00  0.00     0.066 H 
BRANCH  33  36
ATOM     36  O   LIG d   1       4.058  -1.062  -8.431  0.00  0.00    -0.374 OA
BRANCH  36  37
ATOM     37  C   LIG d   1       3.526  -2.373  -8.635  0.00  0.00     0.037 C 
ATOM     38  H   LIG d   1       3.947  -2.798  -9.547  0.00  0.00     0.052 H 
ATOM     39  H   LIG d   1       3.785  -3.006  -7.787  0.00  0.00     0.052 H 
ATOM     40  H   LIG d   1       2.442  -2.315  -8.729  0.00  0.00     0.052 H 
ENDBRANCH  36  37
ENDBRANCH  33  36
ENDBRANCH   1  33
BRANCH  10  41
ATOM     41  C   LIG d   1       4.796   0.067  -3.764  0.00  0.00     0.328 C 
ATOM     42  O   LIG d   1       5.530   1.023  -3.684  0.00  0.00    -0.249 OA
BRANCH  41  43
ATOM     43  O   LIG d   1       3.465   0.235  -3.703  0.00  0.00    -0.467 OA
BRANCH  43  44
ATOM     44  C   LIG d   1       2.692  -0.837  -3.104  0.00  0.00     0.082 C 
ATOM     45  H   LIG d   1       3.254  -1.769  -3.166  0.00  0.00     0.066 H 
ATOM     46  H   LIG d   1       2.493  -0.602  -2.058  0.00  0.00     0.066 H 
ATOM     47  H   LIG d   1       1.747  -0.945  -3.638  0.00  0.00     0.066 H 
ENDBRANCH  43  44
ENDBRANCH  41  43
ENDBRANCH  10  41
TORSDOF 8
ENDMDL
MODEL 6
REMARK VINA RESULT:      -5.1      2.966      4.080
REMARK  8 active torsions:
REMARK  status: ('A' for Active; 'I' for Inactive)
REMARK    1  A    between atoms: C_1  and  O_2 
REMARK    2  A    between atoms: O_2  and  C_3 
REMARK    3  A    between atoms: C_3  and  C_4 
REMARK       I    between atoms: C_4  and  N_6 
REMARK    4  A    between atoms: N_11  and  C_12 
REMARK    5  A    between atoms: C_12  and  C_13 
REMARK    6  A    between atoms: C_21  and  C_23 
REMARK    7  A    between atoms: C_23  and  O_25 
REMARK    8  A    between atoms: O_25  and  C_26 
ROOT
ATOM      1  C   LIG d   1       5.729   1.474  -8.895  0.00  0.00     0.242 C 
ATOM      2  O   LIG d   1       5.130   2.071  -9.764  0.00  0.00    -0.273 OA
ATOM      3  N   LIG d   1       5.138   0.445  -8.256  0.00  0.00    -0.280 N 
ATOM      4  C   LIG d   1       5.892  -0.380  -7.293  0.00  0.00     0.062 C 
ATOM      5  C   LIG d   1       4.997  -0.586  -6.092  0.00  0.00     0.108 A 
ATOM      6  C   LIG d   1       3.683  -0.280  -6.063  0.00  0.00     0.207 A 
ATOM      7  C   LIG d   1       4.185  -1.100  -4.134  0.00  0.00     0.247 A 
ATOM      8  N   LIG d   1       5.317  -1.103  -4.875  0.00  0.00    -0.287 N 
ATOM      9  C   LIG d   1       2.924   0.324  -7.218  0.00  0.00     0.063 C 
ATOM     10  C   LIG d   1       3.728   0.111  -8.506  0.00  0.00     0.133 C 
ATOM     11  H   LIG d   1       3.650  -0.932  -8.815  0.00  0.00     0.062 H 
ATOM     12  H   LIG d   1       6.142  -1.341  -7.743  0.00  0.00     0.053 H 
ATOM     13  H   LIG d   1       6.802   0.138  -6.993  0.00  0.00     0.053 H 
ATOM     14  H   LIG d   1       4.099  -1.449  -3.116  0.00  0.00     0.160 H 
ATOM     15  H   LIG d   1       2.786   1.392  -7.046  0.00  0.00     0.040 H 
ATOM     16  H   LIG d   1       1.951  -0.158  -7.311  0.00  0.00     0.040 H 
ATOM     17  N   LIG d   1       3.213  -0.606  -4.856  0.00  0.00    -0.198 N 
ATOM     18  H   LIG d   1       2.243  -0.488  -4.543  0.00  0.00     0.454 HD
ENDROOT
BRANCH   8  19
ATOM     19  C   LIG d   1       6.637  -1.573  -4.447  0.00  0.00     0.053 C 
ATOM     20  H   LIG d   1       6.565  -1.997  -3.447  0.00  0.00     0.054 H 
ATOM     21  H   LIG d   1       6.994  -2.335  -5.141  0.00  0.00     0.054 H 
BRANCH  19  22
ATOM     22  C   LIG d   1       7.602  -0.416  -4.433  0.00  0.00    -0.028 A 
ATOM     23  C   LIG d   1       8.804  -0.509  -5.110  0.00  0.00    -0.056 A 
ATOM     24  C   LIG d   1       9.689   0.552  -5.098  0.00  0.00    -0.043 A 
ATOM     25  H   LIG d   1       9.050  -1.412  -5.650  0.00  0.00     0.062 H 
ATOM     26  C   LIG d   1       9.373   1.709  -4.407  0.00  0.00     0.041 A 
ATOM     27  H   LIG d   1      10.627   0.479  -5.627  0.00  0.00     0.063 H 
ATOM     28  C   LIG d   1       8.170   1.801  -3.728  0.00  0.00    -0.043 A 
ATOM     29 CL   LIG d   1      10.485   3.042  -4.390  0.00  0.00    -0.084 Cl
ATOM     30  C   LIG d   1       7.283   0.742  -3.746  0.00  0.00    -0.056 A 
ATOM     31  H   LIG d   1       7.924   2.703  -3.189  0.00  0.00     0.063 H 
ATOM     32  H   LIG d   1       6.343   0.815  -3.221  0.00  0.00     0.062 H 
ENDBRANCH  19  22
ENDBRANCH   8  19
BRANCH   1  33
ATOM     33  C   LIG d   1       7.131   1.884  -8.529  0.00  0.00     0.123 C 
ATOM     34  H   LIG d   1       7.141   2.278  -7.513  0.00  0.00     0.066 H 
ATOM     35  H   LIG d   1       7.790   1.017  -8.587  0.00  0.00     0.066 H 
BRANCH  33  36
ATOM     36  O   LIG d   1       7.586   2.890  -9.436  0.00  0.00    -0.374 OA
BRANCH  36  37
ATOM     37  C   LIG d   1       8.716   3.629  -8.965  0.00  0.00     0.037 C 
ATOM     38  H   LIG d   1       8.401   4.635  -8.688  0.00  0.00     0.052 H 
ATOM     39  H   LIG d   1       9.140   3.129  -8.095  0.00  0.00     0.052 H 
ATOM     40  H   LIG d   1       9.465   3.687  -9.754  0.00  0.00     0.052 H 
ENDBRANCH  36  37
ENDBRANCH  33  36
ENDBRANCH   1  33
BRANCH  10  41
ATOM     41  C   LIG d   1       3.185   1.001  -9.593  0.00  0.00     0.328 C 
ATOM     42  O   LIG d   1       2.646   2.043  -9.308  0.00  0.00    -0.249 OA
BRANCH  41  43
ATOM     43  O   LIG d   1       3.300   0.636 -10.881  0.00  0.00    -0.467 OA
BRANCH  43  44
ATOM     44  C   LIG d   1       3.210  -0.783 -11.174  0.00  0.00     0.082 C 
ATOM     45  H   LIG d   1       4.102  -1.287 -10.804  0.00  0.00     0.066 H 
ATOM     46  H   LIG d   1       2.328  -1.200 -10.688  0.00  0.00     0.066 H 
ATOM     47  H   LIG d   1       3.132  -0.926 -12.252  0.00  0.00     0.066 H 
ENDBRANCH  43  44
ENDBRANCH  41  43
ENDBRANCH  10  41
TORSDOF 8
ENDMDL
MODEL 7
REMARK VINA RESULT:      -5.0      3.022      4.291
REMARK  8 active torsions:
REMARK  status: ('A' for Active; 'I' for Inactive)
REMARK    1  A    between atoms: C_1  and  O_2 
REMARK    2  A    between atoms: O_2  and  C_3 
REMARK    3  A    between atoms: C_3  and  C_4 
REMARK       I    between atoms: C_4  and  N_6 
REMARK    4  A    between atoms: N_11  and  C_12 
REMARK    5  A    between atoms: C_12  and  C_13 
REMARK    6  A    between atoms: C_21  and  C_23 
REMARK    7  A    between atoms: C_23  and  O_25 
REMARK    8  A    between atoms: O_25  and  C_26 
ROOT
ATOM      1  C   LIG d   1       6.294   1.271  -8.537  0.00  0.00     0.242 C 
ATOM      2  O   LIG d   1       5.971   2.016  -9.437  0.00  0.00    -0.273 OA
ATOM      3  N   LIG d   1       5.411   0.376  -8.053  0.00  0.00    -0.280 N 
ATOM      4  C   LIG d   1       5.821  -0.628  -7.054  0.00  0.00     0.062 C 
ATOM      5  C   LIG d   1       4.737  -0.674  -6.002  0.00  0.00     0.108 A 
ATOM      6  C   LIG d   1       3.529  -0.085  -6.129  0.00  0.00     0.207 A 
ATOM      7  C   LIG d   1       3.557  -1.064  -4.209  0.00  0.00     0.247 A 
ATOM      8  N   LIG d   1       4.759  -1.291  -4.789  0.00  0.00    -0.287 N 
ATOM      9  C   LIG d   1       3.094   0.712  -7.333  0.00  0.00     0.063 C 
ATOM     10  C   LIG d   1       4.014   0.371  -8.512  0.00  0.00     0.133 C 
ATOM     11  H   LIG d   1       3.760  -0.617  -8.898  0.00  0.00     0.062 H 
ATOM     12  H   LIG d   1       5.923  -1.604  -7.529  0.00  0.00     0.053 H 
ATOM     13  H   LIG d   1       6.768  -0.335  -6.601  0.00  0.00     0.053 H 
ATOM     14  H   LIG d   1       3.251  -1.421  -3.237  0.00  0.00     0.160 H 
ATOM     15  H   LIG d   1       3.165   1.777  -7.111  0.00  0.00     0.040 H 
ATOM     16  H   LIG d   1       2.065   0.461  -7.588  0.00  0.00     0.040 H 
ATOM     17  N   LIG d   1       2.830  -0.342  -5.020  0.00  0.00    -0.198 N 
ATOM     18  H   LIG d   1       1.873  -0.023  -4.834  0.00  0.00     0.454 HD
ENDROOT
BRANCH   8  19
ATOM     19  C   LIG d   1       5.871  -2.056  -4.220  0.00  0.00     0.053 C 
ATOM     20  H   LIG d   1       6.812  -1.567  -4.465  0.00  0.00     0.054 H 
ATOM     21  H   LIG d   1       5.759  -2.109  -3.136  0.00  0.00     0.054 H 
BRANCH  19  22
ATOM     22  C   LIG d   1       5.865  -3.450  -4.793  0.00  0.00    -0.028 A 
ATOM     23  C   LIG d   1       4.672  -4.133  -4.938  0.00  0.00    -0.056 A 
ATOM     24  C   LIG d   1       4.667  -5.411  -5.464  0.00  0.00    -0.043 A 
ATOM     25  H   LIG d   1       3.744  -3.668  -4.640  0.00  0.00     0.062 H 
ATOM     26  C   LIG d   1       5.857  -6.008  -5.845  0.00  0.00     0.041 A 
ATOM     27  H   LIG d   1       3.736  -5.945  -5.577  0.00  0.00     0.063 H 
ATOM     28  C   LIG d   1       7.051  -5.323  -5.699  0.00  0.00    -0.043 A 
ATOM     29 CL   LIG d   1       5.851  -7.614  -6.505  0.00  0.00    -0.084 Cl
ATOM     30  C   LIG d   1       7.054  -4.043  -5.179  0.00  0.00    -0.056 A 
ATOM     31  H   LIG d   1       7.979  -5.788  -5.996  0.00  0.00     0.063 H 
ATOM     32  H   LIG d   1       7.985  -3.507  -5.069  0.00  0.00     0.062 H 
ENDBRANCH  19  22
ENDBRANCH   8  19
BRANCH   1  33
ATOM     33  C   LIG d   1       7.683   1.347  -7.959  0.00  0.00     0.123 C 
ATOM     34  H   LIG d   1       8.024   0.345  -7.698  0.00  0.00     0.066 H 
ATOM     35  H   LIG d   1       8.361   1.780  -8.695  0.00  0.00     0.066 H 
BRANCH  33  36
ATOM     36  O   LIG d   1       7.668   2.165  -6.787  0.00  0.00    -0.374 OA
BRANCH  36  37
ATOM     37  C   LIG d   1       8.442   1.644  -5.705  0.00  0.00     0.037 C 
ATOM     38  H   LIG d   1       8.819   0.656  -5.969  0.00  0.00     0.052 H 
ATOM     39  H   LIG d   1       9.281   2.311  -5.505  0.00  0.00     0.052 H 
ATOM     40  H   LIG d   1       7.817   1.568  -4.815  0.00  0.00     0.052 H 
ENDBRANCH  36  37
ENDBRANCH  33  36
ENDBRANCH   1  33
BRANCH  10  41
ATOM     41  C   LIG d   1       3.838   1.398  -9.601  0.00  0.00     0.328 C 
ATOM     42  O   LIG d   1       3.527   2.530  -9.320  0.00  0.00    -0.249 OA
BRANCH  41  43
ATOM     43  O   LIG d   1       4.028   1.054 -10.886  0.00  0.00    -0.467 OA
BRANCH  43  44
ATOM     44  C   LIG d   1       3.648  -0.294 -11.270  0.00  0.00     0.082 C 
ATOM     45  H   LIG d   1       4.301  -1.010 -10.772  0.00  0.00     0.066 H 
ATOM     46  H   LIG d   1       2.615  -0.478 -10.978  0.00  0.00     0.066 H 
ATOM     47  H   LIG d   1       3.745  -0.404 -12.351  0.00  0.00     0.066 H 
ENDBRANCH  43  44
ENDBRANCH  41  43
ENDBRANCH  10  41
TORSDOF 8
ENDMDL
MODEL 8
REMARK VINA RESULT:      -4.8      6.739      9.426
REMARK  8 active torsions:
REMARK  status: ('A' for Active; 'I' for Inactive)
REMARK    1  A    between atoms: C_1  and  O_2 
REMARK    2  A    between atoms: O_2  and  C_3 
REMARK    3  A    between atoms: C_3  and  C_4 
REMARK       I    between atoms: C_4  and  N_6 
REMARK    4  A    between atoms: N_11  and  C_12 
REMARK    5  A    between atoms: C_12  and  C_13 
REMARK    6  A    between atoms: C_21  and  C_23 
REMARK    7  A    between atoms: C_23  and  O_25 
REMARK    8  A    between atoms: O_25  and  C_26 
ROOT
ATOM      1  C   LIG d   1      10.482   5.540  -4.298  0.00  0.00     0.242 C 
ATOM      2  O   LIG d   1      11.336   6.266  -3.837  0.00  0.00    -0.273 OA
ATOM      3  N   LIG d   1      10.321   4.294  -3.811  0.00  0.00    -0.280 N 
ATOM      4  C   LIG d   1       9.205   3.443  -4.262  0.00  0.00     0.062 C 
ATOM      5  C   LIG d   1       9.772   2.064  -4.508  0.00  0.00     0.108 A 
ATOM      6  C   LIG d   1      11.005   1.670  -4.126  0.00  0.00     0.207 A 
ATOM      7  C   LIG d   1      10.072  -0.017  -5.091  0.00  0.00     0.247 A 
ATOM      8  N   LIG d   1       9.181   1.001  -5.120  0.00  0.00    -0.287 N 
ATOM      9  C   LIG d   1      11.997   2.554  -3.412  0.00  0.00     0.063 C 
ATOM     10  C   LIG d   1      11.251   3.750  -2.810  0.00  0.00     0.133 C 
ATOM     11  H   LIG d   1      10.692   3.427  -1.931  0.00  0.00     0.062 H 
ATOM     12  H   LIG d   1       8.436   3.400  -3.491  0.00  0.00     0.053 H 
ATOM     13  H   LIG d   1       8.784   3.843  -5.185  0.00  0.00     0.053 H 
ATOM     14  H   LIG d   1       9.911  -1.005  -5.495  0.00  0.00     0.160 H 
ATOM     15  H   LIG d   1      12.746   2.909  -4.120  0.00  0.00     0.040 H 
ATOM     16  H   LIG d   1      12.485   1.990  -2.617  0.00  0.00     0.040 H 
ATOM     17  N   LIG d   1      11.159   0.395  -4.494  0.00  0.00    -0.198 N 
ATOM     18  H   LIG d   1      11.999  -0.172  -4.333  0.00  0.00     0.454 HD
ENDROOT
BRANCH   8  19
ATOM     19  C   LIG d   1       7.835   0.966  -5.699  0.00  0.00     0.053 C 
ATOM     20  H   LIG d   1       7.479   1.983  -5.853  0.00  0.00     0.054 H 
ATOM     21  H   LIG d   1       7.864   0.442  -6.655  0.00  0.00     0.054 H 
BRANCH  19  22
ATOM     22  C   LIG d   1       6.904   0.245  -4.759  0.00  0.00    -0.028 A 
ATOM     23  C   LIG d   1       6.495   0.856  -3.588  0.00  0.00    -0.056 A 
ATOM     24  C   LIG d   1       5.640   0.196  -2.726  0.00  0.00    -0.043 A 
ATOM     25  H   LIG d   1       6.842   1.850  -3.348  0.00  0.00     0.062 H 
ATOM     26  C   LIG d   1       5.194  -1.078  -3.034  0.00  0.00     0.041 A 
ATOM     27  H   LIG d   1       5.320   0.672  -1.812  0.00  0.00     0.063 H 
ATOM     28  C   LIG d   1       5.605  -1.689  -4.206  0.00  0.00    -0.043 A 
ATOM     29 CL   LIG d   1       4.121  -1.908  -1.951  0.00  0.00    -0.084 Cl
ATOM     30  C   LIG d   1       6.454  -1.026  -5.070  0.00  0.00    -0.056 A 
ATOM     31  H   LIG d   1       5.257  -2.683  -4.446  0.00  0.00     0.063 H 
ATOM     32  H   LIG d   1       6.772  -1.500  -5.987  0.00  0.00     0.062 H 
ENDBRANCH  19  22
ENDBRANCH   8  19
BRANCH   1  33
ATOM     33  C   LIG d   1       9.601   6.031  -5.418  0.00  0.00     0.123 C 
ATOM     34  H   LIG d   1      10.146   5.974  -6.360  0.00  0.00     0.066 H 
ATOM     35  H   LIG d   1       8.708   5.409  -5.477  0.00  0.00     0.066 H 
BRANCH  33  36
ATOM     36  O   LIG d   1       9.222   7.386  -5.167  0.00  0.00    -0.374 OA
BRANCH  36  37
ATOM     37  C   LIG d   1       9.276   8.227  -6.321  0.00  0.00     0.037 C 
ATOM     38  H   LIG d   1      10.196   8.029  -6.873  0.00  0.00     0.052 H 
ATOM     39  H   LIG d   1       8.419   8.022  -6.961  0.00  0.00     0.052 H 
ATOM     40  H   LIG d   1       9.258   9.272  -6.011  0.00  0.00     0.052 H 
ENDBRANCH  36  37
ENDBRANCH  33  36
ENDBRANCH   1  33
BRANCH  10  41
ATOM     41  C   LIG d   1      12.242   4.814  -2.413  0.00  0.00     0.328 C 
ATOM     42  O   LIG d   1      13.302   4.896  -2.986  0.00  0.00    -0.249 OA
BRANCH  41  43
ATOM     43  O   LIG d   1      11.947   5.671  -1.421  0.00  0.00    -0.467 OA
BRANCH  43  44
ATOM     44  C   LIG d   1      13.006   5.975  -0.476  0.00  0.00     0.082 C 
ATOM     45  H   LIG d   1      12.593   6.534   0.363  0.00  0.00     0.066 H 
ATOM     46  H   LIG d   1      13.448   5.047  -0.113  0.00  0.00     0.066 H 
ATOM     47  H   LIG d   1      13.773   6.573  -0.970  0.00  0.00     0.066 H 
ENDBRANCH  43  44
ENDBRANCH  41  43
ENDBRANCH  10  41
TORSDOF 8
ENDMDL
MODEL 9
REMARK VINA RESULT:      -4.8      6.881      8.899
REMARK  8 active torsions:
REMARK  status: ('A' for Active; 'I' for Inactive)
REMARK    1  A    between atoms: C_1  and  O_2 
REMARK    2  A    between atoms: O_2  and  C_3 
REMARK    3  A    between atoms: C_3  and  C_4 
REMARK       I    between atoms: C_4  and  N_6 
REMARK    4  A    between atoms: N_11  and  C_12 
REMARK    5  A    between atoms: C_12  and  C_13 
REMARK    6  A    between atoms: C_21  and  C_23 
REMARK    7  A    between atoms: C_23  and  O_25 
REMARK    8  A    between atoms: O_25  and  C_26 
ROOT
ATOM      1  C   LIG d   1       5.120  -8.917  -4.978  0.00  0.00     0.242 C 
ATOM      2  O   LIG d   1       3.937  -9.080  -5.185  0.00  0.00    -0.273 OA
ATOM      3  N   LIG d   1       5.827  -9.861  -4.327  0.00  0.00    -0.280 N 
ATOM      4  C   LIG d   1       7.290  -9.746  -4.182  0.00  0.00     0.062 C 
ATOM      5  C   LIG d   1       7.623 -10.108  -2.753  0.00  0.00     0.108 A 
ATOM      6  C   LIG d   1       6.752 -10.673  -1.890  0.00  0.00     0.207 A 
ATOM      7  C   LIG d   1       8.620 -10.437  -0.840  0.00  0.00     0.247 A 
ATOM      8  N   LIG d   1       8.803  -9.956  -2.092  0.00  0.00    -0.287 N 
ATOM      9  C   LIG d   1       5.320 -11.009  -2.224  0.00  0.00     0.063 C 
ATOM     10  C   LIG d   1       5.160 -11.038  -3.749  0.00  0.00     0.133 C 
ATOM     11  H   LIG d   1       5.615 -11.946  -4.146  0.00  0.00     0.062 H 
ATOM     12  H   LIG d   1       7.787 -10.433  -4.867  0.00  0.00     0.053 H 
ATOM     13  H   LIG d   1       7.604  -8.723  -4.389  0.00  0.00     0.053 H 
ATOM     14  H   LIG d   1       9.367 -10.464  -0.062  0.00  0.00     0.160 H 
ATOM     15  H   LIG d   1       4.659 -10.252  -1.802  0.00  0.00     0.040 H 
ATOM     16  H   LIG d   1       5.066 -11.985  -1.812  0.00  0.00     0.040 H 
ATOM     17  N   LIG d   1       7.389 -10.863  -0.731  0.00  0.00    -0.198 N 
ATOM     18  H   LIG d   1       6.977 -11.278   0.112  0.00  0.00     0.454 HD
ENDROOT
BRANCH   8  19
ATOM     19  C   LIG d   1      10.037  -9.382  -2.633  0.00  0.00     0.053 C 
ATOM     20  H   LIG d   1      10.864  -9.595  -1.957  0.00  0.00     0.054 H 
ATOM     21  H   LIG d   1      10.245  -9.821  -3.610  0.00  0.00     0.054 H 
BRANCH  19  22
ATOM     22  C   LIG d   1       9.877  -7.891  -2.777  0.00  0.00    -0.028 A 
ATOM     23  C   LIG d   1       9.737  -7.328  -4.032  0.00  0.00    -0.056 A 
ATOM     24  C   LIG d   1       9.589  -5.961  -4.163  0.00  0.00    -0.043 A 
ATOM     25  H   LIG d   1       9.742  -7.958  -4.909  0.00  0.00     0.062 H 
ATOM     26  C   LIG d   1       9.583  -5.153  -3.039  0.00  0.00     0.041 A 
ATOM     27  H   LIG d   1       9.479  -5.521  -5.143  0.00  0.00     0.063 H 
ATOM     28  C   LIG d   1       9.724  -5.717  -1.783  0.00  0.00    -0.043 A 
ATOM     29 CL   LIG d   1       9.399  -3.435  -3.204  0.00  0.00    -0.084 Cl
ATOM     30  C   LIG d   1       9.865  -7.086  -1.652  0.00  0.00    -0.056 A 
ATOM     31  H   LIG d   1       9.720  -5.088  -0.906  0.00  0.00     0.063 H 
ATOM     32  H   LIG d   1       9.971  -7.527  -0.672  0.00  0.00     0.062 H 
ENDBRANCH  19  22
ENDBRANCH   8  19
BRANCH   1  33
ATOM     33  C   LIG d   1       5.800  -7.656  -5.446  0.00  0.00     0.123 C 
ATOM     34  H   LIG d   1       6.092  -7.059  -4.583  0.00  0.00     0.066 H 
ATOM     35  H   LIG d   1       6.686  -7.914  -6.026  0.00  0.00     0.066 H 
BRANCH  33  36
ATOM     36  O   LIG d   1       4.899  -6.905  -6.263  0.00  0.00    -0.374 OA
BRANCH  36  37
ATOM     37  C   LIG d   1       4.556  -5.626  -5.726  0.00  0.00     0.037 C 
ATOM     38  H   LIG d   1       4.461  -5.701  -4.642  0.00  0.00     0.052 H 
ATOM     39  H   LIG d   1       5.337  -4.907  -5.973  0.00  0.00     0.052 H 
ATOM     40  H   LIG d   1       3.608  -5.296  -6.151  0.00  0.00     0.052 H 
ENDBRANCH  36  37
ENDBRANCH  33  36
ENDBRANCH   1  33
BRANCH  10  41
ATOM     41  C   LIG d   1       3.696 -11.011  -4.103  0.00  0.00     0.328 C 
ATOM     42  O   LIG d   1       2.908 -10.461  -3.373  0.00  0.00    -0.249 OA
BRANCH  41  43
ATOM     43  O   LIG d   1       3.267 -11.600  -5.232  0.00  0.00    -0.467 OA
BRANCH  43  44
ATOM     44  C   LIG d   1       4.187 -12.509  -5.892  0.00  0.00     0.082 C 
ATOM     45  H   LIG d   1       4.124 -13.491  -5.426  0.00  0.00     0.066 H 
ATOM     46  H   LIG d   1       3.925 -12.589  -6.947  0.00  0.00     0.066 H 
ATOM     47  H   LIG d   1       5.204 -12.126  -5.799  0.00  0.00     0.066 H 
ENDBRANCH  43  44
ENDBRANCH  41  43
ENDBRANCH  10  41
TORSDOF 8
ENDMDL
MODEL 10
REMARK VINA RESULT:      -4.7      9.778     12.666
REMARK  8 active torsions:
REMARK  status: ('A' for Active; 'I' for Inactive)
REMARK    1  A    between atoms: C_1  and  O_2 
REMARK    2  A    between atoms: O_2  and  C_3 
REMARK    3  A    between atoms: C_3  and  C_4 
REMARK       I    between atoms: C_4  and  N_6 
REMARK    4  A    between atoms: N_11  and  C_12 
REMARK    5  A    between atoms: C_12  and  C_13 
REMARK    6  A    between atoms: C_21  and  C_23 
REMARK    7  A    between atoms: C_23  and  O_25 
REMARK    8  A    between atoms: O_25  and  C_26 
ROOT
ATOM      1  C   LIG d   1       9.619   8.809  -1.864  0.00  0.00     0.242 C 
ATOM      2  O   LIG d   1       9.145   9.792  -1.336  0.00  0.00    -0.273 OA
ATOM      3  N   LIG d   1      10.207   8.910  -3.072  0.00  0.00    -0.280 N 
ATOM      4  C   LIG d   1      10.907   7.759  -3.672  0.00  0.00     0.062 C 
ATOM      5  C   LIG d   1      10.495   7.701  -5.126  0.00  0.00     0.108 A 
ATOM      6  C   LIG d   1       9.826   8.682  -5.766  0.00  0.00     0.207 A 
ATOM      7  C   LIG d   1      10.175   7.113  -7.202  0.00  0.00     0.247 A 
ATOM      8  N   LIG d   1      10.715   6.707  -6.029  0.00  0.00    -0.287 N 
ATOM      9  C   LIG d   1       9.381   9.970  -5.119  0.00  0.00     0.063 C 
ATOM     10  C   LIG d   1      10.174  10.174  -3.823  0.00  0.00     0.133 C 
ATOM     11  H   LIG d   1      11.193  10.482  -4.064  0.00  0.00     0.062 H 
ATOM     12  H   LIG d   1      11.985   7.898  -3.594  0.00  0.00     0.053 H 
ATOM     13  H   LIG d   1      10.612   6.840  -3.165  0.00  0.00     0.053 H 
ATOM     14  H   LIG d   1      10.180   6.552  -8.124  0.00  0.00     0.160 H 
ATOM     15  H   LIG d   1       8.316   9.915  -4.891  0.00  0.00     0.040 H 
ATOM     16  H   LIG d   1       9.566  10.804  -5.796  0.00  0.00     0.040 H 
ATOM     17  N   LIG d   1       9.646   8.296  -7.032  0.00  0.00    -0.198 N 
ATOM     18  H   LIG d   1       9.168   8.842  -7.757  0.00  0.00     0.454 HD
ENDROOT
BRANCH   8  19
ATOM     19  C   LIG d   1      11.407   5.440  -5.781  0.00  0.00     0.053 C 
ATOM     20  H   LIG d   1      11.844   5.076  -6.710  0.00  0.00     0.054 H 
ATOM     21  H   LIG d   1      12.196   5.594  -5.044  0.00  0.00     0.054 H 
BRANCH  19  22
ATOM     22  C   LIG d   1      10.423   4.425  -5.258  0.00  0.00    -0.028 A 
ATOM     23  C   LIG d   1      10.299   4.220  -3.897  0.00  0.00    -0.056 A 
ATOM     24  C   LIG d   1       9.396   3.289  -3.418  0.00  0.00    -0.043 A 
ATOM     25  H   LIG d   1      10.906   4.787  -3.208  0.00  0.00     0.062 H 
ATOM     26  C   LIG d   1       8.617   2.562  -4.301  0.00  0.00     0.041 A 
ATOM     27  H   LIG d   1       9.298   3.129  -2.355  0.00  0.00     0.063 H 
ATOM     28  C   LIG d   1       8.743   2.767  -5.664  0.00  0.00    -0.043 A 
ATOM     29 CL   LIG d   1       7.484   1.392  -3.699  0.00  0.00    -0.084 Cl
ATOM     30  C   LIG d   1       9.641   3.702  -6.142  0.00  0.00    -0.056 A 
ATOM     31  H   LIG d   1       8.136   2.199  -6.353  0.00  0.00     0.063 H 
ATOM     32  H   LIG d   1       9.737   3.866  -7.205  0.00  0.00     0.062 H 
ENDBRANCH  19  22
ENDBRANCH   8  19
BRANCH   1  33
ATOM     33  C   LIG d   1       9.547   7.473  -1.171  0.00  0.00     0.123 C 
ATOM     34  H   LIG d   1       8.503   7.190  -1.034  0.00  0.00     0.066 H 
ATOM     35  H   LIG d   1      10.051   6.721  -1.777  0.00  0.00     0.066 H 
BRANCH  33  36
ATOM     36  O   LIG d   1      10.187   7.563   0.104  0.00  0.00    -0.374 OA
BRANCH  36  37
ATOM     37  C   LIG d   1      11.100   6.497   0.373  0.00  0.00     0.037 C 
ATOM     38  H   LIG d   1      11.627   6.230  -0.543  0.00  0.00     0.052 H 
ATOM     39  H   LIG d   1      11.820   6.817   1.126  0.00  0.00     0.052 H 
ATOM     40  H   LIG d   1      10.549   5.631   0.740  0.00  0.00     0.052 H 
ENDBRANCH  36  37
ENDBRANCH  33  36
ENDBRANCH   1  33
BRANCH  10  41
ATOM     41  C   LIG d   1       9.511  11.239  -2.989  0.00  0.00     0.328 C 
ATOM     42  O   LIG d   1       8.336  11.477  -3.135  0.00  0.00    -0.249 OA
BRANCH  41  43
ATOM     43  O   LIG d   1      10.226  11.924  -2.080  0.00  0.00    -0.467 OA
BRANCH  43  44
ATOM     44  C   LIG d   1      11.624  12.166  -2.388  0.00  0.00     0.082 C 
ATOM     45  H   LIG d   1      12.249  11.542  -1.750  0.00  0.00     0.066 H 
ATOM     46  H   LIG d   1      11.814  11.922  -3.433  0.00  0.00     0.066 H 
ATOM     47  H   LIG d   1      11.857  13.216  -2.213  0.00  0.00     0.066 H 
ENDBRANCH  43  44
ENDBRANCH  41  43
ENDBRANCH  10  41
TORSDOF 8
ENDMDL
