MODEL 1
REMARK VINA RESULT:      -4.8      0.000      0.000
REMARK  6 active torsions:
REMARK  status: ('A' for Active; 'I' for Inactive)
REMARK    1  A    between atoms: C_1  and  C_2 
REMARK    2  A    between atoms: C_2  and  C_4 
REMARK    3  A    between atoms: C_5  and  O_15 
REMARK    4  A    between atoms: C_7  and  O_14 
REMARK    5  A    between atoms: C_8  and  C_11 
REMARK    6  A    between atoms: C_11  and  C_13 
ROOT
ATOM      1  C   LIG d   1       3.437  -0.080  -5.445  0.00  0.00     0.052 A 
ATOM      2  C   LIG d   1       2.438  -0.318  -4.480  0.00  0.00     0.130 A 
ATOM      3  C   LIG d   1       2.785  -0.718  -3.201  0.00  0.00     0.023 A 
ATOM      4  C   LIG d   1       4.115  -0.889  -2.856  0.00  0.00     0.130 A 
ATOM      5  C   LIG d   1       5.130  -0.656  -3.806  0.00  0.00     0.052 A 
ATOM      6  C   LIG d   1       4.788  -0.256  -5.107  0.00  0.00    -0.080 A 
ATOM      7  O   LIG d   1       5.755  -0.035  -6.027  0.00  0.00    -0.873 OA
ATOM      8  H   LIG d   1       2.013  -0.897  -2.467  0.00  0.00     0.069 H 
ENDROOT
BRANCH   1   9
ATOM      9  C   LIG d   1       3.068   0.343  -6.794  0.00  0.00     0.163 C 
ATOM     10  O   LIG d   1       2.855   1.516  -7.025  0.00  0.00    -0.292 OA
BRANCH   9  11
ATOM     11  C   LIG d   1       2.955  -0.676  -7.899  0.00  0.00    -0.001 C 
ATOM     12  H   LIG d   1       3.072  -1.676  -7.483  0.00  0.00     0.031 H 
ATOM     13  H   LIG d   1       1.977  -0.591  -8.373  0.00  0.00     0.031 H 
ATOM     14  H   LIG d   1       3.735  -0.497  -8.640  0.00  0.00     0.031 H 
ENDBRANCH   9  11
ENDBRANCH   1   9
BRANCH   2  15
ATOM     15  O   LIG d   1       1.133  -0.154  -4.805  0.00  0.00    -0.506 OA
ATOM     16  H   LIG d   1       0.860  -0.643  -5.593  0.00  0.00     0.292 HD
ENDBRANCH   2  15
BRANCH   5  17
ATOM     17  C   LIG d   1       6.533  -0.838  -3.439  0.00  0.00     0.163 C 
ATOM     18  O   LIG d   1       7.169   0.093  -2.989  0.00  0.00    -0.292 OA
BRANCH  17  19
ATOM     19  C   LIG d   1       7.192  -2.181  -3.621  0.00  0.00    -0.001 C 
ATOM     20  H   LIG d   1       6.962  -2.567  -4.614  0.00  0.00     0.031 H 
ATOM     21  H   LIG d   1       8.272  -2.073  -3.515  0.00  0.00     0.031 H 
ATOM     22  H   LIG d   1       6.821  -2.873  -2.866  0.00  0.00     0.031 H 
ENDBRANCH  17  19
ENDBRANCH   5  17
BRANCH   4  23
ATOM     23  O   LIG d   1       4.442  -1.280  -1.601  0.00  0.00    -0.506 OA
ATOM     24  H   LIG d   1       3.724  -1.724  -1.128  0.00  0.00     0.292 HD
ENDBRANCH   4  23
TORSDOF 6
ENDMDL
MODEL 2
REMARK VINA RESULT:      -4.6      1.610      3.250
REMARK  6 active torsions:
REMARK  status: ('A' for Active; 'I' for Inactive)
REMARK    1  A    between atoms: C_1  and  C_2 
REMARK    2  A    between atoms: C_2  and  C_4 
REMARK    3  A    between atoms: C_5  and  O_15 
REMARK    4  A    between atoms: C_7  and  O_14 
REMARK    5  A    between atoms: C_8  and  C_11 
REMARK    6  A    between atoms: C_11  and  C_13 
ROOT
ATOM      1  C   LIG d   1       3.725  -0.114  -6.791  0.00  0.00     0.052 A 
ATOM      2  C   LIG d   1       4.997  -0.643  -7.086  0.00  0.00     0.130 A 
ATOM      3  C   LIG d   1       5.818  -1.092  -6.067  0.00  0.00     0.023 A 
ATOM      4  C   LIG d   1       5.401  -1.027  -4.749  0.00  0.00     0.130 A 
ATOM      5  C   LIG d   1       4.132  -0.501  -4.431  0.00  0.00     0.052 A 
ATOM      6  C   LIG d   1       3.294  -0.037  -5.458  0.00  0.00    -0.080 A 
ATOM      7  O   LIG d   1       2.077   0.474  -5.162  0.00  0.00    -0.873 OA
ATOM      8  H   LIG d   1       6.792  -1.498  -6.302  0.00  0.00     0.069 H 
ENDROOT
BRANCH   1   9
ATOM      9  C   LIG d   1       2.858   0.359  -7.869  0.00  0.00     0.163 C 
ATOM     10  O   LIG d   1       2.132  -0.421  -8.450  0.00  0.00    -0.292 OA
BRANCH   9  11
ATOM     11  C   LIG d   1       2.866   1.816  -8.258  0.00  0.00    -0.001 C 
ATOM     12  H   LIG d   1       3.477   2.377  -7.551  0.00  0.00     0.031 H 
ATOM     13  H   LIG d   1       3.280   1.922  -9.260  0.00  0.00     0.031 H 
ATOM     14  H   LIG d   1       1.846   2.201  -8.243  0.00  0.00     0.031 H 
ENDBRANCH   9  11
ENDBRANCH   1   9
BRANCH   2  15
ATOM     15  O   LIG d   1       5.417  -0.713  -8.372  0.00  0.00    -0.506 OA
ATOM     16  H   LIG d   1       4.878  -1.288  -8.931  0.00  0.00     0.292 HD
ENDBRANCH   2  15
BRANCH   5  17
ATOM     17  C   LIG d   1       3.694  -0.432  -3.039  0.00  0.00     0.163 C 
ATOM     18  O   LIG d   1       3.222  -1.413  -2.501  0.00  0.00    -0.292 OA
BRANCH  17  19
ATOM     19  C   LIG d   1       3.826   0.857  -2.269  0.00  0.00    -0.001 C 
ATOM     20  H   LIG d   1       2.834   1.264  -2.069  0.00  0.00     0.031 H 
ATOM     21  H   LIG d   1       4.337   0.666  -1.325  0.00  0.00     0.031 H 
ATOM     22  H   LIG d   1       4.401   1.573  -2.855  0.00  0.00     0.031 H 
ENDBRANCH  17  19
ENDBRANCH   5  17
BRANCH   4  23
ATOM     23  O   LIG d   1       6.214  -1.470  -3.760  0.00  0.00    -0.506 OA
ATOM     24  H   LIG d   1       6.267  -2.434  -3.698  0.00  0.00     0.292 HD
ENDBRANCH   4  23
TORSDOF 6
ENDMDL
MODEL 3
REMARK VINA RESULT:      -4.6      1.597      5.004
REMARK  6 active torsions:
REMARK  status: ('A' for Active; 'I' for Inactive)
REMARK    1  A    between atoms: C_1  and  C_2 
REMARK    2  A    between atoms: C_2  and  C_4 
REMARK    3  A    between atoms: C_5  and  O_15 
REMARK    4  A    between atoms: C_7  and  O_14 
REMARK    5  A    between atoms: C_8  and  C_11 
REMARK    6  A    between atoms: C_11  and  C_13 
ROOT
ATOM      1  C   LIG d   1       4.136  -0.467  -4.414  0.00  0.00     0.052 A 
ATOM      2  C   LIG d   1       5.414  -0.977  -4.718  0.00  0.00     0.130 A 
ATOM      3  C   LIG d   1       5.842  -1.048  -6.032  0.00  0.00     0.023 A 
ATOM      4  C   LIG d   1       5.021  -0.620  -7.061  0.00  0.00     0.130 A 
ATOM      5  C   LIG d   1       3.739  -0.107  -6.780  0.00  0.00     0.052 A 
ATOM      6  C   LIG d   1       3.294  -0.037  -5.450  0.00  0.00    -0.080 A 
ATOM      7  O   LIG d   1       2.062   0.450  -5.170  0.00  0.00    -0.873 OA
ATOM      8  H   LIG d   1       6.824  -1.439  -6.256  0.00  0.00     0.069 H 
ENDROOT
BRANCH   1   9
ATOM      9  C   LIG d   1       3.687  -0.392  -3.025  0.00  0.00     0.163 C 
ATOM     10  O   LIG d   1       3.233  -1.377  -2.480  0.00  0.00    -0.292 OA
BRANCH   9  11
ATOM     11  C   LIG d   1       3.788   0.909  -2.270  0.00  0.00    -0.001 C 
ATOM     12  H   LIG d   1       4.734   0.941  -1.729  0.00  0.00     0.031 H 
ATOM     13  H   LIG d   1       3.741   1.741  -2.971  0.00  0.00     0.031 H 
ATOM     14  H   LIG d   1       2.962   0.983  -1.561  0.00  0.00     0.031 H 
ENDBRANCH   9  11
ENDBRANCH   1   9
BRANCH   2  15
ATOM     15  O   LIG d   1       6.227  -1.398  -3.719  0.00  0.00    -0.506 OA
ATOM     16  H   LIG d   1       6.978  -0.814  -3.550  0.00  0.00     0.292 HD
ENDBRANCH   2  15
BRANCH   5  17
ATOM     17  C   LIG d   1       2.873   0.343  -7.868  0.00  0.00     0.163 C 
ATOM     18  O   LIG d   1       2.159  -0.451  -8.445  0.00  0.00    -0.292 OA
BRANCH  17  19
ATOM     19  C   LIG d   1       2.868   1.794  -8.276  0.00  0.00    -0.001 C 
ATOM     20  H   LIG d   1       2.949   1.867  -9.361  0.00  0.00     0.031 H 
ATOM     21  H   LIG d   1       1.938   2.260  -7.949  0.00  0.00     0.031 H 
ATOM     22  H   LIG d   1       3.712   2.305  -7.813  0.00  0.00     0.031 H 
ENDBRANCH  17  19
ENDBRANCH   5  17
BRANCH   4  23
ATOM     23  O   LIG d   1       5.452  -0.695  -8.344  0.00  0.00    -0.506 OA
ATOM     24  H   LIG d   1       5.913   0.098  -8.649  0.00  0.00     0.292 HD
ENDBRANCH   4  23
TORSDOF 6
ENDMDL
MODEL 4
REMARK VINA RESULT:      -4.5      2.394      3.525
REMARK  6 active torsions:
REMARK  status: ('A' for Active; 'I' for Inactive)
REMARK    1  A    between atoms: C_1  and  C_2 
REMARK    2  A    between atoms: C_2  and  C_4 
REMARK    3  A    between atoms: C_5  and  O_15 
REMARK    4  A    between atoms: C_7  and  O_14 
REMARK    5  A    between atoms: C_8  and  C_11 
REMARK    6  A    between atoms: C_11  and  C_13 
ROOT
ATOM      1  C   LIG d   1       5.055  -0.784  -3.619  0.00  0.00     0.052 A 
ATOM      2  C   LIG d   1       4.151  -1.807  -3.968  0.00  0.00     0.130 A 
ATOM      3  C   LIG d   1       4.620  -3.012  -4.462  0.00  0.00     0.023 A 
ATOM      4  C   LIG d   1       5.978  -3.226  -4.617  0.00  0.00     0.130 A 
ATOM      5  C   LIG d   1       6.900  -2.216  -4.274  0.00  0.00     0.052 A 
ATOM      6  C   LIG d   1       6.434  -0.988  -3.778  0.00  0.00    -0.080 A 
ATOM      7  O   LIG d   1       7.311  -0.011  -3.451  0.00  0.00    -0.873 OA
ATOM      8  H   LIG d   1       3.920  -3.792  -4.726  0.00  0.00     0.069 H 
ENDROOT
BRANCH   1   9
ATOM      9  C   LIG d   1       4.558   0.488  -3.097  0.00  0.00     0.163 C 
ATOM     10  O   LIG d   1       4.084   1.310  -3.854  0.00  0.00    -0.292 OA
BRANCH   9  11
ATOM     11  C   LIG d   1       4.633   0.777  -1.620  0.00  0.00    -0.001 C 
ATOM     12  H   LIG d   1       5.676   0.784  -1.304  0.00  0.00     0.031 H 
ATOM     13  H   LIG d   1       4.184   1.748  -1.416  0.00  0.00     0.031 H 
ATOM     14  H   LIG d   1       4.093   0.004  -1.071  0.00  0.00     0.031 H 
ENDBRANCH   9  11
ENDBRANCH   1   9
BRANCH   2  15
ATOM     15  O   LIG d   1       2.819  -1.610  -3.821  0.00  0.00    -0.506 OA
ATOM     16  H   LIG d   1       2.284  -1.986  -4.533  0.00  0.00     0.292 HD
ENDBRANCH   2  15
BRANCH   5  17
ATOM     17  C   LIG d   1       8.334  -2.444  -4.440  0.00  0.00     0.163 C 
ATOM     18  O   LIG d   1       8.921  -3.193  -3.686  0.00  0.00    -0.292 OA
BRANCH  17  19
ATOM     19  C   LIG d   1       9.085  -1.749  -5.546  0.00  0.00    -0.001 C 
ATOM     20  H   LIG d   1       8.392  -1.484  -6.345  0.00  0.00     0.031 H 
ATOM     21  H   LIG d   1       9.552  -0.844  -5.156  0.00  0.00     0.031 H 
ATOM     22  H   LIG d   1       9.854  -2.414  -5.937  0.00  0.00     0.031 H 
ENDBRANCH  17  19
ENDBRANCH   5  17
BRANCH   4  23
ATOM     23  O   LIG d   1       6.425  -4.411  -5.101  0.00  0.00    -0.506 OA
ATOM     24  H   LIG d   1       6.097  -4.623  -5.985  0.00  0.00     0.292 HD
ENDBRANCH   4  23
TORSDOF 6
ENDMDL
MODEL 5
REMARK VINA RESULT:      -4.5      2.388      4.512
REMARK  6 active torsions:
REMARK  status: ('A' for Active; 'I' for Inactive)
REMARK    1  A    between atoms: C_1  and  C_2 
REMARK    2  A    between atoms: C_2  and  C_4 
REMARK    3  A    between atoms: C_5  and  O_15 
REMARK    4  A    between atoms: C_7  and  O_14 
REMARK    5  A    between atoms: C_8  and  C_11 
REMARK    6  A    between atoms: C_11  and  C_13 
ROOT
ATOM      1  C   LIG d   1       6.867  -2.169  -4.307  0.00  0.00     0.052 A 
ATOM      2  C   LIG d   1       5.945  -3.186  -4.624  0.00  0.00     0.130 A 
ATOM      3  C   LIG d   1       4.589  -2.981  -4.433  0.00  0.00     0.023 A 
ATOM      4  C   LIG d   1       4.126  -1.778  -3.930  0.00  0.00     0.130 A 
ATOM      5  C   LIG d   1       5.031  -0.748  -3.606  0.00  0.00     0.052 A 
ATOM      6  C   LIG d   1       6.409  -0.948  -3.791  0.00  0.00    -0.080 A 
ATOM      7  O   LIG d   1       7.286   0.034  -3.479  0.00  0.00    -0.873 OA
ATOM      8  H   LIG d   1       3.888  -3.765  -4.680  0.00  0.00     0.069 H 
ENDROOT
BRANCH   1   9
ATOM      9  C   LIG d   1       8.299  -2.387  -4.511  0.00  0.00     0.163 C 
ATOM     10  O   LIG d   1       8.917  -3.103  -3.750  0.00  0.00    -0.292 OA
BRANCH   9  11
ATOM     11  C   LIG d   1       9.005  -1.724  -5.666  0.00  0.00    -0.001 C 
ATOM     12  H   LIG d   1       9.466  -2.486  -6.294  0.00  0.00     0.031 H 
ATOM     13  H   LIG d   1       8.286  -1.154  -6.253  0.00  0.00     0.031 H 
ATOM     14  H   LIG d   1       9.776  -1.054  -5.284  0.00  0.00     0.031 H 
ENDBRANCH   9  11
ENDBRANCH   1   9
BRANCH   2  15
ATOM     15  O   LIG d   1       6.386  -4.368  -5.117  0.00  0.00    -0.506 OA
ATOM     16  H   LIG d   1       7.112  -4.758  -4.613  0.00  0.00     0.292 HD
ENDBRANCH   2  15
BRANCH   5  17
ATOM     17  C   LIG d   1       4.539   0.522  -3.075  0.00  0.00     0.163 C 
ATOM     18  O   LIG d   1       4.070   1.353  -3.825  0.00  0.00    -0.292 OA
BRANCH  17  19
ATOM     19  C   LIG d   1       4.616   0.800  -1.596  0.00  0.00    -0.001 C 
ATOM     20  H   LIG d   1       3.914   1.595  -1.338  0.00  0.00     0.031 H 
ATOM     21  H   LIG d   1       4.359  -0.103  -1.042  0.00  0.00     0.031 H 
ATOM     22  H   LIG d   1       5.627   1.110  -1.336  0.00  0.00     0.031 H 
ENDBRANCH  17  19
ENDBRANCH   5  17
BRANCH   4  23
ATOM     23  O   LIG d   1       2.796  -1.589  -3.748  0.00  0.00    -0.506 OA
ATOM     24  H   LIG d   1       2.291  -2.409  -3.667  0.00  0.00     0.292 HD
ENDBRANCH   4  23
TORSDOF 6
ENDMDL
MODEL 6
REMARK VINA RESULT:      -4.4      1.885      3.768
REMARK  6 active torsions:
REMARK  status: ('A' for Active; 'I' for Inactive)
REMARK    1  A    between atoms: C_1  and  C_2 
REMARK    2  A    between atoms: C_2  and  C_4 
REMARK    3  A    between atoms: C_5  and  O_15 
REMARK    4  A    between atoms: C_7  and  O_14 
REMARK    5  A    between atoms: C_8  and  C_11 
REMARK    6  A    between atoms: C_11  and  C_13 
ROOT
ATOM      1  C   LIG d   1       6.290  -0.247  -5.695  0.00  0.00     0.052 A 
ATOM      2  C   LIG d   1       5.191  -0.387  -6.566  0.00  0.00     0.130 A 
ATOM      3  C   LIG d   1       3.911  -0.517  -6.057  0.00  0.00     0.023 A 
ATOM      4  C   LIG d   1       3.695  -0.513  -4.690  0.00  0.00     0.130 A 
ATOM      5  C   LIG d   1       4.780  -0.374  -3.801  0.00  0.00     0.052 A 
ATOM      6  C   LIG d   1       6.083  -0.247  -4.307  0.00  0.00    -0.080 A 
ATOM      7  O   LIG d   1       7.132  -0.119  -3.462  0.00  0.00    -0.873 OA
ATOM      8  H   LIG d   1       3.073  -0.623  -6.732  0.00  0.00     0.069 H 
ENDROOT
BRANCH   1   9
ATOM      9  C   LIG d   1       7.641  -0.108  -6.235  0.00  0.00     0.163 C 
ATOM     10  O   LIG d   1       8.262  -1.094  -6.577  0.00  0.00    -0.292 OA
BRANCH   9  11
ATOM     11  C   LIG d   1       8.262   1.258  -6.369  0.00  0.00    -0.001 C 
ATOM     12  H   LIG d   1       9.012   1.394  -5.589  0.00  0.00     0.031 H 
ATOM     13  H   LIG d   1       8.734   1.350  -7.346  0.00  0.00     0.031 H 
ATOM     14  H   LIG d   1       7.489   2.021  -6.265  0.00  0.00     0.031 H 
ENDBRANCH   9  11
ENDBRANCH   1   9
BRANCH   2  15
ATOM     15  O   LIG d   1       5.389  -0.393  -7.907  0.00  0.00    -0.506 OA
ATOM     16  H   LIG d   1       6.228  -0.788  -8.178  0.00  0.00     0.292 HD
ENDBRANCH   2  15
BRANCH   5  17
ATOM     17  C   LIG d   1       4.551  -0.369  -2.357  0.00  0.00     0.163 C 
ATOM     18  O   LIG d   1       4.391  -1.416  -1.764  0.00  0.00    -0.292 OA
BRANCH  17  19
ATOM     19  C   LIG d   1       4.510   0.935  -1.605  0.00  0.00    -0.001 C 
ATOM     20  H   LIG d   1       3.899   1.653  -2.154  0.00  0.00     0.031 H 
ATOM     21  H   LIG d   1       4.079   0.773  -0.617  0.00  0.00     0.031 H 
ATOM     22  H   LIG d   1       5.522   1.326  -1.499  0.00  0.00     0.031 H 
ENDBRANCH  17  19
ENDBRANCH   5  17
BRANCH   4  23
ATOM     23  O   LIG d   1       2.437  -0.640  -4.204  0.00  0.00    -0.506 OA
ATOM     24  H   LIG d   1       2.208   0.015  -3.531  0.00  0.00     0.292 HD
ENDBRANCH   4  23
TORSDOF 6
ENDMDL
MODEL 7
REMARK VINA RESULT:      -4.4     11.422     13.032
REMARK  6 active torsions:
REMARK  status: ('A' for Active; 'I' for Inactive)
REMARK    1  A    between atoms: C_1  and  C_2 
REMARK    2  A    between atoms: C_2  and  C_4 
REMARK    3  A    between atoms: C_5  and  O_15 
REMARK    4  A    between atoms: C_7  and  O_14 
REMARK    5  A    between atoms: C_8  and  C_11 
REMARK    6  A    between atoms: C_11  and  C_13 
ROOT
ATOM      1  C   LIG d   1      10.590   8.025  -0.059  0.00  0.00     0.052 A 
ATOM      2  C   LIG d   1       9.409   8.529  -0.641  0.00  0.00     0.130 A 
ATOM      3  C   LIG d   1       9.123   9.881  -0.577  0.00  0.00     0.023 A 
ATOM      4  C   LIG d   1       9.990  10.753   0.058  0.00  0.00     0.130 A 
ATOM      5  C   LIG d   1      11.177  10.270   0.646  0.00  0.00     0.052 A 
ATOM      6  C   LIG d   1      11.473   8.899   0.592  0.00  0.00    -0.080 A 
ATOM      7  O   LIG d   1      12.607   8.426   1.158  0.00  0.00    -0.873 OA
ATOM      8  H   LIG d   1       8.216  10.260  -1.026  0.00  0.00     0.069 H 
ENDROOT
BRANCH   1   9
ATOM      9  C   LIG d   1      10.891   6.596  -0.129  0.00  0.00     0.163 C 
ATOM     10  O   LIG d   1      10.453   5.842   0.715  0.00  0.00    -0.292 OA
BRANCH   9  11
ATOM     11  C   LIG d   1      11.743   6.060  -1.251  0.00  0.00    -0.001 C 
ATOM     12  H   LIG d   1      12.212   5.128  -0.936  0.00  0.00     0.031 H 
ATOM     13  H   LIG d   1      11.120   5.877  -2.126  0.00  0.00     0.031 H 
ATOM     14  H   LIG d   1      12.516   6.789  -1.500  0.00  0.00     0.031 H 
ENDBRANCH   9  11
ENDBRANCH   1   9
BRANCH   2  15
ATOM     15  O   LIG d   1       8.552   7.686  -1.265  0.00  0.00    -0.506 OA
ATOM     16  H   LIG d   1       8.923   6.813  -1.450  0.00  0.00     0.292 HD
ENDBRANCH   2  15
BRANCH   5  17
ATOM     17  C   LIG d   1      12.092  11.193   1.317  0.00  0.00     0.163 C 
ATOM     18  O   LIG d   1      11.870  11.547   2.456  0.00  0.00    -0.292 OA
BRANCH  17  19
ATOM     19  C   LIG d   1      13.309  11.706   0.592  0.00  0.00    -0.001 C 
ATOM     20  H   LIG d   1      13.424  11.170  -0.351  0.00  0.00     0.031 H 
ATOM     21  H   LIG d   1      13.191  12.771   0.392  0.00  0.00     0.031 H 
ATOM     22  H   LIG d   1      14.193  11.548   1.209  0.00  0.00     0.031 H 
ENDBRANCH  17  19
ENDBRANCH   5  17
BRANCH   4  23
ATOM     23  O   LIG d   1       9.699  12.075   0.114  0.00  0.00    -0.506 OA
ATOM     24  H   LIG d   1       9.737  12.522  -0.743  0.00  0.00     0.292 HD
ENDBRANCH   4  23
TORSDOF 6
ENDMDL
MODEL 8
REMARK VINA RESULT:      -4.3     11.424     13.135
REMARK  6 active torsions:
REMARK  status: ('A' for Active; 'I' for Inactive)
REMARK    1  A    between atoms: C_1  and  C_2 
REMARK    2  A    between atoms: C_2  and  C_4 
REMARK    3  A    between atoms: C_5  and  O_15 
REMARK    4  A    between atoms: C_7  and  O_14 
REMARK    5  A    between atoms: C_8  and  C_11 
REMARK    6  A    between atoms: C_11  and  C_13 
ROOT
ATOM      1  C   LIG d   1      11.178  10.268   0.657  0.00  0.00     0.052 A 
ATOM      2  C   LIG d   1       9.993  10.753   0.069  0.00  0.00     0.130 A 
ATOM      3  C   LIG d   1       9.125   9.884  -0.568  0.00  0.00     0.023 A 
ATOM      4  C   LIG d   1       9.410   8.531  -0.635  0.00  0.00     0.130 A 
ATOM      5  C   LIG d   1      10.589   8.025  -0.053  0.00  0.00     0.052 A 
ATOM      6  C   LIG d   1      11.479   8.899   0.590  0.00  0.00    -0.080 A 
ATOM      7  O   LIG d   1      12.617   8.423   1.147  0.00  0.00    -0.873 OA
ATOM      8  H   LIG d   1       8.217  10.264  -1.015  0.00  0.00     0.069 H 
ENDROOT
BRANCH   1   9
ATOM      9  C   LIG d   1      12.093  11.188   1.331  0.00  0.00     0.163 C 
ATOM     10  O   LIG d   1      11.876  11.531   2.475  0.00  0.00    -0.292 OA
BRANCH   9  11
ATOM     11  C   LIG d   1      13.307  11.709   0.604  0.00  0.00    -0.001 C 
ATOM     12  H   LIG d   1      13.869  10.872   0.191  0.00  0.00     0.031 H 
ATOM     13  H   LIG d   1      12.992  12.370  -0.202  0.00  0.00     0.031 H 
ATOM     14  H   LIG d   1      13.938  12.261   1.301  0.00  0.00     0.031 H 
ENDBRANCH   9  11
ENDBRANCH   1   9
BRANCH   2  15
ATOM     15  O   LIG d   1       9.703  12.075   0.128  0.00  0.00    -0.506 OA
ATOM     16  H   LIG d   1       9.944  12.494   0.965  0.00  0.00     0.292 HD
ENDBRANCH   2  15
BRANCH   5  17
ATOM     17  C   LIG d   1      10.888   6.596  -0.125  0.00  0.00     0.163 C 
ATOM     18  O   LIG d   1      10.456   5.841   0.722  0.00  0.00    -0.292 OA
BRANCH  17  19
ATOM     19  C   LIG d   1      11.735   6.059  -1.250  0.00  0.00    -0.001 C 
ATOM     20  H   LIG d   1      11.815   6.810  -2.036  0.00  0.00     0.031 H 
ATOM     21  H   LIG d   1      12.730   5.820  -0.874  0.00  0.00     0.031 H 
ATOM     22  H   LIG d   1      11.274   5.158  -1.654  0.00  0.00     0.031 H 
ENDBRANCH  17  19
ENDBRANCH   5  17
BRANCH   4  23
ATOM     23  O   LIG d   1       8.551   7.690  -1.260  0.00  0.00    -0.506 OA
ATOM     24  H   LIG d   1       7.675   8.067  -1.415  0.00  0.00     0.292 HD
ENDBRANCH   4  23
TORSDOF 6
ENDMDL
MODEL 9
REMARK VINA RESULT:      -4.2      3.062      4.625
REMARK  6 active torsions:
REMARK  status: ('A' for Active; 'I' for Inactive)
REMARK    1  A    between atoms: C_1  and  C_2 
REMARK    2  A    between atoms: C_2  and  C_4 
REMARK    3  A    between atoms: C_5  and  O_15 
REMARK    4  A    between atoms: C_7  and  O_14 
REMARK    5  A    between atoms: C_8  and  C_11 
REMARK    6  A    between atoms: C_11  and  C_13 
ROOT
ATOM      1  C   LIG d   1       4.488  -3.447  -6.178  0.00  0.00     0.052 A 
ATOM      2  C   LIG d   1       4.435  -2.966  -7.502  0.00  0.00     0.130 A 
ATOM      3  C   LIG d   1       4.310  -1.610  -7.745  0.00  0.00     0.023 A 
ATOM      4  C   LIG d   1       4.234  -0.712  -6.695  0.00  0.00     0.130 A 
ATOM      5  C   LIG d   1       4.285  -1.172  -5.363  0.00  0.00     0.052 A 
ATOM      6  C   LIG d   1       4.406  -2.546  -5.106  0.00  0.00    -0.080 A 
ATOM      7  O   LIG d   1       4.451  -2.998  -3.831  0.00  0.00    -0.873 OA
ATOM      8  H   LIG d   1       4.271  -1.248  -8.763  0.00  0.00     0.069 H 
ENDROOT
BRANCH   1   9
ATOM      9  C   LIG d   1       4.622  -4.881  -5.923  0.00  0.00     0.163 C 
ATOM     10  O   LIG d   1       3.639  -5.592  -5.928  0.00  0.00    -0.292 OA
BRANCH   9  11
ATOM     11  C   LIG d   1       5.982  -5.474  -5.656  0.00  0.00    -0.001 C 
ATOM     12  H   LIG d   1       5.865  -6.477  -5.247  0.00  0.00     0.031 H 
ATOM     13  H   LIG d   1       6.547  -5.524  -6.586  0.00  0.00     0.031 H 
ATOM     14  H   LIG d   1       6.516  -4.850  -4.939  0.00  0.00     0.031 H 
ENDBRANCH   9  11
ENDBRANCH   1   9
BRANCH   2  15
ATOM     15  O   LIG d   1       4.508  -3.835  -8.539  0.00  0.00    -0.506 OA
ATOM     16  H   LIG d   1       5.409  -4.016  -8.838  0.00  0.00     0.292 HD
ENDBRANCH   2  15
BRANCH   5  17
ATOM     17  C   LIG d   1       4.205  -0.222  -4.255  0.00  0.00     0.163 C 
ATOM     18  O   LIG d   1       5.153   0.490  -3.996  0.00  0.00    -0.292 OA
BRANCH  17  19
ATOM     19  C   LIG d   1       2.945  -0.127  -3.433  0.00  0.00    -0.001 C 
ATOM     20  H   LIG d   1       3.006  -0.821  -2.594  0.00  0.00     0.031 H 
ATOM     21  H   LIG d   1       2.833   0.889  -3.056  0.00  0.00     0.031 H 
ATOM     22  H   LIG d   1       2.086  -0.382  -4.053  0.00  0.00     0.031 H 
ENDBRANCH  17  19
ENDBRANCH   5  17
BRANCH   4  23
ATOM     23  O   LIG d   1       4.112   0.614  -6.946  0.00  0.00    -0.506 OA
ATOM     24  H   LIG d   1       4.952   1.091  -6.957  0.00  0.00     0.292 HD
ENDBRANCH   4  23
TORSDOF 6
ENDMDL
MODEL 10
REMARK VINA RESULT:      -4.0      7.949      9.709
REMARK  6 active torsions:
REMARK  status: ('A' for Active; 'I' for Inactive)
REMARK    1  A    between atoms: C_1  and  C_2 
REMARK    2  A    between atoms: C_2  and  C_4 
REMARK    3  A    between atoms: C_5  and  O_15 
REMARK    4  A    between atoms: C_7  and  O_14 
REMARK    5  A    between atoms: C_8  and  C_11 
REMARK    6  A    between atoms: C_11  and  C_13 
ROOT
ATOM      1  C   LIG d   1      10.660   5.211  -3.273  0.00  0.00     0.052 A 
ATOM      2  C   LIG d   1      11.296   4.456  -2.268  0.00  0.00     0.130 A 
ATOM      3  C   LIG d   1      11.263   4.882  -0.951  0.00  0.00     0.023 A 
ATOM      4  C   LIG d   1      10.607   6.051  -0.608  0.00  0.00     0.130 A 
ATOM      5  C   LIG d   1       9.965   6.821  -1.598  0.00  0.00     0.052 A 
ATOM      6  C   LIG d   1       9.997   6.401  -2.937  0.00  0.00    -0.080 A 
ATOM      7  O   LIG d   1       9.387   7.136  -3.896  0.00  0.00    -0.873 OA
ATOM      8  H   LIG d   1      11.753   4.297  -0.186  0.00  0.00     0.069 H 
ENDROOT
BRANCH   1   9
ATOM      9  C   LIG d   1      10.695   4.759  -4.663  0.00  0.00     0.163 C 
ATOM     10  O   LIG d   1      11.669   4.985  -5.351  0.00  0.00    -0.292 OA
BRANCH   9  11
ATOM     11  C   LIG d   1       9.522   4.010  -5.242  0.00  0.00    -0.001 C 
ATOM     12  H   LIG d   1       9.854   3.038  -5.604  0.00  0.00     0.031 H 
ATOM     13  H   LIG d   1       8.763   3.871  -4.472  0.00  0.00     0.031 H 
ATOM     14  H   LIG d   1       9.099   4.580  -6.069  0.00  0.00     0.031 H 
ENDBRANCH   9  11
ENDBRANCH   1   9
BRANCH   2  15
ATOM     15  O   LIG d   1      11.942   3.310  -2.591  0.00  0.00    -0.506 OA
ATOM     16  H   LIG d   1      12.202   2.776  -1.829  0.00  0.00     0.292 HD
ENDBRANCH   2  15
BRANCH   5  17
ATOM     17  C   LIG d   1       9.272   8.056  -1.234  0.00  0.00     0.163 C 
ATOM     18  O   LIG d   1       8.138   8.012  -0.805  0.00  0.00    -0.292 OA
BRANCH  17  19
ATOM     19  C   LIG d   1       9.967   9.384  -1.391  0.00  0.00    -0.001 C 
ATOM     20  H   LIG d   1       9.724   9.808  -2.366  0.00  0.00     0.031 H 
ATOM     21  H   LIG d   1       9.633  10.064  -0.607  0.00  0.00     0.031 H 
ATOM     22  H   LIG d   1      11.044   9.243  -1.314  0.00  0.00     0.031 H 
ENDBRANCH  17  19
ENDBRANCH   5  17
BRANCH   4  23
ATOM     23  O   LIG d   1      10.582   6.457   0.684  0.00  0.00    -0.506 OA
ATOM     24  H   LIG d   1      11.455   6.513   1.096  0.00  0.00     0.292 HD
ENDBRANCH   4  23
TORSDOF 6
ENDMDL
