MODEL 1
REMARK VINA RESULT:      -7.1      0.000      0.000
REMARK  9 active torsions:
REMARK  status: ('A' for Active; 'I' for Inactive)
REMARK    1  A    between atoms: C_1  and  C_2 
REMARK    2  A    between atoms: C_2  and  O_3 
REMARK    3  A    between atoms: O_3  and  C_4 
REMARK    4  A    between atoms: C_7  and  C_13 
REMARK    5  A    between atoms: C_9  and  N_10 
REMARK    6  A    between atoms: C_13  and  C_15 
REMARK    7  A    between atoms: C_15  and  N_16 
REMARK    8  A    between atoms: C_20  and  C_22 
REMARK    9  A    between atoms: C_22  and  C_24 
ROOT
ATOM      1  C   LIG d   1       6.148  -4.962  -7.030  0.00  0.00     0.212 C 
ATOM      2  H   LIG d   1       7.083  -5.443  -7.315  0.00  0.00     0.112 H 
ATOM      3  H   LIG d   1       5.757  -4.397  -7.876  0.00  0.00     0.112 H 
ENDROOT
BRANCH   1   4
ATOM      4  C   LIG d   1       5.147  -6.010  -6.620  0.00  0.00     0.228 C 
ATOM      5  O   LIG d   1       3.993  -5.922  -6.983  0.00  0.00    -0.285 OA
BRANCH   4   6
ATOM      6  C   LIG d   1       5.569  -7.139  -5.780  0.00  0.00     0.030 A 
ATOM      7  C   LIG d   1       6.912  -7.273  -5.407  0.00  0.00    -0.047 A 
ATOM      8  C   LIG d   1       7.302  -8.323  -4.625  0.00  0.00    -0.013 A 
ATOM      9  H   LIG d   1       7.639  -6.546  -5.737  0.00  0.00     0.063 H 
ATOM     10  C   LIG d   1       6.370  -9.263  -4.198  0.00  0.00     0.198 A 
ATOM     11  H   LIG d   1       8.339  -8.425  -4.338  0.00  0.00     0.066 H 
ATOM     12  C   LIG d   1       5.034  -9.142  -4.567  0.00  0.00     0.315 A 
ATOM     13  C   LIG d   1       4.629  -8.085  -5.350  0.00  0.00     0.030 A 
ATOM     14  H   LIG d   1       3.593  -7.986  -5.635  0.00  0.00     0.069 H 
BRANCH  10  15
ATOM     15  O   LIG d   1       6.764 -10.303  -3.422  0.00  0.00    -0.486 OA
BRANCH  15  16
ATOM     16  C   LIG d   1       6.982 -10.031  -2.035  0.00  0.00     0.087 C 
ATOM     17  H   LIG d   1       6.710  -8.997  -1.821  0.00  0.00     0.069 H 
ATOM     18  H   LIG d   1       8.034 -10.187  -1.796  0.00  0.00     0.069 H 
BRANCH  16  19
ATOM     19  C   LIG d   1       6.121 -10.971  -1.190  0.00  0.00    -0.031 C 
ATOM     20  H   LIG d   1       5.798 -11.815  -1.800  0.00  0.00     0.026 H 
ATOM     21  H   LIG d   1       6.704 -11.336  -0.344  0.00  0.00     0.026 H 
ATOM     22  H   LIG d   1       5.247 -10.432  -0.824  0.00  0.00     0.026 H 
ENDBRANCH  16  19
ENDBRANCH  15  16
ENDBRANCH  10  15
BRANCH  12  23
ATOM     23  N   LIG d   1       4.047 -10.148  -4.115  0.00  0.00     0.083 N 
ATOM     24  O   LIG d   1       3.170  -9.830  -3.345  0.00  0.00     0.042 OA
ATOM     25  O   LIG d   1       4.117 -11.286  -4.514  0.00  0.00    -0.576 OA
ENDBRANCH  12  23
ENDBRANCH   4   6
ENDBRANCH   1   4
BRANCH   1  26
ATOM     26  N   LIG d   1       6.389  -4.051  -5.907  0.00  0.00    -0.196 N 
ATOM     27  C   LIG d   1       5.372  -3.671  -5.163  0.00  0.00     0.182 A 
ATOM     28  C   LIG d   1       5.566  -2.808  -4.083  0.00  0.00     0.086 A 
ATOM     29  H   LIG d   1       4.380  -4.032  -5.388  0.00  0.00     0.138 H 
ATOM     30  C   LIG d   1       6.860  -2.345  -3.811  0.00  0.00    -0.040 A 
ATOM     31  C   LIG d   1       7.894  -2.771  -4.626  0.00  0.00     0.003 A 
ATOM     32  H   LIG d   1       7.047  -1.673  -2.985  0.00  0.00     0.063 H 
ATOM     33  C   LIG d   1       7.619  -3.632  -5.674  0.00  0.00     0.172 A 
ATOM     34  H   LIG d   1       8.904  -2.435  -4.447  0.00  0.00     0.068 H 
ATOM     35  H   LIG d   1       8.423  -3.965  -6.312  0.00  0.00     0.138 H 
BRANCH  28  36
ATOM     36  C   LIG d   1       4.426  -2.384  -3.244  0.00  0.00     0.199 C 
ATOM     37  O   LIG d   1       3.724  -3.219  -2.707  0.00  0.00    -0.286 OA
BRANCH  36  38
ATOM     38  C   LIG d   1       4.139  -0.947  -3.057  0.00  0.00     0.022 A 
ATOM     39  C   LIG d   1       4.592  -0.284  -1.915  0.00  0.00    -0.051 A 
ATOM     40  C   LIG d   1       4.325   1.059  -1.750  0.00  0.00    -0.061 A 
ATOM     41  H   LIG d   1       5.154  -0.820  -1.164  0.00  0.00     0.062 H 
ATOM     42  C   LIG d   1       3.600   1.747  -2.708  0.00  0.00    -0.062 A 
ATOM     43  H   LIG d   1       4.678   1.574  -0.868  0.00  0.00     0.062 H 
ATOM     44  C   LIG d   1       3.145   1.094  -3.840  0.00  0.00    -0.061 A 
ATOM     45  H   LIG d   1       3.391   2.797  -2.572  0.00  0.00     0.062 H 
ATOM     46  C   LIG d   1       3.409  -0.247  -4.021  0.00  0.00    -0.051 A 
ATOM     47  H   LIG d   1       2.580   1.637  -4.583  0.00  0.00     0.062 H 
ATOM     48  H   LIG d   1       3.052  -0.755  -4.905  0.00  0.00     0.062 H 
ENDBRANCH  36  38
ENDBRANCH  28  36
ENDBRANCH   1  26
TORSDOF 9
ENDMDL
MODEL 2
REMARK VINA RESULT:      -7.0      1.807      2.852
REMARK  9 active torsions:
REMARK  status: ('A' for Active; 'I' for Inactive)
REMARK    1  A    between atoms: C_1  and  C_2 
REMARK    2  A    between atoms: C_2  and  O_3 
REMARK    3  A    between atoms: O_3  and  C_4 
REMARK    4  A    between atoms: C_7  and  C_13 
REMARK    5  A    between atoms: C_9  and  N_10 
REMARK    6  A    between atoms: C_13  and  C_15 
REMARK    7  A    between atoms: C_15  and  N_16 
REMARK    8  A    between atoms: C_20  and  C_22 
REMARK    9  A    between atoms: C_22  and  C_24 
ROOT
ATOM      1  C   LIG d   1       9.263  -4.677  -4.464  0.00  0.00     0.212 C 
ATOM      2  H   LIG d   1       9.028  -5.058  -3.470  0.00  0.00     0.112 H 
ATOM      3  H   LIG d   1      10.316  -4.397  -4.506  0.00  0.00     0.112 H 
ENDROOT
BRANCH   1   4
ATOM      4  C   LIG d   1       8.986  -5.744  -5.491  0.00  0.00     0.228 C 
ATOM      5  O   LIG d   1       9.775  -5.940  -6.391  0.00  0.00    -0.285 OA
BRANCH   4   6
ATOM      6  C   LIG d   1       7.758  -6.546  -5.402  0.00  0.00     0.030 A 
ATOM      7  C   LIG d   1       7.754  -7.747  -4.684  0.00  0.00    -0.047 A 
ATOM      8  C   LIG d   1       6.611  -8.491  -4.603  0.00  0.00    -0.013 A 
ATOM      9  H   LIG d   1       8.655  -8.086  -4.194  0.00  0.00     0.063 H 
ATOM     10  C   LIG d   1       5.448  -8.060  -5.233  0.00  0.00     0.198 A 
ATOM     11  H   LIG d   1       6.610  -9.418  -4.048  0.00  0.00     0.066 H 
ATOM     12  C   LIG d   1       5.443  -6.869  -5.954  0.00  0.00     0.315 A 
ATOM     13  C   LIG d   1       6.588  -6.110  -6.037  0.00  0.00     0.030 A 
ATOM     14  H   LIG d   1       6.585  -5.184  -6.592  0.00  0.00     0.069 H 
BRANCH  10  15
ATOM     15  O   LIG d   1       4.317  -8.803  -5.148  0.00  0.00    -0.486 OA
BRANCH  15  16
ATOM     16  C   LIG d   1       4.416 -10.059  -4.472  0.00  0.00     0.087 C 
ATOM     17  H   LIG d   1       5.449 -10.227  -4.167  0.00  0.00     0.069 H 
ATOM     18  H   LIG d   1       4.102 -10.858  -5.144  0.00  0.00     0.069 H 
BRANCH  16  19
ATOM     19  C   LIG d   1       3.514 -10.045  -3.237  0.00  0.00    -0.031 C 
ATOM     20  H   LIG d   1       2.747  -9.280  -3.356  0.00  0.00     0.026 H 
ATOM     21  H   LIG d   1       3.041 -11.020  -3.122  0.00  0.00     0.026 H 
ATOM     22  H   LIG d   1       4.113  -9.825  -2.353  0.00  0.00     0.026 H 
ENDBRANCH  16  19
ENDBRANCH  15  16
ENDBRANCH  10  15
BRANCH  12  23
ATOM     23  N   LIG d   1       4.205  -6.418  -6.627  0.00  0.00     0.083 N 
ATOM     24  O   LIG d   1       3.878  -6.909  -7.683  0.00  0.00     0.042 OA
ATOM     25  O   LIG d   1       3.520  -5.560  -6.122  0.00  0.00    -0.576 OA
ENDBRANCH  12  23
ENDBRANCH   4   6
ENDBRANCH   1   4
BRANCH   1  26
ATOM     26  N   LIG d   1       8.435  -3.501  -4.744  0.00  0.00    -0.196 N 
ATOM     27  C   LIG d   1       7.227  -3.433  -4.226  0.00  0.00     0.182 A 
ATOM     28  C   LIG d   1       6.411  -2.325  -4.469  0.00  0.00     0.086 A 
ATOM     29  H   LIG d   1       6.864  -4.238  -3.605  0.00  0.00     0.138 H 
ATOM     30  C   LIG d   1       6.898  -1.293  -5.282  0.00  0.00    -0.040 A 
ATOM     31  C   LIG d   1       8.172  -1.417  -5.806  0.00  0.00     0.003 A 
ATOM     32  H   LIG d   1       6.293  -0.423  -5.494  0.00  0.00     0.063 H 
ATOM     33  C   LIG d   1       8.919  -2.545  -5.513  0.00  0.00     0.172 A 
ATOM     34  H   LIG d   1       8.580  -0.641  -6.437  0.00  0.00     0.068 H 
ATOM     35  H   LIG d   1       9.913  -2.643  -5.921  0.00  0.00     0.138 H 
BRANCH  28  36
ATOM     36  C   LIG d   1       5.057  -2.245  -3.884  0.00  0.00     0.199 C 
ATOM     37  O   LIG d   1       4.366  -3.243  -3.813  0.00  0.00    -0.286 OA
BRANCH  36  38
ATOM     38  C   LIG d   1       4.542  -0.954  -3.386  0.00  0.00     0.022 A 
ATOM     39  C   LIG d   1       4.996  -0.440  -2.169  0.00  0.00    -0.051 A 
ATOM     40  C   LIG d   1       4.515   0.770  -1.712  0.00  0.00    -0.061 A 
ATOM     41  H   LIG d   1       5.724  -0.986  -1.588  0.00  0.00     0.062 H 
ATOM     42  C   LIG d   1       3.576   1.468  -2.452  0.00  0.00    -0.062 A 
ATOM     43  H   LIG d   1       4.867   1.169  -0.773  0.00  0.00     0.062 H 
ATOM     44  C   LIG d   1       3.120   0.963  -3.656  0.00  0.00    -0.061 A 
ATOM     45  H   LIG d   1       3.201   2.413  -2.088  0.00  0.00     0.062 H 
ATOM     46  C   LIG d   1       3.596  -0.242  -4.128  0.00  0.00    -0.051 A 
ATOM     47  H   LIG d   1       2.388   1.514  -4.228  0.00  0.00     0.062 H 
ATOM     48  H   LIG d   1       3.238  -0.635  -5.068  0.00  0.00     0.062 H 
ENDBRANCH  36  38
ENDBRANCH  28  36
ENDBRANCH   1  26
TORSDOF 9
ENDMDL
MODEL 3
REMARK VINA RESULT:      -7.0      4.254      7.882
REMARK  9 active torsions:
REMARK  status: ('A' for Active; 'I' for Inactive)
REMARK    1  A    between atoms: C_1  and  C_2 
REMARK    2  A    between atoms: C_2  and  O_3 
REMARK    3  A    between atoms: O_3  and  C_4 
REMARK    4  A    between atoms: C_7  and  C_13 
REMARK    5  A    between atoms: C_9  and  N_10 
REMARK    6  A    between atoms: C_13  and  C_15 
REMARK    7  A    between atoms: C_15  and  N_16 
REMARK    8  A    between atoms: C_20  and  C_22 
REMARK    9  A    between atoms: C_22  and  C_24 
ROOT
ATOM      1  C   LIG d   1       8.194  -1.605  -6.281  0.00  0.00     0.212 C 
ATOM      2  H   LIG d   1       8.626  -1.967  -7.213  0.00  0.00     0.112 H 
ATOM      3  H   LIG d   1       8.945  -1.642  -5.492  0.00  0.00     0.112 H 
ENDROOT
BRANCH   1   4
ATOM      4  C   LIG d   1       7.726  -0.184  -6.462  0.00  0.00     0.228 C 
ATOM      5  O   LIG d   1       8.076   0.675  -5.680  0.00  0.00    -0.285 OA
BRANCH   4   6
ATOM      6  C   LIG d   1       6.845   0.160  -7.586  0.00  0.00     0.030 A 
ATOM      7  C   LIG d   1       7.360   0.234  -8.885  0.00  0.00    -0.047 A 
ATOM      8  C   LIG d   1       6.538   0.555  -9.929  0.00  0.00    -0.013 A 
ATOM      9  H   LIG d   1       8.407   0.038  -9.063  0.00  0.00     0.063 H 
ATOM     10  C   LIG d   1       5.189   0.809  -9.706  0.00  0.00     0.198 A 
ATOM     11  H   LIG d   1       6.937   0.611 -10.931  0.00  0.00     0.066 H 
ATOM     12  C   LIG d   1       4.668   0.743  -8.417  0.00  0.00     0.315 A 
ATOM     13  C   LIG d   1       5.486   0.416  -7.359  0.00  0.00     0.030 A 
ATOM     14  H   LIG d   1       5.084   0.361  -6.359  0.00  0.00     0.069 H 
BRANCH  10  15
ATOM     15  O   LIG d   1       4.379   1.126 -10.746  0.00  0.00    -0.486 OA
BRANCH  15  16
ATOM     16  C   LIG d   1       4.270   0.164 -11.798  0.00  0.00     0.087 C 
ATOM     17  H   LIG d   1       5.122  -0.514 -11.761  0.00  0.00     0.069 H 
ATOM     18  H   LIG d   1       4.256   0.678 -12.759  0.00  0.00     0.069 H 
BRANCH  16  19
ATOM     19  C   LIG d   1       2.975  -0.633 -11.627  0.00  0.00    -0.031 C 
ATOM     20  H   LIG d   1       3.214  -1.656 -11.339  0.00  0.00     0.026 H 
ATOM     21  H   LIG d   1       2.363  -0.170 -10.853  0.00  0.00     0.026 H 
ATOM     22  H   LIG d   1       2.426  -0.640 -12.569  0.00  0.00     0.026 H 
ENDBRANCH  16  19
ENDBRANCH  15  16
ENDBRANCH  10  15
BRANCH  12  23
ATOM     23  N   LIG d   1       3.233   1.021  -8.184  0.00  0.00     0.083 N 
ATOM     24  O   LIG d   1       2.870   2.143  -7.920  0.00  0.00     0.042 OA
ATOM     25  O   LIG d   1       2.424   0.126  -8.258  0.00  0.00    -0.576 OA
ENDBRANCH  12  23
ENDBRANCH   4   6
ENDBRANCH   1   4
BRANCH   1  26
ATOM     26  N   LIG d   1       7.055  -2.450  -5.909  0.00  0.00    -0.196 N 
ATOM     27  C   LIG d   1       6.288  -2.084  -4.905  0.00  0.00     0.182 A 
ATOM     28  C   LIG d   1       5.192  -2.862  -4.527  0.00  0.00     0.086 A 
ATOM     29  H   LIG d   1       6.504  -1.170  -4.372  0.00  0.00     0.138 H 
ATOM     30  C   LIG d   1       4.931  -4.047  -5.228  0.00  0.00    -0.040 A 
ATOM     31  C   LIG d   1       5.772  -4.390  -6.272  0.00  0.00     0.003 A 
ATOM     32  H   LIG d   1       4.095  -4.676  -4.961  0.00  0.00     0.063 H 
ATOM     33  C   LIG d   1       6.834  -3.560  -6.588  0.00  0.00     0.172 A 
ATOM     34  H   LIG d   1       5.601  -5.296  -6.835  0.00  0.00     0.068 H 
ATOM     35  H   LIG d   1       7.491  -3.826  -7.402  0.00  0.00     0.138 H 
BRANCH  28  36
ATOM     36  C   LIG d   1       4.327  -2.449  -3.403  0.00  0.00     0.199 C 
ATOM     37  O   LIG d   1       3.805  -3.290  -2.698  0.00  0.00    -0.286 OA
BRANCH  36  38
ATOM     38  C   LIG d   1       4.096  -1.015  -3.137  0.00  0.00     0.022 A 
ATOM     39  C   LIG d   1       3.354  -0.245  -4.037  0.00  0.00    -0.051 A 
ATOM     40  C   LIG d   1       3.137   1.092  -3.779  0.00  0.00    -0.061 A 
ATOM     41  H   LIG d   1       2.948  -0.697  -4.930  0.00  0.00     0.062 H 
ATOM     42  C   LIG d   1       3.662   1.675  -2.638  0.00  0.00    -0.062 A 
ATOM     43  H   LIG d   1       2.561   1.688  -4.472  0.00  0.00     0.062 H 
ATOM     44  C   LIG d   1       4.401   0.919  -1.745  0.00  0.00    -0.061 A 
ATOM     45  H   LIG d   1       3.492   2.723  -2.444  0.00  0.00     0.062 H 
ATOM     46  C   LIG d   1       4.620  -0.421  -1.987  0.00  0.00    -0.051 A 
ATOM     47  H   LIG d   1       4.806   1.380  -0.857  0.00  0.00     0.062 H 
ATOM     48  H   LIG d   1       5.198  -1.009  -1.289  0.00  0.00     0.062 H 
ENDBRANCH  36  38
ENDBRANCH  28  36
ENDBRANCH   1  26
TORSDOF 9
ENDMDL
MODEL 4
REMARK VINA RESULT:      -6.8      4.356      7.651
REMARK  9 active torsions:
REMARK  status: ('A' for Active; 'I' for Inactive)
REMARK    1  A    between atoms: C_1  and  C_2 
REMARK    2  A    between atoms: C_2  and  O_3 
REMARK    3  A    between atoms: O_3  and  C_4 
REMARK    4  A    between atoms: C_7  and  C_13 
REMARK    5  A    between atoms: C_9  and  N_10 
REMARK    6  A    between atoms: C_13  and  C_15 
REMARK    7  A    between atoms: C_15  and  N_16 
REMARK    8  A    between atoms: C_20  and  C_22 
REMARK    9  A    between atoms: C_22  and  C_24 
ROOT
ATOM      1  C   LIG d   1       4.733  -4.401  -7.946  0.00  0.00     0.212 C 
ATOM      2  H   LIG d   1       5.469  -3.618  -8.126  0.00  0.00     0.112 H 
ATOM      3  H   LIG d   1       5.188  -5.376  -8.126  0.00  0.00     0.112 H 
ENDROOT
BRANCH   1   4
ATOM      4  C   LIG d   1       4.256  -4.325  -6.519  0.00  0.00     0.228 C 
ATOM      5  O   LIG d   1       3.464  -5.142  -6.100  0.00  0.00    -0.285 OA
BRANCH   4   6
ATOM      6  C   LIG d   1       4.751  -3.260  -5.636  0.00  0.00     0.030 A 
ATOM      7  C   LIG d   1       4.410  -3.258  -4.278  0.00  0.00    -0.047 A 
ATOM      8  C   LIG d   1       4.872  -2.268  -3.459  0.00  0.00    -0.013 A 
ATOM      9  H   LIG d   1       3.781  -4.040  -3.878  0.00  0.00     0.063 H 
ATOM     10  C   LIG d   1       5.681  -1.257  -3.969  0.00  0.00     0.198 A 
ATOM     11  H   LIG d   1       4.608  -2.267  -2.412  0.00  0.00     0.066 H 
ATOM     12  C   LIG d   1       6.022  -1.247  -5.318  0.00  0.00     0.315 A 
ATOM     13  C   LIG d   1       5.567  -2.244  -6.151  0.00  0.00     0.030 A 
ATOM     14  H   LIG d   1       5.833  -2.241  -7.197  0.00  0.00     0.069 H 
BRANCH  10  15
ATOM     15  O   LIG d   1       6.136  -0.277  -3.150  0.00  0.00    -0.486 OA
BRANCH  15  16
ATOM     16  C   LIG d   1       5.311   0.881  -3.005  0.00  0.00     0.087 C 
ATOM     17  H   LIG d   1       4.556   0.890  -3.792  0.00  0.00     0.069 H 
ATOM     18  H   LIG d   1       5.926   1.778  -3.082  0.00  0.00     0.069 H 
BRANCH  16  19
ATOM     19  C   LIG d   1       4.623   0.849  -1.639  0.00  0.00    -0.031 C 
ATOM     20  H   LIG d   1       4.412   1.868  -1.314  0.00  0.00     0.026 H 
ATOM     21  H   LIG d   1       3.690   0.290  -1.715  0.00  0.00     0.026 H 
ATOM     22  H   LIG d   1       5.279   0.366  -0.914  0.00  0.00     0.026 H 
ENDBRANCH  16  19
ENDBRANCH  15  16
ENDBRANCH  10  15
BRANCH  12  23
ATOM     23  N   LIG d   1       6.879  -0.167  -5.856  0.00  0.00     0.083 N 
ATOM     24  O   LIG d   1       6.376   0.781  -6.414  0.00  0.00     0.042 OA
ATOM     25  O   LIG d   1       8.080  -0.232  -5.738  0.00  0.00    -0.576 OA
ENDBRANCH  12  23
ENDBRANCH   4   6
ENDBRANCH   1   4
BRANCH   1  26
ATOM     26  N   LIG d   1       3.595  -4.219  -8.852  0.00  0.00    -0.196 N 
ATOM     27  C   LIG d   1       3.255  -3.001  -9.213  0.00  0.00     0.182 A 
ATOM     28  C   LIG d   1       2.179  -2.791 -10.078  0.00  0.00     0.086 A 
ATOM     29  H   LIG d   1       3.815  -2.155  -8.841  0.00  0.00     0.138 H 
ATOM     30  C   LIG d   1       1.461  -3.899 -10.546  0.00  0.00    -0.040 A 
ATOM     31  C   LIG d   1       1.857  -5.159 -10.131  0.00  0.00     0.003 A 
ATOM     32  H   LIG d   1       0.621  -3.774 -11.213  0.00  0.00     0.063 H 
ATOM     33  C   LIG d   1       2.938  -5.282  -9.276  0.00  0.00     0.172 A 
ATOM     34  H   LIG d   1       1.327  -6.036 -10.471  0.00  0.00     0.068 H 
ATOM     35  H   LIG d   1       3.248  -6.264  -8.951  0.00  0.00     0.138 H 
BRANCH  28  36
ATOM     36  C   LIG d   1       1.799  -1.423 -10.489  0.00  0.00     0.199 C 
ATOM     37  O   LIG d   1       0.859  -1.254 -11.242  0.00  0.00    -0.286 OA
BRANCH  36  38
ATOM     38  C   LIG d   1       2.560  -0.262  -9.986  0.00  0.00     0.022 A 
ATOM     39  C   LIG d   1       2.359   0.197  -8.682  0.00  0.00    -0.051 A 
ATOM     40  C   LIG d   1       3.078   1.278  -8.216  0.00  0.00    -0.061 A 
ATOM     41  H   LIG d   1       1.646  -0.296  -8.038  0.00  0.00     0.062 H 
ATOM     42  C   LIG d   1       3.988   1.916  -9.042  0.00  0.00    -0.062 A 
ATOM     43  H   LIG d   1       2.926   1.632  -7.207  0.00  0.00     0.062 H 
ATOM     44  C   LIG d   1       4.188   1.469 -10.336  0.00  0.00    -0.061 A 
ATOM     45  H   LIG d   1       4.545   2.765  -8.674  0.00  0.00     0.062 H 
ATOM     46  C   LIG d   1       3.481   0.385 -10.813  0.00  0.00    -0.051 A 
ATOM     47  H   LIG d   1       4.900   1.971 -10.975  0.00  0.00     0.062 H 
ATOM     48  H   LIG d   1       3.639   0.038 -11.824  0.00  0.00     0.062 H 
ENDBRANCH  36  38
ENDBRANCH  28  36
ENDBRANCH   1  26
TORSDOF 9
ENDMDL
MODEL 5
REMARK VINA RESULT:      -6.8      3.590      5.933
REMARK  9 active torsions:
REMARK  status: ('A' for Active; 'I' for Inactive)
REMARK    1  A    between atoms: C_1  and  C_2 
REMARK    2  A    between atoms: C_2  and  O_3 
REMARK    3  A    between atoms: O_3  and  C_4 
REMARK    4  A    between atoms: C_7  and  C_13 
REMARK    5  A    between atoms: C_9  and  N_10 
REMARK    6  A    between atoms: C_13  and  C_15 
REMARK    7  A    between atoms: C_15  and  N_16 
REMARK    8  A    between atoms: C_20  and  C_22 
REMARK    9  A    between atoms: C_22  and  C_24 
ROOT
ATOM      1  C   LIG d   1       7.023  -1.151  -3.471  0.00  0.00     0.212 C 
ATOM      2  H   LIG d   1       7.377  -1.039  -2.446  0.00  0.00     0.112 H 
ATOM      3  H   LIG d   1       7.456  -0.367  -4.093  0.00  0.00     0.112 H 
ENDROOT
BRANCH   1   4
ATOM      4  C   LIG d   1       7.437  -2.499  -4.003  0.00  0.00     0.228 C 
ATOM      5  O   LIG d   1       8.245  -3.169  -3.395  0.00  0.00    -0.285 OA
BRANCH   4   6
ATOM      6  C   LIG d   1       6.862  -3.000  -5.258  0.00  0.00     0.030 A 
ATOM      7  C   LIG d   1       7.233  -2.425  -6.479  0.00  0.00    -0.047 A 
ATOM      8  C   LIG d   1       6.697  -2.893  -7.646  0.00  0.00    -0.013 A 
ATOM      9  H   LIG d   1       7.943  -1.611  -6.500  0.00  0.00     0.063 H 
ATOM     10  C   LIG d   1       5.783  -3.941  -7.626  0.00  0.00     0.198 A 
ATOM     11  H   LIG d   1       6.984  -2.448  -8.587  0.00  0.00     0.066 H 
ATOM     12  C   LIG d   1       5.404  -4.516  -6.417  0.00  0.00     0.315 A 
ATOM     13  C   LIG d   1       5.941  -4.055  -5.236  0.00  0.00     0.030 A 
ATOM     14  H   LIG d   1       5.652  -4.502  -4.297  0.00  0.00     0.069 H 
BRANCH  10  15
ATOM     15  O   LIG d   1       5.255  -4.401  -8.787  0.00  0.00    -0.486 OA
BRANCH  15  16
ATOM     16  C   LIG d   1       6.040  -4.228  -9.969  0.00  0.00     0.087 C 
ATOM     17  H   LIG d   1       6.319  -5.204 -10.366  0.00  0.00     0.069 H 
ATOM     18  H   LIG d   1       6.941  -3.664  -9.727  0.00  0.00     0.069 H 
BRANCH  16  19
ATOM     19  C   LIG d   1       5.226  -3.465 -11.015  0.00  0.00    -0.031 C 
ATOM     20  H   LIG d   1       5.455  -3.852 -12.008  0.00  0.00     0.026 H 
ATOM     21  H   LIG d   1       4.162  -3.592 -10.811  0.00  0.00     0.026 H 
ATOM     22  H   LIG d   1       5.480  -2.405 -10.971  0.00  0.00     0.026 H 
ENDBRANCH  16  19
ENDBRANCH  15  16
ENDBRANCH  10  15
BRANCH  12  23
ATOM     23  N   LIG d   1       4.425  -5.627  -6.400  0.00  0.00     0.083 N 
ATOM     24  O   LIG d   1       4.805  -6.768  -6.525  0.00  0.00     0.042 OA
ATOM     25  O   LIG d   1       3.248  -5.393  -6.262  0.00  0.00    -0.576 OA
ENDBRANCH  12  23
ENDBRANCH   4   6
ENDBRANCH   1   4
BRANCH   1  26
ATOM     26  N   LIG d   1       5.562  -1.043  -3.498  0.00  0.00    -0.196 N 
ATOM     27  C   LIG d   1       4.995  -0.267  -4.397  0.00  0.00     0.182 A 
ATOM     28  C   LIG d   1       3.605  -0.143  -4.454  0.00  0.00     0.086 A 
ATOM     29  H   LIG d   1       5.610   0.277  -5.100  0.00  0.00     0.138 H 
ATOM     30  C   LIG d   1       2.825  -0.852  -3.530  0.00  0.00    -0.040 A 
ATOM     31  C   LIG d   1       3.471  -1.650  -2.602  0.00  0.00     0.003 A 
ATOM     32  H   LIG d   1       1.748  -0.778  -3.543  0.00  0.00     0.063 H 
ATOM     33  C   LIG d   1       4.853  -1.722  -2.616  0.00  0.00     0.172 A 
ATOM     34  H   LIG d   1       2.903  -2.211  -1.876  0.00  0.00     0.068 H 
ATOM     35  H   LIG d   1       5.359  -2.344  -1.893  0.00  0.00     0.138 H 
BRANCH  28  36
ATOM     36  C   LIG d   1       2.967   0.724  -5.466  0.00  0.00     0.199 C 
ATOM     37  O   LIG d   1       2.386   1.734  -5.120  0.00  0.00    -0.286 OA
BRANCH  36  38
ATOM     38  C   LIG d   1       3.035   0.363  -6.897  0.00  0.00     0.022 A 
ATOM     39  C   LIG d   1       2.791   1.329  -7.876  0.00  0.00    -0.051 A 
ATOM     40  C   LIG d   1       2.862   0.987  -9.210  0.00  0.00    -0.061 A 
ATOM     41  H   LIG d   1       2.553   2.343  -7.589  0.00  0.00     0.062 H 
ATOM     42  C   LIG d   1       3.161  -0.314  -9.579  0.00  0.00    -0.062 A 
ATOM     43  H   LIG d   1       2.677   1.733  -9.968  0.00  0.00     0.062 H 
ATOM     44  C   LIG d   1       3.399  -1.276  -8.614  0.00  0.00    -0.061 A 
ATOM     45  H   LIG d   1       3.211  -0.577 -10.626  0.00  0.00     0.062 H 
ATOM     46  C   LIG d   1       3.338  -0.946  -7.277  0.00  0.00    -0.051 A 
ATOM     47  H   LIG d   1       3.632  -2.288  -8.910  0.00  0.00     0.062 H 
ATOM     48  H   LIG d   1       3.523  -1.699  -6.525  0.00  0.00     0.062 H 
ENDBRANCH  36  38
ENDBRANCH  28  36
ENDBRANCH   1  26
TORSDOF 9
ENDMDL
MODEL 6
REMARK VINA RESULT:      -6.8      1.456      1.840
REMARK  9 active torsions:
REMARK  status: ('A' for Active; 'I' for Inactive)
REMARK    1  A    between atoms: C_1  and  C_2 
REMARK    2  A    between atoms: C_2  and  O_3 
REMARK    3  A    between atoms: O_3  and  C_4 
REMARK    4  A    between atoms: C_7  and  C_13 
REMARK    5  A    between atoms: C_9  and  N_10 
REMARK    6  A    between atoms: C_13  and  C_15 
REMARK    7  A    between atoms: C_15  and  N_16 
REMARK    8  A    between atoms: C_20  and  C_22 
REMARK    9  A    between atoms: C_22  and  C_24 
ROOT
ATOM      1  C   LIG d   1       4.380  -5.892  -6.861  0.00  0.00     0.212 C 
ATOM      2  H   LIG d   1       4.011  -6.111  -7.863  0.00  0.00     0.112 H 
ATOM      3  H   LIG d   1       3.660  -6.246  -6.123  0.00  0.00     0.112 H 
ENDROOT
BRANCH   1   4
ATOM      4  C   LIG d   1       5.700  -6.587  -6.648  0.00  0.00     0.228 C 
ATOM      5  O   LIG d   1       6.672  -6.254  -7.292  0.00  0.00    -0.285 OA
BRANCH   4   6
ATOM      6  C   LIG d   1       5.808  -7.669  -5.660  0.00  0.00     0.030 A 
ATOM      7  C   LIG d   1       7.044  -7.963  -5.072  0.00  0.00    -0.047 A 
ATOM      8  C   LIG d   1       7.142  -8.970  -4.154  0.00  0.00    -0.013 A 
ATOM      9  H   LIG d   1       7.921  -7.394  -5.345  0.00  0.00     0.063 H 
ATOM     10  C   LIG d   1       6.017  -9.706  -3.799  0.00  0.00     0.198 A 
ATOM     11  H   LIG d   1       8.097  -9.195  -3.701  0.00  0.00     0.066 H 
ATOM     12  C   LIG d   1       4.784  -9.426  -4.380  0.00  0.00     0.315 A 
ATOM     13  C   LIG d   1       4.674  -8.410  -5.303  0.00  0.00     0.030 A 
ATOM     14  H   LIG d   1       3.718  -8.188  -5.753  0.00  0.00     0.069 H 
BRANCH  10  15
ATOM     15  O   LIG d   1       6.121 -10.704  -2.886  0.00  0.00    -0.486 OA
BRANCH  15  16
ATOM     16  C   LIG d   1       6.271 -10.317  -1.518  0.00  0.00     0.087 C 
ATOM     17  H   LIG d   1       5.409 -10.661  -0.946  0.00  0.00     0.069 H 
ATOM     18  H   LIG d   1       6.340  -9.231  -1.453  0.00  0.00     0.069 H 
BRANCH  16  19
ATOM     19  C   LIG d   1       7.545 -10.944  -0.948  0.00  0.00    -0.031 C 
ATOM     20  H   LIG d   1       7.284 -11.811  -0.342  0.00  0.00     0.026 H 
ATOM     21  H   LIG d   1       8.194 -11.254  -1.767  0.00  0.00     0.026 H 
ATOM     22  H   LIG d   1       8.064 -10.212  -0.329  0.00  0.00     0.026 H 
ENDBRANCH  16  19
ENDBRANCH  15  16
ENDBRANCH  10  15
BRANCH  12  23
ATOM     23  N   LIG d   1       3.591 -10.216  -4.004  0.00  0.00     0.083 N 
ATOM     24  O   LIG d   1       2.861  -9.826  -3.123  0.00  0.00     0.042 OA
ATOM     25  O   LIG d   1       3.346 -11.251  -4.578  0.00  0.00    -0.576 OA
ENDBRANCH  12  23
ENDBRANCH   4   6
ENDBRANCH   1   4
BRANCH   1  26
ATOM     26  N   LIG d   1       4.560  -4.445  -6.712  0.00  0.00    -0.196 N 
ATOM     27  C   LIG d   1       5.036  -3.974  -5.580  0.00  0.00     0.182 A 
ATOM     28  C   LIG d   1       5.225  -2.602  -5.405  0.00  0.00     0.086 A 
ATOM     29  H   LIG d   1       5.287  -4.655  -4.779  0.00  0.00     0.138 H 
ATOM     30  C   LIG d   1       4.888  -1.734  -6.452  0.00  0.00    -0.040 A 
ATOM     31  C   LIG d   1       4.387  -2.281  -7.621  0.00  0.00     0.003 A 
ATOM     32  H   LIG d   1       5.018  -0.666  -6.351  0.00  0.00     0.063 H 
ATOM     33  C   LIG d   1       4.235  -3.653  -7.716  0.00  0.00     0.172 A 
ATOM     34  H   LIG d   1       4.117  -1.643  -8.449  0.00  0.00     0.068 H 
ATOM     35  H   LIG d   1       3.844  -4.081  -8.626  0.00  0.00     0.138 H 
BRANCH  28  36
ATOM     36  C   LIG d   1       5.764  -2.072  -4.135  0.00  0.00     0.199 C 
ATOM     37  O   LIG d   1       6.757  -2.572  -3.642  0.00  0.00    -0.286 OA
BRANCH  36  38
ATOM     38  C   LIG d   1       5.099  -0.936  -3.466  0.00  0.00     0.022 A 
ATOM     39  C   LIG d   1       5.814   0.231  -3.185  0.00  0.00    -0.051 A 
ATOM     40  C   LIG d   1       5.185   1.290  -2.566  0.00  0.00    -0.061 A 
ATOM     41  H   LIG d   1       6.857   0.305  -3.457  0.00  0.00     0.062 H 
ATOM     42  C   LIG d   1       3.850   1.194  -2.211  0.00  0.00    -0.062 A 
ATOM     43  H   LIG d   1       5.737   2.193  -2.351  0.00  0.00     0.062 H 
ATOM     44  C   LIG d   1       3.137   0.040  -2.483  0.00  0.00    -0.061 A 
ATOM     45  H   LIG d   1       3.364   2.025  -1.723  0.00  0.00     0.062 H 
ATOM     46  C   LIG d   1       3.752  -1.024  -3.108  0.00  0.00    -0.051 A 
ATOM     47  H   LIG d   1       2.096  -0.027  -2.204  0.00  0.00     0.062 H 
ATOM     48  H   LIG d   1       3.193  -1.924  -3.318  0.00  0.00     0.062 H 
ENDBRANCH  36  38
ENDBRANCH  28  36
ENDBRANCH   1  26
TORSDOF 9
ENDMDL
MODEL 7
REMARK VINA RESULT:      -6.7      7.411     12.124
REMARK  9 active torsions:
REMARK  status: ('A' for Active; 'I' for Inactive)
REMARK    1  A    between atoms: C_1  and  C_2 
REMARK    2  A    between atoms: C_2  and  O_3 
REMARK    3  A    between atoms: O_3  and  C_4 
REMARK    4  A    between atoms: C_7  and  C_13 
REMARK    5  A    between atoms: C_9  and  N_10 
REMARK    6  A    between atoms: C_13  and  C_15 
REMARK    7  A    between atoms: C_15  and  N_16 
REMARK    8  A    between atoms: C_20  and  C_22 
REMARK    9  A    between atoms: C_22  and  C_24 
ROOT
ATOM      1  C   LIG d   1      10.248   3.269  -4.752  0.00  0.00     0.212 C 
ATOM      2  H   LIG d   1       9.467   3.999  -4.965  0.00  0.00     0.112 H 
ATOM      3  H   LIG d   1      11.107   3.457  -5.397  0.00  0.00     0.112 H 
ENDROOT
BRANCH   1   4
ATOM      4  C   LIG d   1      10.667   3.385  -3.310  0.00  0.00     0.228 C 
ATOM      5  O   LIG d   1      11.230   2.459  -2.765  0.00  0.00    -0.285 OA
BRANCH   4   6
ATOM      6  C   LIG d   1      10.393   4.621  -2.564  0.00  0.00     0.030 A 
ATOM      7  C   LIG d   1       9.610   5.629  -3.138  0.00  0.00    -0.047 A 
ATOM      8  C   LIG d   1       9.357   6.777  -2.442  0.00  0.00    -0.013 A 
ATOM      9  H   LIG d   1       9.207   5.500  -4.131  0.00  0.00     0.063 H 
ATOM     10  C   LIG d   1       9.875   6.949  -1.162  0.00  0.00     0.198 A 
ATOM     11  H   LIG d   1       8.753   7.554  -2.886  0.00  0.00     0.066 H 
ATOM     12  C   LIG d   1      10.659   5.955  -0.584  0.00  0.00     0.315 A 
ATOM     13  C   LIG d   1      10.916   4.793  -1.275  0.00  0.00     0.030 A 
ATOM     14  H   LIG d   1      11.520   4.018  -0.828  0.00  0.00     0.069 H 
BRANCH  10  15
ATOM     15  O   LIG d   1       9.619   8.091  -0.477  0.00  0.00    -0.486 OA
BRANCH  15  16
ATOM     16  C   LIG d   1      10.337   9.261  -0.877  0.00  0.00     0.087 C 
ATOM     17  H   LIG d   1      10.015   9.561  -1.875  0.00  0.00     0.069 H 
ATOM     18  H   LIG d   1      11.405   9.046  -0.890  0.00  0.00     0.069 H 
BRANCH  16  19
ATOM     19  C   LIG d   1      10.056  10.394   0.112  0.00  0.00    -0.031 C 
ATOM     20  H   LIG d   1      10.817  10.393   0.891  0.00  0.00     0.026 H 
ATOM     21  H   LIG d   1      10.074  11.349  -0.414  0.00  0.00     0.026 H 
ATOM     22  H   LIG d   1       9.075  10.246   0.564  0.00  0.00     0.026 H 
ENDBRANCH  16  19
ENDBRANCH  15  16
ENDBRANCH  10  15
BRANCH  12  23
ATOM     23  N   LIG d   1      11.212   6.146   0.775  0.00  0.00     0.083 N 
ATOM     24  O   LIG d   1      10.648   5.665   1.730  0.00  0.00     0.042 OA
ATOM     25  O   LIG d   1      12.228   6.782   0.930  0.00  0.00    -0.576 OA
ENDBRANCH  12  23
ENDBRANCH   4   6
ENDBRANCH   1   4
BRANCH   1  26
ATOM     26  N   LIG d   1       9.736   1.919  -5.005  0.00  0.00    -0.196 N 
ATOM     27  C   LIG d   1       8.435   1.717  -4.994  0.00  0.00     0.182 A 
ATOM     28  C   LIG d   1       7.912   0.445  -5.235  0.00  0.00     0.086 A 
ATOM     29  H   LIG d   1       7.766   2.543  -4.801  0.00  0.00     0.138 H 
ATOM     30  C   LIG d   1       8.796  -0.615  -5.477  0.00  0.00    -0.040 A 
ATOM     31  C   LIG d   1      10.154  -0.350  -5.473  0.00  0.00     0.003 A 
ATOM     32  H   LIG d   1       8.426  -1.613  -5.664  0.00  0.00     0.063 H 
ATOM     33  C   LIG d   1      10.592   0.941  -5.231  0.00  0.00     0.172 A 
ATOM     34  H   LIG d   1      10.865  -1.142  -5.657  0.00  0.00     0.068 H 
ATOM     35  H   LIG d   1      11.651   1.149  -5.227  0.00  0.00     0.138 H 
BRANCH  28  36
ATOM     36  C   LIG d   1       6.452   0.218  -5.227  0.00  0.00     0.199 C 
ATOM     37  O   LIG d   1       5.826   0.258  -6.269  0.00  0.00    -0.286 OA
BRANCH  36  38
ATOM     38  C   LIG d   1       5.752  -0.057  -3.956  0.00  0.00     0.022 A 
ATOM     39  C   LIG d   1       5.414  -1.367  -3.610  0.00  0.00    -0.051 A 
ATOM     40  C   LIG d   1       4.767  -1.617  -2.418  0.00  0.00    -0.061 A 
ATOM     41  H   LIG d   1       5.663  -2.183  -4.272  0.00  0.00     0.062 H 
ATOM     42  C   LIG d   1       4.441  -0.571  -1.571  0.00  0.00    -0.062 A 
ATOM     43  H   LIG d   1       4.508  -2.630  -2.148  0.00  0.00     0.062 H 
ATOM     44  C   LIG d   1       4.769   0.729  -1.910  0.00  0.00    -0.061 A 
ATOM     45  H   LIG d   1       3.930  -0.773  -0.641  0.00  0.00     0.062 H 
ATOM     46  C   LIG d   1       5.423   0.993  -3.096  0.00  0.00    -0.051 A 
ATOM     47  H   LIG d   1       4.513   1.540  -1.245  0.00  0.00     0.062 H 
ATOM     48  H   LIG d   1       5.677   2.009  -3.359  0.00  0.00     0.062 H 
ENDBRANCH  36  38
ENDBRANCH  28  36
ENDBRANCH   1  26
TORSDOF 9
ENDMDL
MODEL 8
REMARK VINA RESULT:      -6.7      3.592      7.007
REMARK  9 active torsions:
REMARK  status: ('A' for Active; 'I' for Inactive)
REMARK    1  A    between atoms: C_1  and  C_2 
REMARK    2  A    between atoms: C_2  and  O_3 
REMARK    3  A    between atoms: O_3  and  C_4 
REMARK    4  A    between atoms: C_7  and  C_13 
REMARK    5  A    between atoms: C_9  and  N_10 
REMARK    6  A    between atoms: C_13  and  C_15 
REMARK    7  A    between atoms: C_15  and  N_16 
REMARK    8  A    between atoms: C_20  and  C_22 
REMARK    9  A    between atoms: C_22  and  C_24 
ROOT
ATOM      1  C   LIG d   1       5.761  -5.395  -6.984  0.00  0.00     0.212 C 
ATOM      2  H   LIG d   1       5.711  -6.482  -6.913  0.00  0.00     0.112 H 
ATOM      3  H   LIG d   1       6.131  -5.111  -7.969  0.00  0.00     0.112 H 
ENDROOT
BRANCH   1   4
ATOM      4  C   LIG d   1       4.386  -4.814  -6.777  0.00  0.00     0.228 C 
ATOM      5  O   LIG d   1       3.634  -5.308  -5.964  0.00  0.00    -0.285 OA
BRANCH   4   6
ATOM      6  C   LIG d   1       3.957  -3.648  -7.562  0.00  0.00     0.030 A 
ATOM      7  C   LIG d   1       3.348  -3.827  -8.809  0.00  0.00    -0.047 A 
ATOM      8  C   LIG d   1       2.950  -2.742  -9.537  0.00  0.00    -0.013 A 
ATOM      9  H   LIG d   1       3.192  -4.823  -9.197  0.00  0.00     0.063 H 
ATOM     10  C   LIG d   1       3.148  -1.456  -9.044  0.00  0.00     0.198 A 
ATOM     11  H   LIG d   1       2.480  -2.881 -10.500  0.00  0.00     0.066 H 
ATOM     12  C   LIG d   1       3.757  -1.267  -7.807  0.00  0.00     0.315 A 
ATOM     13  C   LIG d   1       4.158  -2.354  -7.063  0.00  0.00     0.030 A 
ATOM     14  H   LIG d   1       4.627  -2.211  -6.102  0.00  0.00     0.069 H 
BRANCH  10  15
ATOM     15  O   LIG d   1       2.750  -0.383  -9.771  0.00  0.00    -0.486 OA
BRANCH  15  16
ATOM     16  C   LIG d   1       3.641   0.074 -10.792  0.00  0.00     0.087 C 
ATOM     17  H   LIG d   1       3.217  -0.150 -11.771  0.00  0.00     0.069 H 
ATOM     18  H   LIG d   1       4.602  -0.430 -10.687  0.00  0.00     0.069 H 
BRANCH  16  19
ATOM     19  C   LIG d   1       3.840   1.584 -10.656  0.00  0.00    -0.031 C 
ATOM     20  H   LIG d   1       3.304   1.944  -9.778  0.00  0.00     0.026 H 
ATOM     21  H   LIG d   1       4.903   1.803 -10.548  0.00  0.00     0.026 H 
ATOM     22  H   LIG d   1       3.455   2.083 -11.545  0.00  0.00     0.026 H 
ENDBRANCH  16  19
ENDBRANCH  15  16
ENDBRANCH  10  15
BRANCH  12  23
ATOM     23  N   LIG d   1       3.972   0.102  -7.289  0.00  0.00     0.083 N 
ATOM     24  O   LIG d   1       3.125   0.629  -6.605  0.00  0.00     0.042 OA
ATOM     25  O   LIG d   1       4.993   0.694  -7.550  0.00  0.00    -0.576 OA
ENDBRANCH  12  23
ENDBRANCH   4   6
ENDBRANCH   1   4
BRANCH   1  26
ATOM     26  N   LIG d   1       6.669  -4.880  -5.955  0.00  0.00    -0.196 N 
ATOM     27  C   LIG d   1       6.631  -3.600  -5.653  0.00  0.00     0.182 A 
ATOM     28  C   LIG d   1       7.479  -3.076  -4.675  0.00  0.00     0.086 A 
ATOM     29  H   LIG d   1       5.936  -2.949  -6.163  0.00  0.00     0.138 H 
ATOM     30  C   LIG d   1       8.377  -3.934  -4.028  0.00  0.00    -0.040 A 
ATOM     31  C   LIG d   1       8.380  -5.271  -4.386  0.00  0.00     0.003 A 
ATOM     32  H   LIG d   1       9.050  -3.563  -3.269  0.00  0.00     0.063 H 
ATOM     33  C   LIG d   1       7.504  -5.712  -5.362  0.00  0.00     0.172 A 
ATOM     34  H   LIG d   1       9.059  -5.962  -3.909  0.00  0.00     0.068 H 
ATOM     35  H   LIG d   1       7.505  -6.755  -5.643  0.00  0.00     0.138 H 
BRANCH  28  36
ATOM     36  C   LIG d   1       7.434  -1.639  -4.331  0.00  0.00     0.199 C 
ATOM     37  O   LIG d   1       8.290  -0.887  -4.755  0.00  0.00    -0.286 OA
BRANCH  36  38
ATOM     38  C   LIG d   1       6.351  -1.118  -3.473  0.00  0.00     0.022 A 
ATOM     39  C   LIG d   1       5.411  -1.991  -2.920  0.00  0.00    -0.051 A 
ATOM     40  C   LIG d   1       4.406  -1.499  -2.115  0.00  0.00    -0.061 A 
ATOM     41  H   LIG d   1       5.474  -3.051  -3.120  0.00  0.00     0.062 H 
ATOM     42  C   LIG d   1       4.320  -0.140  -1.864  0.00  0.00    -0.062 A 
ATOM     43  H   LIG d   1       3.681  -2.173  -1.685  0.00  0.00     0.062 H 
ATOM     44  C   LIG d   1       5.244   0.731  -2.412  0.00  0.00    -0.061 A 
ATOM     45  H   LIG d   1       3.528   0.241  -1.236  0.00  0.00     0.062 H 
ATOM     46  C   LIG d   1       6.259   0.251  -3.213  0.00  0.00    -0.051 A 
ATOM     47  H   LIG d   1       5.172   1.789  -2.211  0.00  0.00     0.062 H 
ATOM     48  H   LIG d   1       6.979   0.933  -3.640  0.00  0.00     0.062 H 
ENDBRANCH  36  38
ENDBRANCH  28  36
ENDBRANCH   1  26
TORSDOF 9
ENDMDL
MODEL 9
REMARK VINA RESULT:      -6.6      5.016      8.750
REMARK  9 active torsions:
REMARK  status: ('A' for Active; 'I' for Inactive)
REMARK    1  A    between atoms: C_1  and  C_2 
REMARK    2  A    between atoms: C_2  and  O_3 
REMARK    3  A    between atoms: O_3  and  C_4 
REMARK    4  A    between atoms: C_7  and  C_13 
REMARK    5  A    between atoms: C_9  and  N_10 
REMARK    6  A    between atoms: C_13  and  C_15 
REMARK    7  A    between atoms: C_15  and  N_16 
REMARK    8  A    between atoms: C_20  and  C_22 
REMARK    9  A    between atoms: C_22  and  C_24 
ROOT
ATOM      1  C   LIG d   1       8.028  -0.651  -7.422  0.00  0.00     0.212 C 
ATOM      2  H   LIG d   1       7.364  -0.862  -8.260  0.00  0.00     0.112 H 
ATOM      3  H   LIG d   1       9.064  -0.771  -7.739  0.00  0.00     0.112 H 
ENDROOT
BRANCH   1   4
ATOM      4  C   LIG d   1       7.808   0.762  -6.949  0.00  0.00     0.228 C 
ATOM      5  O   LIG d   1       7.002   1.472  -7.512  0.00  0.00    -0.285 OA
BRANCH   4   6
ATOM      6  C   LIG d   1       8.572   1.280  -5.806  0.00  0.00     0.030 A 
ATOM      7  C   LIG d   1       7.913   1.935  -4.759  0.00  0.00    -0.047 A 
ATOM      8  C   LIG d   1       8.625   2.416  -3.697  0.00  0.00    -0.013 A 
ATOM      9  H   LIG d   1       6.840   2.060  -4.791  0.00  0.00     0.063 H 
ATOM     10  C   LIG d   1      10.006   2.258  -3.651  0.00  0.00     0.198 A 
ATOM     11  H   LIG d   1       8.114   2.921  -2.890  0.00  0.00     0.066 H 
ATOM     12  C   LIG d   1      10.672   1.613  -4.688  0.00  0.00     0.315 A 
ATOM     13  C   LIG d   1       9.963   1.120  -5.761  0.00  0.00     0.030 A 
ATOM     14  H   LIG d   1      10.477   0.616  -6.565  0.00  0.00     0.069 H 
BRANCH  10  15
ATOM     15  O   LIG d   1      10.707   2.737  -2.594  0.00  0.00    -0.486 OA
BRANCH  15  16
ATOM     16  C   LIG d   1      10.634   4.145  -2.352  0.00  0.00     0.087 C 
ATOM     17  H   LIG d   1      11.029   4.365  -1.360  0.00  0.00     0.069 H 
ATOM     18  H   LIG d   1       9.595   4.469  -2.411  0.00  0.00     0.069 H 
BRANCH  16  19
ATOM     19  C   LIG d   1      11.460   4.885  -3.406  0.00  0.00    -0.031 C 
ATOM     20  H   LIG d   1      10.924   4.884  -4.355  0.00  0.00     0.026 H 
ATOM     21  H   LIG d   1      11.625   5.913  -3.082  0.00  0.00     0.026 H 
ATOM     22  H   LIG d   1      12.421   4.385  -3.531  0.00  0.00     0.026 H 
ENDBRANCH  16  19
ENDBRANCH  15  16
ENDBRANCH  10  15
BRANCH  12  23
ATOM     23  N   LIG d   1      12.143   1.453  -4.638  0.00  0.00     0.083 N 
ATOM     24  O   LIG d   1      12.627   0.492  -4.086  0.00  0.00     0.042 OA
ATOM     25  O   LIG d   1      12.859   2.283  -5.147  0.00  0.00    -0.576 OA
ENDBRANCH  12  23
ENDBRANCH   4   6
ENDBRANCH   1   4
BRANCH   1  26
ATOM     26  N   LIG d   1       7.744  -1.583  -6.327  0.00  0.00    -0.196 N 
ATOM     27  C   LIG d   1       6.585  -1.506  -5.708  0.00  0.00     0.182 A 
ATOM     28  C   LIG d   1       6.278  -2.381  -4.663  0.00  0.00     0.086 A 
ATOM     29  H   LIG d   1       5.862  -0.764  -6.014  0.00  0.00     0.138 H 
ATOM     30  C   LIG d   1       7.230  -3.334  -4.278  0.00  0.00    -0.040 A 
ATOM     31  C   LIG d   1       8.435  -3.368  -4.957  0.00  0.00     0.003 A 
ATOM     32  H   LIG d   1       7.028  -4.024  -3.471  0.00  0.00     0.063 H 
ATOM     33  C   LIG d   1       8.659  -2.470  -5.986  0.00  0.00     0.172 A 
ATOM     34  H   LIG d   1       9.192  -4.090  -4.688  0.00  0.00     0.068 H 
ATOM     35  H   LIG d   1       9.599  -2.495  -6.517  0.00  0.00     0.138 H 
BRANCH  28  36
ATOM     36  C   LIG d   1       4.975  -2.299  -3.972  0.00  0.00     0.199 C 
ATOM     37  O   LIG d   1       4.291  -3.297  -3.846  0.00  0.00    -0.286 OA
BRANCH  36  38
ATOM     38  C   LIG d   1       4.503  -1.008  -3.433  0.00  0.00     0.022 A 
ATOM     39  C   LIG d   1       3.556  -0.259  -4.135  0.00  0.00    -0.051 A 
ATOM     40  C   LIG d   1       3.115   0.944  -3.624  0.00  0.00    -0.061 A 
ATOM     41  H   LIG d   1       3.166  -0.622  -5.074  0.00  0.00     0.062 H 
ATOM     42  C   LIG d   1       3.619   1.415  -2.423  0.00  0.00    -0.062 A 
ATOM     43  H   LIG d   1       2.381   1.522  -4.164  0.00  0.00     0.062 H 
ATOM     44  C   LIG d   1       4.560   0.680  -1.724  0.00  0.00    -0.061 A 
ATOM     45  H   LIG d   1       3.273   2.359  -2.029  0.00  0.00     0.062 H 
ATOM     46  C   LIG d   1       5.005  -0.527  -2.221  0.00  0.00    -0.051 A 
ATOM     47  H   LIG d   1       4.948   1.053  -0.788  0.00  0.00     0.062 H 
ATOM     48  H   LIG d   1       5.740  -1.100  -1.675  0.00  0.00     0.062 H 
ENDBRANCH  36  38
ENDBRANCH  28  36
ENDBRANCH   1  26
TORSDOF 9
ENDMDL
