MODEL 1
REMARK VINA RESULT:      -5.6      0.000      0.000
REMARK  2 active torsions:
REMARK  status: ('A' for Active; 'I' for Inactive)
REMARK    1  A    between atoms: C_5  and  O_7 
REMARK    2  A    between atoms: C_11  and  O_14 
ROOT
ATOM      1  C   LIG d   1       2.889  -1.208  -2.731  0.00  0.00    -0.058 A 
ATOM      2  C   LIG d   1       3.965  -2.019  -3.047  0.00  0.00    -0.058 A 
ATOM      3  C   LIG d   1       5.186  -1.468  -3.381  0.00  0.00    -0.031 A 
ATOM      4  C   LIG d   1       5.326  -0.077  -3.401  0.00  0.00     0.062 A 
ATOM      5  C   LIG d   1       4.234   0.744  -3.079  0.00  0.00     0.128 A 
ATOM      6  C   LIG d   1       3.017   0.167  -2.746  0.00  0.00    -0.019 A 
ATOM      7  C   LIG d   1       6.624   0.531  -3.735  0.00  0.00     0.169 C 
ATOM      8  O   LIG d   1       6.830   1.713  -3.552  0.00  0.00    -0.292 OA
ATOM      9  C   LIG d   1       7.692  -0.370  -4.320  0.00  0.00     0.037 C 
ATOM     10  C   LIG d   1       7.674  -1.679  -3.523  0.00  0.00     0.066 C 
ATOM     11  H   LIG d   1       7.815  -1.464  -2.464  0.00  0.00     0.060 H 
ATOM     12  C   LIG d   1       6.332  -2.379  -3.726  0.00  0.00    -0.000 C 
ATOM     13  H   LIG d   1       1.941  -1.653  -2.469  0.00  0.00     0.062 H 
ATOM     14  H   LIG d   1       3.849  -3.093  -3.033  0.00  0.00     0.062 H 
ATOM     15  H   LIG d   1       2.171   0.792  -2.500  0.00  0.00     0.065 H 
ATOM     16  H   LIG d   1       8.583   0.079  -4.246  0.00  0.00     0.037 H 
ATOM     17  H   LIG d   1       7.474  -0.571  -5.369  0.00  0.00     0.037 H 
ATOM     18  H   LIG d   1       6.290  -3.262  -3.089  0.00  0.00     0.034 H 
ATOM     19  H   LIG d   1       6.244  -2.686  -4.768  0.00  0.00     0.034 H 
ENDROOT
BRANCH  10  20
ATOM     20  O   LIG d   1       8.729  -2.530  -3.981  0.00  0.00    -0.391 OA
ATOM     21  H   LIG d   1       8.591  -2.882  -4.870  0.00  0.00     0.210 HD
ENDBRANCH  10  20
BRANCH   5  22
ATOM     22  O   LIG d   1       4.366   2.094  -3.099  0.00  0.00    -0.506 OA
ATOM     23  H   LIG d   1       3.564   2.571  -2.846  0.00  0.00     0.292 HD
ENDBRANCH   5  22
TORSDOF 2
ENDMDL
MODEL 2
REMARK VINA RESULT:      -5.6      1.885      2.777
REMARK  2 active torsions:
REMARK  status: ('A' for Active; 'I' for Inactive)
REMARK    1  A    between atoms: C_5  and  O_7 
REMARK    2  A    between atoms: C_11  and  O_14 
ROOT
ATOM      1  C   LIG d   1       3.577   1.040  -2.388  0.00  0.00    -0.058 A 
ATOM      2  C   LIG d   1       4.914   1.347  -2.576  0.00  0.00    -0.058 A 
ATOM      3  C   LIG d   1       5.756   0.455  -3.211  0.00  0.00    -0.031 A 
ATOM      4  C   LIG d   1       5.245  -0.766  -3.660  0.00  0.00     0.062 A 
ATOM      5  C   LIG d   1       3.890  -1.075  -3.469  0.00  0.00     0.128 A 
ATOM      6  C   LIG d   1       3.063  -0.163  -2.829  0.00  0.00    -0.019 A 
ATOM      7  C   LIG d   1       6.122  -1.723  -4.357  0.00  0.00     0.169 C 
ATOM      8  O   LIG d   1       5.664  -2.683  -4.941  0.00  0.00    -0.292 OA
ATOM      9  C   LIG d   1       7.614  -1.467  -4.315  0.00  0.00     0.037 C 
ATOM     10  C   LIG d   1       7.830   0.033  -4.544  0.00  0.00     0.066 C 
ATOM     11  H   LIG d   1       7.361   0.330  -5.482  0.00  0.00     0.060 H 
ATOM     12  C   LIG d   1       7.204   0.818  -3.393  0.00  0.00    -0.000 C 
ATOM     13  H   LIG d   1       2.930   1.748  -1.892  0.00  0.00     0.062 H 
ATOM     14  H   LIG d   1       5.302   2.291  -2.224  0.00  0.00     0.062 H 
ATOM     15  H   LIG d   1       2.019  -0.395  -2.675  0.00  0.00     0.065 H 
ATOM     16  H   LIG d   1       8.063  -2.003  -5.029  0.00  0.00     0.037 H 
ATOM     17  H   LIG d   1       8.012  -1.755  -3.341  0.00  0.00     0.037 H 
ATOM     18  H   LIG d   1       7.281   1.884  -3.605  0.00  0.00     0.034 H 
ATOM     19  H   LIG d   1       7.747   0.596  -2.475  0.00  0.00     0.034 H 
ENDROOT
BRANCH  10  20
ATOM     20  O   LIG d   1       9.231   0.309  -4.603  0.00  0.00    -0.391 OA
ATOM     21  H   LIG d   1       9.783  -0.372  -4.196  0.00  0.00     0.210 HD
ENDBRANCH  10  20
BRANCH   5  22
ATOM     22  O   LIG d   1       3.392  -2.259  -3.902  0.00  0.00    -0.506 OA
ATOM     23  H   LIG d   1       2.494  -2.202  -4.257  0.00  0.00     0.292 HD
ENDBRANCH   5  22
TORSDOF 2
ENDMDL
MODEL 3
REMARK VINA RESULT:      -5.4      2.357      2.665
REMARK  2 active torsions:
REMARK  status: ('A' for Active; 'I' for Inactive)
REMARK    1  A    between atoms: C_5  and  O_7 
REMARK    2  A    between atoms: C_11  and  O_14 
ROOT
ATOM      1  C   LIG d   1       4.243  -0.531  -1.744  0.00  0.00    -0.058 A 
ATOM      2  C   LIG d   1       4.792  -1.596  -2.438  0.00  0.00    -0.058 A 
ATOM      3  C   LIG d   1       4.747  -1.632  -3.818  0.00  0.00    -0.031 A 
ATOM      4  C   LIG d   1       4.135  -0.582  -4.510  0.00  0.00     0.062 A 
ATOM      5  C   LIG d   1       3.580   0.496  -3.804  0.00  0.00     0.128 A 
ATOM      6  C   LIG d   1       3.638   0.511  -2.418  0.00  0.00    -0.019 A 
ATOM      7  C   LIG d   1       4.093  -0.591  -5.981  0.00  0.00     0.169 C 
ATOM      8  O   LIG d   1       3.767   0.396  -6.607  0.00  0.00    -0.292 OA
ATOM      9  C   LIG d   1       4.468  -1.878  -6.686  0.00  0.00     0.037 C 
ATOM     10  C   LIG d   1       5.706  -2.445  -5.980  0.00  0.00     0.066 C 
ATOM     11  H   LIG d   1       6.499  -1.698  -5.980  0.00  0.00     0.060 H 
ATOM     12  C   LIG d   1       5.348  -2.806  -4.541  0.00  0.00    -0.000 C 
ATOM     13  H   LIG d   1       4.289  -0.515  -0.665  0.00  0.00     0.062 H 
ATOM     14  H   LIG d   1       5.261  -2.404  -1.897  0.00  0.00     0.062 H 
ATOM     15  H   LIG d   1       3.210   1.336  -1.867  0.00  0.00     0.065 H 
ATOM     16  H   LIG d   1       4.666  -1.686  -7.647  0.00  0.00     0.037 H 
ATOM     17  H   LIG d   1       3.645  -2.590  -6.621  0.00  0.00     0.037 H 
ATOM     18  H   LIG d   1       6.249  -3.124  -4.017  0.00  0.00     0.034 H 
ATOM     19  H   LIG d   1       4.631  -3.627  -4.547  0.00  0.00     0.034 H 
ENDROOT
BRANCH  10  20
ATOM     20  O   LIG d   1       6.153  -3.616  -6.668  0.00  0.00    -0.391 OA
ATOM     21  H   LIG d   1       6.420  -4.337  -6.083  0.00  0.00     0.210 HD
ENDBRANCH  10  20
BRANCH   5  22
ATOM     22  O   LIG d   1       2.985   1.515  -4.472  0.00  0.00    -0.506 OA
ATOM     23  H   LIG d   1       3.394   2.378  -4.319  0.00  0.00     0.292 HD
ENDBRANCH   5  22
TORSDOF 2
ENDMDL
MODEL 4
REMARK VINA RESULT:      -5.0      3.006      4.381
REMARK  2 active torsions:
REMARK  status: ('A' for Active; 'I' for Inactive)
REMARK    1  A    between atoms: C_5  and  O_7 
REMARK    2  A    between atoms: C_11  and  O_14 
ROOT
ATOM      1  C   LIG d   1       3.147  -1.342  -2.508  0.00  0.00    -0.058 A 
ATOM      2  C   LIG d   1       2.705  -0.471  -3.489  0.00  0.00    -0.058 A 
ATOM      3  C   LIG d   1       3.287  -0.469  -4.740  0.00  0.00    -0.031 A 
ATOM      4  C   LIG d   1       4.336  -1.354  -5.008  0.00  0.00     0.062 A 
ATOM      5  C   LIG d   1       4.783  -2.237  -4.013  0.00  0.00     0.128 A 
ATOM      6  C   LIG d   1       4.181  -2.221  -2.762  0.00  0.00    -0.019 A 
ATOM      7  C   LIG d   1       4.958  -1.382  -6.342  0.00  0.00     0.169 C 
ATOM      8  O   LIG d   1       5.712  -2.276  -6.665  0.00  0.00    -0.292 OA
ATOM      9  C   LIG d   1       4.626  -0.252  -7.296  0.00  0.00     0.037 C 
ATOM     10  C   LIG d   1       3.119   0.009  -7.190  0.00  0.00     0.066 C 
ATOM     11  H   LIG d   1       2.573  -0.912  -7.395  0.00  0.00     0.060 H 
ATOM     12  C   LIG d   1       2.786   0.494  -5.781  0.00  0.00    -0.000 C 
ATOM     13  H   LIG d   1       2.680  -1.334  -1.534  0.00  0.00     0.062 H 
ATOM     14  H   LIG d   1       1.896   0.212  -3.274  0.00  0.00     0.062 H 
ATOM     15  H   LIG d   1       4.522  -2.895  -1.990  0.00  0.00     0.065 H 
ATOM     16  H   LIG d   1       4.875  -0.519  -8.226  0.00  0.00     0.037 H 
ATOM     17  H   LIG d   1       5.179   0.644  -7.015  0.00  0.00     0.037 H 
ATOM     18  H   LIG d   1       1.704   0.593  -5.683  0.00  0.00     0.034 H 
ATOM     19  H   LIG d   1       3.249   1.467  -5.620  0.00  0.00     0.034 H 
ENDROOT
BRANCH  10  20
ATOM     20  O   LIG d   1       2.741   1.009  -8.140  0.00  0.00    -0.391 OA
ATOM     21  H   LIG d   1       2.767   0.707  -9.058  0.00  0.00     0.210 HD
ENDBRANCH  10  20
BRANCH   5  22
ATOM     22  O   LIG d   1       5.800  -3.095  -4.269  0.00  0.00    -0.506 OA
ATOM     23  H   LIG d   1       5.812  -3.874  -3.695  0.00  0.00     0.292 HD
ENDBRANCH   5  22
TORSDOF 2
ENDMDL
MODEL 5
REMARK VINA RESULT:      -5.0      1.403      3.866
REMARK  2 active torsions:
REMARK  status: ('A' for Active; 'I' for Inactive)
REMARK    1  A    between atoms: C_5  and  O_7 
REMARK    2  A    between atoms: C_11  and  O_14 
ROOT
ATOM      1  C   LIG d   1       7.368  -2.960  -4.697  0.00  0.00    -0.058 A 
ATOM      2  C   LIG d   1       6.051  -2.986  -4.269  0.00  0.00    -0.058 A 
ATOM      3  C   LIG d   1       5.470  -1.862  -3.717  0.00  0.00    -0.031 A 
ATOM      4  C   LIG d   1       6.226  -0.693  -3.591  0.00  0.00     0.062 A 
ATOM      5  C   LIG d   1       7.560  -0.667  -4.026  0.00  0.00     0.128 A 
ATOM      6  C   LIG d   1       8.123  -1.810  -4.577  0.00  0.00    -0.019 A 
ATOM      7  C   LIG d   1       5.620   0.523  -3.024  0.00  0.00     0.169 C 
ATOM      8  O   LIG d   1       6.177   1.598  -3.100  0.00  0.00    -0.292 OA
ATOM      9  C   LIG d   1       4.276   0.383  -2.337  0.00  0.00     0.037 C 
ATOM     10  C   LIG d   1       3.411  -0.537  -3.207  0.00  0.00     0.066 C 
ATOM     11  H   LIG d   1       3.347  -0.131  -4.216  0.00  0.00     0.060 H 
ATOM     12  C   LIG d   1       4.040  -1.927  -3.257  0.00  0.00    -0.000 C 
ATOM     13  H   LIG d   1       7.808  -3.846  -5.129  0.00  0.00     0.062 H 
ATOM     14  H   LIG d   1       5.474  -3.894  -4.367  0.00  0.00     0.062 H 
ATOM     15  H   LIG d   1       9.150  -1.799  -4.912  0.00  0.00     0.065 H 
ATOM     16  H   LIG d   1       3.854   1.285  -2.246  0.00  0.00     0.037 H 
ATOM     17  H   LIG d   1       4.409  -0.057  -1.349  0.00  0.00     0.037 H 
ATOM     18  H   LIG d   1       3.471  -2.552  -3.946  0.00  0.00     0.034 H 
ATOM     19  H   LIG d   1       4.004  -2.370  -2.262  0.00  0.00     0.034 H 
ENDROOT
BRANCH  10  20
ATOM     20  O   LIG d   1       2.099  -0.627  -2.645  0.00  0.00    -0.391 OA
ATOM     21  H   LIG d   1       1.810  -1.532  -2.465  0.00  0.00     0.210 HD
ENDBRANCH  10  20
BRANCH   5  22
ATOM     22  O   LIG d   1       8.297   0.464  -3.904  0.00  0.00    -0.506 OA
ATOM     23  H   LIG d   1       9.196   0.387  -4.250  0.00  0.00     0.292 HD
ENDBRANCH   5  22
TORSDOF 2
ENDMDL
MODEL 6
REMARK VINA RESULT:      -5.0      1.798      3.444
REMARK  2 active torsions:
REMARK  status: ('A' for Active; 'I' for Inactive)
REMARK    1  A    between atoms: C_5  and  O_7 
REMARK    2  A    between atoms: C_11  and  O_14 
ROOT
ATOM      1  C   LIG d   1       8.010   0.604  -4.315  0.00  0.00    -0.058 A 
ATOM      2  C   LIG d   1       7.664  -0.707  -4.593  0.00  0.00    -0.058 A 
ATOM      3  C   LIG d   1       6.482  -1.237  -4.117  0.00  0.00    -0.031 A 
ATOM      4  C   LIG d   1       5.634  -0.436  -3.345  0.00  0.00     0.062 A 
ATOM      5  C   LIG d   1       5.985   0.893  -3.065  0.00  0.00     0.128 A 
ATOM      6  C   LIG d   1       7.179   1.404  -3.555  0.00  0.00    -0.019 A 
ATOM      7  C   LIG d   1       4.360  -0.976  -2.845  0.00  0.00     0.169 C 
ATOM      8  O   LIG d   1       3.516  -0.249  -2.363  0.00  0.00    -0.292 OA
ATOM      9  C   LIG d   1       4.141  -2.472  -2.948  0.00  0.00     0.037 C 
ATOM     10  C   LIG d   1       4.637  -2.913  -4.331  0.00  0.00     0.066 C 
ATOM     11  H   LIG d   1       4.123  -2.341  -5.102  0.00  0.00     0.060 H 
ATOM     12  C   LIG d   1       6.140  -2.668  -4.432  0.00  0.00    -0.000 C 
ATOM     13  H   LIG d   1       8.937   1.007  -4.696  0.00  0.00     0.062 H 
ATOM     14  H   LIG d   1       8.325  -1.321  -5.187  0.00  0.00     0.062 H 
ATOM     15  H   LIG d   1       7.458   2.426  -3.341  0.00  0.00     0.065 H 
ATOM     16  H   LIG d   1       3.168  -2.674  -2.840  0.00  0.00     0.037 H 
ATOM     17  H   LIG d   1       4.707  -2.984  -2.170  0.00  0.00     0.037 H 
ATOM     18  H   LIG d   1       6.472  -2.899  -5.444  0.00  0.00     0.034 H 
ATOM     19  H   LIG d   1       6.656  -3.322  -3.730  0.00  0.00     0.034 H 
ENDROOT
BRANCH  10  20
ATOM     20  O   LIG d   1       4.368  -4.305  -4.511  0.00  0.00    -0.391 OA
ATOM     21  H   LIG d   1       4.914  -4.727  -5.188  0.00  0.00     0.210 HD
ENDBRANCH  10  20
BRANCH   5  22
ATOM     22  O   LIG d   1       5.167   1.672  -2.316  0.00  0.00    -0.506 OA
ATOM     23  H   LIG d   1       4.499   1.178  -1.821  0.00  0.00     0.292 HD
ENDBRANCH   5  22
TORSDOF 2
ENDMDL
MODEL 7
REMARK VINA RESULT:      -4.7      2.349      4.480
REMARK  2 active torsions:
REMARK  status: ('A' for Active; 'I' for Inactive)
REMARK    1  A    between atoms: C_5  and  O_7 
REMARK    2  A    between atoms: C_11  and  O_14 
ROOT
ATOM      1  C   LIG d   1       6.916  -1.909  -6.080  0.00  0.00    -0.058 A 
ATOM      2  C   LIG d   1       6.752  -0.767  -5.315  0.00  0.00    -0.058 A 
ATOM      3  C   LIG d   1       5.835  -0.738  -4.284  0.00  0.00    -0.031 A 
ATOM      4  C   LIG d   1       5.065  -1.875  -4.021  0.00  0.00     0.062 A 
ATOM      5  C   LIG d   1       5.232  -3.032  -4.797  0.00  0.00     0.128 A 
ATOM      6  C   LIG d   1       6.161  -3.038  -5.828  0.00  0.00    -0.019 A 
ATOM      7  C   LIG d   1       4.095  -1.872  -2.914  0.00  0.00     0.169 C 
ATOM      8  O   LIG d   1       3.576  -2.900  -2.530  0.00  0.00    -0.292 OA
ATOM      9  C   LIG d   1       3.764  -0.539  -2.274  0.00  0.00     0.037 C 
ATOM     10  C   LIG d   1       5.081   0.227  -2.103  0.00  0.00     0.066 C 
ATOM     11  H   LIG d   1       5.781  -0.375  -1.524  0.00  0.00     0.060 H 
ATOM     12  C   LIG d   1       5.679   0.522  -3.476  0.00  0.00    -0.000 C 
ATOM     13  H   LIG d   1       7.640  -1.918  -6.882  0.00  0.00     0.062 H 
ATOM     14  H   LIG d   1       7.349   0.109  -5.525  0.00  0.00     0.062 H 
ATOM     15  H   LIG d   1       6.294  -3.923  -6.432  0.00  0.00     0.065 H 
ATOM     16  H   LIG d   1       3.327  -0.695  -1.388  0.00  0.00     0.037 H 
ATOM     17  H   LIG d   1       3.088   0.023  -2.918  0.00  0.00     0.037 H 
ATOM     18  H   LIG d   1       6.656   0.987  -3.348  0.00  0.00     0.034 H 
ATOM     19  H   LIG d   1       5.024   1.210  -4.010  0.00  0.00     0.034 H 
ENDROOT
BRANCH  10  20
ATOM     20  O   LIG d   1       4.830   1.457  -1.418  0.00  0.00    -0.391 OA
ATOM     21  H   LIG d   1       5.288   1.535  -0.570  0.00  0.00     0.210 HD
ENDBRANCH  10  20
BRANCH   5  22
ATOM     22  O   LIG d   1       4.487  -4.136  -4.546  0.00  0.00    -0.506 OA
ATOM     23  H   LIG d   1       4.140  -4.565  -5.340  0.00  0.00     0.292 HD
ENDBRANCH   5  22
TORSDOF 2
ENDMDL
MODEL 8
REMARK VINA RESULT:      -4.7      2.799      4.538
REMARK  2 active torsions:
REMARK  status: ('A' for Active; 'I' for Inactive)
REMARK    1  A    between atoms: C_5  and  O_7 
REMARK    2  A    between atoms: C_11  and  O_14 
ROOT
ATOM      1  C   LIG d   1       3.453  -0.657  -7.646  0.00  0.00    -0.058 A 
ATOM      2  C   LIG d   1       3.015   0.130  -6.595  0.00  0.00    -0.058 A 
ATOM      3  C   LIG d   1       3.439  -0.121  -5.305  0.00  0.00    -0.031 A 
ATOM      4  C   LIG d   1       4.314  -1.185  -5.068  0.00  0.00     0.062 A 
ATOM      5  C   LIG d   1       4.758  -1.981  -6.135  0.00  0.00     0.128 A 
ATOM      6  C   LIG d   1       4.319  -1.709  -7.423  0.00  0.00    -0.019 A 
ATOM      7  C   LIG d   1       4.794  -1.457  -3.703  0.00  0.00     0.169 C 
ATOM      8  O   LIG d   1       5.710  -2.227  -3.502  0.00  0.00    -0.292 OA
ATOM      9  C   LIG d   1       4.099  -0.747  -2.560  0.00  0.00     0.037 C 
ATOM     10  C   LIG d   1       3.883   0.710  -2.988  0.00  0.00     0.066 C 
ATOM     11  H   LIG d   1       4.839   1.154  -3.264  0.00  0.00     0.060 H 
ATOM     12  C   LIG d   1       2.938   0.751  -4.186  0.00  0.00    -0.000 C 
ATOM     13  H   LIG d   1       3.115  -0.447  -8.650  0.00  0.00     0.062 H 
ATOM     14  H   LIG d   1       2.336   0.949  -6.786  0.00  0.00     0.062 H 
ATOM     15  H   LIG d   1       4.653  -2.320  -8.248  0.00  0.00     0.065 H 
ATOM     16  H   LIG d   1       4.673  -0.794  -1.742  0.00  0.00     0.037 H 
ATOM     17  H   LIG d   1       3.139  -1.221  -2.357  0.00  0.00     0.037 H 
ATOM     18  H   LIG d   1       2.858   1.778  -4.543  0.00  0.00     0.034 H 
ATOM     19  H   LIG d   1       1.953   0.403  -3.876  0.00  0.00     0.034 H 
ENDROOT
BRANCH  10  20
ATOM     20  O   LIG d   1       3.311   1.445  -1.904  0.00  0.00    -0.391 OA
ATOM     21  H   LIG d   1       3.901   2.111  -1.527  0.00  0.00     0.210 HD
ENDBRANCH  10  20
BRANCH   5  22
ATOM     22  O   LIG d   1       5.606  -3.014  -5.908  0.00  0.00    -0.506 OA
ATOM     23  H   LIG d   1       5.255  -3.688  -5.309  0.00  0.00     0.292 HD
ENDBRANCH   5  22
TORSDOF 2
ENDMDL
MODEL 9
REMARK VINA RESULT:      -4.7      3.075      3.872
REMARK  2 active torsions:
REMARK  status: ('A' for Active; 'I' for Inactive)
REMARK    1  A    between atoms: C_5  and  O_7 
REMARK    2  A    between atoms: C_11  and  O_14 
ROOT
ATOM      1  C   LIG d   1       4.780  -2.754  -3.340  0.00  0.00    -0.058 A 
ATOM      2  C   LIG d   1       4.886  -2.695  -4.719  0.00  0.00    -0.058 A 
ATOM      3  C   LIG d   1       4.301  -1.662  -5.425  0.00  0.00    -0.031 A 
ATOM      4  C   LIG d   1       3.593  -0.675  -4.732  0.00  0.00     0.062 A 
ATOM      5  C   LIG d   1       3.487  -0.736  -3.334  0.00  0.00     0.128 A 
ATOM      6  C   LIG d   1       4.084  -1.783  -2.646  0.00  0.00    -0.019 A 
ATOM      7  C   LIG d   1       2.978   0.445  -5.463  0.00  0.00     0.169 C 
ATOM      8  O   LIG d   1       2.550   1.418  -4.877  0.00  0.00    -0.292 OA
ATOM      9  C   LIG d   1       2.896   0.338  -6.971  0.00  0.00     0.037 C 
ATOM     10  C   LIG d   1       4.236  -0.218  -7.466  0.00  0.00     0.066 C 
ATOM     11  H   LIG d   1       5.047   0.420  -7.116  0.00  0.00     0.060 H 
ATOM     12  C   LIG d   1       4.430  -1.632  -6.923  0.00  0.00    -0.000 C 
ATOM     13  H   LIG d   1       5.245  -3.566  -2.801  0.00  0.00     0.062 H 
ATOM     14  H   LIG d   1       5.432  -3.462  -5.248  0.00  0.00     0.062 H 
ATOM     15  H   LIG d   1       4.005  -1.839  -1.571  0.00  0.00     0.065 H 
ATOM     16  H   LIG d   1       2.722   1.243  -7.360  0.00  0.00     0.037 H 
ATOM     17  H   LIG d   1       2.087  -0.337  -7.251  0.00  0.00     0.037 H 
ATOM     18  H   LIG d   1       5.421  -1.989  -7.202  0.00  0.00     0.034 H 
ATOM     19  H   LIG d   1       3.678  -2.288  -7.360  0.00  0.00     0.034 H 
ENDROOT
BRANCH  10  20
ATOM     20  O   LIG d   1       4.239  -0.252  -8.895  0.00  0.00    -0.391 OA
ATOM     21  H   LIG d   1       3.842   0.527  -9.307  0.00  0.00     0.210 HD
ENDBRANCH  10  20
BRANCH   5  22
ATOM     22  O   LIG d   1       2.801   0.219  -2.659  0.00  0.00    -0.506 OA
ATOM     23  H   LIG d   1       3.096   0.344  -1.746  0.00  0.00     0.292 HD
ENDBRANCH   5  22
TORSDOF 2
ENDMDL
MODEL 10
REMARK VINA RESULT:      -4.4      7.209      9.222
REMARK  2 active torsions:
REMARK  status: ('A' for Active; 'I' for Inactive)
REMARK    1  A    between atoms: C_5  and  O_7 
REMARK    2  A    between atoms: C_11  and  O_14 
ROOT
ATOM      1  C   LIG d   1       9.349   5.326  -4.407  0.00  0.00    -0.058 A 
ATOM      2  C   LIG d   1       9.323   6.581  -3.824  0.00  0.00    -0.058 A 
ATOM      3  C   LIG d   1       9.844   6.780  -2.561  0.00  0.00    -0.031 A 
ATOM      4  C   LIG d   1      10.397   5.696  -1.871  0.00  0.00     0.062 A 
ATOM      5  C   LIG d   1      10.424   4.425  -2.464  0.00  0.00     0.128 A 
ATOM      6  C   LIG d   1       9.895   4.250  -3.735  0.00  0.00    -0.019 A 
ATOM      7  C   LIG d   1      10.976   5.890  -0.531  0.00  0.00     0.169 C 
ATOM      8  O   LIG d   1      11.648   5.027  -0.007  0.00  0.00    -0.292 OA
ATOM      9  C   LIG d   1      10.698   7.204   0.170  0.00  0.00     0.037 C 
ATOM     10  C   LIG d   1      10.854   8.320  -0.869  0.00  0.00     0.066 C 
ATOM     11  H   LIG d   1      11.845   8.265  -1.319  0.00  0.00     0.060 H 
ATOM     12  C   LIG d   1       9.793   8.155  -1.954  0.00  0.00    -0.000 C 
ATOM     13  H   LIG d   1       8.941   5.187  -5.397  0.00  0.00     0.062 H 
ATOM     14  H   LIG d   1       8.891   7.413  -4.361  0.00  0.00     0.062 H 
ATOM     15  H   LIG d   1       9.909   3.274  -4.197  0.00  0.00     0.065 H 
ATOM     16  H   LIG d   1      11.349   7.324   0.920  0.00  0.00     0.037 H 
ATOM     17  H   LIG d   1       9.683   7.205   0.567  0.00  0.00     0.037 H 
ATOM     18  H   LIG d   1       9.962   8.896  -2.735  0.00  0.00     0.034 H 
ATOM     19  H   LIG d   1       8.808   8.317  -1.517  0.00  0.00     0.034 H 
ENDROOT
BRANCH  10  20
ATOM     20  O   LIG d   1      10.690   9.590  -0.232  0.00  0.00    -0.391 OA
ATOM     21  H   LIG d   1      10.614   9.539   0.731  0.00  0.00     0.210 HD
ENDBRANCH  10  20
BRANCH   5  22
ATOM     22  O   LIG d   1      10.959   3.372  -1.798  0.00  0.00    -0.506 OA
ATOM     23  H   LIG d   1      11.533   3.623  -1.061  0.00  0.00     0.292 HD
ENDBRANCH   5  22
TORSDOF 2
ENDMDL
