MODEL 1
REMARK VINA RESULT:      -6.3      0.000      0.000
REMARK  10 active torsions:
REMARK  status: ('A' for Active; 'I' for Inactive)
REMARK    1  A    between atoms: C_3  and  O_37 
REMARK    2  A    between atoms: C_6  and  C_7 
REMARK    3  A    between atoms: C_15  and  O_35 
REMARK    4  A    between atoms: C_17  and  O_18 
REMARK    5  A    between atoms: O_18  and  C_19 
REMARK    6  A    between atoms: C_21  and  O_34 
REMARK    7  A    between atoms: C_23  and  O_33 
REMARK    8  A    between atoms: C_25  and  O_32 
REMARK    9  A    between atoms: C_27  and  C_30 
REMARK   10  A    between atoms: C_30  and  O_31 
ROOT
ATOM      1  C   LIG d   1       3.129  -0.601 -10.826  0.00  0.00     0.132 C 
ATOM      2  H   LIG d   1       3.305   0.453 -11.043  0.00  0.00     0.079 H 
ATOM      3  C   LIG d   1       2.394  -0.731  -9.483  0.00  0.00     0.052 C 
ATOM      4  C   LIG d   1       3.296  -0.136  -8.417  0.00  0.00     0.174 C 
ATOM      5  O   LIG d   1       2.855   0.545  -7.516  0.00  0.00    -0.292 OA
ATOM      6  C   LIG d   1       4.729  -0.426  -8.534  0.00  0.00     0.101 A 
ATOM      7  C   LIG d   1       5.218  -0.994  -9.725  0.00  0.00     0.139 A 
ATOM      8  C   LIG d   1       6.570  -1.260  -9.844  0.00  0.00     0.022 A 
ATOM      9  C   LIG d   1       7.433  -0.973  -8.794  0.00  0.00     0.124 A 
ATOM     10  C   LIG d   1       6.954  -0.420  -7.613  0.00  0.00     0.023 A 
ATOM     11  C   LIG d   1       5.606  -0.144  -7.475  0.00  0.00     0.141 A 
ATOM     12  O   LIG d   1       4.379  -1.286 -10.748  0.00  0.00    -0.483 OA
ATOM     13  H   LIG d   1       1.452  -0.182  -9.522  0.00  0.00     0.038 H 
ATOM     14  H   LIG d   1       2.204  -1.781  -9.266  0.00  0.00     0.038 H 
ATOM     15  H   LIG d   1       6.956  -1.691 -10.756  0.00  0.00     0.069 H 
ATOM     16  H   LIG d   1       7.636  -0.205  -6.803  0.00  0.00     0.069 H 
ENDROOT
BRANCH  11  17
ATOM     17  O   LIG d   1       5.134   0.396  -6.323  0.00  0.00    -0.460 OA
BRANCH  17  18
ATOM     18  C   LIG d   1       5.423  -0.304  -5.111  0.00  0.00     0.231 C 
ATOM     19  H   LIG d   1       6.500  -0.454  -5.026  0.00  0.00     0.108 H 
ATOM     20  O   LIG d   1       4.959   0.460  -3.997  0.00  0.00    -0.331 OA
ATOM     21  C   LIG d   1       5.223  -0.139  -2.728  0.00  0.00     0.114 C 
ATOM     22  C   LIG d   1       4.510  -1.492  -2.645  0.00  0.00     0.112 C 
ATOM     23  H   LIG d   1       6.296  -0.287  -2.611  0.00  0.00     0.065 H 
ATOM     24  C   LIG d   1       4.985  -2.381  -3.798  0.00  0.00     0.115 C 
ATOM     25  H   LIG d   1       4.746  -1.971  -1.695  0.00  0.00     0.065 H 
ATOM     26  C   LIG d   1       4.719  -1.663  -5.126  0.00  0.00     0.145 C 
ATOM     27  H   LIG d   1       6.053  -2.573  -3.695  0.00  0.00     0.065 H 
ATOM     28  H   LIG d   1       5.104  -2.265  -5.948  0.00  0.00     0.068 H 
BRANCH  21  29
ATOM     29  C   LIG d   1       4.710   0.776  -1.614  0.00  0.00     0.073 C 
ATOM     30  H   LIG d   1       4.504   0.183  -0.722  0.00  0.00     0.058 H 
ATOM     31  H   LIG d   1       5.465   1.527  -1.384  0.00  0.00     0.058 H 
BRANCH  29  32
ATOM     32  O   LIG d   1       3.510   1.423  -2.043  0.00  0.00    -0.392 OA
ATOM     33  H   LIG d   1       3.378   1.409  -3.000  0.00  0.00     0.209 HD
ENDBRANCH  29  32
ENDBRANCH  21  29
BRANCH  22  34
ATOM     34  O   LIG d   1       3.098  -1.296  -2.744  0.00  0.00    -0.387 OA
ATOM     35  H   LIG d   1       2.630  -1.366  -1.901  0.00  0.00     0.210 HD
ENDBRANCH  22  34
BRANCH  24  36
ATOM     36  O   LIG d   1       4.272  -3.619  -3.775  0.00  0.00    -0.386 OA
ATOM     37  H   LIG d   1       3.697  -3.728  -3.004  0.00  0.00     0.210 HD
ENDBRANCH  24  36
BRANCH  26  38
ATOM     38  O   LIG d   1       3.313  -1.470  -5.292  0.00  0.00    -0.383 OA
ATOM     39  H   LIG d   1       3.046  -1.287  -6.203  0.00  0.00     0.210 HD
ENDBRANCH  26  38
ENDBRANCH  17  18
ENDBRANCH  11  17
BRANCH   9  40
ATOM     40  O   LIG d   1       8.758  -1.238  -8.923  0.00  0.00    -0.506 OA
ATOM     41  H   LIG d   1       8.979  -2.176  -8.853  0.00  0.00     0.292 HD
ENDBRANCH   9  40
BRANCH   1  42
ATOM     42  C   LIG d   1       2.290  -1.207 -11.920  0.00  0.00    -0.007 A 
ATOM     43  C   LIG d   1       0.923  -1.328 -11.754  0.00  0.00    -0.052 A 
ATOM     44  C   LIG d   1       0.151  -1.884 -12.756  0.00  0.00    -0.020 A 
ATOM     45  H   LIG d   1       0.457  -0.985 -10.843  0.00  0.00     0.062 H 
ATOM     46  C   LIG d   1       0.750  -2.320 -13.930  0.00  0.00     0.117 A 
ATOM     47  H   LIG d   1      -0.916  -1.979 -12.627  0.00  0.00     0.065 H 
ATOM     48  C   LIG d   1       2.122  -2.197 -14.094  0.00  0.00    -0.020 A 
ATOM     49  C   LIG d   1       2.888  -1.641 -13.088  0.00  0.00    -0.052 A 
ATOM     50  H   LIG d   1       2.589  -2.536 -15.006  0.00  0.00     0.065 H 
ATOM     51  H   LIG d   1       3.957  -1.545 -13.215  0.00  0.00     0.062 H 
BRANCH  46  52
ATOM     52  O   LIG d   1      -0.008  -2.867 -14.917  0.00  0.00    -0.507 OA
ATOM     53  H   LIG d   1      -0.338  -3.753 -14.714  0.00  0.00     0.292 HD
ENDBRANCH  46  52
ENDBRANCH   1  42
TORSDOF 10
ENDMDL
MODEL 2
REMARK VINA RESULT:      -6.3      4.773      9.103
REMARK  10 active torsions:
REMARK  status: ('A' for Active; 'I' for Inactive)
REMARK    1  A    between atoms: C_3  and  O_37 
REMARK    2  A    between atoms: C_6  and  C_7 
REMARK    3  A    between atoms: C_15  and  O_35 
REMARK    4  A    between atoms: C_17  and  O_18 
REMARK    5  A    between atoms: O_18  and  C_19 
REMARK    6  A    between atoms: C_21  and  O_34 
REMARK    7  A    between atoms: C_23  and  O_33 
REMARK    8  A    between atoms: C_25  and  O_32 
REMARK    9  A    between atoms: C_27  and  C_30 
REMARK   10  A    between atoms: C_30  and  O_31 
ROOT
ATOM      1  C   LIG d   1       2.265  -1.557 -11.142  0.00  0.00     0.132 C 
ATOM      2  H   LIG d   1       3.083  -2.031 -11.683  0.00  0.00     0.079 H 
ATOM      3  C   LIG d   1       1.777  -2.494 -10.027  0.00  0.00     0.052 C 
ATOM      4  C   LIG d   1       1.277  -3.763 -10.693  0.00  0.00     0.174 C 
ATOM      5  O   LIG d   1       1.495  -4.859 -10.222  0.00  0.00    -0.292 OA
ATOM      6  C   LIG d   1       0.516  -3.595 -11.936  0.00  0.00     0.101 A 
ATOM      7  C   LIG d   1       0.513  -2.340 -12.573  0.00  0.00     0.139 A 
ATOM      8  C   LIG d   1      -0.193  -2.179 -13.750  0.00  0.00     0.022 A 
ATOM      9  C   LIG d   1      -0.896  -3.247 -14.294  0.00  0.00     0.124 A 
ATOM     10  C   LIG d   1      -0.903  -4.486 -13.665  0.00  0.00     0.023 A 
ATOM     11  C   LIG d   1      -0.201  -4.668 -12.487  0.00  0.00     0.141 A 
ATOM     12  O   LIG d   1       1.188  -1.293 -12.041  0.00  0.00    -0.483 OA
ATOM     13  H   LIG d   1       2.602  -2.728  -9.353  0.00  0.00     0.038 H 
ATOM     14  H   LIG d   1       0.967  -2.021  -9.473  0.00  0.00     0.038 H 
ATOM     15  H   LIG d   1      -0.198  -1.221 -14.249  0.00  0.00     0.069 H 
ATOM     16  H   LIG d   1      -1.456  -5.307 -14.097  0.00  0.00     0.069 H 
ENDROOT
BRANCH  11  17
ATOM     17  O   LIG d   1      -0.204  -5.876 -11.870  0.00  0.00    -0.460 OA
BRANCH  17  18
ATOM     18  C   LIG d   1      -1.477  -6.415 -11.506  0.00  0.00     0.231 C 
ATOM     19  H   LIG d   1      -2.176  -6.287 -12.333  0.00  0.00     0.108 H 
ATOM     20  O   LIG d   1      -1.338  -7.807 -11.212  0.00  0.00    -0.331 OA
ATOM     21  C   LIG d   1      -2.562  -8.453 -10.860  0.00  0.00     0.114 C 
ATOM     22  C   LIG d   1      -3.136  -7.805  -9.598  0.00  0.00     0.112 C 
ATOM     23  H   LIG d   1      -3.276  -8.351 -11.678  0.00  0.00     0.065 H 
ATOM     24  C   LIG d   1      -3.342  -6.309  -9.851  0.00  0.00     0.115 C 
ATOM     25  H   LIG d   1      -4.092  -8.268  -9.353  0.00  0.00     0.065 H 
ATOM     26  C   LIG d   1      -2.007  -5.684 -10.270  0.00  0.00     0.145 C 
ATOM     27  H   LIG d   1      -4.074  -6.170 -10.646  0.00  0.00     0.065 H 
ATOM     28  H   LIG d   1      -2.156  -4.631 -10.506  0.00  0.00     0.068 H 
BRANCH  21  29
ATOM     29  C   LIG d   1      -2.298  -9.938 -10.596  0.00  0.00     0.073 C 
ATOM     30  H   LIG d   1      -2.305 -10.481 -11.541  0.00  0.00     0.058 H 
ATOM     31  H   LIG d   1      -1.326 -10.054 -10.117  0.00  0.00     0.058 H 
BRANCH  29  32
ATOM     32  O   LIG d   1      -3.317 -10.458  -9.739  0.00  0.00    -0.392 OA
ATOM     33  H   LIG d   1      -3.362 -10.026  -8.876  0.00  0.00     0.209 HD
ENDBRANCH  29  32
ENDBRANCH  21  29
BRANCH  22  34
ATOM     34  O   LIG d   1      -2.226  -7.984  -8.511  0.00  0.00    -0.387 OA
ATOM     35  H   LIG d   1      -2.290  -8.848  -8.082  0.00  0.00     0.210 HD
ENDBRANCH  22  34
BRANCH  24  36
ATOM     36  O   LIG d   1      -3.808  -5.679  -8.656  0.00  0.00    -0.386 OA
ATOM     37  H   LIG d   1      -3.204  -5.762  -7.905  0.00  0.00     0.210 HD
ENDBRANCH  24  36
BRANCH  26  38
ATOM     38  O   LIG d   1      -1.065  -5.806  -9.202  0.00  0.00    -0.383 OA
ATOM     39  H   LIG d   1      -0.553  -5.003  -9.035  0.00  0.00     0.210 HD
ENDBRANCH  26  38
ENDBRANCH  17  18
ENDBRANCH  11  17
BRANCH   9  40
ATOM     40  O   LIG d   1      -1.586  -3.078 -15.451  0.00  0.00    -0.506 OA
ATOM     41  H   LIG d   1      -1.746  -2.153 -15.680  0.00  0.00     0.292 HD
ENDBRANCH   9  40
BRANCH   1  42
ATOM     42  C   LIG d   1       2.744  -0.263 -10.537  0.00  0.00    -0.007 A 
ATOM     43  C   LIG d   1       2.252   0.151  -9.314  0.00  0.00    -0.052 A 
ATOM     44  C   LIG d   1       2.690   1.338  -8.757  0.00  0.00    -0.020 A 
ATOM     45  H   LIG d   1       1.527  -0.454  -8.790  0.00  0.00     0.062 H 
ATOM     46  C   LIG d   1       3.626   2.112  -9.427  0.00  0.00     0.117 A 
ATOM     47  H   LIG d   1       2.306   1.661  -7.802  0.00  0.00     0.065 H 
ATOM     48  C   LIG d   1       4.119   1.694 -10.655  0.00  0.00    -0.020 A 
ATOM     49  C   LIG d   1       3.677   0.508 -11.206  0.00  0.00    -0.052 A 
ATOM     50  H   LIG d   1       4.847   2.296 -11.178  0.00  0.00     0.065 H 
ATOM     51  H   LIG d   1       4.060   0.182 -12.162  0.00  0.00     0.062 H 
BRANCH  46  52
ATOM     52  O   LIG d   1       4.059   3.280  -8.881  0.00  0.00    -0.507 OA
ATOM     53  H   LIG d   1       4.689   3.165  -8.157  0.00  0.00     0.292 HD
ENDBRANCH  46  52
ENDBRANCH   1  42
TORSDOF 10
ENDMDL
MODEL 3
REMARK VINA RESULT:      -6.2      8.837     13.284
REMARK  10 active torsions:
REMARK  status: ('A' for Active; 'I' for Inactive)
REMARK    1  A    between atoms: C_3  and  O_37 
REMARK    2  A    between atoms: C_6  and  C_7 
REMARK    3  A    between atoms: C_15  and  O_35 
REMARK    4  A    between atoms: C_17  and  O_18 
REMARK    5  A    between atoms: O_18  and  C_19 
REMARK    6  A    between atoms: C_21  and  O_34 
REMARK    7  A    between atoms: C_23  and  O_33 
REMARK    8  A    between atoms: C_25  and  O_32 
REMARK    9  A    between atoms: C_27  and  C_30 
REMARK   10  A    between atoms: C_30  and  O_31 
ROOT
ATOM      1  C   LIG d   1       9.857   6.395  -2.903  0.00  0.00     0.132 C 
ATOM      2  H   LIG d   1       8.809   6.098  -2.882  0.00  0.00     0.079 H 
ATOM      3  C   LIG d   1      10.024   7.617  -3.819  0.00  0.00     0.052 C 
ATOM      4  C   LIG d   1       9.589   7.198  -5.211  0.00  0.00     0.174 C 
ATOM      5  O   LIG d   1       8.942   7.934  -5.926  0.00  0.00    -0.292 OA
ATOM      6  C   LIG d   1       9.989   5.856  -5.648  0.00  0.00     0.101 A 
ATOM      7  C   LIG d   1      10.506   4.953  -4.699  0.00  0.00     0.139 A 
ATOM      8  C   LIG d   1      10.874   3.683  -5.103  0.00  0.00     0.022 A 
ATOM      9  C   LIG d   1      10.741   3.307  -6.434  0.00  0.00     0.124 A 
ATOM     10  C   LIG d   1      10.239   4.197  -7.375  0.00  0.00     0.023 A 
ATOM     11  C   LIG d   1       9.861   5.472  -6.991  0.00  0.00     0.141 A 
ATOM     12  O   LIG d   1      10.649   5.318  -3.403  0.00  0.00    -0.483 OA
ATOM     13  H   LIG d   1       9.397   8.435  -3.463  0.00  0.00     0.038 H 
ATOM     14  H   LIG d   1      11.068   7.928  -3.834  0.00  0.00     0.038 H 
ATOM     15  H   LIG d   1      11.268   2.981  -4.382  0.00  0.00     0.069 H 
ATOM     16  H   LIG d   1      10.142   3.893  -8.407  0.00  0.00     0.069 H 
ENDROOT
BRANCH  11  17
ATOM     17  O   LIG d   1       9.371   6.344  -7.907  0.00  0.00    -0.460 OA
BRANCH  17  18
ATOM     18  C   LIG d   1      10.266   6.781  -8.932  0.00  0.00     0.231 C 
ATOM     19  H   LIG d   1      11.256   6.360  -8.754  0.00  0.00     0.108 H 
ATOM     20  O   LIG d   1       9.784   6.342 -10.204  0.00  0.00    -0.331 OA
ATOM     21  C   LIG d   1      10.623   6.704 -11.302  0.00  0.00     0.114 C 
ATOM     22  C   LIG d   1      10.722   8.230 -11.386  0.00  0.00     0.112 C 
ATOM     23  H   LIG d   1      11.617   6.283 -11.155  0.00  0.00     0.065 H 
ATOM     24  C   LIG d   1      11.264   8.771 -10.059  0.00  0.00     0.115 C 
ATOM     25  H   LIG d   1      11.396   8.508 -12.195  0.00  0.00     0.065 H 
ATOM     26  C   LIG d   1      10.351   8.309  -8.919  0.00  0.00     0.145 C 
ATOM     27  H   LIG d   1      12.272   8.391  -9.895  0.00  0.00     0.065 H 
ATOM     28  H   LIG d   1      10.760   8.643  -7.967  0.00  0.00     0.068 H 
BRANCH  21  29
ATOM     29  C   LIG d   1      10.025   6.160 -12.602  0.00  0.00     0.073 C 
ATOM     30  H   LIG d   1      10.198   6.874 -13.407  0.00  0.00     0.058 H 
ATOM     31  H   LIG d   1      10.500   5.211 -12.851  0.00  0.00     0.058 H 
BRANCH  29  32
ATOM     32  O   LIG d   1       8.621   5.961 -12.434  0.00  0.00    -0.392 OA
ATOM     33  H   LIG d   1       8.362   5.727 -11.532  0.00  0.00     0.209 HD
ENDBRANCH  29  32
ENDBRANCH  21  29
BRANCH  22  34
ATOM     34  O   LIG d   1       9.427   8.781 -11.632  0.00  0.00    -0.387 OA
ATOM     35  H   LIG d   1       8.993   8.431 -12.422  0.00  0.00     0.210 HD
ENDBRANCH  22  34
BRANCH  24  36
ATOM     36  O   LIG d   1      11.292  10.199 -10.099  0.00  0.00    -0.386 OA
ATOM     37  H   LIG d   1      11.957  10.597  -9.520  0.00  0.00     0.210 HD
ENDBRANCH  24  36
BRANCH  26  38
ATOM     38  O   LIG d   1       9.045   8.861  -9.098  0.00  0.00    -0.383 OA
ATOM     39  H   LIG d   1       8.516   8.411  -9.771  0.00  0.00     0.210 HD
ENDBRANCH  26  38
ENDBRANCH  17  18
ENDBRANCH  11  17
BRANCH   9  40
ATOM     40  O   LIG d   1      11.105   2.058  -6.819  0.00  0.00    -0.506 OA
ATOM     41  H   LIG d   1      10.686   1.761  -7.638  0.00  0.00     0.292 HD
ENDBRANCH   9  40
BRANCH   1  42
ATOM     42  C   LIG d   1      10.308   6.746  -1.508  0.00  0.00    -0.007 A 
ATOM     43  C   LIG d   1      10.294   8.064  -1.090  0.00  0.00    -0.052 A 
ATOM     44  C   LIG d   1      10.707   8.389   0.188  0.00  0.00    -0.020 A 
ATOM     45  H   LIG d   1       9.957   8.840  -1.761  0.00  0.00     0.062 H 
ATOM     46  C   LIG d   1      11.134   7.390   1.052  0.00  0.00     0.117 A 
ATOM     47  H   LIG d   1      10.696   9.417   0.514  0.00  0.00     0.065 H 
ATOM     48  C   LIG d   1      11.147   6.069   0.629  0.00  0.00    -0.020 A 
ATOM     49  C   LIG d   1      10.733   5.750  -0.650  0.00  0.00    -0.052 A 
ATOM     50  H   LIG d   1      11.479   5.291   1.300  0.00  0.00     0.065 H 
ATOM     51  H   LIG d   1      10.743   4.722  -0.979  0.00  0.00     0.062 H 
BRANCH  46  52
ATOM     52  O   LIG d   1      11.540   7.707   2.309  0.00  0.00    -0.507 OA
ATOM     53  H   LIG d   1      10.823   7.746   2.956  0.00  0.00     0.292 HD
ENDBRANCH  46  52
ENDBRANCH   1  42
TORSDOF 10
ENDMDL
MODEL 4
REMARK VINA RESULT:      -6.2      3.769      9.060
REMARK  10 active torsions:
REMARK  status: ('A' for Active; 'I' for Inactive)
REMARK    1  A    between atoms: C_3  and  O_37 
REMARK    2  A    between atoms: C_6  and  C_7 
REMARK    3  A    between atoms: C_15  and  O_35 
REMARK    4  A    between atoms: C_17  and  O_18 
REMARK    5  A    between atoms: O_18  and  C_19 
REMARK    6  A    between atoms: C_21  and  O_34 
REMARK    7  A    between atoms: C_23  and  O_33 
REMARK    8  A    between atoms: C_25  and  O_32 
REMARK    9  A    between atoms: C_27  and  C_30 
REMARK   10  A    between atoms: C_30  and  O_31 
ROOT
ATOM      1  C   LIG d   1       8.476   1.949  -4.432  0.00  0.00     0.132 C 
ATOM      2  H   LIG d   1       8.025   2.651  -5.134  0.00  0.00     0.079 H 
ATOM      3  C   LIG d   1       8.744   0.615  -5.144  0.00  0.00     0.052 C 
ATOM      4  C   LIG d   1       7.403   0.077  -5.609  0.00  0.00     0.174 C 
ATOM      5  O   LIG d   1       7.271  -0.457  -6.691  0.00  0.00    -0.292 OA
ATOM      6  C   LIG d   1       6.275   0.235  -4.685  0.00  0.00     0.101 A 
ATOM      7  C   LIG d   1       6.418   1.082  -3.570  0.00  0.00     0.139 A 
ATOM      8  C   LIG d   1       5.355   1.244  -2.701  0.00  0.00     0.022 A 
ATOM      9  C   LIG d   1       4.160   0.571  -2.927  0.00  0.00     0.124 A 
ATOM     10  C   LIG d   1       4.016  -0.271  -4.022  0.00  0.00     0.023 A 
ATOM     11  C   LIG d   1       5.067  -0.445  -4.905  0.00  0.00     0.141 A 
ATOM     12  O   LIG d   1       7.585   1.731  -3.338  0.00  0.00    -0.483 OA
ATOM     13  H   LIG d   1       9.398   0.777  -6.001  0.00  0.00     0.038 H 
ATOM     14  H   LIG d   1       9.206  -0.088  -4.451  0.00  0.00     0.038 H 
ATOM     15  H   LIG d   1       5.453   1.894  -1.844  0.00  0.00     0.069 H 
ATOM     16  H   LIG d   1       3.083  -0.790  -4.185  0.00  0.00     0.069 H 
ENDROOT
BRANCH  11  17
ATOM     17  O   LIG d   1       4.932  -1.266  -5.976  0.00  0.00    -0.460 OA
BRANCH  17  18
ATOM     18  C   LIG d   1       3.887  -0.958  -6.902  0.00  0.00     0.231 C 
ATOM     19  H   LIG d   1       2.922  -1.033  -6.400  0.00  0.00     0.108 H 
ATOM     20  O   LIG d   1       4.065   0.371  -7.395  0.00  0.00    -0.331 OA
ATOM     21  C   LIG d   1       3.055   0.792  -8.314  0.00  0.00     0.114 C 
ATOM     22  C   LIG d   1       3.068  -0.124  -9.540  0.00  0.00     0.112 C 
ATOM     23  H   LIG d   1       2.079   0.740  -7.831  0.00  0.00     0.065 H 
ATOM     24  C   LIG d   1       2.850  -1.571  -9.088  0.00  0.00     0.115 C 
ATOM     25  H   LIG d   1       2.269   0.168 -10.222  0.00  0.00     0.065 H 
ATOM     26  C   LIG d   1       3.934  -1.945  -8.071  0.00  0.00     0.145 C 
ATOM     27  H   LIG d   1       1.868  -1.665  -8.625  0.00  0.00     0.065 H 
ATOM     28  H   LIG d   1       3.754  -2.955  -7.703  0.00  0.00     0.068 H 
BRANCH  21  29
ATOM     29  C   LIG d   1       3.331   2.233  -8.751  0.00  0.00     0.073 C 
ATOM     30  H   LIG d   1       2.869   2.412  -9.722  0.00  0.00     0.058 H 
ATOM     31  H   LIG d   1       2.912   2.922  -8.018  0.00  0.00     0.058 H 
BRANCH  29  32
ATOM     32  O   LIG d   1       4.741   2.439  -8.848  0.00  0.00    -0.392 OA
ATOM     33  H   LIG d   1       5.043   3.276  -8.470  0.00  0.00     0.209 HD
ENDBRANCH  29  32
ENDBRANCH  21  29
BRANCH  22  34
ATOM     34  O   LIG d   1       4.328  -0.016 -10.206  0.00  0.00    -0.387 OA
ATOM     35  H   LIG d   1       5.009   0.433  -9.687  0.00  0.00     0.210 HD
ENDBRANCH  22  34
BRANCH  24  36
ATOM     36  O   LIG d   1       2.933  -2.444 -10.216  0.00  0.00    -0.386 OA
ATOM     37  H   LIG d   1       2.083  -2.815 -10.491  0.00  0.00     0.210 HD
ENDBRANCH  24  36
BRANCH  26  38
ATOM     38  O   LIG d   1       5.218  -1.886  -8.695  0.00  0.00    -0.383 OA
ATOM     39  H   LIG d   1       5.958  -1.890  -8.074  0.00  0.00     0.210 HD
ENDBRANCH  26  38
ENDBRANCH  17  18
ENDBRANCH  11  17
BRANCH   9  40
ATOM     40  O   LIG d   1       3.123   0.738  -2.068  0.00  0.00    -0.506 OA
ATOM     41  H   LIG d   1       3.271   0.354  -1.193  0.00  0.00     0.292 HD
ENDBRANCH   9  40
BRANCH   1  42
ATOM     42  C   LIG d   1       9.774   2.515  -3.918  0.00  0.00    -0.007 A 
ATOM     43  C   LIG d   1      10.968   1.893  -4.228  0.00  0.00    -0.052 A 
ATOM     44  C   LIG d   1      12.161   2.409  -3.758  0.00  0.00    -0.020 A 
ATOM     45  H   LIG d   1      10.971   1.004  -4.841  0.00  0.00     0.062 H 
ATOM     46  C   LIG d   1      12.157   3.555  -2.975  0.00  0.00     0.117 A 
ATOM     47  H   LIG d   1      13.093   1.923  -4.000  0.00  0.00     0.065 H 
ATOM     48  C   LIG d   1      10.957   4.177  -2.665  0.00  0.00    -0.020 A 
ATOM     49  C   LIG d   1       9.768   3.656  -3.138  0.00  0.00    -0.052 A 
ATOM     50  H   LIG d   1      10.953   5.068  -2.055  0.00  0.00     0.065 H 
ATOM     51  H   LIG d   1       8.834   4.141  -2.897  0.00  0.00     0.062 H 
BRANCH  46  52
ATOM     52  O   LIG d   1      13.329   4.065  -2.511  0.00  0.00    -0.507 OA
ATOM     53  H   LIG d   1      13.914   4.400  -3.205  0.00  0.00     0.292 HD
ENDBRANCH  46  52
ENDBRANCH   1  42
TORSDOF 10
ENDMDL
MODEL 5
REMARK VINA RESULT:      -6.2      4.439      6.923
REMARK  10 active torsions:
REMARK  status: ('A' for Active; 'I' for Inactive)
REMARK    1  A    between atoms: C_3  and  O_37 
REMARK    2  A    between atoms: C_6  and  C_7 
REMARK    3  A    between atoms: C_15  and  O_35 
REMARK    4  A    between atoms: C_17  and  O_18 
REMARK    5  A    between atoms: O_18  and  C_19 
REMARK    6  A    between atoms: C_21  and  O_34 
REMARK    7  A    between atoms: C_23  and  O_33 
REMARK    8  A    between atoms: C_25  and  O_32 
REMARK    9  A    between atoms: C_27  and  C_30 
REMARK   10  A    between atoms: C_30  and  O_31 
ROOT
ATOM      1  C   LIG d   1       5.513  -3.499  -5.044  0.00  0.00     0.132 C 
ATOM      2  H   LIG d   1       5.810  -3.945  -4.094  0.00  0.00     0.079 H 
ATOM      3  C   LIG d   1       6.735  -2.848  -5.708  0.00  0.00     0.052 C 
ATOM      4  C   LIG d   1       7.230  -1.761  -4.771  0.00  0.00     0.174 C 
ATOM      5  O   LIG d   1       8.413  -1.570  -4.584  0.00  0.00    -0.292 OA
ATOM      6  C   LIG d   1       6.204  -0.954  -4.102  0.00  0.00     0.101 A 
ATOM      7  C   LIG d   1       4.862  -1.378  -4.147  0.00  0.00     0.139 A 
ATOM      8  C   LIG d   1       3.892  -0.627  -3.509  0.00  0.00     0.022 A 
ATOM      9  C   LIG d   1       4.241   0.537  -2.835  0.00  0.00     0.124 A 
ATOM     10  C   LIG d   1       5.563   0.964  -2.794  0.00  0.00     0.023 A 
ATOM     11  C   LIG d   1       6.549   0.225  -3.424  0.00  0.00     0.141 A 
ATOM     12  O   LIG d   1       4.515  -2.506  -4.812  0.00  0.00    -0.483 OA
ATOM     13  H   LIG d   1       7.516  -3.593  -5.859  0.00  0.00     0.038 H 
ATOM     14  H   LIG d   1       6.448  -2.411  -6.664  0.00  0.00     0.038 H 
ATOM     15  H   LIG d   1       2.860  -0.945  -3.535  0.00  0.00     0.069 H 
ATOM     16  H   LIG d   1       5.821   1.872  -2.269  0.00  0.00     0.069 H 
ENDROOT
BRANCH  11  17
ATOM     17  O   LIG d   1       7.841   0.637  -3.386  0.00  0.00    -0.460 OA
BRANCH  17  18
ATOM     18  C   LIG d   1       8.129   1.921  -3.945  0.00  0.00     0.231 C 
ATOM     19  H   LIG d   1       7.208   2.500  -4.020  0.00  0.00     0.108 H 
ATOM     20  O   LIG d   1       9.057   2.610  -3.105  0.00  0.00    -0.331 OA
ATOM     21  C   LIG d   1       9.395   3.920  -3.560  0.00  0.00     0.114 C 
ATOM     22  C   LIG d   1      10.055   3.827  -4.938  0.00  0.00     0.112 C 
ATOM     23  H   LIG d   1       8.491   4.526  -3.630  0.00  0.00     0.065 H 
ATOM     24  C   LIG d   1       9.099   3.123  -5.906  0.00  0.00     0.115 C 
ATOM     25  H   LIG d   1      10.274   4.829  -5.307  0.00  0.00     0.065 H 
ATOM     26  C   LIG d   1       8.737   1.746  -5.339  0.00  0.00     0.145 C 
ATOM     27  H   LIG d   1       8.193   3.719  -6.022  0.00  0.00     0.065 H 
ATOM     28  H   LIG d   1       8.014   1.261  -5.994  0.00  0.00     0.068 H 
BRANCH  21  29
ATOM     29  C   LIG d   1      10.368   4.569  -2.572  0.00  0.00     0.073 C 
ATOM     30  H   LIG d   1      11.102   5.159  -3.120  0.00  0.00     0.058 H 
ATOM     31  H   LIG d   1       9.816   5.217  -1.891  0.00  0.00     0.058 H 
BRANCH  29  32
ATOM     32  O   LIG d   1      11.036   3.552  -1.824  0.00  0.00    -0.392 OA
ATOM     33  H   LIG d   1      12.000   3.617  -1.845  0.00  0.00     0.209 HD
ENDBRANCH  29  32
ENDBRANCH  21  29
BRANCH  22  34
ATOM     34  O   LIG d   1      11.268   3.078  -4.838  0.00  0.00    -0.387 OA
ATOM     35  H   LIG d   1      11.741   3.204  -4.004  0.00  0.00     0.210 HD
ENDBRANCH  22  34
BRANCH  24  36
ATOM     36  O   LIG d   1       9.732   2.964  -7.176  0.00  0.00    -0.386 OA
ATOM     37  H   LIG d   1      10.683   3.143  -7.168  0.00  0.00     0.210 HD
ENDBRANCH  24  36
BRANCH  26  38
ATOM     38  O   LIG d   1       9.914   0.941  -5.249  0.00  0.00    -0.383 OA
ATOM     39  H   LIG d   1      10.329   0.947  -4.376  0.00  0.00     0.210 HD
ENDBRANCH  26  38
ENDBRANCH  17  18
ENDBRANCH  11  17
BRANCH   9  40
ATOM     40  O   LIG d   1       3.281   1.266  -2.213  0.00  0.00    -0.506 OA
ATOM     41  H   LIG d   1       2.415   1.222  -2.640  0.00  0.00     0.292 HD
ENDBRANCH   9  40
BRANCH   1  42
ATOM     42  C   LIG d   1       4.958  -4.568  -5.949  0.00  0.00    -0.007 A 
ATOM     43  C   LIG d   1       4.221  -4.214  -7.064  0.00  0.00    -0.052 A 
ATOM     44  C   LIG d   1       3.712  -5.192  -7.897  0.00  0.00    -0.020 A 
ATOM     45  H   LIG d   1       4.046  -3.172  -7.287  0.00  0.00     0.062 H 
ATOM     46  C   LIG d   1       3.942  -6.531  -7.613  0.00  0.00     0.117 A 
ATOM     47  H   LIG d   1       3.136  -4.915  -8.767  0.00  0.00     0.065 H 
ATOM     48  C   LIG d   1       4.681  -6.883  -6.493  0.00  0.00    -0.020 A 
ATOM     49  C   LIG d   1       5.188  -5.901  -5.665  0.00  0.00    -0.052 A 
ATOM     50  H   LIG d   1       4.861  -7.924  -6.271  0.00  0.00     0.065 H 
ATOM     51  H   LIG d   1       5.764  -6.175  -4.794  0.00  0.00     0.062 H 
BRANCH  46  52
ATOM     52  O   LIG d   1       3.441  -7.495  -8.430  0.00  0.00    -0.507 OA
ATOM     53  H   LIG d   1       4.047  -8.233  -8.584  0.00  0.00     0.292 HD
ENDBRANCH  46  52
ENDBRANCH   1  42
TORSDOF 10
ENDMDL
MODEL 6
REMARK VINA RESULT:      -6.1     10.962     14.641
REMARK  10 active torsions:
REMARK  status: ('A' for Active; 'I' for Inactive)
REMARK    1  A    between atoms: C_3  and  O_37 
REMARK    2  A    between atoms: C_6  and  C_7 
REMARK    3  A    between atoms: C_15  and  O_35 
REMARK    4  A    between atoms: C_17  and  O_18 
REMARK    5  A    between atoms: O_18  and  C_19 
REMARK    6  A    between atoms: C_21  and  O_34 
REMARK    7  A    between atoms: C_23  and  O_33 
REMARK    8  A    between atoms: C_25  and  O_32 
REMARK    9  A    between atoms: C_27  and  C_30 
REMARK   10  A    between atoms: C_30  and  O_31 
ROOT
ATOM      1  C   LIG d   1      10.087   6.281  -1.775  0.00  0.00     0.132 C 
ATOM      2  H   LIG d   1       9.321   5.974  -1.063  0.00  0.00     0.079 H 
ATOM      3  C   LIG d   1      11.475   5.934  -1.213  0.00  0.00     0.052 C 
ATOM      4  C   LIG d   1      11.643   6.711   0.080  0.00  0.00     0.174 C 
ATOM      5  O   LIG d   1      12.167   6.218   1.057  0.00  0.00    -0.292 OA
ATOM      6  C   LIG d   1      11.138   8.088   0.089  0.00  0.00     0.101 A 
ATOM      7  C   LIG d   1      10.315   8.522  -0.967  0.00  0.00     0.139 A 
ATOM      8  C   LIG d   1       9.827   9.816  -0.959  0.00  0.00     0.022 A 
ATOM      9  C   LIG d   1      10.153  10.679   0.081  0.00  0.00     0.124 A 
ATOM     10  C   LIG d   1      10.972  10.258   1.121  0.00  0.00     0.023 A 
ATOM     11  C   LIG d   1      11.468   8.966   1.133  0.00  0.00     0.141 A 
ATOM     12  O   LIG d   1      10.003   7.689  -1.989  0.00  0.00    -0.483 OA
ATOM     13  H   LIG d   1      11.537   4.864  -1.015  0.00  0.00     0.038 H 
ATOM     14  H   LIG d   1      12.246   6.226  -1.925  0.00  0.00     0.038 H 
ATOM     15  H   LIG d   1       9.191  10.158  -1.762  0.00  0.00     0.069 H 
ATOM     16  H   LIG d   1      11.220  10.938   1.922  0.00  0.00     0.069 H 
ENDROOT
BRANCH  11  17
ATOM     17  O   LIG d   1      12.267   8.550   2.147  0.00  0.00    -0.460 OA
BRANCH  17  18
ATOM     18  C   LIG d   1      11.914   8.972   3.467  0.00  0.00     0.231 C 
ATOM     19  H   LIG d   1      10.950   9.481   3.440  0.00  0.00     0.108 H 
ATOM     20  O   LIG d   1      11.827   7.833   4.324  0.00  0.00    -0.331 OA
ATOM     21  C   LIG d   1      11.453   8.141   5.668  0.00  0.00     0.114 C 
ATOM     22  C   LIG d   1      12.504   9.065   6.290  0.00  0.00     0.112 C 
ATOM     23  H   LIG d   1      10.484   8.640   5.671  0.00  0.00     0.065 H 
ATOM     24  C   LIG d   1      12.629  10.330   5.435  0.00  0.00     0.115 C 
ATOM     25  H   LIG d   1      12.198   9.337   7.300  0.00  0.00     0.065 H 
ATOM     26  C   LIG d   1      12.983   9.930   3.999  0.00  0.00     0.145 C 
ATOM     27  H   LIG d   1      11.682  10.869   5.440  0.00  0.00     0.065 H 
ATOM     28  H   LIG d   1      13.020  10.820   3.372  0.00  0.00     0.068 H 
BRANCH  21  29
ATOM     29  C   LIG d   1      11.365   6.848   6.483  0.00  0.00     0.073 C 
ATOM     30  H   LIG d   1      11.498   7.076   7.540  0.00  0.00     0.058 H 
ATOM     31  H   LIG d   1      10.388   6.389   6.331  0.00  0.00     0.058 H 
BRANCH  29  32
ATOM     32  O   LIG d   1      12.387   5.946   6.057  0.00  0.00    -0.392 OA
ATOM     33  H   LIG d   1      12.097   5.310   5.390  0.00  0.00     0.209 HD
ENDBRANCH  29  32
ENDBRANCH  21  29
BRANCH  22  34
ATOM     34  O   LIG d   1      13.764   8.394   6.337  0.00  0.00    -0.387 OA
ATOM     35  H   LIG d   1      13.876   7.818   7.105  0.00  0.00     0.210 HD
ENDBRANCH  22  34
BRANCH  24  36
ATOM     36  O   LIG d   1      13.659  11.167   5.965  0.00  0.00    -0.386 OA
ATOM     37  H   LIG d   1      13.789  11.990   5.474  0.00  0.00     0.210 HD
ENDBRANCH  24  36
BRANCH  26  38
ATOM     38  O   LIG d   1      14.256   9.281   3.983  0.00  0.00    -0.383 OA
ATOM     39  H   LIG d   1      14.955   9.795   3.555  0.00  0.00     0.210 HD
ENDBRANCH  26  38
ENDBRANCH  17  18
ENDBRANCH  11  17
BRANCH   9  40
ATOM     40  O   LIG d   1       9.669  11.946   0.079  0.00  0.00    -0.506 OA
ATOM     41  H   LIG d   1      10.353  12.628   0.046  0.00  0.00     0.292 HD
ENDBRANCH   9  40
BRANCH   1  42
ATOM     42  C   LIG d   1       9.879   5.560  -3.081  0.00  0.00    -0.007 A 
ATOM     43  C   LIG d   1       9.850   4.178  -3.109  0.00  0.00    -0.052 A 
ATOM     44  C   LIG d   1       9.659   3.514  -4.306  0.00  0.00    -0.020 A 
ATOM     45  H   LIG d   1       9.972   3.617  -2.196  0.00  0.00     0.062 H 
ATOM     46  C   LIG d   1       9.496   4.236  -5.480  0.00  0.00     0.117 A 
ATOM     47  H   LIG d   1       9.636   2.435  -4.328  0.00  0.00     0.065 H 
ATOM     48  C   LIG d   1       9.526   5.623  -5.448  0.00  0.00    -0.020 A 
ATOM     49  C   LIG d   1       9.717   6.281  -4.249  0.00  0.00    -0.052 A 
ATOM     50  H   LIG d   1       9.400   6.186  -6.360  0.00  0.00     0.065 H 
ATOM     51  H   LIG d   1       9.741   7.360  -4.224  0.00  0.00     0.062 H 
BRANCH  46  52
ATOM     52  O   LIG d   1       9.308   3.585  -6.658  0.00  0.00    -0.507 OA
ATOM     53  H   LIG d   1       9.681   4.043  -7.424  0.00  0.00     0.292 HD
ENDBRANCH  46  52
ENDBRANCH   1  42
TORSDOF 10
ENDMDL
MODEL 7
REMARK VINA RESULT:      -6.0      9.553     12.453
REMARK  10 active torsions:
REMARK  status: ('A' for Active; 'I' for Inactive)
REMARK    1  A    between atoms: C_3  and  O_37 
REMARK    2  A    between atoms: C_6  and  C_7 
REMARK    3  A    between atoms: C_15  and  O_35 
REMARK    4  A    between atoms: C_17  and  O_18 
REMARK    5  A    between atoms: O_18  and  C_19 
REMARK    6  A    between atoms: C_21  and  O_34 
REMARK    7  A    between atoms: C_23  and  O_33 
REMARK    8  A    between atoms: C_25  and  O_32 
REMARK    9  A    between atoms: C_27  and  C_30 
REMARK   10  A    between atoms: C_30  and  O_31 
ROOT
ATOM      1  C   LIG d   1      10.061   4.299  -4.166  0.00  0.00     0.132 C 
ATOM      2  H   LIG d   1      11.108   4.095  -4.389  0.00  0.00     0.079 H 
ATOM      3  C   LIG d   1       9.607   5.547  -4.938  0.00  0.00     0.052 C 
ATOM      4  C   LIG d   1      10.463   6.706  -4.461  0.00  0.00     0.174 C 
ATOM      5  O   LIG d   1      10.887   7.544  -5.228  0.00  0.00    -0.292 OA
ATOM      6  C   LIG d   1      10.751   6.761  -3.023  0.00  0.00     0.101 A 
ATOM      7  C   LIG d   1      10.460   5.640  -2.224  0.00  0.00     0.139 A 
ATOM      8  C   LIG d   1      10.739   5.682  -0.870  0.00  0.00     0.022 A 
ATOM      9  C   LIG d   1      11.296   6.823  -0.307  0.00  0.00     0.124 A 
ATOM     10  C   LIG d   1      11.577   7.936  -1.091  0.00  0.00     0.023 A 
ATOM     11  C   LIG d   1      11.308   7.913  -2.448  0.00  0.00     0.141 A 
ATOM     12  O   LIG d   1       9.907   4.528  -2.766  0.00  0.00    -0.483 OA
ATOM     13  H   LIG d   1       9.752   5.393  -6.008  0.00  0.00     0.038 H 
ATOM     14  H   LIG d   1       8.557   5.749  -4.731  0.00  0.00     0.038 H 
ATOM     15  H   LIG d   1      10.524   4.825  -0.249  0.00  0.00     0.069 H 
ATOM     16  H   LIG d   1      12.008   8.818  -0.641  0.00  0.00     0.069 H 
ENDROOT
BRANCH  11  17
ATOM     17  O   LIG d   1      11.581   8.996  -3.217  0.00  0.00    -0.460 OA
BRANCH  17  18
ATOM     18  C   LIG d   1      11.004  10.240  -2.814  0.00  0.00     0.231 C 
ATOM     19  H   LIG d   1      11.170  10.389  -1.746  0.00  0.00     0.108 H 
ATOM     20  O   LIG d   1      11.614  11.307  -3.543  0.00  0.00    -0.331 OA
ATOM     21  C   LIG d   1      11.127  12.604  -3.197  0.00  0.00     0.114 C 
ATOM     22  C   LIG d   1       9.628  12.683  -3.499  0.00  0.00     0.112 C 
ATOM     23  H   LIG d   1      11.293  12.784  -2.135  0.00  0.00     0.065 H 
ATOM     24  C   LIG d   1       8.901  11.581  -2.722  0.00  0.00     0.115 C 
ATOM     25  H   LIG d   1       9.245  13.656  -3.195  0.00  0.00     0.065 H 
ATOM     26  C   LIG d   1       9.501  10.223  -3.100  0.00  0.00     0.145 C 
ATOM     27  H   LIG d   1       9.023  11.748  -1.652  0.00  0.00     0.065 H 
ATOM     28  H   LIG d   1       9.026   9.439  -2.511  0.00  0.00     0.068 H 
BRANCH  21  29
ATOM     29  C   LIG d   1      11.868  13.664  -4.016  0.00  0.00     0.073 C 
ATOM     30  H   LIG d   1      12.778  13.957  -3.492  0.00  0.00     0.058 H 
ATOM     31  H   LIG d   1      12.127  13.253  -4.992  0.00  0.00     0.058 H 
BRANCH  29  32
ATOM     32  O   LIG d   1      11.028  14.807  -4.188  0.00  0.00    -0.392 OA
ATOM     33  H   LIG d   1      10.854  15.293  -3.371  0.00  0.00     0.209 HD
ENDBRANCH  29  32
ENDBRANCH  21  29
BRANCH  22  34
ATOM     34  O   LIG d   1       9.412  12.500  -4.900  0.00  0.00    -0.387 OA
ATOM     35  H   LIG d   1       9.443  13.319  -5.413  0.00  0.00     0.210 HD
ENDBRANCH  22  34
BRANCH  24  36
ATOM     36  O   LIG d   1       7.511  11.597  -3.053  0.00  0.00    -0.386 OA
ATOM     37  H   LIG d   1       7.149  10.729  -3.277  0.00  0.00     0.210 HD
ENDBRANCH  24  36
BRANCH  26  38
ATOM     38  O   LIG d   1       9.282   9.973  -4.490  0.00  0.00    -0.383 OA
ATOM     39  H   LIG d   1       8.730  10.636  -4.927  0.00  0.00     0.210 HD
ENDBRANCH  26  38
ENDBRANCH  17  18
ENDBRANCH  11  17
BRANCH   9  40
ATOM     40  O   LIG d   1      11.567   6.853   1.022  0.00  0.00    -0.506 OA
ATOM     41  H   LIG d   1      10.787   6.751   1.584  0.00  0.00     0.292 HD
ENDBRANCH   9  40
BRANCH   1  42
ATOM     42  C   LIG d   1       9.219   3.119  -4.578  0.00  0.00    -0.007 A 
ATOM     43  C   LIG d   1       8.648   2.308  -3.615  0.00  0.00    -0.052 A 
ATOM     44  C   LIG d   1       7.876   1.226  -3.990  0.00  0.00    -0.020 A 
ATOM     45  H   LIG d   1       8.802   2.523  -2.568  0.00  0.00     0.062 H 
ATOM     46  C   LIG d   1       7.674   0.953  -5.336  0.00  0.00     0.117 A 
ATOM     47  H   LIG d   1       7.430   0.593  -3.238  0.00  0.00     0.065 H 
ATOM     48  C   LIG d   1       8.248   1.768  -6.300  0.00  0.00    -0.020 A 
ATOM     49  C   LIG d   1       9.019   2.849  -5.919  0.00  0.00    -0.052 A 
ATOM     50  H   LIG d   1       8.092   1.558  -7.347  0.00  0.00     0.065 H 
ATOM     51  H   LIG d   1       9.466   3.484  -6.669  0.00  0.00     0.062 H 
BRANCH  46  52
ATOM     52  O   LIG d   1       6.915  -0.111  -5.707  0.00  0.00    -0.507 OA
ATOM     53  H   LIG d   1       7.165  -0.494  -6.559  0.00  0.00     0.292 HD
ENDBRANCH  46  52
ENDBRANCH   1  42
TORSDOF 10
ENDMDL
MODEL 8
REMARK VINA RESULT:      -6.0      9.865     14.659
REMARK  10 active torsions:
REMARK  status: ('A' for Active; 'I' for Inactive)
REMARK    1  A    between atoms: C_3  and  O_37 
REMARK    2  A    between atoms: C_6  and  C_7 
REMARK    3  A    between atoms: C_15  and  O_35 
REMARK    4  A    between atoms: C_17  and  O_18 
REMARK    5  A    between atoms: O_18  and  C_19 
REMARK    6  A    between atoms: C_21  and  O_34 
REMARK    7  A    between atoms: C_23  and  O_33 
REMARK    8  A    between atoms: C_25  and  O_32 
REMARK    9  A    between atoms: C_27  and  C_30 
REMARK   10  A    between atoms: C_30  and  O_31 
ROOT
ATOM      1  C   LIG d   1      10.100   9.082  -1.352  0.00  0.00     0.132 C 
ATOM      2  H   LIG d   1       9.016   9.133  -1.249  0.00  0.00     0.079 H 
ATOM      3  C   LIG d   1      10.538   9.916  -2.565  0.00  0.00     0.052 C 
ATOM      4  C   LIG d   1       9.881   9.306  -3.791  0.00  0.00     0.174 C 
ATOM      5  O   LIG d   1       9.419   9.995  -4.676  0.00  0.00    -0.292 OA
ATOM      6  C   LIG d   1       9.834   7.841  -3.849  0.00  0.00     0.101 A 
ATOM      7  C   LIG d   1      10.144   7.100  -2.694  0.00  0.00     0.139 A 
ATOM      8  C   LIG d   1      10.090   5.719  -2.740  0.00  0.00     0.022 A 
ATOM      9  C   LIG d   1       9.739   5.073  -3.919  0.00  0.00     0.124 A 
ATOM     10  C   LIG d   1       9.440   5.800  -5.064  0.00  0.00     0.023 A 
ATOM     11  C   LIG d   1       9.485   7.183  -5.038  0.00  0.00     0.141 A 
ATOM     12  O   LIG d   1      10.497   7.724  -1.545  0.00  0.00    -0.483 OA
ATOM     13  H   LIG d   1      10.210  10.949  -2.443  0.00  0.00     0.038 H 
ATOM     14  H   LIG d   1      11.622   9.880  -2.668  0.00  0.00     0.038 H 
ATOM     15  H   LIG d   1      10.321   5.141  -1.857  0.00  0.00     0.069 H 
ATOM     16  H   LIG d   1       9.171   5.286  -5.975  0.00  0.00     0.069 H 
ENDROOT
BRANCH  11  17
ATOM     17  O   LIG d   1       9.194   7.897  -6.154  0.00  0.00    -0.460 OA
BRANCH  17  18
ATOM     18  C   LIG d   1      10.081   7.754  -7.266  0.00  0.00     0.231 C 
ATOM     19  H   LIG d   1      11.009   7.288  -6.933  0.00  0.00     0.108 H 
ATOM     20  O   LIG d   1       9.468   6.934  -8.262  0.00  0.00    -0.331 OA
ATOM     21  C   LIG d   1      10.283   6.704  -9.412  0.00  0.00     0.114 C 
ATOM     22  C   LIG d   1      10.595   8.041 -10.091  0.00  0.00     0.112 C 
ATOM     23  H   LIG d   1      11.214   6.225  -9.108  0.00  0.00     0.065 H 
ATOM     24  C   LIG d   1      11.287   8.966  -9.085  0.00  0.00     0.115 C 
ATOM     25  H   LIG d   1      11.254   7.872 -10.943  0.00  0.00     0.065 H 
ATOM     26  C   LIG d   1      10.385   9.133  -7.857  0.00  0.00     0.145 C 
ATOM     27  H   LIG d   1      12.238   8.528  -8.781  0.00  0.00     0.065 H 
ATOM     28  H   LIG d   1      10.893   9.745  -7.113  0.00  0.00     0.068 H 
BRANCH  21  29
ATOM     29  C   LIG d   1       9.539   5.796 -10.393  0.00  0.00     0.073 C 
ATOM     30  H   LIG d   1       9.872   6.008 -11.409  0.00  0.00     0.058 H 
ATOM     31  H   LIG d   1       9.748   4.753 -10.153  0.00  0.00     0.058 H 
BRANCH  29  32
ATOM     32  O   LIG d   1       8.134   6.036 -10.292  0.00  0.00    -0.392 OA
ATOM     33  H   LIG d   1       7.858   6.407  -9.444  0.00  0.00     0.209 HD
ENDBRANCH  29  32
ENDBRANCH  21  29
BRANCH  22  34
ATOM     34  O   LIG d   1       9.380   8.646 -10.538  0.00  0.00    -0.387 OA
ATOM     35  H   LIG d   1       9.013   9.294  -9.922  0.00  0.00     0.210 HD
ENDBRANCH  22  34
BRANCH  24  36
ATOM     36  O   LIG d   1      11.517  10.241  -9.685  0.00  0.00    -0.386 OA
ATOM     37  H   LIG d   1      12.136  10.801  -9.196  0.00  0.00     0.210 HD
ENDBRANCH  24  36
BRANCH  26  38
ATOM     38  O   LIG d   1       9.163   9.767  -8.243  0.00  0.00    -0.383 OA
ATOM     39  H   LIG d   1       8.584   9.210  -8.781  0.00  0.00     0.210 HD
ENDBRANCH  26  38
ENDBRANCH  17  18
ENDBRANCH  11  17
BRANCH   9  40
ATOM     40  O   LIG d   1       9.689   3.717  -3.953  0.00  0.00    -0.506 OA
ATOM     41  H   LIG d   1      10.467   3.305  -4.353  0.00  0.00     0.292 HD
ENDBRANCH   9  40
BRANCH   1  42
ATOM     42  C   LIG d   1      10.751   9.625  -0.107  0.00  0.00    -0.007 A 
ATOM     43  C   LIG d   1      10.805  10.989   0.105  0.00  0.00    -0.052 A 
ATOM     44  C   LIG d   1      11.401  11.491   1.246  0.00  0.00    -0.020 A 
ATOM     45  H   LIG d   1      10.377  11.665  -0.620  0.00  0.00     0.062 H 
ATOM     46  C   LIG d   1      11.946  10.621   2.181  0.00  0.00     0.117 A 
ATOM     47  H   LIG d   1      11.443  12.556   1.411  0.00  0.00     0.065 H 
ATOM     48  C   LIG d   1      11.891   9.252   1.966  0.00  0.00    -0.020 A 
ATOM     49  C   LIG d   1      11.293   8.757   0.823  0.00  0.00    -0.052 A 
ATOM     50  H   LIG d   1      12.314   8.574   2.691  0.00  0.00     0.065 H 
ATOM     51  H   LIG d   1      11.250   7.691   0.655  0.00  0.00     0.062 H 
BRANCH  46  52
ATOM     52  O   LIG d   1      12.533  11.111   3.304  0.00  0.00    -0.507 OA
ATOM     53  H   LIG d   1      11.940  11.634   3.862  0.00  0.00     0.292 HD
ENDBRANCH  46  52
ENDBRANCH   1  42
TORSDOF 10
ENDMDL
MODEL 9
REMARK VINA RESULT:      -5.9      4.953      6.742
REMARK  10 active torsions:
REMARK  status: ('A' for Active; 'I' for Inactive)
REMARK    1  A    between atoms: C_3  and  O_37 
REMARK    2  A    between atoms: C_6  and  C_7 
REMARK    3  A    between atoms: C_15  and  O_35 
REMARK    4  A    between atoms: C_17  and  O_18 
REMARK    5  A    between atoms: O_18  and  C_19 
REMARK    6  A    between atoms: C_21  and  O_34 
REMARK    7  A    between atoms: C_23  and  O_33 
REMARK    8  A    between atoms: C_25  and  O_32 
REMARK    9  A    between atoms: C_27  and  C_30 
REMARK   10  A    between atoms: C_30  and  O_31 
ROOT
ATOM      1  C   LIG d   1       8.715   3.857  -8.607  0.00  0.00     0.132 C 
ATOM      2  H   LIG d   1       7.950   4.495  -8.165  0.00  0.00     0.079 H 
ATOM      3  C   LIG d   1       8.063   2.570  -9.137  0.00  0.00     0.052 C 
ATOM      4  C   LIG d   1       7.437   1.862  -7.949  0.00  0.00     0.174 C 
ATOM      5  O   LIG d   1       6.355   1.318  -8.029  0.00  0.00    -0.292 OA
ATOM      6  C   LIG d   1       8.205   1.870  -6.700  0.00  0.00     0.101 A 
ATOM      7  C   LIG d   1       9.317   2.726  -6.586  0.00  0.00     0.139 A 
ATOM      8  C   LIG d   1      10.038   2.745  -5.406  0.00  0.00     0.022 A 
ATOM      9  C   LIG d   1       9.670   1.923  -4.348  0.00  0.00     0.124 A 
ATOM     10  C   LIG d   1       8.578   1.071  -4.459  0.00  0.00     0.023 A 
ATOM     11  C   LIG d   1       7.841   1.039  -5.630  0.00  0.00     0.141 A 
ATOM     12  O   LIG d   1       9.687   3.521  -7.618  0.00  0.00    -0.483 OA
ATOM     13  H   LIG d   1       7.295   2.819  -9.870  0.00  0.00     0.038 H 
ATOM     14  H   LIG d   1       8.820   1.933  -9.593  0.00  0.00     0.038 H 
ATOM     15  H   LIG d   1      10.891   3.401  -5.307  0.00  0.00     0.069 H 
ATOM     16  H   LIG d   1       8.304   0.435  -3.630  0.00  0.00     0.069 H 
ENDROOT
BRANCH  11  17
ATOM     17  O   LIG d   1       6.774   0.209  -5.742  0.00  0.00    -0.460 OA
BRANCH  17  18
ATOM     18  C   LIG d   1       6.213  -0.295  -4.528  0.00  0.00     0.231 C 
ATOM     19  H   LIG d   1       7.003  -0.423  -3.788  0.00  0.00     0.108 H 
ATOM     20  O   LIG d   1       5.242   0.629  -4.032  0.00  0.00    -0.331 OA
ATOM     21  C   LIG d   1       4.635   0.233  -2.802  0.00  0.00     0.114 C 
ATOM     22  C   LIG d   1       3.898  -1.094  -3.001  0.00  0.00     0.112 C 
ATOM     23  H   LIG d   1       5.404   0.111  -2.039  0.00  0.00     0.065 H 
ATOM     24  C   LIG d   1       4.890  -2.148  -3.504  0.00  0.00     0.115 C 
ATOM     25  H   LIG d   1       3.472  -1.420  -2.052  0.00  0.00     0.065 H 
ATOM     26  C   LIG d   1       5.541  -1.644  -4.797  0.00  0.00     0.145 C 
ATOM     27  H   LIG d   1       5.659  -2.315  -2.750  0.00  0.00     0.065 H 
ATOM     28  H   LIG d   1       6.288  -2.363  -5.132  0.00  0.00     0.068 H 
BRANCH  21  29
ATOM     29  C   LIG d   1       3.639   1.307  -2.355  0.00  0.00     0.073 C 
ATOM     30  H   LIG d   1       2.720   0.829  -2.014  0.00  0.00     0.058 H 
ATOM     31  H   LIG d   1       4.070   1.886  -1.540  0.00  0.00     0.058 H 
BRANCH  29  32
ATOM     32  O   LIG d   1       3.347   2.172  -3.454  0.00  0.00    -0.392 OA
ATOM     33  H   LIG d   1       2.585   1.897  -3.980  0.00  0.00     0.209 HD
ENDBRANCH  29  32
ENDBRANCH  21  29
BRANCH  22  34
ATOM     34  O   LIG d   1       2.855  -0.924  -3.962  0.00  0.00    -0.387 OA
ATOM     35  H   LIG d   1       2.509  -0.022  -4.012  0.00  0.00     0.210 HD
ENDBRANCH  22  34
BRANCH  24  36
ATOM     36  O   LIG d   1       4.200  -3.371  -3.764  0.00  0.00    -0.386 OA
ATOM     37  H   LIG d   1       4.431  -4.090  -3.159  0.00  0.00     0.210 HD
ENDBRANCH  24  36
BRANCH  26  38
ATOM     38  O   LIG d   1       4.542  -1.487  -5.807  0.00  0.00    -0.383 OA
ATOM     39  H   LIG d   1       4.025  -2.286  -5.976  0.00  0.00     0.210 HD
ENDBRANCH  26  38
ENDBRANCH  17  18
ENDBRANCH  11  17
BRANCH   9  40
ATOM     40  O   LIG d   1      10.385   1.951  -3.196  0.00  0.00    -0.506 OA
ATOM     41  H   LIG d   1      11.216   1.458  -3.237  0.00  0.00     0.292 HD
ENDBRANCH   9  40
BRANCH   1  42
ATOM     42  C   LIG d   1       9.384   4.586  -9.743  0.00  0.00    -0.007 A 
ATOM     43  C   LIG d   1       8.836   5.759 -10.227  0.00  0.00    -0.052 A 
ATOM     44  C   LIG d   1       9.448   6.431 -11.269  0.00  0.00    -0.020 A 
ATOM     45  H   LIG d   1       7.932   6.154  -9.790  0.00  0.00     0.062 H 
ATOM     46  C   LIG d   1      10.613   5.926 -11.828  0.00  0.00     0.117 A 
ATOM     47  H   LIG d   1       9.020   7.346 -11.647  0.00  0.00     0.065 H 
ATOM     48  C   LIG d   1      11.161   4.748 -11.340  0.00  0.00    -0.020 A 
ATOM     49  C   LIG d   1      10.545   4.082 -10.298  0.00  0.00    -0.052 A 
ATOM     50  H   LIG d   1      12.067   4.354 -11.773  0.00  0.00     0.065 H 
ATOM     51  H   LIG d   1      10.971   3.165  -9.918  0.00  0.00     0.062 H 
BRANCH  46  52
ATOM     52  O   LIG d   1      11.217   6.584 -12.852  0.00  0.00    -0.507 OA
ATOM     53  H   LIG d   1      10.785   6.458 -13.709  0.00  0.00     0.292 HD
ENDBRANCH  46  52
ENDBRANCH   1  42
TORSDOF 10
ENDMDL
