MODEL 1
REMARK VINA RESULT:      -4.4      0.000      0.000
REMARK  7 active torsions:
REMARK  status: ('A' for Active; 'I' for Inactive)
REMARK    1  A    between atoms: C_1  and  C_2 
REMARK    2  A    between atoms: C_1  and  C_8 
REMARK    3  A    between atoms: C_2  and  C_3 
REMARK    4  A    between atoms: C_3  and  C_5 
REMARK    5  A    between atoms: C_3  and  N_22 
REMARK    6  A    between atoms: C_5  and  C_6 
REMARK    7  A    between atoms: C_8  and  N_24 
ROOT
ATOM      1  C   LIG d   1       2.838  -0.896  -3.010  0.00  0.00    -0.005 C 
ATOM      2  H   LIG d   1       1.818  -1.005  -2.641  0.00  0.00     0.032 H 
ATOM      3  H   LIG d   1       2.849  -1.022  -4.092  0.00  0.00     0.032 H 
ENDROOT
BRANCH   1   4
ATOM      4  C   LIG d   1       3.730  -1.957  -2.363  0.00  0.00    -0.008 C 
ATOM      5  H   LIG d   1       4.544  -1.470  -1.827  0.00  0.00     0.032 H 
ATOM      6  H   LIG d   1       3.140  -2.551  -1.666  0.00  0.00     0.032 H 
BRANCH   4   7
ATOM      7  C   LIG d   1       4.307  -2.869  -3.448  0.00  0.00    -0.035 C 
ATOM      8  H   LIG d   1       5.390  -2.919  -3.341  0.00  0.00     0.081 H 
ATOM      9  H   LIG d   1       3.884  -3.868  -3.345  0.00  0.00     0.081 H 
BRANCH   7  10
ATOM     10  N   LIG d   1       3.944  -2.330  -4.771  0.00  0.00     0.218 N 
ATOM     11  H   LIG d   1       3.402  -1.475  -4.662  0.00  0.00     0.199 HD
ATOM     12  H   LIG d   1       4.786  -2.131  -5.310  0.00  0.00     0.199 HD
ATOM     13  H   LIG d   1       3.380  -3.023  -5.275  0.00  0.00     0.199 HD
ENDBRANCH   7  10
ENDBRANCH   4   7
ENDBRANCH   1   4
BRANCH   1  14
ATOM     14  C   LIG d   1       3.361   0.497  -2.654  0.00  0.00    -0.019 C 
ATOM     15  H   LIG d   1       2.711   0.947  -1.903  0.00  0.00     0.085 H 
BRANCH  14  16
ATOM     16  C   LIG d   1       4.781   0.382  -2.095  0.00  0.00     0.030 C 
ATOM     17  H   LIG d   1       4.971  -0.649  -1.795  0.00  0.00     0.038 H 
ATOM     18  H   LIG d   1       4.885   1.036  -1.230  0.00  0.00     0.038 H 
BRANCH  16  19
ATOM     19  C   LIG d   1       5.773   0.787  -3.155  0.00  0.00     0.047 C 
ATOM     20  O   LIG d   1       6.290   1.878  -3.112  0.00  0.00    -0.550 OA
ATOM     21  O   LIG d   1       6.086  -0.066  -4.142  0.00  0.00    -0.550 OA
ENDBRANCH  16  19
ENDBRANCH  14  16
BRANCH  14  22
ATOM     22  N   LIG d   1       3.351   1.336  -3.864  0.00  0.00     0.221 N 
ATOM     23  H   LIG d   1       4.081   2.045  -3.804  0.00  0.00     0.200 HD
ATOM     24  H   LIG d   1       3.504   0.760  -4.691  0.00  0.00     0.200 HD
ATOM     25  H   LIG d   1       2.439   1.803  -3.945  0.00  0.00     0.200 HD
ENDBRANCH  14  22
ENDBRANCH   1  14
TORSDOF 7
ENDMDL
MODEL 2
REMARK VINA RESULT:      -4.1      1.658      2.001
REMARK  7 active torsions:
REMARK  status: ('A' for Active; 'I' for Inactive)
REMARK    1  A    between atoms: C_1  and  C_2 
REMARK    2  A    between atoms: C_1  and  C_8 
REMARK    3  A    between atoms: C_2  and  C_3 
REMARK    4  A    between atoms: C_3  and  C_5 
REMARK    5  A    between atoms: C_3  and  N_22 
REMARK    6  A    between atoms: C_5  and  C_6 
REMARK    7  A    between atoms: C_8  and  N_24 
ROOT
ATOM      1  C   LIG d   1       3.935  -2.183  -2.522  0.00  0.00    -0.005 C 
ATOM      2  H   LIG d   1       4.696  -2.065  -1.749  0.00  0.00     0.032 H 
ATOM      3  H   LIG d   1       3.241  -2.971  -2.231  0.00  0.00     0.032 H 
ENDROOT
BRANCH   1   4
ATOM      4  C   LIG d   1       4.607  -2.557  -3.844  0.00  0.00    -0.008 C 
ATOM      5  H   LIG d   1       4.447  -3.616  -4.046  0.00  0.00     0.032 H 
ATOM      6  H   LIG d   1       4.174  -1.966  -4.651  0.00  0.00     0.032 H 
BRANCH   4   7
ATOM      7  C   LIG d   1       6.107  -2.275  -3.753  0.00  0.00    -0.035 C 
ATOM      8  H   LIG d   1       6.352  -1.932  -2.748  0.00  0.00     0.081 H 
ATOM      9  H   LIG d   1       6.663  -3.188  -3.971  0.00  0.00     0.081 H 
BRANCH   7  10
ATOM     10  N   LIG d   1       6.464  -1.249  -4.749  0.00  0.00     0.218 N 
ATOM     11  H   LIG d   1       7.113  -1.637  -5.431  0.00  0.00     0.199 HD
ATOM     12  H   LIG d   1       5.627  -0.920  -5.227  0.00  0.00     0.199 HD
ATOM     13  H   LIG d   1       6.911  -0.457  -4.273  0.00  0.00     0.199 HD
ENDBRANCH   7  10
ENDBRANCH   4   7
ENDBRANCH   1   4
BRANCH   1  14
ATOM     14  C   LIG d   1       3.173  -0.867  -2.690  0.00  0.00    -0.019 C 
ATOM     15  H   LIG d   1       2.188  -0.958  -2.233  0.00  0.00     0.085 H 
BRANCH  14  16
ATOM     16  C   LIG d   1       3.949   0.263  -2.011  0.00  0.00     0.030 C 
ATOM     17  H   LIG d   1       4.834  -0.146  -1.522  0.00  0.00     0.038 H 
ATOM     18  H   LIG d   1       3.313   0.744  -1.268  0.00  0.00     0.038 H 
BRANCH  16  19
ATOM     19  C   LIG d   1       4.370   1.276  -3.044  0.00  0.00     0.047 C 
ATOM     20  O   LIG d   1       5.475   1.222  -3.528  0.00  0.00    -0.550 OA
ATOM     21  O   LIG d   1       3.513   2.234  -3.432  0.00  0.00    -0.550 OA
ENDBRANCH  16  19
ENDBRANCH  14  16
BRANCH  14  22
ATOM     22  N   LIG d   1       3.011  -0.588  -4.127  0.00  0.00     0.221 N 
ATOM     23  H   LIG d   1       2.101  -0.917  -4.447  0.00  0.00     0.200 HD
ATOM     24  H   LIG d   1       3.090   0.413  -4.301  0.00  0.00     0.200 HD
ATOM     25  H   LIG d   1       3.746  -1.078  -4.652  0.00  0.00     0.200 HD
ENDBRANCH  14  22
ENDBRANCH   1  14
TORSDOF 7
ENDMDL
MODEL 3
REMARK VINA RESULT:      -4.0      2.005      3.082
REMARK  7 active torsions:
REMARK  status: ('A' for Active; 'I' for Inactive)
REMARK    1  A    between atoms: C_1  and  C_2 
REMARK    2  A    between atoms: C_1  and  C_8 
REMARK    3  A    between atoms: C_2  and  C_3 
REMARK    4  A    between atoms: C_3  and  C_5 
REMARK    5  A    between atoms: C_3  and  N_22 
REMARK    6  A    between atoms: C_5  and  C_6 
REMARK    7  A    between atoms: C_8  and  N_24 
ROOT
ATOM      1  C   LIG d   1       4.692  -1.060  -2.260  0.00  0.00    -0.005 C 
ATOM      2  H   LIG d   1       4.613   0.022  -2.153  0.00  0.00     0.032 H 
ATOM      3  H   LIG d   1       4.795  -1.517  -1.275  0.00  0.00     0.032 H 
ENDROOT
BRANCH   1   4
ATOM      4  C   LIG d   1       5.918  -1.400  -3.109  0.00  0.00    -0.008 C 
ATOM      5  H   LIG d   1       6.550  -2.106  -2.570  0.00  0.00     0.032 H 
ATOM      6  H   LIG d   1       5.596  -1.847  -4.050  0.00  0.00     0.032 H 
BRANCH   4   7
ATOM      7  C   LIG d   1       6.710  -0.123  -3.396  0.00  0.00    -0.035 C 
ATOM      8  H   LIG d   1       6.408   0.656  -2.697  0.00  0.00     0.081 H 
ATOM      9  H   LIG d   1       7.776  -0.323  -3.280  0.00  0.00     0.081 H 
BRANCH   7  10
ATOM     10  N   LIG d   1       6.451   0.301  -4.784  0.00  0.00     0.218 N 
ATOM     11  H   LIG d   1       5.550   0.772  -4.842  0.00  0.00     0.199 HD
ATOM     12  H   LIG d   1       7.185   0.934  -5.098  0.00  0.00     0.199 HD
ATOM     13  H   LIG d   1       6.438  -0.525  -5.393  0.00  0.00     0.199 HD
ENDBRANCH   7  10
ENDBRANCH   4   7
ENDBRANCH   1   4
BRANCH   1  14
ATOM     14  C   LIG d   1       3.433  -1.597  -2.943  0.00  0.00    -0.019 C 
ATOM     15  H   LIG d   1       2.966  -2.347  -2.305  0.00  0.00     0.085 H 
BRANCH  14  16
ATOM     16  C   LIG d   1       2.452  -0.447  -3.182  0.00  0.00     0.030 C 
ATOM     17  H   LIG d   1       2.159  -0.015  -2.224  0.00  0.00     0.038 H 
ATOM     18  H   LIG d   1       1.569  -0.825  -3.695  0.00  0.00     0.038 H 
BRANCH  16  19
ATOM     19  C   LIG d   1       3.113   0.609  -4.029  0.00  0.00     0.047 C 
ATOM     20  O   LIG d   1       3.344   0.392  -5.195  0.00  0.00    -0.550 OA
ATOM     21  O   LIG d   1       3.438   1.795  -3.490  0.00  0.00    -0.550 OA
ENDBRANCH  16  19
ENDBRANCH  14  16
BRANCH  14  22
ATOM     22  N   LIG d   1       3.812  -2.224  -4.221  0.00  0.00     0.221 N 
ATOM     23  H   LIG d   1       4.478  -1.633  -4.717  0.00  0.00     0.200 HD
ATOM     24  H   LIG d   1       4.230  -3.138  -4.052  0.00  0.00     0.200 HD
ATOM     25  H   LIG d   1       2.973  -2.342  -4.802  0.00  0.00     0.200 HD
ENDBRANCH  14  22
ENDBRANCH   1  14
TORSDOF 7
ENDMDL
MODEL 4
REMARK VINA RESULT:      -4.0      1.811      2.256
REMARK  7 active torsions:
REMARK  status: ('A' for Active; 'I' for Inactive)
REMARK    1  A    between atoms: C_1  and  C_2 
REMARK    2  A    between atoms: C_1  and  C_8 
REMARK    3  A    between atoms: C_2  and  C_3 
REMARK    4  A    between atoms: C_3  and  C_5 
REMARK    5  A    between atoms: C_3  and  N_22 
REMARK    6  A    between atoms: C_5  and  C_6 
REMARK    7  A    between atoms: C_8  and  N_24 
ROOT
ATOM      1  C   LIG d   1       4.396  -2.622  -3.420  0.00  0.00    -0.005 C 
ATOM      2  H   LIG d   1       5.353  -2.694  -2.901  0.00  0.00     0.032 H 
ATOM      3  H   LIG d   1       3.919  -3.602  -3.439  0.00  0.00     0.032 H 
ENDROOT
BRANCH   1   4
ATOM      4  C   LIG d   1       4.630  -2.141  -4.853  0.00  0.00    -0.008 C 
ATOM      5  H   LIG d   1       3.721  -1.674  -5.232  0.00  0.00     0.032 H 
ATOM      6  H   LIG d   1       5.442  -1.415  -4.864  0.00  0.00     0.032 H 
BRANCH   4   7
ATOM      7  C   LIG d   1       4.998  -3.333  -5.738  0.00  0.00    -0.035 C 
ATOM      8  H   LIG d   1       5.277  -2.976  -6.729  0.00  0.00     0.081 H 
ATOM      9  H   LIG d   1       5.838  -3.869  -5.295  0.00  0.00     0.081 H 
BRANCH   7  10
ATOM     10  N   LIG d   1       3.842  -4.243  -5.823  0.00  0.00     0.218 N 
ATOM     11  H   LIG d   1       3.085  -3.798  -6.339  0.00  0.00     0.199 HD
ATOM     12  H   LIG d   1       4.111  -5.106  -6.295  0.00  0.00     0.199 HD
ATOM     13  H   LIG d   1       3.517  -4.467  -4.876  0.00  0.00     0.199 HD
ENDBRANCH   7  10
ENDBRANCH   4   7
ENDBRANCH   1   4
BRANCH   1  14
ATOM     14  C   LIG d   1       3.493  -1.629  -2.688  0.00  0.00    -0.019 C 
ATOM     15  H   LIG d   1       2.836  -2.169  -2.006  0.00  0.00     0.085 H 
BRANCH  14  16
ATOM     16  C   LIG d   1       4.355  -0.645  -1.893  0.00  0.00     0.030 C 
ATOM     17  H   LIG d   1       5.402  -0.941  -1.962  0.00  0.00     0.038 H 
ATOM     18  H   LIG d   1       4.043  -0.651  -0.849  0.00  0.00     0.038 H 
BRANCH  16  19
ATOM     19  C   LIG d   1       4.187   0.742  -2.460  0.00  0.00     0.047 C 
ATOM     20  O   LIG d   1       3.353   1.485  -1.999  0.00  0.00    -0.550 OA
ATOM     21  O   LIG d   1       4.968   1.152  -3.471  0.00  0.00    -0.550 OA
ENDBRANCH  16  19
ENDBRANCH  14  16
BRANCH  14  22
ATOM     22  N   LIG d   1       2.671  -0.910  -3.677  0.00  0.00     0.221 N 
ATOM     23  H   LIG d   1       3.253  -0.271  -4.217  0.00  0.00     0.200 HD
ATOM     24  H   LIG d   1       2.221  -1.574  -4.306  0.00  0.00     0.200 HD
ATOM     25  H   LIG d   1       1.948  -0.369  -3.187  0.00  0.00     0.200 HD
ENDBRANCH  14  22
ENDBRANCH   1  14
TORSDOF 7
ENDMDL
MODEL 5
REMARK VINA RESULT:      -3.9      2.061      3.328
REMARK  7 active torsions:
REMARK  status: ('A' for Active; 'I' for Inactive)
REMARK    1  A    between atoms: C_1  and  C_2 
REMARK    2  A    between atoms: C_1  and  C_8 
REMARK    3  A    between atoms: C_2  and  C_3 
REMARK    4  A    between atoms: C_3  and  C_5 
REMARK    5  A    between atoms: C_3  and  N_22 
REMARK    6  A    between atoms: C_5  and  C_6 
REMARK    7  A    between atoms: C_8  and  N_24 
ROOT
ATOM      1  C   LIG d   1       3.359   0.596  -2.511  0.00  0.00    -0.005 C 
ATOM      2  H   LIG d   1       3.081   1.522  -3.014  0.00  0.00     0.032 H 
ATOM      3  H   LIG d   1       2.646   0.388  -1.713  0.00  0.00     0.032 H 
ENDROOT
BRANCH   1   4
ATOM      4  C   LIG d   1       4.761   0.739  -1.917  0.00  0.00    -0.008 C 
ATOM      5  H   LIG d   1       4.726   1.409  -1.059  0.00  0.00     0.032 H 
ATOM      6  H   LIG d   1       5.122  -0.239  -1.599  0.00  0.00     0.032 H 
BRANCH   4   7
ATOM      7  C   LIG d   1       5.707   1.312  -2.974  0.00  0.00    -0.035 C 
ATOM      8  H   LIG d   1       5.156   1.486  -3.898  0.00  0.00     0.081 H 
ATOM      9  H   LIG d   1       6.124   2.253  -2.616  0.00  0.00     0.081 H 
BRANCH   7  10
ATOM     10  N   LIG d   1       6.807   0.358  -3.202  0.00  0.00     0.218 N 
ATOM     11  H   LIG d   1       6.438  -0.518  -3.567  0.00  0.00     0.199 HD
ATOM     12  H   LIG d   1       7.475   0.747  -3.866  0.00  0.00     0.199 HD
ATOM     13  H   LIG d   1       7.286   0.175  -2.313  0.00  0.00     0.199 HD
ENDBRANCH   7  10
ENDBRANCH   4   7
ENDBRANCH   1   4
BRANCH   1  14
ATOM     14  C   LIG d   1       3.346  -0.554  -3.519  0.00  0.00    -0.019 C 
ATOM     15  H   LIG d   1       4.095  -0.370  -4.289  0.00  0.00     0.085 H 
BRANCH  14  16
ATOM     16  C   LIG d   1       3.664  -1.868  -2.801  0.00  0.00     0.030 C 
ATOM     17  H   LIG d   1       2.753  -2.458  -2.701  0.00  0.00     0.038 H 
ATOM     18  H   LIG d   1       4.067  -1.651  -1.812  0.00  0.00     0.038 H 
BRANCH  16  19
ATOM     19  C   LIG d   1       4.681  -2.643  -3.599  0.00  0.00     0.047 C 
ATOM     20  O   LIG d   1       5.843  -2.313  -3.580  0.00  0.00    -0.550 OA
ATOM     21  O   LIG d   1       4.295  -3.705  -4.324  0.00  0.00    -0.550 OA
ENDBRANCH  16  19
ENDBRANCH  14  16
BRANCH  14  22
ATOM     22  N   LIG d   1       2.016  -0.623  -4.150  0.00  0.00     0.221 N 
ATOM     23  H   LIG d   1       2.106  -0.558  -5.163  0.00  0.00     0.200 HD
ATOM     24  H   LIG d   1       1.558  -1.500  -3.906  0.00  0.00     0.200 HD
ATOM     25  H   LIG d   1       1.442   0.160  -3.815  0.00  0.00     0.200 HD
ENDBRANCH  14  22
ENDBRANCH   1  14
TORSDOF 7
ENDMDL
MODEL 6
REMARK VINA RESULT:      -3.9      1.178      1.884
REMARK  7 active torsions:
REMARK  status: ('A' for Active; 'I' for Inactive)
REMARK    1  A    between atoms: C_1  and  C_2 
REMARK    2  A    between atoms: C_1  and  C_8 
REMARK    3  A    between atoms: C_2  and  C_3 
REMARK    4  A    between atoms: C_3  and  C_5 
REMARK    5  A    between atoms: C_3  and  N_22 
REMARK    6  A    between atoms: C_5  and  C_6 
REMARK    7  A    between atoms: C_8  and  N_24 
ROOT
ATOM      1  C   LIG d   1       4.478  -0.064  -1.637  0.00  0.00    -0.005 C 
ATOM      2  H   LIG d   1       5.081  -0.884  -1.246  0.00  0.00     0.032 H 
ATOM      3  H   LIG d   1       4.003   0.464  -0.810  0.00  0.00     0.032 H 
ENDROOT
BRANCH   1   4
ATOM      4  C   LIG d   1       3.403  -0.621  -2.571  0.00  0.00    -0.008 C 
ATOM      5  H   LIG d   1       2.421  -0.483  -2.119  0.00  0.00     0.032 H 
ATOM      6  H   LIG d   1       3.441  -0.094  -3.524  0.00  0.00     0.032 H 
BRANCH   4   7
ATOM      7  C   LIG d   1       3.652  -2.113  -2.803  0.00  0.00    -0.035 C 
ATOM      8  H   LIG d   1       4.527  -2.428  -2.235  0.00  0.00     0.081 H 
ATOM      9  H   LIG d   1       2.782  -2.682  -2.475  0.00  0.00     0.081 H 
BRANCH   7  10
ATOM     10  N   LIG d   1       3.862  -2.346  -4.243  0.00  0.00     0.218 N 
ATOM     11  H   LIG d   1       3.904  -1.457  -4.738  0.00  0.00     0.199 HD
ATOM     12  H   LIG d   1       4.730  -2.858  -4.391  0.00  0.00     0.199 HD
ATOM     13  H   LIG d   1       3.080  -2.899  -4.613  0.00  0.00     0.199 HD
ENDBRANCH   7  10
ENDBRANCH   4   7
ENDBRANCH   1   4
BRANCH   1  14
ATOM     14  C   LIG d   1       5.376   0.903  -2.411  0.00  0.00    -0.019 C 
ATOM     15  H   LIG d   1       5.865   1.582  -1.712  0.00  0.00     0.085 H 
BRANCH  14  16
ATOM     16  C   LIG d   1       6.437   0.111  -3.179  0.00  0.00     0.030 C 
ATOM     17  H   LIG d   1       6.247  -0.957  -3.065  0.00  0.00     0.038 H 
ATOM     18  H   LIG d   1       7.424   0.349  -2.783  0.00  0.00     0.038 H 
BRANCH  16  19
ATOM     19  C   LIG d   1       6.378   0.478  -4.639  0.00  0.00     0.047 C 
ATOM     20  O   LIG d   1       5.592  -0.076  -5.370  0.00  0.00    -0.550 OA
ATOM     21  O   LIG d   1       7.195   1.425  -5.126  0.00  0.00    -0.550 OA
ENDBRANCH  16  19
ENDBRANCH  14  16
BRANCH  14  22
ATOM     22  N   LIG d   1       4.546   1.687  -3.341  0.00  0.00     0.221 N 
ATOM     23  H   LIG d   1       4.105   2.462  -2.848  0.00  0.00     0.200 HD
ATOM     24  H   LIG d   1       5.120   2.051  -4.101  0.00  0.00     0.200 HD
ATOM     25  H   LIG d   1       3.815   1.082  -3.734  0.00  0.00     0.200 HD
ENDBRANCH  14  22
ENDBRANCH   1  14
TORSDOF 7
ENDMDL
MODEL 7
REMARK VINA RESULT:      -3.8      1.909      3.282
REMARK  7 active torsions:
REMARK  status: ('A' for Active; 'I' for Inactive)
REMARK    1  A    between atoms: C_1  and  C_2 
REMARK    2  A    between atoms: C_1  and  C_8 
REMARK    3  A    between atoms: C_2  and  C_3 
REMARK    4  A    between atoms: C_3  and  C_5 
REMARK    5  A    between atoms: C_3  and  N_22 
REMARK    6  A    between atoms: C_5  and  C_6 
REMARK    7  A    between atoms: C_8  and  N_24 
ROOT
ATOM      1  C   LIG d   1       4.191  -1.387  -2.102  0.00  0.00    -0.005 C 
ATOM      2  H   LIG d   1       3.182  -1.419  -2.513  0.00  0.00     0.032 H 
ATOM      3  H   LIG d   1       4.236  -1.998  -1.201  0.00  0.00     0.032 H 
ENDROOT
BRANCH   1   4
ATOM      4  C   LIG d   1       4.555   0.058  -1.757  0.00  0.00    -0.008 C 
ATOM      5  H   LIG d   1       4.575   0.179  -0.674  0.00  0.00     0.032 H 
ATOM      6  H   LIG d   1       5.538   0.293  -2.166  0.00  0.00     0.032 H 
BRANCH   4   7
ATOM      7  C   LIG d   1       3.514   1.004  -2.357  0.00  0.00    -0.035 C 
ATOM      8  H   LIG d   1       2.751   0.423  -2.874  0.00  0.00     0.081 H 
ATOM      9  H   LIG d   1       3.050   1.586  -1.560  0.00  0.00     0.081 H 
BRANCH   7  10
ATOM     10  N   LIG d   1       4.184   1.924  -3.293  0.00  0.00     0.218 N 
ATOM     11  H   LIG d   1       4.747   1.396  -3.957  0.00  0.00     0.199 HD
ATOM     12  H   LIG d   1       3.491   2.474  -3.799  0.00  0.00     0.199 HD
ATOM     13  H   LIG d   1       4.794   2.558  -2.766  0.00  0.00     0.199 HD
ENDBRANCH   7  10
ENDBRANCH   4   7
ENDBRANCH   1   4
BRANCH   1  14
ATOM     14  C   LIG d   1       5.179  -1.929  -3.137  0.00  0.00    -0.019 C 
ATOM     15  H   LIG d   1       5.500  -2.928  -2.843  0.00  0.00     0.085 H 
BRANCH  14  16
ATOM     16  C   LIG d   1       4.499  -1.994  -4.506  0.00  0.00     0.030 C 
ATOM     17  H   LIG d   1       3.450  -1.717  -4.405  0.00  0.00     0.038 H 
ATOM     18  H   LIG d   1       4.572  -3.008  -4.899  0.00  0.00     0.038 H 
BRANCH  16  19
ATOM     19  C   LIG d   1       5.182  -1.039  -5.452  0.00  0.00     0.047 C 
ATOM     20  O   LIG d   1       4.775   0.093  -5.565  0.00  0.00    -0.550 OA
ATOM     21  O   LIG d   1       6.246  -1.444  -6.162  0.00  0.00    -0.550 OA
ENDBRANCH  16  19
ENDBRANCH  14  16
BRANCH  14  22
ATOM     22  N   LIG d   1       6.354  -1.043  -3.187  0.00  0.00     0.221 N 
ATOM     23  H   LIG d   1       7.196  -1.564  -2.947  0.00  0.00     0.200 HD
ATOM     24  H   LIG d   1       6.455  -0.648  -4.121  0.00  0.00     0.200 HD
ATOM     25  H   LIG d   1       6.231  -0.278  -2.512  0.00  0.00     0.200 HD
ENDBRANCH  14  22
ENDBRANCH   1  14
TORSDOF 7
ENDMDL
MODEL 8
REMARK VINA RESULT:      -3.7      1.617      2.136
REMARK  7 active torsions:
REMARK  status: ('A' for Active; 'I' for Inactive)
REMARK    1  A    between atoms: C_1  and  C_2 
REMARK    2  A    between atoms: C_1  and  C_8 
REMARK    3  A    between atoms: C_2  and  C_3 
REMARK    4  A    between atoms: C_3  and  C_5 
REMARK    5  A    between atoms: C_3  and  N_22 
REMARK    6  A    between atoms: C_5  and  C_6 
REMARK    7  A    between atoms: C_8  and  N_24 
ROOT
ATOM      1  C   LIG d   1       3.819  -1.525  -3.507  0.00  0.00    -0.005 C 
ATOM      2  H   LIG d   1       4.254  -1.380  -4.497  0.00  0.00     0.032 H 
ATOM      3  H   LIG d   1       3.487  -2.558  -3.405  0.00  0.00     0.032 H 
ENDROOT
BRANCH   1   4
ATOM      4  C   LIG d   1       2.624  -0.586  -3.333  0.00  0.00    -0.008 C 
ATOM      5  H   LIG d   1       1.724  -1.173  -3.152  0.00  0.00     0.032 H 
ATOM      6  H   LIG d   1       2.802   0.075  -2.485  0.00  0.00     0.032 H 
BRANCH   4   7
ATOM      7  C   LIG d   1       2.442   0.249  -4.601  0.00  0.00    -0.035 C 
ATOM      8  H   LIG d   1       1.379   0.352  -4.819  0.00  0.00     0.081 H 
ATOM      9  H   LIG d   1       2.880   1.237  -4.452  0.00  0.00     0.081 H 
BRANCH   7  10
ATOM     10  N   LIG d   1       3.135  -0.416  -5.718  0.00  0.00     0.218 N 
ATOM     11  H   LIG d   1       3.297  -1.396  -5.494  0.00  0.00     0.199 HD
ATOM     12  H   LIG d   1       2.574  -0.352  -6.566  0.00  0.00     0.199 HD
ATOM     13  H   LIG d   1       4.038   0.044  -5.879  0.00  0.00     0.199 HD
ENDBRANCH   7  10
ENDBRANCH   4   7
ENDBRANCH   1   4
BRANCH   1  14
ATOM     14  C   LIG d   1       4.870  -1.218  -2.440  0.00  0.00    -0.019 C 
ATOM     15  H   LIG d   1       4.975  -2.076  -1.776  0.00  0.00     0.085 H 
BRANCH  14  16
ATOM     16  C   LIG d   1       6.213  -0.927  -3.114  0.00  0.00     0.030 C 
ATOM     17  H   LIG d   1       6.428  -1.706  -3.845  0.00  0.00     0.038 H 
ATOM     18  H   LIG d   1       7.000  -0.908  -2.361  0.00  0.00     0.038 H 
BRANCH  16  19
ATOM     19  C   LIG d   1       6.148   0.409  -3.808  0.00  0.00     0.047 C 
ATOM     20  O   LIG d   1       6.255   1.428  -3.167  0.00  0.00    -0.550 OA
ATOM     21  O   LIG d   1       5.978   0.467  -5.138  0.00  0.00    -0.550 OA
ENDBRANCH  16  19
ENDBRANCH  14  16
BRANCH  14  22
ATOM     22  N   LIG d   1       4.427  -0.054  -1.652  0.00  0.00     0.221 N 
ATOM     23  H   LIG d   1       3.411  -0.049  -1.577  0.00  0.00     0.200 HD
ATOM     24  H   LIG d   1       4.837  -0.087  -0.720  0.00  0.00     0.200 HD
ATOM     25  H   LIG d   1       4.731   0.807  -2.122  0.00  0.00     0.200 HD
ENDBRANCH  14  22
ENDBRANCH   1  14
TORSDOF 7
ENDMDL
MODEL 9
REMARK VINA RESULT:      -3.7      2.194      3.378
REMARK  7 active torsions:
REMARK  status: ('A' for Active; 'I' for Inactive)
REMARK    1  A    between atoms: C_1  and  C_2 
REMARK    2  A    between atoms: C_1  and  C_8 
REMARK    3  A    between atoms: C_2  and  C_3 
REMARK    4  A    between atoms: C_3  and  C_5 
REMARK    5  A    between atoms: C_3  and  N_22 
REMARK    6  A    between atoms: C_5  and  C_6 
REMARK    7  A    between atoms: C_8  and  N_24 
ROOT
ATOM      1  C   LIG d   1       5.465  -0.812  -4.179  0.00  0.00    -0.005 C 
ATOM      2  H   LIG d   1       5.410  -1.127  -5.221  0.00  0.00     0.032 H 
ATOM      3  H   LIG d   1       5.121   0.219  -4.092  0.00  0.00     0.032 H 
ENDROOT
BRANCH   1   4
ATOM      4  C   LIG d   1       6.912  -0.909  -3.693  0.00  0.00    -0.008 C 
ATOM      5  H   LIG d   1       6.927  -0.970  -2.605  0.00  0.00     0.032 H 
ATOM      6  H   LIG d   1       7.376  -1.801  -4.112  0.00  0.00     0.032 H 
BRANCH   4   7
ATOM      7  C   LIG d   1       7.687   0.330  -4.145  0.00  0.00    -0.035 C 
ATOM      8  H   LIG d   1       8.652   0.358  -3.641  0.00  0.00     0.081 H 
ATOM      9  H   LIG d   1       7.841   0.288  -5.224  0.00  0.00     0.081 H 
BRANCH   7  10
ATOM     10  N   LIG d   1       6.900   1.533  -3.821  0.00  0.00     0.218 N 
ATOM     11  H   LIG d   1       6.754   1.593  -2.815  0.00  0.00     0.199 HD
ATOM     12  H   LIG d   1       7.389   2.367  -4.142  0.00  0.00     0.199 HD
ATOM     13  H   LIG d   1       5.989   1.478  -4.290  0.00  0.00     0.199 HD
ENDBRANCH   7  10
ENDBRANCH   4   7
ENDBRANCH   1   4
BRANCH   1  14
ATOM     14  C   LIG d   1       4.577  -1.719  -3.325  0.00  0.00    -0.019 C 
ATOM     15  H   LIG d   1       4.997  -2.725  -3.308  0.00  0.00     0.085 H 
BRANCH  14  16
ATOM     16  C   LIG d   1       4.510  -1.170  -1.898  0.00  0.00     0.030 C 
ATOM     17  H   LIG d   1       5.487  -1.269  -1.424  0.00  0.00     0.038 H 
ATOM     18  H   LIG d   1       3.771  -1.733  -1.328  0.00  0.00     0.038 H 
BRANCH  16  19
ATOM     19  C   LIG d   1       4.114   0.283  -1.936  0.00  0.00     0.047 C 
ATOM     20  O   LIG d   1       3.011   0.599  -2.312  0.00  0.00    -0.550 OA
ATOM     21  O   LIG d   1       4.986   1.226  -1.546  0.00  0.00    -0.550 OA
ENDBRANCH  16  19
ENDBRANCH  14  16
BRANCH  14  22
ATOM     22  N   LIG d   1       3.231  -1.770  -3.921  0.00  0.00     0.221 N 
ATOM     23  H   LIG d   1       2.752  -0.882  -3.780  0.00  0.00     0.200 HD
ATOM     24  H   LIG d   1       3.297  -1.965  -4.919  0.00  0.00     0.200 HD
ATOM     25  H   LIG d   1       2.689  -2.517  -3.469  0.00  0.00     0.200 HD
ENDBRANCH  14  22
ENDBRANCH   1  14
TORSDOF 7
ENDMDL
MODEL 10
REMARK VINA RESULT:      -3.5      2.439      3.658
REMARK  7 active torsions:
REMARK  status: ('A' for Active; 'I' for Inactive)
REMARK    1  A    between atoms: C_1  and  C_2 
REMARK    2  A    between atoms: C_1  and  C_8 
REMARK    3  A    between atoms: C_2  and  C_3 
REMARK    4  A    between atoms: C_3  and  C_5 
REMARK    5  A    between atoms: C_3  and  N_22 
REMARK    6  A    between atoms: C_5  and  C_6 
REMARK    7  A    between atoms: C_8  and  N_24 
ROOT
ATOM      1  C   LIG d   1       5.847  -0.769  -2.945  0.00  0.00    -0.005 C 
ATOM      2  H   LIG d   1       6.250  -1.674  -2.491  0.00  0.00     0.032 H 
ATOM      3  H   LIG d   1       6.517   0.067  -2.745  0.00  0.00     0.032 H 
ENDROOT
BRANCH   1   4
ATOM      4  C   LIG d   1       4.469  -0.471  -2.352  0.00  0.00    -0.008 C 
ATOM      5  H   LIG d   1       3.703  -0.639  -3.109  0.00  0.00     0.032 H 
ATOM      6  H   LIG d   1       4.289  -1.130  -1.503  0.00  0.00     0.032 H 
BRANCH   4   7
ATOM      7  C   LIG d   1       4.417   0.985  -1.887  0.00  0.00    -0.035 C 
ATOM      8  H   LIG d   1       3.779   1.063  -1.007  0.00  0.00     0.081 H 
ATOM      9  H   LIG d   1       5.423   1.323  -1.637  0.00  0.00     0.081 H 
BRANCH   7  10
ATOM     10  N   LIG d   1       3.890   1.820  -2.981  0.00  0.00     0.218 N 
ATOM     11  H   LIG d   1       3.155   2.431  -2.631  0.00  0.00     0.199 HD
ATOM     12  H   LIG d   1       4.638   2.386  -3.380  0.00  0.00     0.199 HD
ATOM     13  H   LIG d   1       3.503   1.214  -3.713  0.00  0.00     0.199 HD
ENDBRANCH   7  10
ENDBRANCH   4   7
ENDBRANCH   1   4
BRANCH   1  14
ATOM     14  C   LIG d   1       5.719  -0.971  -4.456  0.00  0.00    -0.019 C 
ATOM     15  H   LIG d   1       6.363  -1.793  -4.767  0.00  0.00     0.085 H 
BRANCH  14  16
ATOM     16  C   LIG d   1       4.266  -1.299  -4.807  0.00  0.00     0.030 C 
ATOM     17  H   LIG d   1       3.635  -1.134  -3.933  0.00  0.00     0.038 H 
ATOM     18  H   LIG d   1       4.194  -2.342  -5.115  0.00  0.00     0.038 H 
BRANCH  16  19
ATOM     19  C   LIG d   1       3.807  -0.409  -5.932  0.00  0.00     0.047 C 
ATOM     20  O   LIG d   1       4.020  -0.726  -7.079  0.00  0.00    -0.550 OA
ATOM     21  O   LIG d   1       3.157   0.734  -5.662  0.00  0.00    -0.550 OA
ENDBRANCH  16  19
ENDBRANCH  14  16
BRANCH  14  22
ATOM     22  N   LIG d   1       6.148   0.260  -5.142  0.00  0.00     0.221 N 
ATOM     23  H   LIG d   1       5.848   1.078  -4.613  0.00  0.00     0.200 HD
ATOM     24  H   LIG d   1       7.163   0.272  -5.237  0.00  0.00     0.200 HD
ATOM     25  H   LIG d   1       5.724   0.292  -6.077  0.00  0.00     0.200 HD
ENDBRANCH  14  22
ENDBRANCH   1  14
TORSDOF 7
ENDMDL
