MODEL 1
REMARK VINA RESULT:      -6.1      0.000      0.000
REMARK  12 active torsions:
REMARK  status: ('A' for Active; 'I' for Inactive)
REMARK    1  A    between atoms: C_1  and  C_2 
REMARK    2  A    between atoms: C_2  and  C_3 
REMARK    3  A    between atoms: C_3  and  C_4 
REMARK    4  A    between atoms: C_4  and  C_5 
REMARK    5  A    between atoms: C_5  and  C_7 
REMARK    6  A    between atoms: C_5  and  N_22 
REMARK    7  A    between atoms: C_7  and  O_9 
REMARK    8  A    between atoms: O_9  and  C_10 
REMARK    9  A    between atoms: C_14  and  C_21 
REMARK   10  A    between atoms: N_22  and  S_23 
REMARK   11  A    between atoms: S_23  and  C_26 
REMARK   12  A    between atoms: C_29  and  C_32 
ROOT
ATOM      1  C   LIG d   1       4.183  -0.781  -5.215  0.00  0.00     0.126 C 
ATOM      2  H   LIG d   1       5.029  -0.097  -5.289  0.00  0.00     0.059 H 
ENDROOT
BRANCH   1   3
ATOM      3  C   LIG d   1       3.432  -0.523  -3.906  0.00  0.00    -0.026 C 
ATOM      4  H   LIG d   1       2.467  -1.028  -3.935  0.00  0.00     0.029 H 
ATOM      5  H   LIG d   1       4.017  -0.905  -3.071  0.00  0.00     0.029 H 
BRANCH   3   6
ATOM      6  C   LIG d   1       3.215   0.982  -3.732  0.00  0.00    -0.051 C 
ATOM      7  H   LIG d   1       3.819   1.523  -4.459  0.00  0.00     0.027 H 
ATOM      8  H   LIG d   1       2.162   1.217  -3.886  0.00  0.00     0.027 H 
BRANCH   6   9
ATOM      9  C   LIG d   1       3.628   1.395  -2.318  0.00  0.00    -0.056 C 
ATOM     10  H   LIG d   1       4.112   2.370  -2.351  0.00  0.00     0.026 H 
ATOM     11  H   LIG d   1       2.743   1.450  -1.682  0.00  0.00     0.026 H 
BRANCH   9  12
ATOM     12  C   LIG d   1       4.602   0.361  -1.748  0.00  0.00    -0.065 C 
ATOM     13  H   LIG d   1       5.555   0.841  -1.528  0.00  0.00     0.023 H 
ATOM     14  H   LIG d   1       4.189  -0.063  -0.834  0.00  0.00     0.023 H 
ATOM     15  H   LIG d   1       4.756  -0.433  -2.479  0.00  0.00     0.023 H 
ENDBRANCH   9  12
ENDBRANCH   6   9
ENDBRANCH   3   6
ENDBRANCH   1   3
BRANCH   1  16
ATOM     16  C   LIG d   1       4.684  -2.203  -5.234  0.00  0.00     0.331 C 
ATOM     17  O   LIG d   1       4.232  -3.013  -4.458  0.00  0.00    -0.249 OA
BRANCH  16  18
ATOM     18  O   LIG d   1       5.630  -2.570  -6.112  0.00  0.00    -0.425 OA
BRANCH  18  19
ATOM     19  C   LIG d   1       5.207  -3.049  -7.310  0.00  0.00     0.135 A 
ATOM     20  C   LIG d   1       4.169  -3.965  -7.356  0.00  0.00     0.024 A 
ATOM     21  C   LIG d   1       3.734  -4.454  -8.579  0.00  0.00     0.143 A 
ATOM     22  H   LIG d   1       3.699  -4.297  -6.442  0.00  0.00     0.069 H 
ATOM     23  C   LIG d   1       4.358  -4.012  -9.760  0.00  0.00     0.021 A 
ATOM     24  O   LIG d   1       2.725  -5.348  -8.646  0.00  0.00    -0.422 OA
ATOM     25  C   LIG d   1       5.406  -3.087  -9.695  0.00  0.00    -0.047 A 
ATOM     26  C   LIG d   1       3.892  -4.535 -11.046  0.00  0.00    -0.033 A 
ATOM     27  C   LIG d   1       5.816  -2.611  -8.484  0.00  0.00    -0.018 A 
ATOM     28  H   LIG d   1       5.885  -2.746 -10.601  0.00  0.00     0.063 H 
ATOM     29  H   LIG d   1       6.621  -1.893  -8.434  0.00  0.00     0.065 H 
ATOM     30  C   LIG d   1       2.872  -5.431 -11.044  0.00  0.00     0.026 A 
ATOM     31  C   LIG d   1       2.293  -5.831  -9.822  0.00  0.00     0.338 A 
ATOM     32  H   LIG d   1       2.505  -5.837 -11.975  0.00  0.00     0.069 H 
ATOM     33  O   LIG d   1       1.380  -6.636  -9.832  0.00  0.00    -0.245 OA
BRANCH  26  34
ATOM     34  C   LIG d   1       4.528  -4.090 -12.339  0.00  0.00    -0.039 C 
ATOM     35  H   LIG d   1       5.389  -4.722 -12.556  0.00  0.00     0.028 H 
ATOM     36  H   LIG d   1       3.803  -4.174 -13.148  0.00  0.00     0.028 H 
ATOM     37  H   LIG d   1       4.852  -3.053 -12.247  0.00  0.00     0.028 H 
ENDBRANCH  26  34
ENDBRANCH  18  19
ENDBRANCH  16  18
ENDBRANCH   1  16
BRANCH   1  38
ATOM     38  N   LIG d   1       3.278  -0.566  -6.347  0.00  0.00    -0.176 N 
ATOM     39  H   LIG d   1       2.449  -1.065  -6.406  0.00  0.00     0.149 HD
BRANCH  38  40
ATOM     40  S   LIG d   1       3.674   0.527  -7.527  0.00  0.00     0.059 S 
ATOM     41  O   LIG d   1       5.093   0.567  -7.582  0.00  0.00    -0.153 OA
ATOM     42  O   LIG d   1       2.887   1.685  -7.288  0.00  0.00    -0.153 OA
BRANCH  40  43
ATOM     43  C   LIG d   1       3.129  -0.144  -9.062  0.00  0.00     0.105 A 
ATOM     44  C   LIG d   1       2.074  -1.037  -9.091  0.00  0.00    -0.035 A 
ATOM     45  C   LIG d   1       1.642  -1.558 -10.297  0.00  0.00    -0.057 A 
ATOM     46  H   LIG d   1       1.587  -1.327  -8.171  0.00  0.00     0.064 H 
ATOM     47  C   LIG d   1       2.264  -1.185 -11.472  0.00  0.00    -0.050 A 
ATOM     48  H   LIG d   1       0.818  -2.255 -10.318  0.00  0.00     0.062 H 
ATOM     49  C   LIG d   1       3.319  -0.293 -11.444  0.00  0.00    -0.057 A 
ATOM     50  C   LIG d   1       3.752   0.228 -10.239  0.00  0.00    -0.035 A 
ATOM     51  H   LIG d   1       3.806  -0.002 -12.364  0.00  0.00     0.062 H 
ATOM     52  H   LIG d   1       4.577   0.925 -10.217  0.00  0.00     0.064 H 
BRANCH  47  53
ATOM     53  C   LIG d   1       1.794  -1.754 -12.787  0.00  0.00    -0.040 C 
ATOM     54  H   LIG d   1       2.470  -1.440 -13.581  0.00  0.00     0.028 H 
ATOM     55  H   LIG d   1       1.784  -2.843 -12.728  0.00  0.00     0.028 H 
ATOM     56  H   LIG d   1       0.788  -1.393 -13.001  0.00  0.00     0.028 H 
ENDBRANCH  47  53
ENDBRANCH  40  43
ENDBRANCH  38  40
ENDBRANCH   1  38
TORSDOF 12
ENDMDL
MODEL 2
REMARK VINA RESULT:      -6.1      2.361      3.741
REMARK  12 active torsions:
REMARK  status: ('A' for Active; 'I' for Inactive)
REMARK    1  A    between atoms: C_1  and  C_2 
REMARK    2  A    between atoms: C_2  and  C_3 
REMARK    3  A    between atoms: C_3  and  C_4 
REMARK    4  A    between atoms: C_4  and  C_5 
REMARK    5  A    between atoms: C_5  and  C_7 
REMARK    6  A    between atoms: C_5  and  N_22 
REMARK    7  A    between atoms: C_7  and  O_9 
REMARK    8  A    between atoms: O_9  and  C_10 
REMARK    9  A    between atoms: C_14  and  C_21 
REMARK   10  A    between atoms: N_22  and  S_23 
REMARK   11  A    between atoms: S_23  and  C_26 
REMARK   12  A    between atoms: C_29  and  C_32 
ROOT
ATOM      1  C   LIG d   1       4.726  -2.150  -4.359  0.00  0.00     0.126 C 
ATOM      2  H   LIG d   1       5.573  -1.468  -4.274  0.00  0.00     0.059 H 
ENDROOT
BRANCH   1   3
ATOM      3  C   LIG d   1       4.168  -2.446  -2.966  0.00  0.00    -0.026 C 
ATOM      4  H   LIG d   1       3.440  -3.256  -3.030  0.00  0.00     0.029 H 
ATOM      5  H   LIG d   1       4.981  -2.741  -2.304  0.00  0.00     0.029 H 
BRANCH   3   6
ATOM      6  C   LIG d   1       3.488  -1.193  -2.412  0.00  0.00    -0.051 C 
ATOM      7  H   LIG d   1       2.926  -0.702  -3.207  0.00  0.00     0.027 H 
ATOM      8  H   LIG d   1       2.810  -1.473  -1.606  0.00  0.00     0.027 H 
BRANCH   6   9
ATOM      9  C   LIG d   1       4.551  -0.234  -1.872  0.00  0.00    -0.056 C 
ATOM     10  H   LIG d   1       4.712  -0.429  -0.812  0.00  0.00     0.026 H 
ATOM     11  H   LIG d   1       5.484  -0.382  -2.416  0.00  0.00     0.026 H 
BRANCH   9  12
ATOM     12  C   LIG d   1       4.077   1.210  -2.058  0.00  0.00    -0.065 C 
ATOM     13  H   LIG d   1       3.901   1.663  -1.083  0.00  0.00     0.023 H 
ATOM     14  H   LIG d   1       4.839   1.777  -2.591  0.00  0.00     0.023 H 
ATOM     15  H   LIG d   1       3.151   1.216  -2.634  0.00  0.00     0.023 H 
ENDBRANCH   9  12
ENDBRANCH   6   9
ENDBRANCH   3   6
ENDBRANCH   1   3
BRANCH   1  16
ATOM     16  C   LIG d   1       5.180  -3.436  -5.002  0.00  0.00     0.331 C 
ATOM     17  O   LIG d   1       4.450  -4.400  -5.006  0.00  0.00    -0.249 OA
BRANCH  16  18
ATOM     18  O   LIG d   1       6.393  -3.511  -5.571  0.00  0.00    -0.425 OA
BRANCH  18  19
ATOM     19  C   LIG d   1       6.506  -3.054  -6.845  0.00  0.00     0.135 A 
ATOM     20  C   LIG d   1       7.008  -1.784  -7.077  0.00  0.00     0.024 A 
ATOM     21  C   LIG d   1       7.125  -1.317  -8.377  0.00  0.00     0.143 A 
ATOM     22  H   LIG d   1       7.307  -1.160  -6.248  0.00  0.00     0.069 H 
ATOM     23  C   LIG d   1       6.730  -2.142  -9.446  0.00  0.00     0.021 A 
ATOM     24  O   LIG d   1       7.610  -0.081  -8.626  0.00  0.00    -0.422 OA
ATOM     25  C   LIG d   1       6.225  -3.422  -9.194  0.00  0.00    -0.047 A 
ATOM     26  C   LIG d   1       6.858  -1.639 -10.815  0.00  0.00    -0.033 A 
ATOM     27  C   LIG d   1       6.123  -3.869  -7.908  0.00  0.00    -0.018 A 
ATOM     28  H   LIG d   1       5.922  -4.057 -10.013  0.00  0.00     0.063 H 
ATOM     29  H   LIG d   1       5.738  -4.859  -7.713  0.00  0.00     0.065 H 
ATOM     30  C   LIG d   1       7.354  -0.387 -10.996  0.00  0.00     0.026 A 
ATOM     31  C   LIG d   1       7.730   0.386  -9.879  0.00  0.00     0.338 A 
ATOM     32  H   LIG d   1       7.460   0.015 -11.993  0.00  0.00     0.069 H 
ATOM     33  O   LIG d   1       8.173   1.506 -10.054  0.00  0.00    -0.245 OA
BRANCH  26  34
ATOM     34  C   LIG d   1       6.448  -2.486 -11.993  0.00  0.00    -0.039 C 
ATOM     35  H   LIG d   1       7.326  -2.720 -12.595  0.00  0.00     0.028 H 
ATOM     36  H   LIG d   1       5.997  -3.412 -11.635  0.00  0.00     0.028 H 
ATOM     37  H   LIG d   1       5.725  -1.940 -12.600  0.00  0.00     0.028 H 
ENDBRANCH  26  34
ENDBRANCH  18  19
ENDBRANCH  16  18
ENDBRANCH   1  16
BRANCH   1  38
ATOM     38  N   LIG d   1       3.683  -1.534  -5.182  0.00  0.00    -0.176 N 
ATOM     39  H   LIG d   1       2.864  -2.017  -5.368  0.00  0.00     0.149 HD
BRANCH  38  40
ATOM     40  S   LIG d   1       3.905  -0.011  -5.796  0.00  0.00     0.059 S 
ATOM     41  O   LIG d   1       5.256   0.339  -5.533  0.00  0.00    -0.153 OA
ATOM     42  O   LIG d   1       2.811   0.773  -5.341  0.00  0.00    -0.153 OA
BRANCH  40  43
ATOM     43  C   LIG d   1       3.746  -0.128  -7.547  0.00  0.00     0.105 A 
ATOM     44  C   LIG d   1       4.108   0.940  -8.347  0.00  0.00    -0.035 A 
ATOM     45  C   LIG d   1       3.989   0.846  -9.721  0.00  0.00    -0.057 A 
ATOM     46  H   LIG d   1       4.485   1.847  -7.898  0.00  0.00     0.064 H 
ATOM     47  C   LIG d   1       3.509  -0.316 -10.295  0.00  0.00    -0.050 A 
ATOM     48  H   LIG d   1       4.273   1.680 -10.345  0.00  0.00     0.062 H 
ATOM     49  C   LIG d   1       3.146  -1.384  -9.496  0.00  0.00    -0.057 A 
ATOM     50  C   LIG d   1       3.264  -1.289  -8.121  0.00  0.00    -0.035 A 
ATOM     51  H   LIG d   1       2.770  -2.292  -9.944  0.00  0.00     0.062 H 
ATOM     52  H   LIG d   1       2.981  -2.124  -7.497  0.00  0.00     0.064 H 
BRANCH  47  53
ATOM     53  C   LIG d   1       3.379  -0.418 -11.793  0.00  0.00    -0.040 C 
ATOM     54  H   LIG d   1       4.305  -0.085 -12.261  0.00  0.00     0.028 H 
ATOM     55  H   LIG d   1       3.184  -1.454 -12.071  0.00  0.00     0.028 H 
ATOM     56  H   LIG d   1       2.555   0.211 -12.130  0.00  0.00     0.028 H 
ENDBRANCH  47  53
ENDBRANCH  40  43
ENDBRANCH  38  40
ENDBRANCH   1  38
TORSDOF 12
ENDMDL
MODEL 3
REMARK VINA RESULT:      -6.0      3.296      4.025
REMARK  12 active torsions:
REMARK  status: ('A' for Active; 'I' for Inactive)
REMARK    1  A    between atoms: C_1  and  C_2 
REMARK    2  A    between atoms: C_2  and  C_3 
REMARK    3  A    between atoms: C_3  and  C_4 
REMARK    4  A    between atoms: C_4  and  C_5 
REMARK    5  A    between atoms: C_5  and  C_7 
REMARK    6  A    between atoms: C_5  and  N_22 
REMARK    7  A    between atoms: C_7  and  O_9 
REMARK    8  A    between atoms: O_9  and  C_10 
REMARK    9  A    between atoms: C_14  and  C_21 
REMARK   10  A    between atoms: N_22  and  S_23 
REMARK   11  A    between atoms: S_23  and  C_26 
REMARK   12  A    between atoms: C_29  and  C_32 
ROOT
ATOM      1  C   LIG d   1       4.994  -1.678  -4.394  0.00  0.00     0.126 C 
ATOM      2  H   LIG d   1       5.178  -0.644  -4.098  0.00  0.00     0.059 H 
ENDROOT
BRANCH   1   3
ATOM      3  C   LIG d   1       4.245  -2.403  -3.274  0.00  0.00    -0.026 C 
ATOM      4  H   LIG d   1       3.214  -2.579  -3.581  0.00  0.00     0.029 H 
ATOM      5  H   LIG d   1       4.731  -3.357  -3.071  0.00  0.00     0.029 H 
BRANCH   3   6
ATOM      6  C   LIG d   1       4.262  -1.542  -2.009  0.00  0.00    -0.051 C 
ATOM      7  H   LIG d   1       3.658  -2.018  -1.237  0.00  0.00     0.027 H 
ATOM      8  H   LIG d   1       5.287  -1.436  -1.655  0.00  0.00     0.027 H 
BRANCH   6   9
ATOM      9  C   LIG d   1       3.687  -0.160  -2.327  0.00  0.00    -0.056 C 
ATOM     10  H   LIG d   1       3.653  -0.020  -3.407  0.00  0.00     0.026 H 
ATOM     11  H   LIG d   1       2.679  -0.083  -1.918  0.00  0.00     0.026 H 
BRANCH   9  12
ATOM     12  C   LIG d   1       4.576   0.917  -1.701  0.00  0.00    -0.065 C 
ATOM     13  H   LIG d   1       5.596   0.546  -1.620  0.00  0.00     0.023 H 
ATOM     14  H   LIG d   1       4.562   1.809  -2.327  0.00  0.00     0.023 H 
ATOM     15  H   LIG d   1       4.200   1.166  -0.708  0.00  0.00     0.023 H 
ENDBRANCH   9  12
ENDBRANCH   6   9
ENDBRANCH   3   6
ENDBRANCH   1   3
BRANCH   1  16
ATOM     16  C   LIG d   1       6.310  -2.369  -4.647  0.00  0.00     0.331 C 
ATOM     17  O   LIG d   1       7.207  -2.272  -3.842  0.00  0.00    -0.249 OA
BRANCH  16  18
ATOM     18  O   LIG d   1       6.486  -3.091  -5.764  0.00  0.00    -0.425 OA
BRANCH  18  19
ATOM     19  C   LIG d   1       6.667  -4.429  -5.612  0.00  0.00     0.135 A 
ATOM     20  C   LIG d   1       5.566  -5.262  -5.498  0.00  0.00     0.024 A 
ATOM     21  C   LIG d   1       5.749  -6.628  -5.344  0.00  0.00     0.143 A 
ATOM     22  H   LIG d   1       4.569  -4.849  -5.531  0.00  0.00     0.069 H 
ATOM     23  C   LIG d   1       7.055  -7.149  -5.303  0.00  0.00     0.021 A 
ATOM     24  O   LIG d   1       4.690  -7.459  -5.230  0.00  0.00    -0.422 OA
ATOM     25  C   LIG d   1       8.156  -6.293  -5.418  0.00  0.00    -0.047 A 
ATOM     26  C   LIG d   1       7.238  -8.593  -5.139  0.00  0.00    -0.033 A 
ATOM     27  C   LIG d   1       7.957  -4.952  -5.576  0.00  0.00    -0.018 A 
ATOM     28  H   LIG d   1       9.159  -6.692  -5.387  0.00  0.00     0.063 H 
ATOM     29  H   LIG d   1       8.807  -4.291  -5.671  0.00  0.00     0.065 H 
ATOM     30  C   LIG d   1       6.131  -9.372  -5.031  0.00  0.00     0.026 A 
ATOM     31  C   LIG d   1       4.851  -8.782  -5.080  0.00  0.00     0.338 A 
ATOM     32  H   LIG d   1       6.230 -10.441  -4.908  0.00  0.00     0.069 H 
ATOM     33  O   LIG d   1       3.866  -9.492  -4.982  0.00  0.00    -0.245 OA
BRANCH  26  34
ATOM     34  C   LIG d   1       8.618  -9.199  -5.090  0.00  0.00    -0.039 C 
ATOM     35  H   LIG d   1       8.754  -9.861  -5.944  0.00  0.00     0.028 H 
ATOM     36  H   LIG d   1       9.364  -8.405  -5.124  0.00  0.00     0.028 H 
ATOM     37  H   LIG d   1       8.733  -9.767  -4.166  0.00  0.00     0.028 H 
ENDBRANCH  26  34
ENDBRANCH  18  19
ENDBRANCH  16  18
ENDBRANCH   1  16
BRANCH   1  38
ATOM     38  N   LIG d   1       4.187  -1.702  -5.616  0.00  0.00    -0.176 N 
ATOM     39  H   LIG d   1       3.773  -2.529  -5.907  0.00  0.00     0.149 HD
BRANCH  38  40
ATOM     40  S   LIG d   1       3.984  -0.316  -6.500  0.00  0.00     0.059 S 
ATOM     41  O   LIG d   1       5.285   0.148  -6.834  0.00  0.00    -0.153 OA
ATOM     42  O   LIG d   1       3.047   0.484  -5.792  0.00  0.00    -0.153 OA
BRANCH  40  43
ATOM     43  C   LIG d   1       3.208  -0.774  -8.015  0.00  0.00     0.105 A 
ATOM     44  C   LIG d   1       3.385  -2.047  -8.525  0.00  0.00    -0.035 A 
ATOM     45  C   LIG d   1       2.772  -2.408  -9.711  0.00  0.00    -0.057 A 
ATOM     46  H   LIG d   1       4.002  -2.759  -7.997  0.00  0.00     0.064 H 
ATOM     47  C   LIG d   1       1.981  -1.497 -10.384  0.00  0.00    -0.050 A 
ATOM     48  H   LIG d   1       2.910  -3.402 -10.108  0.00  0.00     0.062 H 
ATOM     49  C   LIG d   1       1.804  -0.224  -9.875  0.00  0.00    -0.057 A 
ATOM     50  C   LIG d   1       2.418   0.138  -8.690  0.00  0.00    -0.035 A 
ATOM     51  H   LIG d   1       1.186   0.488 -10.401  0.00  0.00     0.062 H 
ATOM     52  H   LIG d   1       2.279   1.132  -8.292  0.00  0.00     0.064 H 
BRANCH  47  53
ATOM     53  C   LIG d   1       1.313  -1.891 -11.676  0.00  0.00    -0.040 C 
ATOM     54  H   LIG d   1       1.193  -2.973 -11.707  0.00  0.00     0.028 H 
ATOM     55  H   LIG d   1       0.333  -1.415 -11.739  0.00  0.00     0.028 H 
ATOM     56  H   LIG d   1       1.927  -1.568 -12.517  0.00  0.00     0.028 H 
ENDBRANCH  47  53
ENDBRANCH  40  43
ENDBRANCH  38  40
ENDBRANCH   1  38
TORSDOF 12
ENDMDL
MODEL 4
REMARK VINA RESULT:      -6.0      3.534      6.272
REMARK  12 active torsions:
REMARK  status: ('A' for Active; 'I' for Inactive)
REMARK    1  A    between atoms: C_1  and  C_2 
REMARK    2  A    between atoms: C_2  and  C_3 
REMARK    3  A    between atoms: C_3  and  C_4 
REMARK    4  A    between atoms: C_4  and  C_5 
REMARK    5  A    between atoms: C_5  and  C_7 
REMARK    6  A    between atoms: C_5  and  N_22 
REMARK    7  A    between atoms: C_7  and  O_9 
REMARK    8  A    between atoms: O_9  and  C_10 
REMARK    9  A    between atoms: C_14  and  C_21 
REMARK   10  A    between atoms: N_22  and  S_23 
REMARK   11  A    between atoms: S_23  and  C_26 
REMARK   12  A    between atoms: C_29  and  C_32 
ROOT
ATOM      1  C   LIG d   1       4.008  -0.097  -5.418  0.00  0.00     0.126 C 
ATOM      2  H   LIG d   1       4.617   0.807  -5.389  0.00  0.00     0.059 H 
ENDROOT
BRANCH   1   3
ATOM      3  C   LIG d   1       3.204  -0.212  -4.121  0.00  0.00    -0.026 C 
ATOM      4  H   LIG d   1       2.139  -0.225  -4.352  0.00  0.00     0.029 H 
ATOM      5  H   LIG d   1       3.475  -1.134  -3.607  0.00  0.00     0.029 H 
BRANCH   3   6
ATOM      6  C   LIG d   1       3.516   0.985  -3.220  0.00  0.00    -0.051 C 
ATOM      7  H   LIG d   1       4.149   1.690  -3.758  0.00  0.00     0.027 H 
ATOM      8  H   LIG d   1       2.586   1.476  -2.934  0.00  0.00     0.027 H 
BRANCH   6   9
ATOM      9  C   LIG d   1       4.244   0.501  -1.964  0.00  0.00    -0.056 C 
ATOM     10  H   LIG d   1       5.270   0.868  -1.975  0.00  0.00     0.026 H 
ATOM     11  H   LIG d   1       3.733   0.879  -1.079  0.00  0.00     0.026 H 
BRANCH   9  12
ATOM     12  C   LIG d   1       4.250  -1.029  -1.936  0.00  0.00    -0.065 C 
ATOM     13  H   LIG d   1       3.964  -1.376  -0.943  0.00  0.00     0.023 H 
ATOM     14  H   LIG d   1       3.542  -1.410  -2.672  0.00  0.00     0.023 H 
ATOM     15  H   LIG d   1       5.250  -1.392  -2.173  0.00  0.00     0.023 H 
ENDBRANCH   9  12
ENDBRANCH   6   9
ENDBRANCH   3   6
ENDBRANCH   1   3
BRANCH   1  16
ATOM     16  C   LIG d   1       4.902  -1.301  -5.563  0.00  0.00     0.331 C 
ATOM     17  O   LIG d   1       4.545  -2.241  -6.234  0.00  0.00    -0.249 OA
BRANCH  16  18
ATOM     18  O   LIG d   1       6.095  -1.330  -4.948  0.00  0.00    -0.425 OA
BRANCH  18  19
ATOM     19  C   LIG d   1       6.927  -0.279  -5.167  0.00  0.00     0.135 A 
ATOM     20  C   LIG d   1       7.303   0.531  -4.108  0.00  0.00     0.024 A 
ATOM     21  C   LIG d   1       8.153   1.604  -4.329  0.00  0.00     0.143 A 
ATOM     22  H   LIG d   1       6.935   0.328  -3.113  0.00  0.00     0.069 H 
ATOM     23  C   LIG d   1       8.623   1.856  -5.631  0.00  0.00     0.021 A 
ATOM     24  O   LIG d   1       8.531   2.407  -3.312  0.00  0.00    -0.422 OA
ATOM     25  C   LIG d   1       8.232   1.028  -6.690  0.00  0.00    -0.047 A 
ATOM     26  C   LIG d   1       9.520   2.991  -5.855  0.00  0.00    -0.033 A 
ATOM     27  C   LIG d   1       7.400  -0.028  -6.453  0.00  0.00    -0.018 A 
ATOM     28  H   LIG d   1       8.592   1.219  -7.689  0.00  0.00     0.063 H 
ATOM     29  H   LIG d   1       7.103  -0.671  -7.268  0.00  0.00     0.065 H 
ATOM     30  C   LIG d   1       9.861   3.759  -4.788  0.00  0.00     0.026 A 
ATOM     31  C   LIG d   1       9.353   3.449  -3.510  0.00  0.00     0.338 A 
ATOM     32  H   LIG d   1      10.520   4.605  -4.918  0.00  0.00     0.069 H 
ATOM     33  O   LIG d   1       9.666   4.146  -2.561  0.00  0.00    -0.245 OA
BRANCH  26  34
ATOM     34  C   LIG d   1      10.050   3.301  -7.232  0.00  0.00    -0.039 C 
ATOM     35  H   LIG d   1       9.541   2.676  -7.965  0.00  0.00     0.028 H 
ATOM     36  H   LIG d   1       9.870   4.351  -7.463  0.00  0.00     0.028 H 
ATOM     37  H   LIG d   1      11.121   3.100  -7.263  0.00  0.00     0.028 H 
ENDBRANCH  26  34
ENDBRANCH  18  19
ENDBRANCH  16  18
ENDBRANCH   1  16
BRANCH   1  38
ATOM     38  N   LIG d   1       3.089  -0.030  -6.557  0.00  0.00    -0.176 N 
ATOM     39  H   LIG d   1       2.288  -0.577  -6.566  0.00  0.00     0.149 HD
BRANCH  38  40
ATOM     40  S   LIG d   1       3.419   0.978  -7.829  0.00  0.00     0.059 S 
ATOM     41  O   LIG d   1       4.834   1.085  -7.905  0.00  0.00    -0.153 OA
ATOM     42  O   LIG d   1       2.575   2.111  -7.679  0.00  0.00    -0.153 OA
BRANCH  40  43
ATOM     43  C   LIG d   1       2.897   0.153  -9.296  0.00  0.00     0.105 A 
ATOM     44  C   LIG d   1       3.597   0.328 -10.475  0.00  0.00    -0.035 A 
ATOM     45  C   LIG d   1       3.191  -0.324 -11.624  0.00  0.00    -0.057 A 
ATOM     46  H   LIG d   1       4.463   0.974 -10.497  0.00  0.00     0.064 H 
ATOM     47  C   LIG d   1       2.085  -1.152 -11.593  0.00  0.00    -0.050 A 
ATOM     48  H   LIG d   1       3.738  -0.187 -12.544  0.00  0.00     0.062 H 
ATOM     49  C   LIG d   1       1.383  -1.327 -10.415  0.00  0.00    -0.057 A 
ATOM     50  C   LIG d   1       1.789  -0.674  -9.266  0.00  0.00    -0.035 A 
ATOM     51  H   LIG d   1       0.519  -1.974 -10.391  0.00  0.00     0.062 H 
ATOM     52  H   LIG d   1       1.241  -0.812  -8.345  0.00  0.00     0.064 H 
BRANCH  47  53
ATOM     53  C   LIG d   1       1.641  -1.863 -12.847  0.00  0.00    -0.040 C 
ATOM     54  H   LIG d   1       0.580  -1.678 -13.012  0.00  0.00     0.028 H 
ATOM     55  H   LIG d   1       2.212  -1.489 -13.697  0.00  0.00     0.028 H 
ATOM     56  H   LIG d   1       1.811  -2.934 -12.737  0.00  0.00     0.028 H 
ENDBRANCH  47  53
ENDBRANCH  40  43
ENDBRANCH  38  40
ENDBRANCH   1  38
TORSDOF 12
ENDMDL
MODEL 5
REMARK VINA RESULT:      -6.0      1.932      4.003
REMARK  12 active torsions:
REMARK  status: ('A' for Active; 'I' for Inactive)
REMARK    1  A    between atoms: C_1  and  C_2 
REMARK    2  A    between atoms: C_2  and  C_3 
REMARK    3  A    between atoms: C_3  and  C_4 
REMARK    4  A    between atoms: C_4  and  C_5 
REMARK    5  A    between atoms: C_5  and  C_7 
REMARK    6  A    between atoms: C_5  and  N_22 
REMARK    7  A    between atoms: C_7  and  O_9 
REMARK    8  A    between atoms: O_9  and  C_10 
REMARK    9  A    between atoms: C_14  and  C_21 
REMARK   10  A    between atoms: N_22  and  S_23 
REMARK   11  A    between atoms: S_23  and  C_26 
REMARK   12  A    between atoms: C_29  and  C_32 
ROOT
ATOM      1  C   LIG d   1       3.997  -1.284  -4.901  0.00  0.00     0.126 C 
ATOM      2  H   LIG d   1       3.364  -1.924  -5.516  0.00  0.00     0.059 H 
ENDROOT
BRANCH   1   3
ATOM      3  C   LIG d   1       3.207  -0.812  -3.678  0.00  0.00    -0.026 C 
ATOM      4  H   LIG d   1       3.060   0.267  -3.734  0.00  0.00     0.029 H 
ATOM      5  H   LIG d   1       2.238  -1.309  -3.657  0.00  0.00     0.029 H 
BRANCH   3   6
ATOM      6  C   LIG d   1       3.984  -1.156  -2.406  0.00  0.00    -0.051 C 
ATOM      7  H   LIG d   1       3.328  -1.676  -1.708  0.00  0.00     0.027 H 
ATOM      8  H   LIG d   1       4.828  -1.797  -2.658  0.00  0.00     0.027 H 
BRANCH   6   9
ATOM      9  C   LIG d   1       4.498   0.132  -1.759  0.00  0.00    -0.056 C 
ATOM     10  H   LIG d   1       4.360   0.077  -0.679  0.00  0.00     0.026 H 
ATOM     11  H   LIG d   1       5.558   0.254  -1.984  0.00  0.00     0.026 H 
BRANCH   9  12
ATOM     12  C   LIG d   1       3.718   1.327  -2.312  0.00  0.00    -0.065 C 
ATOM     13  H   LIG d   1       4.326   1.849  -3.049  0.00  0.00     0.023 H 
ATOM     14  H   LIG d   1       2.799   0.977  -2.781  0.00  0.00     0.023 H 
ATOM     15  H   LIG d   1       3.472   2.008  -1.496  0.00  0.00     0.023 H 
ENDBRANCH   9  12
ENDBRANCH   6   9
ENDBRANCH   3   6
ENDBRANCH   1   3
BRANCH   1  16
ATOM     16  C   LIG d   1       4.436  -0.088  -5.707  0.00  0.00     0.331 C 
ATOM     17  O   LIG d   1       5.594   0.259  -5.691  0.00  0.00    -0.249 OA
BRANCH  16  18
ATOM     18  O   LIG d   1       3.542   0.592  -6.442  0.00  0.00    -0.425 OA
BRANCH  18  19
ATOM     19  C   LIG d   1       3.473   0.289  -7.764  0.00  0.00     0.135 A 
ATOM     20  C   LIG d   1       2.439  -0.501  -8.236  0.00  0.00     0.024 A 
ATOM     21  C   LIG d   1       2.367  -0.810  -9.586  0.00  0.00     0.143 A 
ATOM     22  H   LIG d   1       1.690  -0.876  -7.553  0.00  0.00     0.069 H 
ATOM     23  C   LIG d   1       3.351  -0.314 -10.460  0.00  0.00     0.021 A 
ATOM     24  O   LIG d   1       1.368  -1.581 -10.066  0.00  0.00    -0.422 OA
ATOM     25  C   LIG d   1       4.390   0.482  -9.967  0.00  0.00    -0.047 A 
ATOM     26  C   LIG d   1       3.267  -0.647 -11.884  0.00  0.00    -0.033 A 
ATOM     27  C   LIG d   1       4.442   0.782  -8.636  0.00  0.00    -0.018 A 
ATOM     28  H   LIG d   1       5.146   0.864 -10.637  0.00  0.00     0.063 H 
ATOM     29  H   LIG d   1       5.240   1.402  -8.256  0.00  0.00     0.065 H 
ATOM     30  C   LIG d   1       2.236  -1.425 -12.302  0.00  0.00     0.026 A 
ATOM     31  C   LIG d   1       1.285  -1.888 -11.370  0.00  0.00     0.338 A 
ATOM     32  H   LIG d   1       2.145  -1.690 -13.345  0.00  0.00     0.069 H 
ATOM     33  O   LIG d   1       0.365  -2.586 -11.757  0.00  0.00    -0.245 OA
BRANCH  26  34
ATOM     34  C   LIG d   1       4.297  -0.138 -12.860  0.00  0.00    -0.039 C 
ATOM     35  H   LIG d   1       4.109   0.914 -13.072  0.00  0.00     0.028 H 
ATOM     36  H   LIG d   1       5.292  -0.249 -12.428  0.00  0.00     0.028 H 
ATOM     37  H   LIG d   1       4.237  -0.713 -13.785  0.00  0.00     0.028 H 
ENDBRANCH  26  34
ENDBRANCH  18  19
ENDBRANCH  16  18
ENDBRANCH   1  16
BRANCH   1  38
ATOM     38  N   LIG d   1       5.174  -2.035  -4.461  0.00  0.00    -0.176 N 
ATOM     39  H   LIG d   1       5.828  -1.616  -3.880  0.00  0.00     0.149 HD
BRANCH  38  40
ATOM     40  S   LIG d   1       5.389  -3.601  -4.956  0.00  0.00     0.059 S 
ATOM     41  O   LIG d   1       4.323  -4.354  -4.395  0.00  0.00    -0.153 OA
ATOM     42  O   LIG d   1       6.754  -3.918  -4.720  0.00  0.00    -0.153 OA
BRANCH  40  43
ATOM     43  C   LIG d   1       5.161  -3.631  -6.703  0.00  0.00     0.105 A 
ATOM     44  C   LIG d   1       4.103  -4.331  -7.251  0.00  0.00    -0.035 A 
ATOM     45  C   LIG d   1       3.921  -4.349  -8.622  0.00  0.00    -0.057 A 
ATOM     46  H   LIG d   1       3.418  -4.865  -6.608  0.00  0.00     0.064 H 
ATOM     47  C   LIG d   1       4.796  -3.665  -9.443  0.00  0.00    -0.050 A 
ATOM     48  H   LIG d   1       3.095  -4.897  -9.049  0.00  0.00     0.062 H 
ATOM     49  C   LIG d   1       5.854  -2.964  -8.896  0.00  0.00    -0.057 A 
ATOM     50  C   LIG d   1       6.037  -2.947  -7.525  0.00  0.00    -0.035 A 
ATOM     51  H   LIG d   1       6.539  -2.429  -9.538  0.00  0.00     0.062 H 
ATOM     52  H   LIG d   1       6.864  -2.399  -7.098  0.00  0.00     0.064 H 
BRANCH  47  53
ATOM     53  C   LIG d   1       4.598  -3.684 -10.937  0.00  0.00    -0.040 C 
ATOM     54  H   LIG d   1       3.705  -3.114 -11.192  0.00  0.00     0.028 H 
ATOM     55  H   LIG d   1       5.465  -3.238 -11.425  0.00  0.00     0.028 H 
ATOM     56  H   LIG d   1       4.481  -4.714 -11.275  0.00  0.00     0.028 H 
ENDBRANCH  47  53
ENDBRANCH  40  43
ENDBRANCH  38  40
ENDBRANCH   1  38
TORSDOF 12
ENDMDL
MODEL 6
REMARK VINA RESULT:      -5.9      3.338      6.097
REMARK  12 active torsions:
REMARK  status: ('A' for Active; 'I' for Inactive)
REMARK    1  A    between atoms: C_1  and  C_2 
REMARK    2  A    between atoms: C_2  and  C_3 
REMARK    3  A    between atoms: C_3  and  C_4 
REMARK    4  A    between atoms: C_4  and  C_5 
REMARK    5  A    between atoms: C_5  and  C_7 
REMARK    6  A    between atoms: C_5  and  N_22 
REMARK    7  A    between atoms: C_7  and  O_9 
REMARK    8  A    between atoms: O_9  and  C_10 
REMARK    9  A    between atoms: C_14  and  C_21 
REMARK   10  A    between atoms: N_22  and  S_23 
REMARK   11  A    between atoms: S_23  and  C_26 
REMARK   12  A    between atoms: C_29  and  C_32 
ROOT
ATOM      1  C   LIG d   1       4.129  -0.156  -5.450  0.00  0.00     0.126 C 
ATOM      2  H   LIG d   1       4.657   0.798  -5.415  0.00  0.00     0.059 H 
ENDROOT
BRANCH   1   3
ATOM      3  C   LIG d   1       3.282  -0.317  -4.186  0.00  0.00    -0.026 C 
ATOM      4  H   LIG d   1       2.236  -0.449  -4.464  0.00  0.00     0.029 H 
ATOM      5  H   LIG d   1       3.622  -1.190  -3.630  0.00  0.00     0.029 H 
BRANCH   3   6
ATOM      6  C   LIG d   1       3.425   0.932  -3.314  0.00  0.00    -0.051 C 
ATOM      7  H   LIG d   1       4.037   1.670  -3.833  0.00  0.00     0.027 H 
ATOM      8  H   LIG d   1       2.439   1.352  -3.116  0.00  0.00     0.027 H 
BRANCH   6   9
ATOM      9  C   LIG d   1       4.094   0.555  -1.991  0.00  0.00    -0.056 C 
ATOM     10  H   LIG d   1       5.070   1.035  -1.927  0.00  0.00     0.026 H 
ATOM     11  H   LIG d   1       3.470   0.888  -1.160  0.00  0.00     0.026 H 
BRANCH   9  12
ATOM     12  C   LIG d   1       4.267  -0.964  -1.921  0.00  0.00    -0.065 C 
ATOM     13  H   LIG d   1       4.518  -1.255  -0.902  0.00  0.00     0.023 H 
ATOM     14  H   LIG d   1       3.339  -1.450  -2.220  0.00  0.00     0.023 H 
ATOM     15  H   LIG d   1       5.068  -1.269  -2.594  0.00  0.00     0.023 H 
ENDBRANCH   9  12
ENDBRANCH   6   9
ENDBRANCH   3   6
ENDBRANCH   1   3
BRANCH   1  16
ATOM     16  C   LIG d   1       5.129  -1.281  -5.531  0.00  0.00     0.331 C 
ATOM     17  O   LIG d   1       4.912  -2.233  -6.243  0.00  0.00    -0.249 OA
BRANCH  16  18
ATOM     18  O   LIG d   1       6.262  -1.226  -4.812  0.00  0.00    -0.425 OA
BRANCH  18  19
ATOM     19  C   LIG d   1       6.990  -0.082  -4.896  0.00  0.00     0.135 A 
ATOM     20  C   LIG d   1       7.498   0.320  -6.120  0.00  0.00     0.024 A 
ATOM     21  C   LIG d   1       8.241   1.488  -6.208  0.00  0.00     0.143 A 
ATOM     22  H   LIG d   1       7.317  -0.275  -7.004  0.00  0.00     0.069 H 
ATOM     23  C   LIG d   1       8.469   2.250  -5.047  0.00  0.00     0.021 A 
ATOM     24  O   LIG d   1       8.747   1.897  -7.391  0.00  0.00    -0.422 OA
ATOM     25  C   LIG d   1       7.949   1.828  -3.819  0.00  0.00    -0.047 A 
ATOM     26  C   LIG d   1       9.255   3.481  -5.151  0.00  0.00    -0.033 A 
ATOM     27  C   LIG d   1       7.214   0.680  -3.752  0.00  0.00    -0.018 A 
ATOM     28  H   LIG d   1       8.122   2.412  -2.927  0.00  0.00     0.063 H 
ATOM     29  H   LIG d   1       6.808   0.357  -2.804  0.00  0.00     0.065 H 
ATOM     30  C   LIG d   1       9.734   3.837  -6.371  0.00  0.00     0.026 A 
ATOM     31  C   LIG d   1       9.467   3.025  -7.492  0.00  0.00     0.338 A 
ATOM     32  H   LIG d   1      10.318   4.739  -6.482  0.00  0.00     0.069 H 
ATOM     33  O   LIG d   1       9.903   3.354  -8.581  0.00  0.00    -0.245 OA
BRANCH  26  34
ATOM     34  C   LIG d   1       9.525   4.332  -3.935  0.00  0.00    -0.039 C 
ATOM     35  H   LIG d   1       8.646   4.936  -3.712  0.00  0.00     0.028 H 
ATOM     36  H   LIG d   1       9.749   3.688  -3.085  0.00  0.00     0.028 H 
ATOM     37  H   LIG d   1      10.376   4.985  -4.131  0.00  0.00     0.028 H 
ENDBRANCH  26  34
ENDBRANCH  18  19
ENDBRANCH  16  18
ENDBRANCH   1  16
BRANCH   1  38
ATOM     38  N   LIG d   1       3.259  -0.190  -6.628  0.00  0.00    -0.176 N 
ATOM     39  H   LIG d   1       2.528  -0.826  -6.673  0.00  0.00     0.149 HD
BRANCH  38  40
ATOM     40  S   LIG d   1       3.526   0.856  -7.884  0.00  0.00     0.059 S 
ATOM     41  O   LIG d   1       4.935   0.984  -8.014  0.00  0.00    -0.153 OA
ATOM     42  O   LIG d   1       2.674   1.974  -7.670  0.00  0.00    -0.153 OA
BRANCH  40  43
ATOM     43  C   LIG d   1       2.955   0.064  -9.351  0.00  0.00     0.105 A 
ATOM     44  C   LIG d   1       1.792  -0.682  -9.327  0.00  0.00    -0.035 A 
ATOM     45  C   LIG d   1       1.341  -1.298 -10.480  0.00  0.00    -0.057 A 
ATOM     46  H   LIG d   1       1.235  -0.783  -8.407  0.00  0.00     0.064 H 
ATOM     47  C   LIG d   1       2.053  -1.167 -11.656  0.00  0.00    -0.050 A 
ATOM     48  H   LIG d   1       0.432  -1.881 -10.459  0.00  0.00     0.062 H 
ATOM     49  C   LIG d   1       3.216  -0.421 -11.682  0.00  0.00    -0.057 A 
ATOM     50  C   LIG d   1       3.668   0.195 -10.529  0.00  0.00    -0.035 A 
ATOM     51  H   LIG d   1       3.773  -0.318 -12.602  0.00  0.00     0.062 H 
ATOM     52  H   LIG d   1       4.577   0.778 -10.549  0.00  0.00     0.064 H 
BRANCH  47  53
ATOM     53  C   LIG d   1       1.561  -1.839 -12.913  0.00  0.00    -0.040 C 
ATOM     54  H   LIG d   1       0.884  -2.650 -12.649  0.00  0.00     0.028 H 
ATOM     55  H   LIG d   1       1.033  -1.112 -13.531  0.00  0.00     0.028 H 
ATOM     56  H   LIG d   1       2.410  -2.239 -13.467  0.00  0.00     0.028 H 
ENDBRANCH  47  53
ENDBRANCH  40  43
ENDBRANCH  38  40
ENDBRANCH   1  38
TORSDOF 12
ENDMDL
MODEL 7
REMARK VINA RESULT:      -5.9      1.528      2.155
REMARK  12 active torsions:
REMARK  status: ('A' for Active; 'I' for Inactive)
REMARK    1  A    between atoms: C_1  and  C_2 
REMARK    2  A    between atoms: C_2  and  C_3 
REMARK    3  A    between atoms: C_3  and  C_4 
REMARK    4  A    between atoms: C_4  and  C_5 
REMARK    5  A    between atoms: C_5  and  C_7 
REMARK    6  A    between atoms: C_5  and  N_22 
REMARK    7  A    between atoms: C_7  and  O_9 
REMARK    8  A    between atoms: O_9  and  C_10 
REMARK    9  A    between atoms: C_14  and  C_21 
REMARK   10  A    between atoms: N_22  and  S_23 
REMARK   11  A    between atoms: S_23  and  C_26 
REMARK   12  A    between atoms: C_29  and  C_32 
ROOT
ATOM      1  C   LIG d   1       4.043  -0.538  -5.280  0.00  0.00     0.126 C 
ATOM      2  H   LIG d   1       4.881   0.156  -5.354  0.00  0.00     0.059 H 
ENDROOT
BRANCH   1   3
ATOM      3  C   LIG d   1       3.248  -0.243  -4.006  0.00  0.00    -0.026 C 
ATOM      4  H   LIG d   1       2.184  -0.204  -4.242  0.00  0.00     0.029 H 
ATOM      5  H   LIG d   1       3.429  -1.030  -3.274  0.00  0.00     0.029 H 
BRANCH   3   6
ATOM      6  C   LIG d   1       3.692   1.102  -3.428  0.00  0.00    -0.051 C 
ATOM      7  H   LIG d   1       4.521   1.495  -4.016  0.00  0.00     0.027 H 
ATOM      8  H   LIG d   1       2.859   1.804  -3.460  0.00  0.00     0.027 H 
BRANCH   6   9
ATOM      9  C   LIG d   1       4.141   0.910  -1.978  0.00  0.00    -0.056 C 
ATOM     10  H   LIG d   1       5.038   1.501  -1.794  0.00  0.00     0.026 H 
ATOM     11  H   LIG d   1       3.347   1.236  -1.306  0.00  0.00     0.026 H 
BRANCH   9  12
ATOM     12  C   LIG d   1       4.445  -0.569  -1.730  0.00  0.00    -0.065 C 
ATOM     13  H   LIG d   1       3.536  -1.154  -1.860  0.00  0.00     0.023 H 
ATOM     14  H   LIG d   1       5.201  -0.909  -2.437  0.00  0.00     0.023 H 
ATOM     15  H   LIG d   1       4.816  -0.697  -0.713  0.00  0.00     0.023 H 
ENDBRANCH   9  12
ENDBRANCH   6   9
ENDBRANCH   3   6
ENDBRANCH   1   3
BRANCH   1  16
ATOM     16  C   LIG d   1       4.565  -1.952  -5.229  0.00  0.00     0.331 C 
ATOM     17  O   LIG d   1       4.092  -2.743  -4.447  0.00  0.00    -0.249 OA
BRANCH  16  18
ATOM     18  O   LIG d   1       5.554  -2.332  -6.053  0.00  0.00    -0.425 OA
BRANCH  18  19
ATOM     19  C   LIG d   1       5.194  -2.778  -7.284  0.00  0.00     0.135 A 
ATOM     20  C   LIG d   1       5.925  -2.392  -8.396  0.00  0.00     0.024 A 
ATOM     21  C   LIG d   1       5.559  -2.847  -9.653  0.00  0.00     0.143 A 
ATOM     22  H   LIG d   1       6.778  -1.738  -8.282  0.00  0.00     0.069 H 
ATOM     23  C   LIG d   1       4.445  -3.696  -9.783  0.00  0.00     0.021 A 
ATOM     24  O   LIG d   1       6.257  -2.481 -10.750  0.00  0.00    -0.422 OA
ATOM     25  C   LIG d   1       3.717  -4.076  -8.650  0.00  0.00    -0.047 A 
ATOM     26  C   LIG d   1       4.067  -4.171 -11.116  0.00  0.00    -0.033 A 
ATOM     27  C   LIG d   1       4.096  -3.624  -7.419  0.00  0.00    -0.018 A 
ATOM     28  H   LIG d   1       2.863  -4.728  -8.748  0.00  0.00     0.063 H 
ATOM     29  H   LIG d   1       3.537  -3.922  -6.543  0.00  0.00     0.065 H 
ATOM     30  C   LIG d   1       4.812  -3.767 -12.177  0.00  0.00     0.026 A 
ATOM     31  C   LIG d   1       5.915  -2.913 -11.974  0.00  0.00     0.338 A 
ATOM     32  H   LIG d   1       4.559  -4.098 -13.174  0.00  0.00     0.069 H 
ATOM     33  O   LIG d   1       6.575  -2.557 -12.934  0.00  0.00    -0.245 OA
BRANCH  26  34
ATOM     34  C   LIG d   1       2.882  -5.084 -11.305  0.00  0.00    -0.039 C 
ATOM     35  H   LIG d   1       2.818  -5.775 -10.466  0.00  0.00     0.028 H 
ATOM     36  H   LIG d   1       1.970  -4.489 -11.356  0.00  0.00     0.028 H 
ATOM     37  H   LIG d   1       3.000  -5.646 -12.232  0.00  0.00     0.028 H 
ENDBRANCH  26  34
ENDBRANCH  18  19
ENDBRANCH  16  18
ENDBRANCH   1  16
BRANCH   1  38
ATOM     38  N   LIG d   1       3.172  -0.380  -6.446  0.00  0.00    -0.176 N 
ATOM     39  H   LIG d   1       2.358  -0.903  -6.518  0.00  0.00     0.149 HD
BRANCH  38  40
ATOM     40  S   LIG d   1       3.578   0.689  -7.644  0.00  0.00     0.059 S 
ATOM     41  O   LIG d   1       4.998   0.736  -7.682  0.00  0.00    -0.153 OA
ATOM     42  O   LIG d   1       2.782   1.848  -7.441  0.00  0.00    -0.153 OA
BRANCH  40  43
ATOM     43  C   LIG d   1       3.057  -0.017  -9.172  0.00  0.00     0.105 A 
ATOM     44  C   LIG d   1       1.950  -0.844  -9.210  0.00  0.00    -0.035 A 
ATOM     45  C   LIG d   1       1.537  -1.393 -10.410  0.00  0.00    -0.057 A 
ATOM     46  H   LIG d   1       1.407  -1.060  -8.301  0.00  0.00     0.064 H 
ATOM     47  C   LIG d   1       2.232  -1.114 -11.571  0.00  0.00    -0.050 A 
ATOM     48  H   LIG d   1       0.673  -2.039 -10.438  0.00  0.00     0.062 H 
ATOM     49  C   LIG d   1       3.339  -0.288 -11.535  0.00  0.00    -0.057 A 
ATOM     50  C   LIG d   1       3.752   0.261 -10.334  0.00  0.00    -0.035 A 
ATOM     51  H   LIG d   1       3.882  -0.070 -12.443  0.00  0.00     0.062 H 
ATOM     52  H   LIG d   1       4.617   0.907 -10.306  0.00  0.00     0.064 H 
BRANCH  47  53
ATOM     53  C   LIG d   1       1.782  -1.713 -12.879  0.00  0.00    -0.040 C 
ATOM     54  H   LIG d   1       1.307  -2.676 -12.693  0.00  0.00     0.028 H 
ATOM     55  H   LIG d   1       1.068  -1.043 -13.360  0.00  0.00     0.028 H 
ATOM     56  H   LIG d   1       2.644  -1.853 -13.531  0.00  0.00     0.028 H 
ENDBRANCH  47  53
ENDBRANCH  40  43
ENDBRANCH  38  40
ENDBRANCH   1  38
TORSDOF 12
ENDMDL
MODEL 8
REMARK VINA RESULT:      -5.9      3.565      6.370
REMARK  12 active torsions:
REMARK  status: ('A' for Active; 'I' for Inactive)
REMARK    1  A    between atoms: C_1  and  C_2 
REMARK    2  A    between atoms: C_2  and  C_3 
REMARK    3  A    between atoms: C_3  and  C_4 
REMARK    4  A    between atoms: C_4  and  C_5 
REMARK    5  A    between atoms: C_5  and  C_7 
REMARK    6  A    between atoms: C_5  and  N_22 
REMARK    7  A    between atoms: C_7  and  O_9 
REMARK    8  A    between atoms: O_9  and  C_10 
REMARK    9  A    between atoms: C_14  and  C_21 
REMARK   10  A    between atoms: N_22  and  S_23 
REMARK   11  A    between atoms: S_23  and  C_26 
REMARK   12  A    between atoms: C_29  and  C_32 
ROOT
ATOM      1  C   LIG d   1       3.782  -0.628  -5.124  0.00  0.00     0.126 C 
ATOM      2  H   LIG d   1       4.396   0.272  -5.166  0.00  0.00     0.059 H 
ENDROOT
BRANCH   1   3
ATOM      3  C   LIG d   1       2.560  -0.370  -4.240  0.00  0.00    -0.026 C 
ATOM      4  H   LIG d   1       2.094   0.572  -4.529  0.00  0.00     0.029 H 
ATOM      5  H   LIG d   1       1.845  -1.183  -4.363  0.00  0.00     0.029 H 
BRANCH   3   6
ATOM      6  C   LIG d   1       2.998  -0.294  -2.776  0.00  0.00    -0.051 C 
ATOM      7  H   LIG d   1       2.149  -0.518  -2.130  0.00  0.00     0.027 H 
ATOM      8  H   LIG d   1       3.792  -1.017  -2.596  0.00  0.00     0.027 H 
BRANCH   6   9
ATOM      9  C   LIG d   1       3.513   1.114  -2.471  0.00  0.00    -0.056 C 
ATOM     10  H   LIG d   1       3.877   1.574  -3.389  0.00  0.00     0.026 H 
ATOM     11  H   LIG d   1       2.702   1.717  -2.060  0.00  0.00     0.026 H 
BRANCH   9  12
ATOM     12  C   LIG d   1       4.653   1.031  -1.454  0.00  0.00    -0.065 C 
ATOM     13  H   LIG d   1       5.326   1.877  -1.592  0.00  0.00     0.023 H 
ATOM     14  H   LIG d   1       4.243   1.053  -0.445  0.00  0.00     0.023 H 
ATOM     15  H   LIG d   1       5.204   0.102  -1.602  0.00  0.00     0.023 H 
ENDBRANCH   9  12
ENDBRANCH   6   9
ENDBRANCH   3   6
ENDBRANCH   1   3
BRANCH   1  16
ATOM     16  C   LIG d   1       4.591  -1.761  -4.544  0.00  0.00     0.331 C 
ATOM     17  O   LIG d   1       4.238  -2.904  -4.715  0.00  0.00    -0.249 OA
BRANCH  16  18
ATOM     18  O   LIG d   1       5.703  -1.500  -3.839  0.00  0.00    -0.425 OA
BRANCH  18  19
ATOM     19  C   LIG d   1       6.580  -0.612  -4.376  0.00  0.00     0.135 A 
ATOM     20  C   LIG d   1       7.034   0.451  -3.614  0.00  0.00     0.024 A 
ATOM     21  C   LIG d   1       7.930   1.357  -4.160  0.00  0.00     0.143 A 
ATOM     22  H   LIG d   1       6.691   0.574  -2.597  0.00  0.00     0.069 H 
ATOM     23  C   LIG d   1       8.366   1.183  -5.487  0.00  0.00     0.021 A 
ATOM     24  O   LIG d   1       8.384   2.402  -3.436  0.00  0.00    -0.422 OA
ATOM     25  C   LIG d   1       7.896   0.104  -6.243  0.00  0.00    -0.047 A 
ATOM     26  C   LIG d   1       9.312   2.146  -6.055  0.00  0.00    -0.033 A 
ATOM     27  C   LIG d   1       7.019  -0.783  -5.687  0.00  0.00    -0.018 A 
ATOM     28  H   LIG d   1       8.230  -0.032  -7.261  0.00  0.00     0.063 H 
ATOM     29  H   LIG d   1       6.661  -1.620  -6.268  0.00  0.00     0.065 H 
ATOM     30  C   LIG d   1       9.730   3.174  -5.272  0.00  0.00     0.026 A 
ATOM     31  C   LIG d   1       9.252   3.288  -3.950  0.00  0.00     0.338 A 
ATOM     32  H   LIG d   1      10.427   3.902  -5.660  0.00  0.00     0.069 H 
ATOM     33  O   LIG d   1       9.634   4.214  -3.258  0.00  0.00    -0.245 OA
BRANCH  26  34
ATOM     34  C   LIG d   1       9.808   2.001  -7.471  0.00  0.00    -0.039 C 
ATOM     35  H   LIG d   1      10.171   0.986  -7.626  0.00  0.00     0.028 H 
ATOM     36  H   LIG d   1       8.992   2.205  -8.164  0.00  0.00     0.028 H 
ATOM     37  H   LIG d   1      10.619   2.709  -7.646  0.00  0.00     0.028 H 
ENDBRANCH  26  34
ENDBRANCH  18  19
ENDBRANCH  16  18
ENDBRANCH   1  16
BRANCH   1  38
ATOM     38  N   LIG d   1       3.341  -0.984  -6.474  0.00  0.00    -0.176 N 
ATOM     39  H   LIG d   1       3.120  -1.904  -6.686  0.00  0.00     0.149 HD
BRANCH  38  40
ATOM     40  S   LIG d   1       3.221   0.186  -7.641  0.00  0.00     0.059 S 
ATOM     41  O   LIG d   1       3.091   1.426  -6.960  0.00  0.00    -0.153 OA
ATOM     42  O   LIG d   1       2.258  -0.274  -8.580  0.00  0.00    -0.153 OA
BRANCH  40  43
ATOM     43  C   LIG d   1       4.765   0.237  -8.489  0.00  0.00     0.105 A 
ATOM     44  C   LIG d   1       5.333  -0.931  -8.961  0.00  0.00    -0.035 A 
ATOM     45  C   LIG d   1       6.542  -0.891  -9.632  0.00  0.00    -0.057 A 
ATOM     46  H   LIG d   1       4.832  -1.876  -8.807  0.00  0.00     0.064 H 
ATOM     47  C   LIG d   1       7.180   0.318  -9.830  0.00  0.00    -0.050 A 
ATOM     48  H   LIG d   1       6.985  -1.803 -10.000  0.00  0.00     0.062 H 
ATOM     49  C   LIG d   1       6.613   1.487  -9.358  0.00  0.00    -0.057 A 
ATOM     50  C   LIG d   1       5.405   1.446  -8.686  0.00  0.00    -0.035 A 
ATOM     51  H   LIG d   1       7.112   2.432  -9.513  0.00  0.00     0.062 H 
ATOM     52  H   LIG d   1       4.961   2.359  -8.318  0.00  0.00     0.064 H 
BRANCH  47  53
ATOM     53  C   LIG d   1       8.498   0.363 -10.561  0.00  0.00    -0.040 C 
ATOM     54  H   LIG d   1       9.151   1.095 -10.087  0.00  0.00     0.028 H 
ATOM     55  H   LIG d   1       8.968  -0.621 -10.523  0.00  0.00     0.028 H 
ATOM     56  H   LIG d   1       8.329   0.644 -11.600  0.00  0.00     0.028 H 
ENDBRANCH  47  53
ENDBRANCH  40  43
ENDBRANCH  38  40
ENDBRANCH   1  38
TORSDOF 12
ENDMDL
MODEL 9
REMARK VINA RESULT:      -5.8      2.136      4.548
REMARK  12 active torsions:
REMARK  status: ('A' for Active; 'I' for Inactive)
REMARK    1  A    between atoms: C_1  and  C_2 
REMARK    2  A    between atoms: C_2  and  C_3 
REMARK    3  A    between atoms: C_3  and  C_4 
REMARK    4  A    between atoms: C_4  and  C_5 
REMARK    5  A    between atoms: C_5  and  C_7 
REMARK    6  A    between atoms: C_5  and  N_22 
REMARK    7  A    between atoms: C_7  and  O_9 
REMARK    8  A    between atoms: O_9  and  C_10 
REMARK    9  A    between atoms: C_14  and  C_21 
REMARK   10  A    between atoms: N_22  and  S_23 
REMARK   11  A    between atoms: S_23  and  C_26 
REMARK   12  A    between atoms: C_29  and  C_32 
ROOT
ATOM      1  C   LIG d   1       4.302  -1.545  -5.076  0.00  0.00     0.126 C 
ATOM      2  H   LIG d   1       3.667  -2.063  -5.796  0.00  0.00     0.059 H 
ENDROOT
BRANCH   1   3
ATOM      3  C   LIG d   1       3.453  -1.073  -3.894  0.00  0.00    -0.026 C 
ATOM      4  H   LIG d   1       3.295   0.003  -3.966  0.00  0.00     0.029 H 
ATOM      5  H   LIG d   1       2.491  -1.584  -3.911  0.00  0.00     0.029 H 
BRANCH   3   6
ATOM      6  C   LIG d   1       4.178  -1.395  -2.586  0.00  0.00    -0.051 C 
ATOM      7  H   LIG d   1       3.513  -1.955  -1.929  0.00  0.00     0.027 H 
ATOM      8  H   LIG d   1       5.065  -1.992  -2.799  0.00  0.00     0.027 H 
BRANCH   6   9
ATOM      9  C   LIG d   1       4.594  -0.092  -1.900  0.00  0.00    -0.056 C 
ATOM     10  H   LIG d   1       4.508  -0.207  -0.819  0.00  0.00     0.026 H 
ATOM     11  H   LIG d   1       5.627   0.141  -2.159  0.00  0.00     0.026 H 
BRANCH   9  12
ATOM     12  C   LIG d   1       3.682   1.044  -2.367  0.00  0.00    -0.065 C 
ATOM     13  H   LIG d   1       3.118   1.430  -1.519  0.00  0.00     0.023 H 
ATOM     14  H   LIG d   1       4.286   1.843  -2.796  0.00  0.00     0.023 H 
ATOM     15  H   LIG d   1       2.991   0.667  -3.122  0.00  0.00     0.023 H 
ENDBRANCH   9  12
ENDBRANCH   6   9
ENDBRANCH   3   6
ENDBRANCH   1   3
BRANCH   1  16
ATOM     16  C   LIG d   1       4.945  -0.354  -5.740  0.00  0.00     0.331 C 
ATOM     17  O   LIG d   1       6.144  -0.210  -5.692  0.00  0.00    -0.249 OA
BRANCH  16  18
ATOM     18  O   LIG d   1       4.186   0.547  -6.385  0.00  0.00    -0.425 OA
BRANCH  18  19
ATOM     19  C   LIG d   1       3.753   0.211  -7.627  0.00  0.00     0.135 A 
ATOM     20  C   LIG d   1       4.643   0.211  -8.689  0.00  0.00     0.024 A 
ATOM     21  C   LIG d   1       4.202  -0.134  -9.958  0.00  0.00     0.143 A 
ATOM     22  H   LIG d   1       5.677   0.478  -8.528  0.00  0.00     0.069 H 
ATOM     23  C   LIG d   1       2.851  -0.478 -10.150  0.00  0.00     0.021 A 
ATOM     24  O   LIG d   1       5.052  -0.139 -11.006  0.00  0.00    -0.422 OA
ATOM     25  C   LIG d   1       1.966  -0.472  -9.066  0.00  0.00    -0.047 A 
ATOM     26  C   LIG d   1       2.396  -0.840 -11.494  0.00  0.00    -0.033 A 
ATOM     27  C   LIG d   1       2.418  -0.137  -7.823  0.00  0.00    -0.018 A 
ATOM     28  H   LIG d   1       0.929  -0.736  -9.212  0.00  0.00     0.063 H 
ATOM     29  H   LIG d   1       1.735  -0.138  -6.986  0.00  0.00     0.065 H 
ATOM     30  C   LIG d   1       3.303  -0.826 -12.504  0.00  0.00     0.026 A 
ATOM     31  C   LIG d   1       4.641  -0.470 -12.240  0.00  0.00     0.338 A 
ATOM     32  H   LIG d   1       3.000  -1.086 -13.508  0.00  0.00     0.069 H 
ATOM     33  O   LIG d   1       5.445  -0.460 -13.155  0.00  0.00    -0.245 OA
BRANCH  26  34
ATOM     34  C   LIG d   1       0.959  -1.217 -11.749  0.00  0.00    -0.039 C 
ATOM     35  H   LIG d   1       0.385  -0.321 -11.986  0.00  0.00     0.028 H 
ATOM     36  H   LIG d   1       0.909  -1.912 -12.587  0.00  0.00     0.028 H 
ATOM     37  H   LIG d   1       0.544  -1.691 -10.859  0.00  0.00     0.028 H 
ENDBRANCH  26  34
ENDBRANCH  18  19
ENDBRANCH  16  18
ENDBRANCH   1  16
BRANCH   1  38
ATOM     38  N   LIG d   1       5.343  -2.458  -4.597  0.00  0.00    -0.176 N 
ATOM     39  H   LIG d   1       6.001  -2.148  -3.956  0.00  0.00     0.149 HD
BRANCH  38  40
ATOM     40  S   LIG d   1       5.395  -4.018  -5.151  0.00  0.00     0.059 S 
ATOM     41  O   LIG d   1       4.293  -4.694  -4.562  0.00  0.00    -0.153 OA
ATOM     42  O   LIG d   1       6.736  -4.461  -4.992  0.00  0.00    -0.153 OA
BRANCH  40  43
ATOM     43  C   LIG d   1       5.085  -3.965  -6.885  0.00  0.00     0.105 A 
ATOM     44  C   LIG d   1       6.013  -3.395  -7.737  0.00  0.00    -0.035 A 
ATOM     45  C   LIG d   1       5.772  -3.359  -9.098  0.00  0.00    -0.057 A 
ATOM     46  H   LIG d   1       6.926  -2.978  -7.338  0.00  0.00     0.064 H 
ATOM     47  C   LIG d   1       4.604  -3.895  -9.606  0.00  0.00    -0.050 A 
ATOM     48  H   LIG d   1       6.497  -2.914  -9.762  0.00  0.00     0.062 H 
ATOM     49  C   LIG d   1       3.676  -4.465  -8.756  0.00  0.00    -0.057 A 
ATOM     50  C   LIG d   1       3.916  -4.500  -7.394  0.00  0.00    -0.035 A 
ATOM     51  H   LIG d   1       2.763  -4.883  -9.153  0.00  0.00     0.062 H 
ATOM     52  H   LIG d   1       3.190  -4.945  -6.730  0.00  0.00     0.064 H 
BRANCH  47  53
ATOM     53  C   LIG d   1       4.342  -3.856 -11.090  0.00  0.00    -0.040 C 
ATOM     54  H   LIG d   1       3.289  -3.636 -11.267  0.00  0.00     0.028 H 
ATOM     55  H   LIG d   1       4.956  -3.079 -11.547  0.00  0.00     0.028 H 
ATOM     56  H   LIG d   1       4.591  -4.821 -11.530  0.00  0.00     0.028 H 
ENDBRANCH  47  53
ENDBRANCH  40  43
ENDBRANCH  38  40
ENDBRANCH   1  38
TORSDOF 12
ENDMDL
MODEL 10
REMARK VINA RESULT:      -5.7      3.220      5.781
REMARK  12 active torsions:
REMARK  status: ('A' for Active; 'I' for Inactive)
REMARK    1  A    between atoms: C_1  and  C_2 
REMARK    2  A    between atoms: C_2  and  C_3 
REMARK    3  A    between atoms: C_3  and  C_4 
REMARK    4  A    between atoms: C_4  and  C_5 
REMARK    5  A    between atoms: C_5  and  C_7 
REMARK    6  A    between atoms: C_5  and  N_22 
REMARK    7  A    between atoms: C_7  and  O_9 
REMARK    8  A    between atoms: O_9  and  C_10 
REMARK    9  A    between atoms: C_14  and  C_21 
REMARK   10  A    between atoms: N_22  and  S_23 
REMARK   11  A    between atoms: S_23  and  C_26 
REMARK   12  A    between atoms: C_29  and  C_32 
ROOT
ATOM      1  C   LIG d   1       4.355  -0.599  -5.413  0.00  0.00     0.126 C 
ATOM      2  H   LIG d   1       4.532  -1.175  -6.322  0.00  0.00     0.059 H 
ENDROOT
BRANCH   1   3
ATOM      3  C   LIG d   1       4.131  -1.555  -4.240  0.00  0.00    -0.026 C 
ATOM      4  H   LIG d   1       3.113  -1.442  -3.868  0.00  0.00     0.029 H 
ATOM      5  H   LIG d   1       4.285  -2.581  -4.573  0.00  0.00     0.029 H 
BRANCH   3   6
ATOM      6  C   LIG d   1       5.122  -1.228  -3.120  0.00  0.00    -0.051 C 
ATOM      7  H   LIG d   1       5.702  -2.118  -2.877  0.00  0.00     0.027 H 
ATOM      8  H   LIG d   1       5.793  -0.435  -3.449  0.00  0.00     0.027 H 
BRANCH   6   9
ATOM      9  C   LIG d   1       4.354  -0.765  -1.881  0.00  0.00    -0.056 C 
ATOM     10  H   LIG d   1       3.303  -1.035  -1.982  0.00  0.00     0.026 H 
ATOM     11  H   LIG d   1       4.769  -1.247  -0.995  0.00  0.00     0.026 H 
BRANCH   9  12
ATOM     12  C   LIG d   1       4.479   0.754  -1.741  0.00  0.00    -0.065 C 
ATOM     13  H   LIG d   1       5.043   0.991  -0.840  0.00  0.00     0.023 H 
ATOM     14  H   LIG d   1       4.996   1.158  -2.611  0.00  0.00     0.023 H 
ATOM     15  H   LIG d   1       3.484   1.195  -1.674  0.00  0.00     0.023 H 
ENDBRANCH   9  12
ENDBRANCH   6   9
ENDBRANCH   3   6
ENDBRANCH   1   3
BRANCH   1  16
ATOM     16  C   LIG d   1       3.134   0.266  -5.596  0.00  0.00     0.331 C 
ATOM     17  O   LIG d   1       2.189   0.141  -4.853  0.00  0.00    -0.249 OA
BRANCH  16  18
ATOM     18  O   LIG d   1       3.097   1.175  -6.583  0.00  0.00    -0.425 OA
BRANCH  18  19
ATOM     19  C   LIG d   1       3.105   0.703  -7.857  0.00  0.00     0.135 A 
ATOM     20  C   LIG d   1       2.238  -0.315  -8.218  0.00  0.00     0.024 A 
ATOM     21  C   LIG d   1       2.244  -0.797  -9.518  0.00  0.00     0.143 A 
ATOM     22  H   LIG d   1       1.559  -0.732  -7.488  0.00  0.00     0.069 H 
ATOM     23  C   LIG d   1       3.136  -0.243 -10.455  0.00  0.00     0.021 A 
ATOM     24  O   LIG d   1       1.409  -1.790  -9.891  0.00  0.00    -0.422 OA
ATOM     25  C   LIG d   1       4.006   0.784 -10.073  0.00  0.00    -0.047 A 
ATOM     26  C   LIG d   1       3.135  -0.760 -11.826  0.00  0.00    -0.033 A 
ATOM     27  C   LIG d   1       3.981   1.252  -8.791  0.00  0.00    -0.018 A 
ATOM     28  H   LIG d   1       4.690   1.210 -10.792  0.00  0.00     0.063 H 
ATOM     29  H   LIG d   1       4.648   2.048  -8.498  0.00  0.00     0.065 H 
ATOM     30  C   LIG d   1       2.269  -1.759 -12.135  0.00  0.00     0.026 A 
ATOM     31  C   LIG d   1       1.403  -2.267 -11.145  0.00  0.00     0.338 A 
ATOM     32  H   LIG d   1       2.243  -2.163 -13.136  0.00  0.00     0.069 H 
ATOM     33  O   LIG d   1       0.631  -3.164 -11.435  0.00  0.00    -0.245 OA
BRANCH  26  34
ATOM     34  C   LIG d   1       4.071  -0.198 -12.865  0.00  0.00    -0.039 C 
ATOM     35  H   LIG d   1       4.939   0.240 -12.374  0.00  0.00     0.028 H 
ATOM     36  H   LIG d   1       4.396  -0.997 -13.531  0.00  0.00     0.028 H 
ATOM     37  H   LIG d   1       3.554   0.569 -13.444  0.00  0.00     0.028 H 
ENDBRANCH  26  34
ENDBRANCH  18  19
ENDBRANCH  16  18
ENDBRANCH   1  16
BRANCH   1  38
ATOM     38  N   LIG d   1       5.518   0.248  -5.138  0.00  0.00    -0.176 N 
ATOM     39  H   LIG d   1       5.487   0.892  -4.413  0.00  0.00     0.149 HD
BRANCH  38  40
ATOM     40  S   LIG d   1       6.883   0.108  -6.065  0.00  0.00     0.059 S 
ATOM     41  O   LIG d   1       6.660   0.882  -7.235  0.00  0.00    -0.153 OA
ATOM     42  O   LIG d   1       7.199  -1.277  -6.115  0.00  0.00    -0.153 OA
BRANCH  40  43
ATOM     43  C   LIG d   1       8.193   0.891  -5.184  0.00  0.00     0.105 A 
ATOM     44  C   LIG d   1       9.505   0.530  -5.430  0.00  0.00    -0.035 A 
ATOM     45  C   LIG d   1      10.533   1.150  -4.743  0.00  0.00    -0.057 A 
ATOM     46  H   LIG d   1       9.726  -0.235  -6.159  0.00  0.00     0.064 H 
ATOM     47  C   LIG d   1      10.249   2.130  -3.812  0.00  0.00    -0.050 A 
ATOM     48  H   LIG d   1      11.556   0.867  -4.936  0.00  0.00     0.062 H 
ATOM     49  C   LIG d   1       8.937   2.491  -3.566  0.00  0.00    -0.057 A 
ATOM     50  C   LIG d   1       7.909   1.871  -4.252  0.00  0.00    -0.035 A 
ATOM     51  H   LIG d   1       8.715   3.258  -2.837  0.00  0.00     0.062 H 
ATOM     52  H   LIG d   1       6.885   2.154  -4.059  0.00  0.00     0.064 H 
BRANCH  47  53
ATOM     53  C   LIG d   1      11.369   2.805  -3.064  0.00  0.00    -0.040 C 
ATOM     54  H   LIG d   1      11.785   2.112  -2.332  0.00  0.00     0.028 H 
ATOM     55  H   LIG d   1      12.149   3.101  -3.766  0.00  0.00     0.028 H 
ATOM     56  H   LIG d   1      10.986   3.688  -2.552  0.00  0.00     0.028 H 
ENDBRANCH  47  53
ENDBRANCH  40  43
ENDBRANCH  38  40
ENDBRANCH   1  38
TORSDOF 12
ENDMDL
