MODEL 1
REMARK VINA RESULT:      -6.4      0.000      0.000
REMARK  8 active torsions:
REMARK  status: ('A' for Active; 'I' for Inactive)
REMARK    1  A    between atoms: C_1  and  C_2 
REMARK    2  A    between atoms: C_2  and  C_29 
REMARK    3  A    between atoms: CA_3  and  C_26 
REMARK    4  A    between atoms: CA_9  and  N_13 
REMARK       I    between atoms: N_13  and  C_14 
REMARK    5  A    between atoms: C_14  and  CA_16 
REMARK    6  A    between atoms: CA_16  and  C_18 
REMARK    7  A    between atoms: CA_16  and  N_25 
REMARK    8  A    between atoms: C_21  and  O_24 
ROOT
ATOM      1  C   LIG d   1       7.108  -8.263  -5.175  0.00  0.00     0.037 C 
ATOM      2  CA  LIG d   1       5.636  -7.765  -5.242  0.00  0.00     0.081 C 
ATOM      3  HA  LIG d   1       5.413  -7.185  -4.345  0.00  0.00     0.058 H 
ATOM      4  N   LIG d   1       5.414  -6.926  -6.424  0.00  0.00    -0.276 NA
ATOM      5  C   LIG d   1       6.581  -6.180  -6.915  0.00  0.00     0.100 C 
ATOM      6  H   LIG d   1       6.787  -6.252  -7.983  0.00  0.00     0.064 H 
ATOM      7  S   LIG d   1       7.942  -6.738  -5.809  0.00  0.00    -0.128 SA
ATOM      8  CA  LIG d   1       5.891  -4.907  -6.460  0.00  0.00     0.128 C 
ATOM      9  HA  LIG d   1       5.770  -4.162  -7.247  0.00  0.00     0.062 H 
ATOM     10  C   LIG d   1       4.697  -5.795  -6.273  0.00  0.00     0.240 C 
ATOM     11  O   LIG d   1       3.523  -5.578  -6.062  0.00  0.00    -0.273 OA
ENDROOT
BRANCH   8  12
ATOM     12  N   LIG d   1       6.426  -4.349  -5.216  0.00  0.00    -0.300 N 
ATOM     13  C   LIG d   1       6.519  -3.013  -5.062  0.00  0.00     0.235 C 
ATOM     14  O   LIG d   1       6.161  -2.273  -5.953  0.00  0.00    -0.274 OA
ATOM     15  H   LIG d   1       6.712  -4.942  -4.503  0.00  0.00     0.150 HD
BRANCH  13  16
ATOM     16  CA  LIG d   1       7.070  -2.441  -3.782  0.00  0.00     0.108 C 
ATOM     17  HA  LIG d   1       7.184  -3.237  -3.045  0.00  0.00     0.060 H 
BRANCH  16  18
ATOM     18  C   LIG d   1       6.123  -1.396  -3.250  0.00  0.00    -0.022 A 
ATOM     19  C   LIG d   1       6.455  -0.056  -3.332  0.00  0.00    -0.053 A 
ATOM     20  C   LIG d   1       5.586   0.903  -2.849  0.00  0.00    -0.020 A 
ATOM     21  H   LIG d   1       7.394   0.240  -3.775  0.00  0.00     0.062 H 
ATOM     22  C   LIG d   1       4.383   0.521  -2.274  0.00  0.00     0.117 A 
ATOM     23  H   LIG d   1       5.844   1.949  -2.918  0.00  0.00     0.065 H 
ATOM     24  C   LIG d   1       4.054  -0.824  -2.187  0.00  0.00    -0.020 A 
ATOM     25  C   LIG d   1       4.924  -1.779  -2.676  0.00  0.00    -0.053 A 
ATOM     26  H   LIG d   1       3.118  -1.124  -1.740  0.00  0.00     0.065 H 
ATOM     27  H   LIG d   1       4.668  -2.827  -2.609  0.00  0.00     0.062 H 
BRANCH  22  28
ATOM     28  O   LIG d   1       3.529   1.463  -1.794  0.00  0.00    -0.507 OA
ATOM     29  H   LIG d   1       3.954   2.141  -1.252  0.00  0.00     0.292 HD
ENDBRANCH  22  28
ENDBRANCH  16  18
BRANCH  16  30
ATOM     30  N   LIG d   1       8.378  -1.826  -4.043  0.00  0.00    -0.316 N 
ATOM     31  H1  LIG d   1       8.599  -1.134  -3.343  0.00  0.00     0.119 HD
ATOM     32  H2  LIG d   1       9.102  -2.525  -4.102  0.00  0.00     0.119 HD
ENDBRANCH  16  30
ENDBRANCH  13  16
ENDBRANCH   8  12
BRANCH   2  33
ATOM     33  C   LIG d   1       4.714  -8.955  -5.303  0.00  0.00     0.064 C 
ATOM     34  O   LIG d   1       4.399  -9.534  -4.277  0.00  0.00    -0.548 OA
ATOM     35  OXT LIG d   1       4.282  -9.337  -6.376  0.00  0.00    -0.548 OA
ENDBRANCH   2  33
BRANCH   1  36
ATOM     36  C   LIG d   1       7.530  -8.580  -3.739  0.00  0.00    -0.049 C 
ATOM     37  H   LIG d   1       8.238  -9.409  -3.743  0.00  0.00     0.024 H 
ATOM     38  H   LIG d   1       8.000  -7.702  -3.296  0.00  0.00     0.024 H 
ATOM     39  H   LIG d   1       6.652  -8.856  -3.155  0.00  0.00     0.024 H 
ENDBRANCH   1  36
BRANCH   1  40
ATOM     40  C   LIG d   1       7.342  -9.459  -6.101  0.00  0.00    -0.049 C 
ATOM     41  H   LIG d   1       6.615  -9.437  -6.912  0.00  0.00     0.024 H 
ATOM     42  H   LIG d   1       8.350  -9.408  -6.513  0.00  0.00     0.024 H 
ATOM     43  H   LIG d   1       7.227 -10.384  -5.536  0.00  0.00     0.024 H 
ENDBRANCH   1  40
TORSDOF 8
ENDMDL
MODEL 2
REMARK VINA RESULT:      -6.2      4.849      6.781
REMARK  8 active torsions:
REMARK  status: ('A' for Active; 'I' for Inactive)
REMARK    1  A    between atoms: C_1  and  C_2 
REMARK    2  A    between atoms: C_2  and  C_29 
REMARK    3  A    between atoms: CA_3  and  C_26 
REMARK    4  A    between atoms: CA_9  and  N_13 
REMARK       I    between atoms: N_13  and  C_14 
REMARK    5  A    between atoms: C_14  and  CA_16 
REMARK    6  A    between atoms: CA_16  and  C_18 
REMARK    7  A    between atoms: CA_16  and  N_25 
REMARK    8  A    between atoms: C_21  and  O_24 
ROOT
ATOM      1  C   LIG d   1       3.887  -0.495  -8.785  0.00  0.00     0.037 C 
ATOM      2  CA  LIG d   1       4.777   0.673  -8.271  0.00  0.00     0.081 C 
ATOM      3  HA  LIG d   1       4.679   0.748  -7.187  0.00  0.00     0.058 H 
ATOM      4  N   LIG d   1       6.187   0.454  -8.611  0.00  0.00    -0.276 NA
ATOM      5  C   LIG d   1       6.614  -0.947  -8.723  0.00  0.00     0.100 C 
ATOM      6  H   LIG d   1       7.177  -1.211  -9.618  0.00  0.00     0.064 H 
ATOM      7  S   LIG d   1       5.056  -1.892  -8.463  0.00  0.00    -0.128 SA
ATOM      8  CA  LIG d   1       7.435  -0.741  -7.463  0.00  0.00     0.128 C 
ATOM      9  HA  LIG d   1       8.492  -0.981  -7.578  0.00  0.00     0.062 H 
ATOM     10  C   LIG d   1       7.113   0.710  -7.667  0.00  0.00     0.240 C 
ATOM     11  O   LIG d   1       7.531   1.733  -7.168  0.00  0.00    -0.273 OA
ENDROOT
BRANCH   8  12
ATOM     12  N   LIG d   1       6.839  -1.325  -6.259  0.00  0.00    -0.300 N 
ATOM     13  C   LIG d   1       7.624  -1.677  -5.222  0.00  0.00     0.235 C 
ATOM     14  O   LIG d   1       8.824  -1.511  -5.285  0.00  0.00    -0.274 OA
ATOM     15  H   LIG d   1       5.880  -1.457  -6.209  0.00  0.00     0.150 HD
BRANCH  13  16
ATOM     16  CA  LIG d   1       7.010  -2.278  -3.984  0.00  0.00     0.108 C 
ATOM     17  HA  LIG d   1       6.482  -3.195  -4.248  0.00  0.00     0.060 H 
BRANCH  16  18
ATOM     18  C   LIG d   1       6.042  -1.297  -3.376  0.00  0.00    -0.022 A 
ATOM     19  C   LIG d   1       4.825  -1.739  -2.888  0.00  0.00    -0.053 A 
ATOM     20  C   LIG d   1       3.938  -0.841  -2.327  0.00  0.00    -0.020 A 
ATOM     21  H   LIG d   1       4.571  -2.787  -2.944  0.00  0.00     0.062 H 
ATOM     22  C   LIG d   1       4.263   0.505  -2.261  0.00  0.00     0.117 A 
ATOM     23  H   LIG d   1       2.990  -1.189  -1.941  0.00  0.00     0.065 H 
ATOM     24  C   LIG d   1       5.481   0.948  -2.756  0.00  0.00    -0.020 A 
ATOM     25  C   LIG d   1       6.368   0.046  -3.312  0.00  0.00    -0.053 A 
ATOM     26  H   LIG d   1       5.737   1.996  -2.706  0.00  0.00     0.065 H 
ATOM     27  H   LIG d   1       7.316   0.389  -3.698  0.00  0.00     0.062 H 
BRANCH  22  28
ATOM     28  O   LIG d   1       3.389   1.390  -1.713  0.00  0.00    -0.507 OA
ATOM     29  H   LIG d   1       3.012   1.101  -0.871  0.00  0.00     0.292 HD
ENDBRANCH  22  28
ENDBRANCH  16  18
BRANCH  16  30
ATOM     30  N   LIG d   1       8.068  -2.586  -3.013  0.00  0.00    -0.316 N 
ATOM     31  H1  LIG d   1       8.088  -3.572  -2.799  0.00  0.00     0.119 HD
ATOM     32  H2  LIG d   1       8.967  -2.269  -3.343  0.00  0.00     0.119 HD
ENDBRANCH  16  30
ENDBRANCH  13  16
ENDBRANCH   8  12
BRANCH   2  33
ATOM     33  C   LIG d   1       4.314   1.962  -8.899  0.00  0.00     0.064 C 
ATOM     34  O   LIG d   1       3.321   2.525  -8.471  0.00  0.00    -0.548 OA
ATOM     35  OXT LIG d   1       4.931   2.440  -9.835  0.00  0.00    -0.548 OA
ENDBRANCH   2  33
BRANCH   1  36
ATOM     36  C   LIG d   1       2.606  -0.631  -7.961  0.00  0.00    -0.049 C 
ATOM     37  H   LIG d   1       2.019   0.284  -8.047  0.00  0.00     0.024 H 
ATOM     38  H   LIG d   1       2.022  -1.474  -8.331  0.00  0.00     0.024 H 
ATOM     39  H   LIG d   1       2.863  -0.798  -6.915  0.00  0.00     0.024 H 
ENDBRANCH   1  36
BRANCH   1  40
ATOM     40  C   LIG d   1       3.577  -0.353 -10.277  0.00  0.00    -0.049 C 
ATOM     41  H   LIG d   1       4.227  -1.016 -10.847  0.00  0.00     0.024 H 
ATOM     42  H   LIG d   1       2.535  -0.620 -10.458  0.00  0.00     0.024 H 
ATOM     43  H   LIG d   1       3.747   0.678 -10.587  0.00  0.00     0.024 H 
ENDBRANCH   1  40
TORSDOF 8
ENDMDL
MODEL 3
REMARK VINA RESULT:      -6.1      5.356      7.170
REMARK  8 active torsions:
REMARK  status: ('A' for Active; 'I' for Inactive)
REMARK    1  A    between atoms: C_1  and  C_2 
REMARK    2  A    between atoms: C_2  and  C_29 
REMARK    3  A    between atoms: CA_3  and  C_26 
REMARK    4  A    between atoms: CA_9  and  N_13 
REMARK       I    between atoms: N_13  and  C_14 
REMARK    5  A    between atoms: C_14  and  CA_16 
REMARK    6  A    between atoms: CA_16  and  C_18 
REMARK    7  A    between atoms: CA_16  and  N_25 
REMARK    8  A    between atoms: C_21  and  O_24 
ROOT
ATOM      1  C   LIG d   1       3.792  -0.180  -7.770  0.00  0.00     0.037 C 
ATOM      2  CA  LIG d   1       4.392   1.105  -8.411  0.00  0.00     0.081 C 
ATOM      3  HA  LIG d   1       4.529   1.861  -7.636  0.00  0.00     0.058 H 
ATOM      4  N   LIG d   1       5.685   0.826  -9.044  0.00  0.00    -0.276 NA
ATOM      5  C   LIG d   1       6.468  -0.271  -8.459  0.00  0.00     0.100 C 
ATOM      6  H   LIG d   1       6.861  -1.011  -9.156  0.00  0.00     0.064 H 
ATOM      7  S   LIG d   1       5.362  -0.933  -7.145  0.00  0.00    -0.128 SA
ATOM      8  CA  LIG d   1       7.460   0.770  -7.972  0.00  0.00     0.128 C 
ATOM      9  HA  LIG d   1       8.484   0.595  -8.301  0.00  0.00     0.062 H 
ATOM     10  C   LIG d   1       6.687   1.706  -8.853  0.00  0.00     0.240 C 
ATOM     11  O   LIG d   1       6.888   2.835  -9.246  0.00  0.00    -0.273 OA
ENDROOT
BRANCH   8  12
ATOM     12  N   LIG d   1       7.358   1.070  -6.541  0.00  0.00    -0.300 N 
ATOM     13  C   LIG d   1       8.360   0.726  -5.708  0.00  0.00     0.235 C 
ATOM     14  O   LIG d   1       9.345   0.168  -6.141  0.00  0.00    -0.274 OA
ATOM     15  H   LIG d   1       6.570   1.516  -6.195  0.00  0.00     0.150 HD
BRANCH  13  16
ATOM     16  CA  LIG d   1       8.254   1.034  -4.237  0.00  0.00     0.108 C 
ATOM     17  HA  LIG d   1       9.165   0.714  -3.731  0.00  0.00     0.060 H 
BRANCH  16  18
ATOM     18  C   LIG d   1       7.072   0.302  -3.654  0.00  0.00    -0.022 A 
ATOM     19  C   LIG d   1       7.035  -1.081  -3.681  0.00  0.00    -0.053 A 
ATOM     20  C   LIG d   1       5.955  -1.754  -3.144  0.00  0.00    -0.020 A 
ATOM     21  H   LIG d   1       7.852  -1.633  -4.121  0.00  0.00     0.062 H 
ATOM     22  C   LIG d   1       4.904  -1.043  -2.585  0.00  0.00     0.117 A 
ATOM     23  H   LIG d   1       5.929  -2.834  -3.161  0.00  0.00     0.065 H 
ATOM     24  C   LIG d   1       4.940   0.344  -2.564  0.00  0.00    -0.020 A 
ATOM     25  C   LIG d   1       6.025   1.013  -3.098  0.00  0.00    -0.053 A 
ATOM     26  H   LIG d   1       4.123   0.900  -2.129  0.00  0.00     0.065 H 
ATOM     27  H   LIG d   1       6.054   2.092  -3.082  0.00  0.00     0.062 H 
BRANCH  22  28
ATOM     28  O   LIG d   1       3.838  -1.704  -2.059  0.00  0.00    -0.507 OA
ATOM     29  H   LIG d   1       3.684  -1.520  -1.123  0.00  0.00     0.292 HD
ENDBRANCH  22  28
ENDBRANCH  16  18
BRANCH  16  30
ATOM     30  N   LIG d   1       8.072   2.480  -4.051  0.00  0.00    -0.316 N 
ATOM     31  H1  LIG d   1       7.219   2.676  -3.550  0.00  0.00     0.119 HD
ATOM     32  H2  LIG d   1       8.868   2.887  -3.584  0.00  0.00     0.119 HD
ENDBRANCH  16  30
ENDBRANCH  13  16
ENDBRANCH   8  12
BRANCH   2  33
ATOM     33  C   LIG d   1       3.437   1.631  -9.451  0.00  0.00     0.064 C 
ATOM     34  O   LIG d   1       2.380   2.132  -9.108  0.00  0.00    -0.548 OA
ATOM     35  OXT LIG d   1       3.722   1.555 -10.633  0.00  0.00    -0.548 OA
ENDBRANCH   2  33
BRANCH   1  36
ATOM     36  C   LIG d   1       2.835   0.158  -6.625  0.00  0.00    -0.049 C 
ATOM     37  H   LIG d   1       3.396   0.234  -5.693  0.00  0.00     0.024 H 
ATOM     38  H   LIG d   1       2.341   1.107  -6.831  0.00  0.00     0.024 H 
ATOM     39  H   LIG d   1       2.086  -0.629  -6.534  0.00  0.00     0.024 H 
ENDBRANCH   1  36
BRANCH   1  40
ATOM     40  C   LIG d   1       3.117  -1.070  -8.816  0.00  0.00    -0.049 C 
ATOM     41  H   LIG d   1       2.123  -0.682  -9.035  0.00  0.00     0.024 H 
ATOM     42  H   LIG d   1       3.715  -1.076  -9.727  0.00  0.00     0.024 H 
ATOM     43  H   LIG d   1       3.034  -2.085  -8.429  0.00  0.00     0.024 H 
ENDBRANCH   1  40
TORSDOF 8
ENDMDL
MODEL 4
REMARK VINA RESULT:      -6.0      2.667      7.496
REMARK  8 active torsions:
REMARK  status: ('A' for Active; 'I' for Inactive)
REMARK    1  A    between atoms: C_1  and  C_2 
REMARK    2  A    between atoms: C_2  and  C_29 
REMARK    3  A    between atoms: CA_3  and  C_26 
REMARK    4  A    between atoms: CA_9  and  N_13 
REMARK       I    between atoms: N_13  and  C_14 
REMARK    5  A    between atoms: C_14  and  CA_16 
REMARK    6  A    between atoms: CA_16  and  C_18 
REMARK    7  A    between atoms: CA_16  and  N_25 
REMARK    8  A    between atoms: C_21  and  O_24 
ROOT
ATOM      1  C   LIG d   1       4.329  -1.074  -3.395  0.00  0.00     0.037 C 
ATOM      2  CA  LIG d   1       5.371   0.035  -3.074  0.00  0.00     0.081 C 
ATOM      3  HA  LIG d   1       6.085  -0.346  -2.342  0.00  0.00     0.058 H 
ATOM      4  N   LIG d   1       6.094   0.448  -4.280  0.00  0.00    -0.276 NA
ATOM      5  C   LIG d   1       6.243  -0.574  -5.325  0.00  0.00     0.100 C 
ATOM      6  H   LIG d   1       5.978  -0.272  -6.339  0.00  0.00     0.064 H 
ATOM      7  S   LIG d   1       5.305  -2.009  -4.658  0.00  0.00    -0.128 SA
ATOM      8  CA  LIG d   1       7.728  -0.600  -5.012  0.00  0.00     0.128 C 
ATOM      9  HA  LIG d   1       8.367  -0.410  -5.874  0.00  0.00     0.062 H 
ATOM     10  C   LIG d   1       7.427   0.620  -4.193  0.00  0.00     0.240 C 
ATOM     11  O   LIG d   1       8.125   1.451  -3.652  0.00  0.00    -0.273 OA
ENDROOT
BRANCH   8  12
ATOM     12  N   LIG d   1       8.153  -1.762  -4.226  0.00  0.00    -0.300 N 
ATOM     13  C   LIG d   1       9.099  -2.592  -4.708  0.00  0.00     0.235 C 
ATOM     14  O   LIG d   1       9.599  -2.378  -5.791  0.00  0.00    -0.274 OA
ATOM     15  H   LIG d   1       7.752  -1.932  -3.359  0.00  0.00     0.150 HD
BRANCH  13  16
ATOM     16  CA  LIG d   1       9.534  -3.786  -3.899  0.00  0.00     0.108 C 
ATOM     17  HA  LIG d   1      10.602  -3.955  -4.044  0.00  0.00     0.060 H 
BRANCH  16  18
ATOM     18  C   LIG d   1       8.768  -5.003  -4.349  0.00  0.00    -0.022 A 
ATOM     19  C   LIG d   1       9.172  -6.262  -3.943  0.00  0.00    -0.053 A 
ATOM     20  C   LIG d   1       8.468  -7.379  -4.351  0.00  0.00    -0.020 A 
ATOM     21  H   LIG d   1      10.037  -6.372  -3.306  0.00  0.00     0.062 H 
ATOM     22  C   LIG d   1       7.361  -7.238  -5.174  0.00  0.00     0.117 A 
ATOM     23  H   LIG d   1       8.782  -8.362  -4.029  0.00  0.00     0.065 H 
ATOM     24  C   LIG d   1       6.961  -5.975  -5.585  0.00  0.00    -0.020 A 
ATOM     25  C   LIG d   1       7.665  -4.860  -5.171  0.00  0.00    -0.053 A 
ATOM     26  H   LIG d   1       6.099  -5.862  -6.226  0.00  0.00     0.065 H 
ATOM     27  H   LIG d   1       7.354  -3.877  -5.489  0.00  0.00     0.062 H 
BRANCH  22  28
ATOM     28  O   LIG d   1       6.670  -8.337  -5.580  0.00  0.00    -0.507 OA
ATOM     29  H   LIG d   1       6.422  -8.323  -6.514  0.00  0.00     0.292 HD
ENDBRANCH  22  28
ENDBRANCH  16  18
BRANCH  16  30
ATOM     30  N   LIG d   1       9.267  -3.539  -2.477  0.00  0.00    -0.316 N 
ATOM     31  H1  LIG d   1       8.311  -3.764  -2.243  0.00  0.00     0.119 HD
ATOM     32  H2  LIG d   1       9.911  -4.049  -1.892  0.00  0.00     0.119 HD
ENDBRANCH  16  30
ENDBRANCH  13  16
ENDBRANCH   8  12
BRANCH   2  33
ATOM     33  C   LIG d   1       4.660   1.229  -2.493  0.00  0.00     0.064 C 
ATOM     34  O   LIG d   1       4.502   1.317  -1.287  0.00  0.00    -0.548 OA
ATOM     35  OXT LIG d   1       4.242   2.106  -3.228  0.00  0.00    -0.548 OA
ENDBRANCH   2  33
BRANCH   1  36
ATOM     36  C   LIG d   1       4.026  -1.935  -2.166  0.00  0.00    -0.049 C 
ATOM     37  H   LIG d   1       3.566  -2.871  -2.483  0.00  0.00     0.024 H 
ATOM     38  H   LIG d   1       4.953  -2.148  -1.634  0.00  0.00     0.024 H 
ATOM     39  H   LIG d   1       3.343  -1.400  -1.507  0.00  0.00     0.024 H 
ENDBRANCH   1  36
BRANCH   1  40
ATOM     40  C   LIG d   1       3.048  -0.489  -3.993  0.00  0.00    -0.049 C 
ATOM     41  H   LIG d   1       2.511  -1.268  -4.533  0.00  0.00     0.024 H 
ATOM     42  H   LIG d   1       2.418  -0.100  -3.193  0.00  0.00     0.024 H 
ATOM     43  H   LIG d   1       3.304   0.319  -4.679  0.00  0.00     0.024 H 
ENDBRANCH   1  40
TORSDOF 8
ENDMDL
MODEL 5
REMARK VINA RESULT:      -5.7      5.032      7.306
REMARK  8 active torsions:
REMARK  status: ('A' for Active; 'I' for Inactive)
REMARK    1  A    between atoms: C_1  and  C_2 
REMARK    2  A    between atoms: C_2  and  C_29 
REMARK    3  A    between atoms: CA_3  and  C_26 
REMARK    4  A    between atoms: CA_9  and  N_13 
REMARK       I    between atoms: N_13  and  C_14 
REMARK    5  A    between atoms: C_14  and  CA_16 
REMARK    6  A    between atoms: CA_16  and  C_18 
REMARK    7  A    between atoms: CA_16  and  N_25 
REMARK    8  A    between atoms: C_21  and  O_24 
ROOT
ATOM      1  C   LIG d   1       5.173  -0.918  -3.305  0.00  0.00     0.037 C 
ATOM      2  CA  LIG d   1       5.242  -0.040  -4.587  0.00  0.00     0.081 C 
ATOM      3  HA  LIG d   1       5.502   0.982  -4.307  0.00  0.00     0.058 H 
ATOM      4  N   LIG d   1       6.244  -0.551  -5.527  0.00  0.00    -0.276 NA
ATOM      5  C   LIG d   1       7.381  -1.267  -4.932  0.00  0.00     0.100 C 
ATOM      6  H   LIG d   1       7.628  -2.233  -5.373  0.00  0.00     0.064 H 
ATOM      7  S   LIG d   1       6.976  -1.298  -3.138  0.00  0.00    -0.128 SA
ATOM      8  CA  LIG d   1       8.262  -0.104  -5.352  0.00  0.00     0.128 C 
ATOM      9  HA  LIG d   1       9.111  -0.393  -5.973  0.00  0.00     0.062 H 
ATOM     10  C   LIG d   1       7.058   0.337  -6.130  0.00  0.00     0.240 C 
ATOM     11  O   LIG d   1       6.882   1.181  -6.983  0.00  0.00    -0.273 OA
ENDROOT
BRANCH   8  12
ATOM     12  N   LIG d   1       8.631   0.793  -4.254  0.00  0.00    -0.300 N 
ATOM     13  C   LIG d   1       9.785   1.487  -4.310  0.00  0.00     0.235 C 
ATOM     14  O   LIG d   1      10.519   1.368  -5.268  0.00  0.00    -0.274 OA
ATOM     15  H   LIG d   1       8.044   0.887  -3.488  0.00  0.00     0.150 HD
BRANCH  13  16
ATOM     16  CA  LIG d   1      10.163   2.409  -3.180  0.00  0.00     0.108 C 
ATOM     17  HA  LIG d   1       9.584   2.154  -2.292  0.00  0.00     0.060 H 
BRANCH  16  18
ATOM     18  C   LIG d   1       9.875   3.834  -3.576  0.00  0.00    -0.022 A 
ATOM     19  C   LIG d   1       9.517   4.129  -4.879  0.00  0.00    -0.053 A 
ATOM     20  C   LIG d   1       9.248   5.434  -5.244  0.00  0.00    -0.020 A 
ATOM     21  H   LIG d   1       9.447   3.338  -5.611  0.00  0.00     0.062 H 
ATOM     22  C   LIG d   1       9.345   6.450  -4.305  0.00  0.00     0.117 A 
ATOM     23  H   LIG d   1       8.964   5.663  -6.261  0.00  0.00     0.065 H 
ATOM     24  C   LIG d   1       9.709   6.153  -2.999  0.00  0.00    -0.020 A 
ATOM     25  C   LIG d   1       9.972   4.845  -2.638  0.00  0.00    -0.053 A 
ATOM     26  H   LIG d   1       9.784   6.942  -2.266  0.00  0.00     0.065 H 
ATOM     27  H   LIG d   1      10.256   4.613  -1.622  0.00  0.00     0.062 H 
BRANCH  22  28
ATOM     28  O   LIG d   1       9.084   7.735  -4.663  0.00  0.00    -0.507 OA
ATOM     29  H   LIG d   1       9.810   8.168  -5.131  0.00  0.00     0.292 HD
ENDBRANCH  22  28
ENDBRANCH  16  18
BRANCH  16  30
ATOM     30  N   LIG d   1      11.595   2.264  -2.887  0.00  0.00    -0.316 N 
ATOM     31  H1  LIG d   1      11.742   1.963  -1.936  0.00  0.00     0.119 HD
ATOM     32  H2  LIG d   1      12.036   1.632  -3.539  0.00  0.00     0.119 HD
ENDBRANCH  16  30
ENDBRANCH  13  16
ENDBRANCH   8  12
BRANCH   2  33
ATOM     33  C   LIG d   1       3.893  -0.038  -5.258  0.00  0.00     0.064 C 
ATOM     34  O   LIG d   1       2.997   0.667  -4.825  0.00  0.00    -0.548 OA
ATOM     35  OXT LIG d   1       3.697  -0.742  -6.233  0.00  0.00    -0.548 OA
ENDBRANCH   2  33
BRANCH   1  36
ATOM     36  C   LIG d   1       4.651  -0.125  -2.106  0.00  0.00    -0.049 C 
ATOM     37  H   LIG d   1       5.242   0.784  -1.987  0.00  0.00     0.024 H 
ATOM     38  H   LIG d   1       3.606   0.140  -2.271  0.00  0.00     0.024 H 
ATOM     39  H   LIG d   1       4.734  -0.732  -1.205  0.00  0.00     0.024 H 
ENDBRANCH   1  36
BRANCH   1  40
ATOM     40  C   LIG d   1       4.349  -2.187  -3.534  0.00  0.00    -0.049 C 
ATOM     41  H   LIG d   1       3.448  -2.150  -2.923  0.00  0.00     0.024 H 
ATOM     42  H   LIG d   1       4.073  -2.256  -4.587  0.00  0.00     0.024 H 
ATOM     43  H   LIG d   1       4.940  -3.060  -3.256  0.00  0.00     0.024 H 
ENDBRANCH   1  40
TORSDOF 8
ENDMDL
MODEL 6
REMARK VINA RESULT:      -5.7     12.947     15.075
REMARK  8 active torsions:
REMARK  status: ('A' for Active; 'I' for Inactive)
REMARK    1  A    between atoms: C_1  and  C_2 
REMARK    2  A    between atoms: C_2  and  C_29 
REMARK    3  A    between atoms: CA_3  and  C_26 
REMARK    4  A    between atoms: CA_9  and  N_13 
REMARK       I    between atoms: N_13  and  C_14 
REMARK    5  A    between atoms: C_14  and  CA_16 
REMARK    6  A    between atoms: CA_16  and  C_18 
REMARK    7  A    between atoms: CA_16  and  N_25 
REMARK    8  A    between atoms: C_21  and  O_24 
ROOT
ATOM      1  C   LIG d   1      10.637   7.701  -6.079  0.00  0.00     0.037 C 
ATOM      2  CA  LIG d   1       9.899   9.037  -6.384  0.00  0.00     0.081 C 
ATOM      3  HA  LIG d   1       9.005   9.101  -5.762  0.00  0.00     0.058 H 
ATOM      4  N   LIG d   1      10.759  10.191  -6.111  0.00  0.00    -0.276 NA
ATOM      5  C   LIG d   1      11.775  10.007  -5.064  0.00  0.00     0.100 C 
ATOM      6  H   LIG d   1      12.791  10.311  -5.317  0.00  0.00     0.064 H 
ATOM      7  S   LIG d   1      11.575   8.243  -4.580  0.00  0.00    -0.128 SA
ATOM      8  CA  LIG d   1      10.988  10.982  -4.206  0.00  0.00     0.128 C 
ATOM      9  HA  LIG d   1      11.571  11.834  -3.855  0.00  0.00     0.062 H 
ATOM     10  C   LIG d   1      10.220  11.245  -5.467  0.00  0.00     0.240 C 
ATOM     11  O   LIG d   1       9.413  12.091  -5.788  0.00  0.00    -0.273 OA
ENDROOT
BRANCH   8  12
ATOM     12  N   LIG d   1      10.203  10.345  -3.146  0.00  0.00    -0.300 N 
ATOM     13  C   LIG d   1      10.499  10.583  -1.852  0.00  0.00     0.235 C 
ATOM     14  O   LIG d   1      11.415  11.324  -1.566  0.00  0.00    -0.274 OA
ATOM     15  H   LIG d   1       9.470   9.753  -3.375  0.00  0.00     0.150 HD
BRANCH  13  16
ATOM     16  CA  LIG d   1       9.691   9.928  -0.763  0.00  0.00     0.108 C 
ATOM     17  HA  LIG d   1       9.833  10.469   0.173  0.00  0.00     0.060 H 
BRANCH  16  18
ATOM     18  C   LIG d   1      10.144   8.501  -0.591  0.00  0.00    -0.022 A 
ATOM     19  C   LIG d   1       9.633   7.511  -1.411  0.00  0.00    -0.053 A 
ATOM     20  C   LIG d   1      10.051   6.203  -1.258  0.00  0.00    -0.020 A 
ATOM     21  H   LIG d   1       8.910   7.761  -2.173  0.00  0.00     0.062 H 
ATOM     22  C   LIG d   1      10.975   5.881  -0.276  0.00  0.00     0.117 A 
ATOM     23  H   LIG d   1       9.655   5.431  -1.903  0.00  0.00     0.065 H 
ATOM     24  C   LIG d   1      11.482   6.874   0.550  0.00  0.00    -0.020 A 
ATOM     25  C   LIG d   1      11.065   8.182   0.390  0.00  0.00    -0.053 A 
ATOM     26  H   LIG d   1      12.202   6.626   1.315  0.00  0.00     0.065 H 
ATOM     27  H   LIG d   1      11.459   8.956   1.032  0.00  0.00     0.062 H 
BRANCH  22  28
ATOM     28  O   LIG d   1      11.383   4.593  -0.121  0.00  0.00    -0.507 OA
ATOM     29  H   LIG d   1      10.939   4.122   0.596  0.00  0.00     0.292 HD
ENDBRANCH  22  28
ENDBRANCH  16  18
BRANCH  16  30
ATOM     30  N   LIG d   1       8.268   9.948  -1.128  0.00  0.00    -0.316 N 
ATOM     31  H1  LIG d   1       8.129   9.587  -2.060  0.00  0.00     0.119 HD
ATOM     32  H2  LIG d   1       7.714   9.438  -0.456  0.00  0.00     0.119 HD
ENDBRANCH  16  30
ENDBRANCH  13  16
ENDBRANCH   8  12
BRANCH   2  33
ATOM     33  C   LIG d   1       9.493   9.057  -7.835  0.00  0.00     0.064 C 
ATOM     34  O   LIG d   1      10.104   9.754  -8.628  0.00  0.00    -0.548 OA
ATOM     35  OXT LIG d   1       8.556   8.377  -8.215  0.00  0.00    -0.548 OA
ENDBRANCH   2  33
BRANCH   1  36
ATOM     36  C   LIG d   1       9.652   6.576  -5.752  0.00  0.00    -0.049 C 
ATOM     37  H   LIG d   1       8.721   6.739  -6.295  0.00  0.00     0.024 H 
ATOM     38  H   LIG d   1      10.083   5.619  -6.046  0.00  0.00     0.024 H 
ATOM     39  H   LIG d   1       9.452   6.571  -4.680  0.00  0.00     0.024 H 
ENDBRANCH   1  36
BRANCH   1  40
ATOM     40  C   LIG d   1      11.577   7.303  -7.219  0.00  0.00    -0.049 C 
ATOM     41  H   LIG d   1      11.755   8.167  -7.860  0.00  0.00     0.024 H 
ATOM     42  H   LIG d   1      12.524   6.957  -6.804  0.00  0.00     0.024 H 
ATOM     43  H   LIG d   1      11.123   6.504  -7.803  0.00  0.00     0.024 H 
ENDBRANCH   1  40
TORSDOF 8
ENDMDL
MODEL 7
REMARK VINA RESULT:      -5.6      4.113      6.447
REMARK  8 active torsions:
REMARK  status: ('A' for Active; 'I' for Inactive)
REMARK    1  A    between atoms: C_1  and  C_2 
REMARK    2  A    between atoms: C_2  and  C_29 
REMARK    3  A    between atoms: CA_3  and  C_26 
REMARK    4  A    between atoms: CA_9  and  N_13 
REMARK       I    between atoms: N_13  and  C_14 
REMARK    5  A    between atoms: C_14  and  CA_16 
REMARK    6  A    between atoms: CA_16  and  C_18 
REMARK    7  A    between atoms: CA_16  and  N_25 
REMARK    8  A    between atoms: C_21  and  O_24 
ROOT
ATOM      1  C   LIG d   1       5.282   0.638  -8.857  0.00  0.00     0.037 C 
ATOM      2  CA  LIG d   1       5.579  -0.711  -9.573  0.00  0.00     0.081 C 
ATOM      3  HA  LIG d   1       6.394  -1.219  -9.055  0.00  0.00     0.058 H 
ATOM      4  N   LIG d   1       4.398  -1.580  -9.578  0.00  0.00    -0.276 NA
ATOM      5  C   LIG d   1       3.464  -1.407  -8.456  0.00  0.00     0.100 C 
ATOM      6  H   LIG d   1       2.410  -1.303  -8.715  0.00  0.00     0.064 H 
ATOM      7  S   LIG d   1       4.186  -0.003  -7.511  0.00  0.00    -0.128 SA
ATOM      8  CA  LIG d   1       3.891  -2.777  -7.960  0.00  0.00     0.128 C 
ATOM      9  HA  LIG d   1       3.065  -3.476  -7.824  0.00  0.00     0.062 H 
ATOM     10  C   LIG d   1       4.570  -2.886  -9.293  0.00  0.00     0.240 C 
ATOM     11  O   LIG d   1       5.084  -3.806  -9.892  0.00  0.00    -0.273 OA
ENDROOT
BRANCH   8  12
ATOM     12  N   LIG d   1       4.808  -2.740  -6.819  0.00  0.00    -0.300 N 
ATOM     13  C   LIG d   1       4.724  -3.680  -5.856  0.00  0.00     0.235 C 
ATOM     14  O   LIG d   1       3.889  -4.555  -5.934  0.00  0.00    -0.274 OA
ATOM     15  H   LIG d   1       5.476  -2.040  -6.757  0.00  0.00     0.150 HD
BRANCH  13  16
ATOM     16  CA  LIG d   1       5.668  -3.641  -4.683  0.00  0.00     0.108 C 
ATOM     17  HA  LIG d   1       5.550  -4.548  -4.089  0.00  0.00     0.060 H 
BRANCH  16  18
ATOM     18  C   LIG d   1       5.359  -2.438  -3.829  0.00  0.00    -0.022 A 
ATOM     19  C   LIG d   1       4.196  -2.403  -3.081  0.00  0.00    -0.053 A 
ATOM     20  C   LIG d   1       3.913  -1.303  -2.294  0.00  0.00    -0.020 A 
ATOM     21  H   LIG d   1       3.510  -3.237  -3.111  0.00  0.00     0.062 H 
ATOM     22  C   LIG d   1       4.790  -0.230  -2.261  0.00  0.00     0.117 A 
ATOM     23  H   LIG d   1       3.006  -1.279  -1.706  0.00  0.00     0.065 H 
ATOM     24  C   LIG d   1       5.954  -0.265  -3.017  0.00  0.00    -0.020 A 
ATOM     25  C   LIG d   1       6.235  -1.369  -3.798  0.00  0.00    -0.053 A 
ATOM     26  H   LIG d   1       6.639   0.570  -2.992  0.00  0.00     0.065 H 
ATOM     27  H   LIG d   1       7.141  -1.396  -4.386  0.00  0.00     0.062 H 
BRANCH  22  28
ATOM     28  O   LIG d   1       4.511   0.854  -1.491  0.00  0.00    -0.507 OA
ATOM     29  H   LIG d   1       5.277   1.214  -1.024  0.00  0.00     0.292 HD
ENDBRANCH  22  28
ENDBRANCH  16  18
BRANCH  16  30
ATOM     30  N   LIG d   1       7.051  -3.551  -5.169  0.00  0.00    -0.316 N 
ATOM     31  H1  LIG d   1       7.686  -4.027  -4.546  0.00  0.00     0.119 HD
ATOM     32  H2  LIG d   1       7.129  -3.911  -6.109  0.00  0.00     0.119 HD
ENDBRANCH  16  30
ENDBRANCH  13  16
ENDBRANCH   8  12
BRANCH   2  33
ATOM     33  C   LIG d   1       5.993  -0.436 -10.995  0.00  0.00     0.064 C 
ATOM     34  O   LIG d   1       5.165  -0.477 -11.889  0.00  0.00    -0.548 OA
ATOM     35  OXT LIG d   1       7.154  -0.171 -11.251  0.00  0.00    -0.548 OA
ENDBRANCH   2  33
BRANCH   1  36
ATOM     36  C   LIG d   1       6.557   1.269  -8.293  0.00  0.00    -0.049 C 
ATOM     37  H   LIG d   1       6.520   2.349  -8.435  0.00  0.00     0.024 H 
ATOM     38  H   LIG d   1       6.634   1.043  -7.230  0.00  0.00     0.024 H 
ATOM     39  H   LIG d   1       7.423   0.863  -8.816  0.00  0.00     0.024 H 
ENDBRANCH   1  36
BRANCH   1  40
ATOM     40  C   LIG d   1       4.537   1.611  -9.774  0.00  0.00    -0.049 C 
ATOM     41  H   LIG d   1       4.003   1.050 -10.541  0.00  0.00     0.024 H 
ATOM     42  H   LIG d   1       3.825   2.191  -9.186  0.00  0.00     0.024 H 
ATOM     43  H   LIG d   1       5.252   2.284 -10.247  0.00  0.00     0.024 H 
ENDBRANCH   1  40
TORSDOF 8
ENDMDL
MODEL 8
REMARK VINA RESULT:      -5.6      5.586      8.398
REMARK  8 active torsions:
REMARK  status: ('A' for Active; 'I' for Inactive)
REMARK    1  A    between atoms: C_1  and  C_2 
REMARK    2  A    between atoms: C_2  and  C_29 
REMARK    3  A    between atoms: CA_3  and  C_26 
REMARK    4  A    between atoms: CA_9  and  N_13 
REMARK       I    between atoms: N_13  and  C_14 
REMARK    5  A    between atoms: C_14  and  CA_16 
REMARK    6  A    between atoms: CA_16  and  C_18 
REMARK    7  A    between atoms: CA_16  and  N_25 
REMARK    8  A    between atoms: C_21  and  O_24 
ROOT
ATOM      1  C   LIG d   1       8.237   1.204  -7.767  0.00  0.00     0.037 C 
ATOM      2  CA  LIG d   1       8.251   1.768  -6.317  0.00  0.00     0.081 C 
ATOM      3  HA  LIG d   1       7.376   2.403  -6.172  0.00  0.00     0.058 H 
ATOM      4  N   LIG d   1       8.230   0.687  -5.327  0.00  0.00    -0.276 NA
ATOM      5  C   LIG d   1       7.566  -0.556  -5.742  0.00  0.00     0.100 C 
ATOM      6  H   LIG d   1       8.119  -1.480  -5.572  0.00  0.00     0.064 H 
ATOM      7  S   LIG d   1       7.097  -0.227  -7.491  0.00  0.00    -0.128 SA
ATOM      8  CA  LIG d   1       6.473  -0.245  -4.735  0.00  0.00     0.128 C 
ATOM      9  HA  LIG d   1       6.300  -1.040  -4.009  0.00  0.00     0.062 H 
ATOM     10  C   LIG d   1       7.417   0.820  -4.261  0.00  0.00     0.240 C 
ATOM     11  O   LIG d   1       7.439   1.536  -3.282  0.00  0.00    -0.273 OA
ENDROOT
BRANCH   8  12
ATOM     12  N   LIG d   1       5.238   0.269  -5.333  0.00  0.00    -0.300 N 
ATOM     13  C   LIG d   1       4.081  -0.402  -5.170  0.00  0.00     0.235 C 
ATOM     14  O   LIG d   1       4.062  -1.432  -4.530  0.00  0.00    -0.274 OA
ATOM     15  H   LIG d   1       5.255   1.092  -5.845  0.00  0.00     0.150 HD
BRANCH  13  16
ATOM     16  CA  LIG d   1       2.812   0.127  -5.786  0.00  0.00     0.108 C 
ATOM     17  HA  LIG d   1       1.997  -0.573  -5.600  0.00  0.00     0.060 H 
BRANCH  16  18
ATOM     18  C   LIG d   1       3.004   0.290  -7.271  0.00  0.00    -0.022 A 
ATOM     19  C   LIG d   1       3.258  -0.817  -8.061  0.00  0.00    -0.053 A 
ATOM     20  C   LIG d   1       3.430  -0.670  -9.424  0.00  0.00    -0.020 A 
ATOM     21  H   LIG d   1       3.319  -1.797  -7.611  0.00  0.00     0.062 H 
ATOM     22  C   LIG d   1       3.357   0.590  -9.999  0.00  0.00     0.117 A 
ATOM     23  H   LIG d   1       3.623  -1.536 -10.040  0.00  0.00     0.065 H 
ATOM     24  C   LIG d   1       3.109   1.700  -9.205  0.00  0.00    -0.020 A 
ATOM     25  C   LIG d   1       2.932   1.547  -7.843  0.00  0.00    -0.053 A 
ATOM     26  H   LIG d   1       3.052   2.682  -9.651  0.00  0.00     0.065 H 
ATOM     27  H   LIG d   1       2.738   2.411  -7.224  0.00  0.00     0.062 H 
BRANCH  22  28
ATOM     28  O   LIG d   1       3.531   0.736 -11.340  0.00  0.00    -0.507 OA
ATOM     29  H   LIG d   1       4.436   0.957 -11.597  0.00  0.00     0.292 HD
ENDBRANCH  22  28
ENDBRANCH  16  18
BRANCH  16  30
ATOM     30  N   LIG d   1       2.484   1.428  -5.190  0.00  0.00    -0.316 N 
ATOM     31  H1  LIG d   1       2.309   2.120  -5.903  0.00  0.00     0.119 HD
ATOM     32  H2  LIG d   1       1.699   1.352  -4.561  0.00  0.00     0.119 HD
ENDBRANCH  16  30
ENDBRANCH  13  16
ENDBRANCH   8  12
BRANCH   2  33
ATOM     33  C   LIG d   1       9.497   2.592  -6.120  0.00  0.00     0.064 C 
ATOM     34  O   LIG d   1      10.447   2.124  -5.516  0.00  0.00    -0.548 OA
ATOM     35  OXT LIG d   1       9.554   3.725  -6.564  0.00  0.00    -0.548 OA
ENDBRANCH   2  33
BRANCH   1  36
ATOM     36  C   LIG d   1       7.648   2.210  -8.757  0.00  0.00    -0.049 C 
ATOM     37  H   LIG d   1       8.406   2.482  -9.492  0.00  0.00     0.024 H 
ATOM     38  H   LIG d   1       6.793   1.764  -9.264  0.00  0.00     0.024 H 
ATOM     39  H   LIG d   1       7.327   3.103  -8.220  0.00  0.00     0.024 H 
ENDBRANCH   1  36
BRANCH   1  40
ATOM     40  C   LIG d   1       9.628   0.739  -8.205  0.00  0.00    -0.049 C 
ATOM     41  H   LIG d   1       9.577  -0.300  -8.530  0.00  0.00     0.024 H 
ATOM     42  H   LIG d   1       9.975   1.362  -9.029  0.00  0.00     0.024 H 
ATOM     43  H   LIG d   1      10.320   0.825  -7.368  0.00  0.00     0.024 H 
ENDBRANCH   1  40
TORSDOF 8
ENDMDL
MODEL 9
REMARK VINA RESULT:      -5.4     12.890     14.945
REMARK  8 active torsions:
REMARK  status: ('A' for Active; 'I' for Inactive)
REMARK    1  A    between atoms: C_1  and  C_2 
REMARK    2  A    between atoms: C_2  and  C_29 
REMARK    3  A    between atoms: CA_3  and  C_26 
REMARK    4  A    between atoms: CA_9  and  N_13 
REMARK       I    between atoms: N_13  and  C_14 
REMARK    5  A    between atoms: C_14  and  CA_16 
REMARK    6  A    between atoms: CA_16  and  C_18 
REMARK    7  A    between atoms: CA_16  and  N_25 
REMARK    8  A    between atoms: C_21  and  O_24 
ROOT
ATOM      1  C   LIG d   1      12.794   7.101  -1.049  0.00  0.00     0.037 C 
ATOM      2  CA  LIG d   1      11.351   7.382  -0.541  0.00  0.00     0.081 C 
ATOM      3  HA  LIG d   1      11.128   8.443  -0.667  0.00  0.00     0.058 H 
ATOM      4  N   LIG d   1      10.364   6.593  -1.284  0.00  0.00    -0.276 NA
ATOM      5  C   LIG d   1      10.720   6.251  -2.668  0.00  0.00     0.100 C 
ATOM      6  H   LIG d   1      10.601   5.206  -2.955  0.00  0.00     0.064 H 
ATOM      7  S   LIG d   1      12.420   6.931  -2.853  0.00  0.00    -0.128 SA
ATOM      8  CA  LIG d   1       9.620   7.191  -3.126  0.00  0.00     0.128 C 
ATOM      9  HA  LIG d   1       8.883   6.726  -3.781  0.00  0.00     0.062 H 
ATOM     10  C   LIG d   1       9.230   7.204  -1.678  0.00  0.00     0.240 C 
ATOM     11  O   LIG d   1       8.256   7.614  -1.083  0.00  0.00    -0.273 OA
ENDROOT
BRANCH   8  12
ATOM     12  N   LIG d   1      10.106   8.479  -3.630  0.00  0.00    -0.300 N 
ATOM     13  C   LIG d   1       9.804   8.869  -4.884  0.00  0.00     0.235 C 
ATOM     14  O   LIG d   1       9.131   8.155  -5.596  0.00  0.00    -0.274 OA
ATOM     15  H   LIG d   1      10.644   9.050  -3.059  0.00  0.00     0.150 HD
BRANCH  13  16
ATOM     16  CA  LIG d   1      10.304  10.193  -5.400  0.00  0.00     0.108 C 
ATOM     17  HA  LIG d   1      11.377  10.131  -5.585  0.00  0.00     0.060 H 
BRANCH  16  18
ATOM     18  C   LIG d   1      10.032  11.266  -4.378  0.00  0.00    -0.022 A 
ATOM     19  C   LIG d   1      11.086  11.933  -3.780  0.00  0.00    -0.053 A 
ATOM     20  C   LIG d   1      10.839  12.920  -2.845  0.00  0.00    -0.020 A 
ATOM     21  H   LIG d   1      12.102  11.683  -4.045  0.00  0.00     0.062 H 
ATOM     22  C   LIG d   1       9.533  13.236  -2.500  0.00  0.00     0.117 A 
ATOM     23  H   LIG d   1      11.662  13.444  -2.382  0.00  0.00     0.065 H 
ATOM     24  C   LIG d   1       8.477  12.562  -3.097  0.00  0.00    -0.020 A 
ATOM     25  C   LIG d   1       8.729  11.580  -4.035  0.00  0.00    -0.053 A 
ATOM     26  H   LIG d   1       7.460  12.807  -2.830  0.00  0.00     0.065 H 
ATOM     27  H   LIG d   1       7.908  11.055  -4.500  0.00  0.00     0.062 H 
BRANCH  22  28
ATOM     28  O   LIG d   1       9.288  14.204  -1.578  0.00  0.00    -0.507 OA
ATOM     29  H   LIG d   1       9.342  13.899  -0.662  0.00  0.00     0.292 HD
ENDBRANCH  22  28
ENDBRANCH  16  18
BRANCH  16  30
ATOM     30  N   LIG d   1       9.611  10.524  -6.652  0.00  0.00    -0.316 N 
ATOM     31  H1  LIG d   1       9.031  11.343  -6.539  0.00  0.00     0.119 HD
ATOM     32  H2  LIG d   1      10.267  10.647  -7.408  0.00  0.00     0.119 HD
ENDBRANCH  16  30
ENDBRANCH  13  16
ENDBRANCH   8  12
BRANCH   2  33
ATOM     33  C   LIG d   1      11.263   7.029   0.921  0.00  0.00     0.064 C 
ATOM     34  O   LIG d   1      10.732   5.986   1.265  0.00  0.00    -0.548 OA
ATOM     35  OXT LIG d   1      11.724   7.784   1.759  0.00  0.00    -0.548 OA
ENDBRANCH   2  33
BRANCH   1  36
ATOM     36  C   LIG d   1      13.727   8.282  -0.776  0.00  0.00    -0.049 C 
ATOM     37  H   LIG d   1      14.747   8.010  -1.052  0.00  0.00     0.024 H 
ATOM     38  H   LIG d   1      13.408   9.142  -1.364  0.00  0.00     0.024 H 
ATOM     39  H   LIG d   1      13.693   8.534   0.284  0.00  0.00     0.024 H 
ENDBRANCH   1  36
BRANCH   1  40
ATOM     40  C   LIG d   1      13.354   5.802  -0.465  0.00  0.00    -0.049 C 
ATOM     41  H   LIG d   1      14.243   6.023   0.125  0.00  0.00     0.024 H 
ATOM     42  H   LIG d   1      12.602   5.335   0.171  0.00  0.00     0.024 H 
ATOM     43  H   LIG d   1      13.616   5.122  -1.276  0.00  0.00     0.024 H 
ENDBRANCH   1  40
TORSDOF 8
ENDMDL
MODEL 10
REMARK VINA RESULT:      -5.3      4.971      6.693
REMARK  8 active torsions:
REMARK  status: ('A' for Active; 'I' for Inactive)
REMARK    1  A    between atoms: C_1  and  C_2 
REMARK    2  A    between atoms: C_2  and  C_29 
REMARK    3  A    between atoms: CA_3  and  C_26 
REMARK    4  A    between atoms: CA_9  and  N_13 
REMARK       I    between atoms: N_13  and  C_14 
REMARK    5  A    between atoms: C_14  and  CA_16 
REMARK    6  A    between atoms: CA_16  and  C_18 
REMARK    7  A    between atoms: CA_16  and  N_25 
REMARK    8  A    between atoms: C_21  and  O_24 
ROOT
ATOM      1  C   LIG d   1       5.891  -1.577  -6.699  0.00  0.00     0.037 C 
ATOM      2  CA  LIG d   1       4.979  -2.700  -6.127  0.00  0.00     0.081 C 
ATOM      3  HA  LIG d   1       3.937  -2.382  -6.192  0.00  0.00     0.058 H 
ATOM      4  N   LIG d   1       5.146  -3.951  -6.874  0.00  0.00    -0.276 NA
ATOM      5  C   LIG d   1       5.532  -3.813  -8.285  0.00  0.00     0.100 C 
ATOM      6  H   LIG d   1       6.370  -4.426  -8.620  0.00  0.00     0.064 H 
ATOM      7  S   LIG d   1       5.749  -1.997  -8.495  0.00  0.00    -0.128 SA
ATOM      8  CA  LIG d   1       4.152  -4.323  -8.657  0.00  0.00     0.128 C 
ATOM      9  HA  LIG d   1       4.162  -5.197  -9.308  0.00  0.00     0.062 H 
ATOM     10  C   LIG d   1       4.040  -4.649  -7.197  0.00  0.00     0.240 C 
ATOM     11  O   LIG d   1       3.248  -5.298  -6.548  0.00  0.00    -0.273 OA
ENDROOT
BRANCH   8  12
ATOM     12  N   LIG d   1       3.231  -3.277  -9.111  0.00  0.00    -0.300 N 
ATOM     13  C   LIG d   1       2.979  -3.127 -10.427  0.00  0.00     0.235 C 
ATOM     14  O   LIG d   1       3.514  -3.857 -11.234  0.00  0.00    -0.274 OA
ATOM     15  H   LIG d   1       2.804  -2.694  -8.465  0.00  0.00     0.150 HD
BRANCH  13  16
ATOM     16  CA  LIG d   1       2.032  -2.052 -10.893  0.00  0.00     0.108 C 
ATOM     17  HA  LIG d   1       1.937  -2.095 -11.978  0.00  0.00     0.060 H 
BRANCH  16  18
ATOM     18  C   LIG d   1       2.568  -0.702 -10.489  0.00  0.00    -0.022 A 
ATOM     19  C   LIG d   1       3.519  -0.074 -11.273  0.00  0.00    -0.053 A 
ATOM     20  C   LIG d   1       4.008   1.165 -10.907  0.00  0.00    -0.020 A 
ATOM     21  H   LIG d   1       3.878  -0.552 -12.172  0.00  0.00     0.062 H 
ATOM     22  C   LIG d   1       3.551   1.776  -9.749  0.00  0.00     0.117 A 
ATOM     23  H   LIG d   1       4.747   1.657 -11.522  0.00  0.00     0.065 H 
ATOM     24  C   LIG d   1       2.600   1.142  -8.961  0.00  0.00    -0.020 A 
ATOM     25  C   LIG d   1       2.111  -0.095  -9.334  0.00  0.00    -0.053 A 
ATOM     26  H   LIG d   1       2.243   1.616  -8.059  0.00  0.00     0.065 H 
ATOM     27  H   LIG d   1       1.371  -0.589  -8.722  0.00  0.00     0.062 H 
BRANCH  22  28
ATOM     28  O   LIG d   1       4.034   2.993  -9.385  0.00  0.00    -0.507 OA
ATOM     29  H   LIG d   1       4.840   2.954  -8.853  0.00  0.00     0.292 HD
ENDBRANCH  22  28
ENDBRANCH  16  18
BRANCH  16  30
ATOM     30  N   LIG d   1       0.715  -2.258 -10.278  0.00  0.00    -0.316 N 
ATOM     31  H1  LIG d   1       0.561  -1.606  -9.524  0.00  0.00     0.119 HD
ATOM     32  H2  LIG d   1      -0.020  -2.195 -10.966  0.00  0.00     0.119 HD
ENDBRANCH  16  30
ENDBRANCH  13  16
ENDBRANCH   8  12
BRANCH   2  33
ATOM     33  C   LIG d   1       5.334  -2.939  -4.683  0.00  0.00     0.064 C 
ATOM     34  O   LIG d   1       6.194  -3.753  -4.394  0.00  0.00    -0.548 OA
ATOM     35  OXT LIG d   1       4.763  -2.317  -3.804  0.00  0.00    -0.548 OA
ENDBRANCH   2  33
BRANCH   1  36
ATOM     36  C   LIG d   1       5.327  -0.187  -6.399  0.00  0.00    -0.049 C 
ATOM     37  H   LIG d   1       6.123   0.553  -6.481  0.00  0.00     0.024 H 
ATOM     38  H   LIG d   1       4.538   0.047  -7.114  0.00  0.00     0.024 H 
ATOM     39  H   LIG d   1       4.919  -0.171  -5.389  0.00  0.00     0.024 H 
ENDBRANCH   1  36
BRANCH   1  40
ATOM     40  C   LIG d   1       7.332  -1.713  -6.201  0.00  0.00    -0.049 C 
ATOM     41  H   LIG d   1       7.642  -2.755  -6.268  0.00  0.00     0.024 H 
ATOM     42  H   LIG d   1       7.988  -1.097  -6.816  0.00  0.00     0.024 H 
ATOM     43  H   LIG d   1       7.391  -1.383  -5.164  0.00  0.00     0.024 H 
ENDBRANCH   1  40
TORSDOF 8
ENDMDL
