MODEL 1
REMARK VINA RESULT:      -6.9      0.000      0.000
REMARK  6 active torsions:
REMARK  status: ('A' for Active; 'I' for Inactive)
REMARK    1  A    between atoms: C_1  and  C_2 
REMARK    2  A    between atoms: C_5  and  C_8 
REMARK    3  A    between atoms: C_8  and  C_10 
REMARK    4  A    between atoms: C_10  and  N_11 
REMARK    5  A    between atoms: N_15  and  C_16 
REMARK    6  A    between atoms: C_16  and  C_17 
ROOT
ATOM      1  N   LIG d   1       4.017  -3.914  -9.099  0.00  0.00    -0.345 N 
ATOM      2  C   LIG d   1       3.428  -4.847  -8.302  0.00  0.00     0.011 C 
ATOM      3  C   LIG d   1       3.812  -4.997  -7.018  0.00  0.00     0.025 C 
ATOM      4  C   LIG d   1       4.886  -4.130  -6.511  0.00  0.00     0.204 C 
ATOM      5  N   LIG d   1       5.140  -4.032  -5.218  0.00  0.00    -0.237 N 
ATOM      6  C   LIG d   1       5.665  -3.377  -7.504  0.00  0.00     0.025 C 
ATOM      7  C   LIG d   1       5.191  -3.311  -8.766  0.00  0.00     0.011 C 
ATOM      8  H   LIG d   1       2.645  -5.474  -8.702  0.00  0.00     0.081 H 
ATOM      9  H   LIG d   1       3.345  -5.734  -6.381  0.00  0.00     0.070 H 
ATOM     10  H   LIG d   1       6.592  -2.893  -7.233  0.00  0.00     0.070 H 
ATOM     11  H   LIG d   1       5.746  -2.771  -9.519  0.00  0.00     0.081 H 
ATOM     12  H   LIG d   1       4.672  -4.603  -4.586  0.00  0.00     0.446 HD
ENDROOT
BRANCH   1  13
ATOM     13  C   LIG d   1       3.367  -3.549 -10.360  0.00  0.00     0.086 C 
ATOM     14  H   LIG d   1       2.899  -4.432 -10.795  0.00  0.00     0.057 H 
ATOM     15  H   LIG d   1       4.112  -3.155 -11.052  0.00  0.00     0.057 H 
BRANCH  13  16
ATOM     16  C   LIG d   1       2.317  -2.501 -10.099  0.00  0.00     0.183 C 
ATOM     17  O   LIG d   1       1.145  -2.810 -10.073  0.00  0.00    -0.290 OA
BRANCH  16  18
ATOM     18  C   LIG d   1       2.715  -1.102  -9.874  0.00  0.00     0.019 A 
ATOM     19  C   LIG d   1       3.320  -0.369 -10.899  0.00  0.00    -0.051 A 
ATOM     20  C   LIG d   1       3.689   0.942 -10.680  0.00  0.00    -0.058 A 
ATOM     21  H   LIG d   1       3.500  -0.829 -11.860  0.00  0.00     0.062 H 
ATOM     22  C   LIG d   1       3.460   1.532  -9.450  0.00  0.00    -0.050 A 
ATOM     23  H   LIG d   1       4.158   1.508 -11.471  0.00  0.00     0.062 H 
ATOM     24  C   LIG d   1       2.865   0.813  -8.428  0.00  0.00    -0.058 A 
ATOM     25  C   LIG d   1       2.486  -0.497  -8.633  0.00  0.00    -0.051 A 
ATOM     26  H   LIG d   1       2.695   1.279  -7.469  0.00  0.00     0.062 H 
ATOM     27  H   LIG d   1       2.017  -1.056  -7.836  0.00  0.00     0.062 H 
BRANCH  22  28
ATOM     28  C   LIG d   1       3.866   2.965  -9.219  0.00  0.00    -0.040 C 
ATOM     29  H   LIG d   1       3.005   3.616  -9.377  0.00  0.00     0.028 H 
ATOM     30  H   LIG d   1       4.225   3.080  -8.195  0.00  0.00     0.028 H 
ATOM     31  H   LIG d   1       4.659   3.235  -9.915  0.00  0.00     0.028 H 
ENDBRANCH  22  28
ENDBRANCH  16  18
ENDBRANCH  13  16
ENDBRANCH   1  13
BRANCH   5  32
ATOM     32  C   LIG d   1       6.128  -3.064  -4.736  0.00  0.00     0.169 C 
ATOM     33  H   LIG d   1       6.943  -3.592  -4.239  0.00  0.00     0.108 H 
ATOM     34  H   LIG d   1       6.523  -2.499  -5.580  0.00  0.00     0.108 H 
BRANCH  32  35
ATOM     35  C   LIG d   1       5.473  -2.120  -3.761  0.00  0.00     0.017 A 
ATOM     36  C   LIG d   1       6.074  -0.912  -3.458  0.00  0.00    -0.053 A 
ATOM     37  C   LIG d   1       5.472  -0.045  -2.567  0.00  0.00    -0.061 A 
ATOM     38  H   LIG d   1       7.012  -0.645  -3.922  0.00  0.00     0.062 H 
ATOM     39  C   LIG d   1       4.273  -0.389  -1.970  0.00  0.00    -0.062 A 
ATOM     40  H   LIG d   1       5.939   0.900  -2.334  0.00  0.00     0.062 H 
ATOM     41  C   LIG d   1       3.675  -1.599  -2.267  0.00  0.00    -0.061 A 
ATOM     42  H   LIG d   1       3.804   0.287  -1.271  0.00  0.00     0.062 H 
ATOM     43  C   LIG d   1       4.276  -2.465  -3.162  0.00  0.00    -0.053 A 
ATOM     44  H   LIG d   1       2.739  -1.869  -1.801  0.00  0.00     0.062 H 
ATOM     45  H   LIG d   1       3.808  -3.411  -3.396  0.00  0.00     0.062 H 
ENDBRANCH  32  35
ENDBRANCH   5  32
TORSDOF 6
ENDMDL
MODEL 2
REMARK VINA RESULT:      -6.8      5.943      9.027
REMARK  6 active torsions:
REMARK  status: ('A' for Active; 'I' for Inactive)
REMARK    1  A    between atoms: C_1  and  C_2 
REMARK    2  A    between atoms: C_5  and  C_8 
REMARK    3  A    between atoms: C_8  and  C_10 
REMARK    4  A    between atoms: C_10  and  N_11 
REMARK    5  A    between atoms: N_15  and  C_16 
REMARK    6  A    between atoms: C_16  and  C_17 
ROOT
ATOM      1  N   LIG d   1       9.717  -6.251  -3.690  0.00  0.00    -0.345 N 
ATOM      2  C   LIG d   1      10.213  -5.483  -2.682  0.00  0.00     0.011 C 
ATOM      3  C   LIG d   1       9.768  -4.225  -2.491  0.00  0.00     0.025 C 
ATOM      4  C   LIG d   1       8.740  -3.708  -3.407  0.00  0.00     0.204 C 
ATOM      5  N   LIG d   1       8.072  -2.600  -3.139  0.00  0.00    -0.237 N 
ATOM      6  C   LIG d   1       8.488  -4.477  -4.634  0.00  0.00     0.025 C 
ATOM      7  C   LIG d   1       9.002  -5.722  -4.720  0.00  0.00     0.011 C 
ATOM      8  H   LIG d   1      10.971  -5.887  -2.026  0.00  0.00     0.081 H 
ATOM      9  H   LIG d   1      10.156  -3.613  -1.689  0.00  0.00     0.070 H 
ATOM     10  H   LIG d   1       7.913  -4.056  -5.445  0.00  0.00     0.070 H 
ATOM     11  H   LIG d   1       8.839  -6.308  -5.613  0.00  0.00     0.081 H 
ATOM     12  H   LIG d   1       8.313  -2.062  -2.367  0.00  0.00     0.446 HD
ENDROOT
BRANCH   1  13
ATOM     13  C   LIG d   1       9.967  -7.694  -3.669  0.00  0.00     0.086 C 
ATOM     14  H   LIG d   1      11.039  -7.876  -3.588  0.00  0.00     0.057 H 
ATOM     15  H   LIG d   1       9.591  -8.141  -4.590  0.00  0.00     0.057 H 
BRANCH  13  16
ATOM     16  C   LIG d   1       9.264  -8.308  -2.487  0.00  0.00     0.183 C 
ATOM     17  O   LIG d   1       9.772  -8.262  -1.387  0.00  0.00    -0.290 OA
BRANCH  16  18
ATOM     18  C   LIG d   1       7.958  -8.962  -2.667  0.00  0.00     0.019 A 
ATOM     19  C   LIG d   1       7.362  -9.647  -1.603  0.00  0.00    -0.051 A 
ATOM     20  C   LIG d   1       6.137 -10.257  -1.779  0.00  0.00    -0.058 A 
ATOM     21  H   LIG d   1       7.859  -9.698  -0.646  0.00  0.00     0.062 H 
ATOM     22  C   LIG d   1       5.499 -10.192  -3.005  0.00  0.00    -0.050 A 
ATOM     23  H   LIG d   1       5.677 -10.787  -0.959  0.00  0.00     0.062 H 
ATOM     24  C   LIG d   1       6.084  -9.521  -4.065  0.00  0.00    -0.058 A 
ATOM     25  C   LIG d   1       7.305  -8.901  -3.902  0.00  0.00    -0.051 A 
ATOM     26  H   LIG d   1       5.581  -9.479  -5.019  0.00  0.00     0.062 H 
ATOM     27  H   LIG d   1       7.758  -8.373  -4.729  0.00  0.00     0.062 H 
BRANCH  22  28
ATOM     28  C   LIG d   1       4.161 -10.861  -3.190  0.00  0.00    -0.040 C 
ATOM     29  H   LIG d   1       3.369 -10.116  -3.112  0.00  0.00     0.028 H 
ATOM     30  H   LIG d   1       4.122 -11.331  -4.173  0.00  0.00     0.028 H 
ATOM     31  H   LIG d   1       4.024 -11.619  -2.418  0.00  0.00     0.028 H 
ENDBRANCH  22  28
ENDBRANCH  16  18
ENDBRANCH  13  16
ENDBRANCH   1  13
BRANCH   5  32
ATOM     32  C   LIG d   1       6.967  -2.182  -4.005  0.00  0.00     0.169 C 
ATOM     33  H   LIG d   1       7.367  -1.710  -4.903  0.00  0.00     0.108 H 
ATOM     34  H   LIG d   1       6.377  -3.055  -4.286  0.00  0.00     0.108 H 
BRANCH  32  35
ATOM     35  C   LIG d   1       6.093  -1.201  -3.268  0.00  0.00     0.017 A 
ATOM     36  C   LIG d   1       5.032  -1.655  -2.508  0.00  0.00    -0.053 A 
ATOM     37  C   LIG d   1       4.232  -0.755  -1.829  0.00  0.00    -0.061 A 
ATOM     38  H   LIG d   1       4.830  -2.714  -2.441  0.00  0.00     0.062 H 
ATOM     39  C   LIG d   1       4.488   0.601  -1.918  0.00  0.00    -0.062 A 
ATOM     40  H   LIG d   1       3.406  -1.110  -1.232  0.00  0.00     0.062 H 
ATOM     41  C   LIG d   1       5.546   1.056  -2.683  0.00  0.00    -0.061 A 
ATOM     42  H   LIG d   1       3.862   1.305  -1.390  0.00  0.00     0.062 H 
ATOM     43  C   LIG d   1       6.348   0.155  -3.358  0.00  0.00    -0.053 A 
ATOM     44  H   LIG d   1       5.746   2.115  -2.753  0.00  0.00     0.062 H 
ATOM     45  H   LIG d   1       7.175   0.510  -3.956  0.00  0.00     0.062 H 
ENDBRANCH  32  35
ENDBRANCH   5  32
TORSDOF 6
ENDMDL
MODEL 3
REMARK VINA RESULT:      -6.6      2.646      3.728
REMARK  6 active torsions:
REMARK  status: ('A' for Active; 'I' for Inactive)
REMARK    1  A    between atoms: C_1  and  C_2 
REMARK    2  A    between atoms: C_5  and  C_8 
REMARK    3  A    between atoms: C_8  and  C_10 
REMARK    4  A    between atoms: C_10  and  N_11 
REMARK    5  A    between atoms: N_15  and  C_16 
REMARK    6  A    between atoms: C_16  and  C_17 
ROOT
ATOM      1  N   LIG d   1       6.688   0.328  -8.478  0.00  0.00    -0.345 N 
ATOM      2  C   LIG d   1       6.504  -1.020  -8.537  0.00  0.00     0.011 C 
ATOM      3  C   LIG d   1       6.641  -1.782  -7.433  0.00  0.00     0.025 C 
ATOM      4  C   LIG d   1       7.001  -1.116  -6.173  0.00  0.00     0.204 C 
ATOM      5  N   LIG d   1       6.901  -1.739  -5.011  0.00  0.00    -0.237 N 
ATOM      6  C   LIG d   1       7.475   0.273  -6.259  0.00  0.00     0.025 C 
ATOM      7  C   LIG d   1       7.301   0.932  -7.424  0.00  0.00     0.011 C 
ATOM      8  H   LIG d   1       6.246  -1.483  -9.478  0.00  0.00     0.081 H 
ATOM      9  H   LIG d   1       6.492  -2.851  -7.474  0.00  0.00     0.070 H 
ATOM     10  H   LIG d   1       7.953   0.750  -5.417  0.00  0.00     0.070 H 
ATOM     11  H   LIG d   1       7.647   1.951  -7.519  0.00  0.00     0.081 H 
ATOM     12  H   LIG d   1       6.668  -2.681  -4.984  0.00  0.00     0.446 HD
ENDROOT
BRANCH   1  13
ATOM     13  C   LIG d   1       6.216   1.155  -9.591  0.00  0.00     0.086 C 
ATOM     14  H   LIG d   1       6.364   0.621 -10.529  0.00  0.00     0.057 H 
ATOM     15  H   LIG d   1       6.777   2.090  -9.612  0.00  0.00     0.057 H 
BRANCH  13  16
ATOM     16  C   LIG d   1       4.750   1.451  -9.409  0.00  0.00     0.183 C 
ATOM     17  O   LIG d   1       4.401   2.372  -8.701  0.00  0.00    -0.290 OA
BRANCH  16  18
ATOM     18  C   LIG d   1       3.742   0.625 -10.091  0.00  0.00     0.019 A 
ATOM     19  C   LIG d   1       3.979   0.150 -11.385  0.00  0.00    -0.051 A 
ATOM     20  C   LIG d   1       3.030  -0.624 -12.017  0.00  0.00    -0.058 A 
ATOM     21  H   LIG d   1       4.905   0.391 -11.888  0.00  0.00     0.062 H 
ATOM     22  C   LIG d   1       1.844  -0.933 -11.374  0.00  0.00    -0.050 A 
ATOM     23  H   LIG d   1       3.212  -0.990 -13.017  0.00  0.00     0.062 H 
ATOM     24  C   LIG d   1       1.598  -0.464 -10.095  0.00  0.00    -0.058 A 
ATOM     25  C   LIG d   1       2.541   0.307  -9.448  0.00  0.00    -0.051 A 
ATOM     26  H   LIG d   1       0.669  -0.705  -9.602  0.00  0.00     0.062 H 
ATOM     27  H   LIG d   1       2.350   0.669  -8.448  0.00  0.00     0.062 H 
BRANCH  22  28
ATOM     28  C   LIG d   1       0.812  -1.780 -12.071  0.00  0.00    -0.040 C 
ATOM     29  H   LIG d   1       0.062  -2.107 -11.350  0.00  0.00     0.028 H 
ATOM     30  H   LIG d   1       0.330  -1.195 -12.855  0.00  0.00     0.028 H 
ATOM     31  H   LIG d   1       1.295  -2.652 -12.513  0.00  0.00     0.028 H 
ENDBRANCH  22  28
ENDBRANCH  16  18
ENDBRANCH  13  16
ENDBRANCH   1  13
BRANCH   5  32
ATOM     32  C   LIG d   1       7.142  -1.009  -3.765  0.00  0.00     0.169 C 
ATOM     33  H   LIG d   1       7.605  -1.676  -3.036  0.00  0.00     0.108 H 
ATOM     34  H   LIG d   1       7.807  -0.168  -3.960  0.00  0.00     0.108 H 
BRANCH  32  35
ATOM     35  C   LIG d   1       5.834  -0.499  -3.219  0.00  0.00     0.017 A 
ATOM     36  C   LIG d   1       4.772  -1.367  -3.043  0.00  0.00    -0.053 A 
ATOM     37  C   LIG d   1       3.573  -0.900  -2.539  0.00  0.00    -0.061 A 
ATOM     38  H   LIG d   1       4.881  -2.411  -3.297  0.00  0.00     0.062 H 
ATOM     39  C   LIG d   1       3.433   0.438  -2.219  0.00  0.00    -0.062 A 
ATOM     40  H   LIG d   1       2.746  -1.578  -2.398  0.00  0.00     0.062 H 
ATOM     41  C   LIG d   1       4.492   1.307  -2.399  0.00  0.00    -0.061 A 
ATOM     42  H   LIG d   1       2.495   0.805  -1.828  0.00  0.00     0.062 H 
ATOM     43  C   LIG d   1       5.693   0.838  -2.900  0.00  0.00    -0.053 A 
ATOM     44  H   LIG d   1       4.383   2.352  -2.150  0.00  0.00     0.062 H 
ATOM     45  H   LIG d   1       6.521   1.518  -3.041  0.00  0.00     0.062 H 
ENDBRANCH  32  35
ENDBRANCH   5  32
TORSDOF 6
ENDMDL
MODEL 4
REMARK VINA RESULT:      -6.6      1.188      1.709
REMARK  6 active torsions:
REMARK  status: ('A' for Active; 'I' for Inactive)
REMARK    1  A    between atoms: C_1  and  C_2 
REMARK    2  A    between atoms: C_5  and  C_8 
REMARK    3  A    between atoms: C_8  and  C_10 
REMARK    4  A    between atoms: C_10  and  N_11 
REMARK    5  A    between atoms: N_15  and  C_16 
REMARK    6  A    between atoms: C_16  and  C_17 
ROOT
ATOM      1  N   LIG d   1       4.475  -4.079  -9.520  0.00  0.00    -0.345 N 
ATOM      2  C   LIG d   1       3.593  -4.950  -8.959  0.00  0.00     0.011 C 
ATOM      3  C   LIG d   1       3.538  -5.108  -7.620  0.00  0.00     0.025 C 
ATOM      4  C   LIG d   1       4.461  -4.318  -6.792  0.00  0.00     0.204 C 
ATOM      5  N   LIG d   1       4.300  -4.218  -5.484  0.00  0.00    -0.237 N 
ATOM      6  C   LIG d   1       5.571  -3.644  -7.481  0.00  0.00     0.025 C 
ATOM      7  C   LIG d   1       5.527  -3.563  -8.828  0.00  0.00     0.011 C 
ATOM      8  H   LIG d   1       2.930  -5.521  -9.591  0.00  0.00     0.081 H 
ATOM      9  H   LIG d   1       2.837  -5.795  -7.170  0.00  0.00     0.070 H 
ATOM     10  H   LIG d   1       6.399  -3.229  -6.927  0.00  0.00     0.070 H 
ATOM     11  H   LIG d   1       6.333  -3.080  -9.362  0.00  0.00     0.081 H 
ATOM     12  H   LIG d   1       3.613  -4.739  -5.038  0.00  0.00     0.446 HD
ENDROOT
BRANCH   1  13
ATOM     13  C   LIG d   1       4.288  -3.687 -10.919  0.00  0.00     0.086 C 
ATOM     14  H   LIG d   1       4.169  -4.579 -11.533  0.00  0.00     0.057 H 
ATOM     15  H   LIG d   1       5.159  -3.125 -11.259  0.00  0.00     0.057 H 
BRANCH  13  16
ATOM     16  C   LIG d   1       3.057  -2.827 -11.039  0.00  0.00     0.183 C 
ATOM     17  O   LIG d   1       2.103  -3.218 -11.679  0.00  0.00    -0.290 OA
BRANCH  16  18
ATOM     18  C   LIG d   1       3.010  -1.513 -10.379  0.00  0.00     0.019 A 
ATOM     19  C   LIG d   1       2.439  -1.383  -9.109  0.00  0.00    -0.051 A 
ATOM     20  C   LIG d   1       2.399  -0.149  -8.496  0.00  0.00    -0.058 A 
ATOM     21  H   LIG d   1       2.029  -2.249  -8.609  0.00  0.00     0.062 H 
ATOM     22  C   LIG d   1       2.924   0.961  -9.135  0.00  0.00    -0.050 A 
ATOM     23  H   LIG d   1       1.958  -0.048  -7.516  0.00  0.00     0.062 H 
ATOM     24  C   LIG d   1       3.486   0.844 -10.394  0.00  0.00    -0.058 A 
ATOM     25  C   LIG d   1       3.538  -0.386 -11.017  0.00  0.00    -0.051 A 
ATOM     26  H   LIG d   1       3.889   1.715 -10.888  0.00  0.00     0.062 H 
ATOM     27  H   LIG d   1       3.982  -0.477 -11.997  0.00  0.00     0.062 H 
BRANCH  22  28
ATOM     28  C   LIG d   1       2.877   2.307  -8.459  0.00  0.00    -0.040 C 
ATOM     29  H   LIG d   1       3.816   2.482  -7.933  0.00  0.00     0.028 H 
ATOM     30  H   LIG d   1       2.729   3.085  -9.208  0.00  0.00     0.028 H 
ATOM     31  H   LIG d   1       2.053   2.327  -7.746  0.00  0.00     0.028 H 
ENDBRANCH  22  28
ENDBRANCH  16  18
ENDBRANCH  13  16
ENDBRANCH   1  13
BRANCH   5  32
ATOM     32  C   LIG d   1       5.158  -3.321  -4.706  0.00  0.00     0.169 C 
ATOM     33  H   LIG d   1       5.538  -3.849  -3.831  0.00  0.00     0.108 H 
ATOM     34  H   LIG d   1       5.994  -2.993  -5.324  0.00  0.00     0.108 H 
BRANCH  32  35
ATOM     35  C   LIG d   1       4.361  -2.122  -4.262  0.00  0.00     0.017 A 
ATOM     36  C   LIG d   1       3.865  -2.060  -2.973  0.00  0.00    -0.053 A 
ATOM     37  C   LIG d   1       3.138  -0.959  -2.564  0.00  0.00    -0.061 A 
ATOM     38  H   LIG d   1       4.051  -2.871  -2.284  0.00  0.00     0.062 H 
ATOM     39  C   LIG d   1       2.897   0.077  -3.447  0.00  0.00    -0.062 A 
ATOM     40  H   LIG d   1       2.755  -0.908  -1.556  0.00  0.00     0.062 H 
ATOM     41  C   LIG d   1       3.387   0.014  -4.738  0.00  0.00    -0.061 A 
ATOM     42  H   LIG d   1       2.325   0.937  -3.129  0.00  0.00     0.062 H 
ATOM     43  C   LIG d   1       4.118  -1.087  -5.145  0.00  0.00    -0.053 A 
ATOM     44  H   LIG d   1       3.199   0.822  -5.429  0.00  0.00     0.062 H 
ATOM     45  H   LIG d   1       4.502  -1.137  -6.154  0.00  0.00     0.062 H 
ENDBRANCH  32  35
ENDBRANCH   5  32
TORSDOF 6
ENDMDL
MODEL 5
REMARK VINA RESULT:      -6.5      2.051      6.271
REMARK  6 active torsions:
REMARK  status: ('A' for Active; 'I' for Inactive)
REMARK    1  A    between atoms: C_1  and  C_2 
REMARK    2  A    between atoms: C_5  and  C_8 
REMARK    3  A    between atoms: C_8  and  C_10 
REMARK    4  A    between atoms: C_10  and  N_11 
REMARK    5  A    between atoms: N_15  and  C_16 
REMARK    6  A    between atoms: C_16  and  C_17 
ROOT
ATOM      1  N   LIG d   1       5.402  -4.162  -6.709  0.00  0.00    -0.345 N 
ATOM      2  C   LIG d   1       6.476  -3.963  -7.522  0.00  0.00     0.011 C 
ATOM      3  C   LIG d   1       6.337  -3.329  -8.704  0.00  0.00     0.025 C 
ATOM      4  C   LIG d   1       4.994  -2.867  -9.087  0.00  0.00     0.204 C 
ATOM      5  N   LIG d   1       4.816  -2.022 -10.088  0.00  0.00    -0.237 N 
ATOM      6  C   LIG d   1       3.859  -3.385  -8.311  0.00  0.00     0.025 C 
ATOM      7  C   LIG d   1       4.122  -4.022  -7.150  0.00  0.00     0.011 C 
ATOM      8  H   LIG d   1       7.449  -4.317  -7.217  0.00  0.00     0.081 H 
ATOM      9  H   LIG d   1       7.187  -3.165  -9.350  0.00  0.00     0.070 H 
ATOM     10  H   LIG d   1       2.845  -3.264  -8.660  0.00  0.00     0.070 H 
ATOM     11  H   LIG d   1       3.308  -4.420  -6.562  0.00  0.00     0.081 H 
ATOM     12  H   LIG d   1       5.569  -1.759 -10.642  0.00  0.00     0.446 HD
ENDROOT
BRANCH   1  13
ATOM     13  C   LIG d   1       5.633  -4.545  -5.315  0.00  0.00     0.086 C 
ATOM     14  H   LIG d   1       6.094  -5.532  -5.281  0.00  0.00     0.057 H 
ATOM     15  H   LIG d   1       4.681  -4.571  -4.783  0.00  0.00     0.057 H 
BRANCH  13  16
ATOM     16  C   LIG d   1       6.546  -3.541  -4.662  0.00  0.00     0.183 C 
ATOM     17  O   LIG d   1       7.749  -3.669  -4.748  0.00  0.00    -0.290 OA
BRANCH  16  18
ATOM     18  C   LIG d   1       5.979  -2.402  -3.922  0.00  0.00     0.019 A 
ATOM     19  C   LIG d   1       6.715  -1.223  -3.773  0.00  0.00    -0.051 A 
ATOM     20  C   LIG d   1       6.176  -0.160  -3.078  0.00  0.00    -0.058 A 
ATOM     21  H   LIG d   1       7.704  -1.145  -4.200  0.00  0.00     0.062 H 
ATOM     22  C   LIG d   1       4.909  -0.259  -2.530  0.00  0.00    -0.050 A 
ATOM     23  H   LIG d   1       6.744   0.751  -2.961  0.00  0.00     0.062 H 
ATOM     24  C   LIG d   1       4.175  -1.424  -2.669  0.00  0.00    -0.058 A 
ATOM     25  C   LIG d   1       4.699  -2.493  -3.366  0.00  0.00    -0.051 A 
ATOM     26  H   LIG d   1       3.190  -1.495  -2.234  0.00  0.00     0.062 H 
ATOM     27  H   LIG d   1       4.123  -3.400  -3.477  0.00  0.00     0.062 H 
BRANCH  22  28
ATOM     28  C   LIG d   1       4.327   0.906  -1.773  0.00  0.00    -0.040 C 
ATOM     29  H   LIG d   1       4.019   0.577  -0.780  0.00  0.00     0.028 H 
ATOM     30  H   LIG d   1       5.080   1.690  -1.678  0.00  0.00     0.028 H 
ATOM     31  H   LIG d   1       3.463   1.295  -2.312  0.00  0.00     0.028 H 
ENDBRANCH  22  28
ENDBRANCH  16  18
ENDBRANCH  13  16
ENDBRANCH   1  13
BRANCH   5  32
ATOM     32  C   LIG d   1       3.483  -1.481 -10.362  0.00  0.00     0.169 C 
ATOM     33  H   LIG d   1       3.306  -1.477 -11.439  0.00  0.00     0.108 H 
ATOM     34  H   LIG d   1       2.732  -2.103  -9.874  0.00  0.00     0.108 H 
BRANCH  32  35
ATOM     35  C   LIG d   1       3.391  -0.074  -9.832  0.00  0.00     0.017 A 
ATOM     36  C   LIG d   1       3.821   0.987 -10.608  0.00  0.00    -0.053 A 
ATOM     37  C   LIG d   1       3.733   2.278 -10.124  0.00  0.00    -0.061 A 
ATOM     38  H   LIG d   1       4.221   0.806 -11.595  0.00  0.00     0.062 H 
ATOM     39  C   LIG d   1       3.225   2.509  -8.858  0.00  0.00    -0.062 A 
ATOM     40  H   LIG d   1       4.064   3.107 -10.731  0.00  0.00     0.062 H 
ATOM     41  C   LIG d   1       2.800   1.448  -8.080  0.00  0.00    -0.061 A 
ATOM     42  H   LIG d   1       3.159   3.517  -8.478  0.00  0.00     0.062 H 
ATOM     43  C   LIG d   1       2.885   0.157  -8.567  0.00  0.00    -0.053 A 
ATOM     44  H   LIG d   1       2.404   1.627  -7.092  0.00  0.00     0.062 H 
ATOM     45  H   LIG d   1       2.553  -0.673  -7.959  0.00  0.00     0.062 H 
ENDBRANCH  32  35
ENDBRANCH   5  32
TORSDOF 6
ENDMDL
MODEL 6
REMARK VINA RESULT:      -6.5      3.101      4.711
REMARK  6 active torsions:
REMARK  status: ('A' for Active; 'I' for Inactive)
REMARK    1  A    between atoms: C_1  and  C_2 
REMARK    2  A    between atoms: C_5  and  C_8 
REMARK    3  A    between atoms: C_8  and  C_10 
REMARK    4  A    between atoms: C_10  and  N_11 
REMARK    5  A    between atoms: N_15  and  C_16 
REMARK    6  A    between atoms: C_16  and  C_17 
ROOT
ATOM      1  N   LIG d   1       3.791   0.432  -9.837  0.00  0.00    -0.345 N 
ATOM      2  C   LIG d   1       3.204  -0.770  -9.586  0.00  0.00     0.011 C 
ATOM      3  C   LIG d   1       2.792  -1.088  -8.342  0.00  0.00     0.025 C 
ATOM      4  C   LIG d   1       3.004  -0.104  -7.270  0.00  0.00     0.204 C 
ATOM      5  N   LIG d   1       2.407  -0.225  -6.097  0.00  0.00    -0.237 N 
ATOM      6  C   LIG d   1       3.907   1.019  -7.559  0.00  0.00     0.025 C 
ATOM      7  C   LIG d   1       4.267   1.230  -8.843  0.00  0.00     0.011 C 
ATOM      8  H   LIG d   1       3.065  -1.475 -10.392  0.00  0.00     0.081 H 
ATOM      9  H   LIG d   1       2.322  -2.039  -8.139  0.00  0.00     0.070 H 
ATOM     10  H   LIG d   1       4.275   1.654  -6.767  0.00  0.00     0.070 H 
ATOM     11  H   LIG d   1       4.936   2.043  -9.084  0.00  0.00     0.081 H 
ATOM     12  H   LIG d   1       1.884  -1.018  -5.897  0.00  0.00     0.446 HD
ENDROOT
BRANCH   1  13
ATOM     13  C   LIG d   1       3.921   0.879 -11.226  0.00  0.00     0.086 C 
ATOM     14  H   LIG d   1       4.502   1.801 -11.259  0.00  0.00     0.057 H 
ATOM     15  H   LIG d   1       2.930   1.060 -11.643  0.00  0.00     0.057 H 
BRANCH  13  16
ATOM     16  C   LIG d   1       4.620  -0.184 -12.033  0.00  0.00     0.183 C 
ATOM     17  O   LIG d   1       5.724  -0.565 -11.707  0.00  0.00    -0.290 OA
BRANCH  16  18
ATOM     18  C   LIG d   1       3.962  -0.762 -13.216  0.00  0.00     0.019 A 
ATOM     19  C   LIG d   1       4.435  -0.467 -14.498  0.00  0.00    -0.051 A 
ATOM     20  C   LIG d   1       3.814  -1.013 -15.601  0.00  0.00    -0.058 A 
ATOM     21  H   LIG d   1       5.286   0.188 -14.624  0.00  0.00     0.062 H 
ATOM     22  C   LIG d   1       2.725  -1.852 -15.441  0.00  0.00    -0.050 A 
ATOM     23  H   LIG d   1       4.178  -0.785 -16.592  0.00  0.00     0.062 H 
ATOM     24  C   LIG d   1       2.247  -2.146 -14.176  0.00  0.00    -0.058 A 
ATOM     25  C   LIG d   1       2.862  -1.611 -13.063  0.00  0.00    -0.051 A 
ATOM     26  H   LIG d   1       1.394  -2.797 -14.060  0.00  0.00     0.062 H 
ATOM     27  H   LIG d   1       2.491  -1.846 -12.076  0.00  0.00     0.062 H 
BRANCH  22  28
ATOM     28  C   LIG d   1       2.052  -2.445 -16.652  0.00  0.00    -0.040 C 
ATOM     29  H   LIG d   1       1.222  -3.076 -16.334  0.00  0.00     0.028 H 
ATOM     30  H   LIG d   1       1.675  -1.643 -17.288  0.00  0.00     0.028 H 
ATOM     31  H   LIG d   1       2.771  -3.043 -17.211  0.00  0.00     0.028 H 
ENDBRANCH  22  28
ENDBRANCH  16  18
ENDBRANCH  13  16
ENDBRANCH   1  13
BRANCH   5  32
ATOM     32  C   LIG d   1       2.536   0.838  -5.097  0.00  0.00     0.169 C 
ATOM     33  H   LIG d   1       3.132   1.654  -5.507  0.00  0.00     0.108 H 
ATOM     34  H   LIG d   1       1.546   1.209  -4.833  0.00  0.00     0.108 H 
BRANCH  32  35
ATOM     35  C   LIG d   1       3.212   0.291  -3.866  0.00  0.00     0.017 A 
ATOM     36  C   LIG d   1       3.202  -1.069  -3.618  0.00  0.00    -0.053 A 
ATOM     37  C   LIG d   1       3.825  -1.570  -2.491  0.00  0.00    -0.061 A 
ATOM     38  H   LIG d   1       2.712  -1.740  -4.307  0.00  0.00     0.062 H 
ATOM     39  C   LIG d   1       4.450  -0.710  -1.606  0.00  0.00    -0.062 A 
ATOM     40  H   LIG d   1       3.822  -2.632  -2.299  0.00  0.00     0.062 H 
ATOM     41  C   LIG d   1       4.455   0.650  -1.850  0.00  0.00    -0.061 A 
ATOM     42  H   LIG d   1       4.935  -1.102  -0.723  0.00  0.00     0.062 H 
ATOM     43  C   LIG d   1       3.835   1.151  -2.980  0.00  0.00    -0.053 A 
ATOM     44  H   LIG d   1       4.942   1.322  -1.159  0.00  0.00     0.062 H 
ATOM     45  H   LIG d   1       3.838   2.214  -3.172  0.00  0.00     0.062 H 
ENDBRANCH  32  35
ENDBRANCH   5  32
TORSDOF 6
ENDMDL
MODEL 7
REMARK VINA RESULT:      -6.5      2.731      7.002
REMARK  6 active torsions:
REMARK  status: ('A' for Active; 'I' for Inactive)
REMARK    1  A    between atoms: C_1  and  C_2 
REMARK    2  A    between atoms: C_5  and  C_8 
REMARK    3  A    between atoms: C_8  and  C_10 
REMARK    4  A    between atoms: C_10  and  N_11 
REMARK    5  A    between atoms: N_15  and  C_16 
REMARK    6  A    between atoms: C_16  and  C_17 
ROOT
ATOM      1  N   LIG d   1       6.480  -2.568  -6.122  0.00  0.00    -0.345 N 
ATOM      2  C   LIG d   1       7.370  -1.680  -6.643  0.00  0.00     0.011 C 
ATOM      3  C   LIG d   1       6.946  -0.625  -7.368  0.00  0.00     0.025 C 
ATOM      4  C   LIG d   1       5.499  -0.471  -7.584  0.00  0.00     0.204 C 
ATOM      5  N   LIG d   1       4.989   0.655  -8.052  0.00  0.00    -0.237 N 
ATOM      6  C   LIG d   1       4.646  -1.621  -7.256  0.00  0.00     0.025 C 
ATOM      7  C   LIG d   1       5.187  -2.629  -6.539  0.00  0.00     0.011 C 
ATOM      8  H   LIG d   1       8.427  -1.820  -6.473  0.00  0.00     0.081 H 
ATOM      9  H   LIG d   1       7.648   0.085  -7.780  0.00  0.00     0.070 H 
ATOM     10  H   LIG d   1       3.617  -1.661  -7.582  0.00  0.00     0.070 H 
ATOM     11  H   LIG d   1       4.585  -3.491  -6.290  0.00  0.00     0.081 H 
ATOM     12  H   LIG d   1       5.577   1.371  -8.343  0.00  0.00     0.446 HD
ENDROOT
BRANCH   1  13
ATOM     13  C   LIG d   1       6.933  -3.494  -5.081  0.00  0.00     0.086 C 
ATOM     14  H   LIG d   1       7.827  -4.015  -5.422  0.00  0.00     0.057 H 
ATOM     15  H   LIG d   1       6.146  -4.220  -4.874  0.00  0.00     0.057 H 
BRANCH  13  16
ATOM     16  C   LIG d   1       7.248  -2.722  -3.826  0.00  0.00     0.183 C 
ATOM     17  O   LIG d   1       8.255  -2.972  -3.197  0.00  0.00    -0.290 OA
BRANCH  16  18
ATOM     18  C   LIG d   1       6.337  -1.664  -3.364  0.00  0.00     0.019 A 
ATOM     19  C   LIG d   1       6.730  -0.323  -3.417  0.00  0.00    -0.051 A 
ATOM     20  C   LIG d   1       5.870   0.663  -2.983  0.00  0.00    -0.058 A 
ATOM     21  H   LIG d   1       7.707  -0.061  -3.797  0.00  0.00     0.062 H 
ATOM     22  C   LIG d   1       4.619   0.329  -2.497  0.00  0.00    -0.050 A 
ATOM     23  H   LIG d   1       6.174   1.699  -3.023  0.00  0.00     0.062 H 
ATOM     24  C   LIG d   1       4.222  -0.996  -2.436  0.00  0.00    -0.058 A 
ATOM     25  C   LIG d   1       5.069  -1.993  -2.872  0.00  0.00    -0.051 A 
ATOM     26  H   LIG d   1       3.246  -1.249  -2.051  0.00  0.00     0.062 H 
ATOM     27  H   LIG d   1       4.757  -3.026  -2.828  0.00  0.00     0.062 H 
BRANCH  22  28
ATOM     28  C   LIG d   1       3.684   1.412  -2.025  0.00  0.00    -0.040 C 
ATOM     29  H   LIG d   1       2.966   0.992  -1.320  0.00  0.00     0.028 H 
ATOM     30  H   LIG d   1       4.258   2.198  -1.532  0.00  0.00     0.028 H 
ATOM     31  H   LIG d   1       3.152   1.832  -2.879  0.00  0.00     0.028 H 
ENDBRANCH  22  28
ENDBRANCH  16  18
ENDBRANCH  13  16
ENDBRANCH   1  13
BRANCH   5  32
ATOM     32  C   LIG d   1       3.536   0.823  -8.133  0.00  0.00     0.169 C 
ATOM     33  H   LIG d   1       3.064   0.323  -7.287  0.00  0.00     0.108 H 
ATOM     34  H   LIG d   1       3.292   1.885  -8.110  0.00  0.00     0.108 H 
BRANCH  32  35
ATOM     35  C   LIG d   1       3.031   0.220  -9.418  0.00  0.00     0.017 A 
ATOM     36  C   LIG d   1       1.834  -0.471  -9.434  0.00  0.00    -0.053 A 
ATOM     37  C   LIG d   1       1.368  -1.021 -10.613  0.00  0.00    -0.061 A 
ATOM     38  H   LIG d   1       1.260  -0.578  -8.526  0.00  0.00     0.062 H 
ATOM     39  C   LIG d   1       2.105  -0.888 -11.776  0.00  0.00    -0.062 A 
ATOM     40  H   LIG d   1       0.432  -1.557 -10.627  0.00  0.00     0.062 H 
ATOM     41  C   LIG d   1       3.305  -0.202 -11.760  0.00  0.00    -0.061 A 
ATOM     42  H   LIG d   1       1.743  -1.320 -12.698  0.00  0.00     0.062 H 
ATOM     43  C   LIG d   1       3.768   0.351 -10.580  0.00  0.00    -0.053 A 
ATOM     44  H   LIG d   1       3.881  -0.098 -12.668  0.00  0.00     0.062 H 
ATOM     45  H   LIG d   1       4.705   0.888 -10.567  0.00  0.00     0.062 H 
ENDBRANCH  32  35
ENDBRANCH   5  32
TORSDOF 6
ENDMDL
MODEL 8
REMARK VINA RESULT:      -6.4      6.416      9.364
REMARK  6 active torsions:
REMARK  status: ('A' for Active; 'I' for Inactive)
REMARK    1  A    between atoms: C_1  and  C_2 
REMARK    2  A    between atoms: C_5  and  C_8 
REMARK    3  A    between atoms: C_8  and  C_10 
REMARK    4  A    between atoms: C_10  and  N_11 
REMARK    5  A    between atoms: N_15  and  C_16 
REMARK    6  A    between atoms: C_16  and  C_17 
ROOT
ATOM      1  N   LIG d   1      10.208   3.324  -5.338  0.00  0.00    -0.345 N 
ATOM      2  C   LIG d   1       9.388   3.207  -6.418  0.00  0.00     0.011 C 
ATOM      3  C   LIG d   1       8.555   2.153  -6.539  0.00  0.00     0.025 C 
ATOM      4  C   LIG d   1       8.564   1.138  -5.476  0.00  0.00     0.204 C 
ATOM      5  N   LIG d   1       7.612   0.226  -5.385  0.00  0.00    -0.237 N 
ATOM      6  C   LIG d   1       9.678   1.181  -4.517  0.00  0.00     0.025 C 
ATOM      7  C   LIG d   1      10.459   2.281  -4.501  0.00  0.00     0.011 C 
ATOM      8  H   LIG d   1       9.406   3.965  -7.187  0.00  0.00     0.081 H 
ATOM      9  H   LIG d   1       7.900   2.058  -7.393  0.00  0.00     0.070 H 
ATOM     10  H   LIG d   1       9.868   0.354  -3.849  0.00  0.00     0.070 H 
ATOM     11  H   LIG d   1      11.290   2.337  -3.812  0.00  0.00     0.081 H 
ATOM     12  H   LIG d   1       6.934   0.162  -6.077  0.00  0.00     0.446 HD
ENDROOT
BRANCH   1  13
ATOM     13  C   LIG d   1      10.844   4.616  -5.071  0.00  0.00     0.086 C 
ATOM     14  H   LIG d   1      11.054   5.120  -6.014  0.00  0.00     0.057 H 
ATOM     15  H   LIG d   1      11.778   4.456  -4.530  0.00  0.00     0.057 H 
BRANCH  13  16
ATOM     16  C   LIG d   1       9.921   5.468  -4.240  0.00  0.00     0.183 C 
ATOM     17  O   LIG d   1       8.926   5.950  -4.740  0.00  0.00    -0.290 OA
BRANCH  16  18
ATOM     18  C   LIG d   1      10.225   5.716  -2.822  0.00  0.00     0.019 A 
ATOM     19  C   LIG d   1      11.082   4.858  -2.126  0.00  0.00    -0.051 A 
ATOM     20  C   LIG d   1      11.363   5.097  -0.797  0.00  0.00    -0.058 A 
ATOM     21  H   LIG d   1      11.523   4.009  -2.628  0.00  0.00     0.062 H 
ATOM     22  C   LIG d   1      10.799   6.185  -0.153  0.00  0.00    -0.050 A 
ATOM     23  H   LIG d   1      12.023   4.434  -0.258  0.00  0.00     0.062 H 
ATOM     24  C   LIG d   1       9.947   7.037  -0.833  0.00  0.00    -0.058 A 
ATOM     25  C   LIG d   1       9.661   6.813  -2.163  0.00  0.00    -0.051 A 
ATOM     26  H   LIG d   1       9.507   7.880  -0.321  0.00  0.00     0.062 H 
ATOM     27  H   LIG d   1       8.999   7.482  -2.694  0.00  0.00     0.062 H 
BRANCH  22  28
ATOM     28  C   LIG d   1      11.111   6.439   1.299  0.00  0.00    -0.040 C 
ATOM     29  H   LIG d   1      12.192   6.494   1.435  0.00  0.00     0.028 H 
ATOM     30  H   LIG d   1      10.659   7.382   1.608  0.00  0.00     0.028 H 
ATOM     31  H   LIG d   1      10.710   5.628   1.906  0.00  0.00     0.028 H 
ENDBRANCH  22  28
ENDBRANCH  16  18
ENDBRANCH  13  16
ENDBRANCH   1  13
BRANCH   5  32
ATOM     32  C   LIG d   1       7.580  -0.689  -4.242  0.00  0.00     0.169 C 
ATOM     33  H   LIG d   1       7.549  -1.719  -4.600  0.00  0.00     0.108 H 
ATOM     34  H   LIG d   1       8.473  -0.543  -3.635  0.00  0.00     0.108 H 
BRANCH  32  35
ATOM     35  C   LIG d   1       6.356  -0.411  -3.409  0.00  0.00     0.017 A 
ATOM     36  C   LIG d   1       5.573  -1.458  -2.957  0.00  0.00    -0.053 A 
ATOM     37  C   LIG d   1       4.453  -1.202  -2.190  0.00  0.00    -0.061 A 
ATOM     38  H   LIG d   1       5.841  -2.475  -3.201  0.00  0.00     0.062 H 
ATOM     39  C   LIG d   1       4.108   0.101  -1.882  0.00  0.00    -0.062 A 
ATOM     40  H   LIG d   1       3.844  -2.020  -1.834  0.00  0.00     0.062 H 
ATOM     41  C   LIG d   1       4.886   1.148  -2.338  0.00  0.00    -0.061 A 
ATOM     42  H   LIG d   1       3.230   0.301  -1.285  0.00  0.00     0.062 H 
ATOM     43  C   LIG d   1       6.010   0.892  -3.102  0.00  0.00    -0.053 A 
ATOM     44  H   LIG d   1       4.617   2.166  -2.098  0.00  0.00     0.062 H 
ATOM     45  H   LIG d   1       6.619   1.711  -3.458  0.00  0.00     0.062 H 
ENDBRANCH  32  35
ENDBRANCH   5  32
TORSDOF 6
ENDMDL
MODEL 9
REMARK VINA RESULT:      -6.4      2.470      3.556
REMARK  6 active torsions:
REMARK  status: ('A' for Active; 'I' for Inactive)
REMARK    1  A    between atoms: C_1  and  C_2 
REMARK    2  A    between atoms: C_5  and  C_8 
REMARK    3  A    between atoms: C_8  and  C_10 
REMARK    4  A    between atoms: C_10  and  N_11 
REMARK    5  A    between atoms: N_15  and  C_16 
REMARK    6  A    between atoms: C_16  and  C_17 
ROOT
ATOM      1  N   LIG d   1       6.786  -2.264  -6.298  0.00  0.00    -0.345 N 
ATOM      2  C   LIG d   1       5.908  -3.270  -6.563  0.00  0.00     0.011 C 
ATOM      3  C   LIG d   1       5.025  -3.677  -5.628  0.00  0.00     0.025 C 
ATOM      4  C   LIG d   1       5.047  -3.008  -4.318  0.00  0.00     0.204 C 
ATOM      5  N   LIG d   1       4.063  -3.162  -3.450  0.00  0.00    -0.237 N 
ATOM      6  C   LIG d   1       6.209  -2.161  -4.017  0.00  0.00     0.025 C 
ATOM      7  C   LIG d   1       7.036  -1.833  -5.032  0.00  0.00     0.011 C 
ATOM      8  H   LIG d   1       5.917  -3.747  -7.531  0.00  0.00     0.081 H 
ATOM      9  H   LIG d   1       4.324  -4.472  -5.834  0.00  0.00     0.070 H 
ATOM     10  H   LIG d   1       6.399  -1.814  -3.012  0.00  0.00     0.070 H 
ATOM     11  H   LIG d   1       7.903  -1.218  -4.839  0.00  0.00     0.081 H 
ATOM     12  H   LIG d   1       3.348  -3.793  -3.633  0.00  0.00     0.446 HD
ENDROOT
BRANCH   1  13
ATOM     13  C   LIG d   1       7.490  -1.629  -7.415  0.00  0.00     0.086 C 
ATOM     14  H   LIG d   1       7.502  -2.306  -8.269  0.00  0.00     0.057 H 
ATOM     15  H   LIG d   1       8.514  -1.402  -7.117  0.00  0.00     0.057 H 
BRANCH  13  16
ATOM     16  C   LIG d   1       6.782  -0.355  -7.795  0.00  0.00     0.183 C 
ATOM     17  O   LIG d   1       7.347   0.712  -7.678  0.00  0.00    -0.290 OA
BRANCH  16  18
ATOM     18  C   LIG d   1       5.403  -0.404  -8.309  0.00  0.00     0.019 A 
ATOM     19  C   LIG d   1       5.159  -0.790  -9.630  0.00  0.00    -0.051 A 
ATOM     20  C   LIG d   1       3.865  -0.835 -10.105  0.00  0.00    -0.058 A 
ATOM     21  H   LIG d   1       5.983  -1.053 -10.278  0.00  0.00     0.062 H 
ATOM     22  C   LIG d   1       2.809  -0.499  -9.275  0.00  0.00    -0.050 A 
ATOM     23  H   LIG d   1       3.675  -1.132 -11.125  0.00  0.00     0.062 H 
ATOM     24  C   LIG d   1       3.042  -0.111  -7.967  0.00  0.00    -0.058 A 
ATOM     25  C   LIG d   1       4.330  -0.067  -7.478  0.00  0.00    -0.051 A 
ATOM     26  H   LIG d   1       2.213   0.155  -7.329  0.00  0.00     0.062 H 
ATOM     27  H   LIG d   1       4.510   0.232  -6.455  0.00  0.00     0.062 H 
BRANCH  22  28
ATOM     28  C   LIG d   1       1.398  -0.550  -9.801  0.00  0.00    -0.040 C 
ATOM     29  H   LIG d   1       1.046   0.463  -9.997  0.00  0.00     0.028 H 
ATOM     30  H   LIG d   1       1.376  -1.127 -10.726  0.00  0.00     0.028 H 
ATOM     31  H   LIG d   1       0.751  -1.023  -9.062  0.00  0.00     0.028 H 
ENDBRANCH  22  28
ENDBRANCH  16  18
ENDBRANCH  13  16
ENDBRANCH   1  13
BRANCH   5  32
ATOM     32  C   LIG d   1       4.051  -2.383  -2.210  0.00  0.00     0.169 C 
ATOM     33  H   LIG d   1       3.245  -2.736  -1.565  0.00  0.00     0.108 H 
ATOM     34  H   LIG d   1       5.005  -2.503  -1.697  0.00  0.00     0.108 H 
BRANCH  32  35
ATOM     35  C   LIG d   1       3.834  -0.927  -2.532  0.00  0.00     0.017 A 
ATOM     36  C   LIG d   1       3.030  -0.567  -3.598  0.00  0.00    -0.053 A 
ATOM     37  C   LIG d   1       2.829   0.768  -3.892  0.00  0.00    -0.061 A 
ATOM     38  H   LIG d   1       2.557  -1.330  -4.198  0.00  0.00     0.062 H 
ATOM     39  C   LIG d   1       3.439   1.744  -3.125  0.00  0.00    -0.062 A 
ATOM     40  H   LIG d   1       2.197   1.049  -4.721  0.00  0.00     0.062 H 
ATOM     41  C   LIG d   1       4.247   1.385  -2.063  0.00  0.00    -0.061 A 
ATOM     42  H   LIG d   1       3.284   2.788  -3.356  0.00  0.00     0.062 H 
ATOM     43  C   LIG d   1       4.445   0.049  -1.768  0.00  0.00    -0.053 A 
ATOM     44  H   LIG d   1       4.724   2.147  -1.465  0.00  0.00     0.062 H 
ATOM     45  H   LIG d   1       5.077  -0.233  -0.937  0.00  0.00     0.062 H 
ENDBRANCH  32  35
ENDBRANCH   5  32
TORSDOF 6
ENDMDL
MODEL 10
REMARK VINA RESULT:      -6.3      7.826     10.504
REMARK  6 active torsions:
REMARK  status: ('A' for Active; 'I' for Inactive)
REMARK    1  A    between atoms: C_1  and  C_2 
REMARK    2  A    between atoms: C_5  and  C_8 
REMARK    3  A    between atoms: C_8  and  C_10 
REMARK    4  A    between atoms: C_10  and  N_11 
REMARK    5  A    between atoms: N_15  and  C_16 
REMARK    6  A    between atoms: C_16  and  C_17 
ROOT
ATOM      1  N   LIG d   1      10.593   4.513  -3.310  0.00  0.00    -0.345 N 
ATOM      2  C   LIG d   1       9.667   4.946  -4.208  0.00  0.00     0.011 C 
ATOM      3  C   LIG d   1       8.710   4.113  -4.666  0.00  0.00     0.025 C 
ATOM      4  C   LIG d   1       8.704   2.728  -4.173  0.00  0.00     0.204 C 
ATOM      5  N   LIG d   1       7.667   1.933  -4.365  0.00  0.00    -0.237 N 
ATOM      6  C   LIG d   1       9.902   2.266  -3.456  0.00  0.00     0.025 C 
ATOM      7  C   LIG d   1      10.802   3.192  -3.062  0.00  0.00     0.011 C 
ATOM      8  H   LIG d   1       9.698   5.967  -4.557  0.00  0.00     0.081 H 
ATOM      9  H   LIG d   1       7.971   4.454  -5.376  0.00  0.00     0.070 H 
ATOM     10  H   LIG d   1      10.059   1.217  -3.255  0.00  0.00     0.070 H 
ATOM     11  H   LIG d   1      11.695   2.880  -2.540  0.00  0.00     0.081 H 
ATOM     12  H   LIG d   1       6.923   2.229  -4.915  0.00  0.00     0.446 HD
ENDROOT
BRANCH   1  13
ATOM     13  C   LIG d   1      11.397   5.504  -2.590  0.00  0.00     0.086 C 
ATOM     14  H   LIG d   1      11.833   6.205  -3.302  0.00  0.00     0.057 H 
ATOM     15  H   LIG d   1      12.193   4.998  -2.044  0.00  0.00     0.057 H 
BRANCH  13  16
ATOM     16  C   LIG d   1      10.519   6.253  -1.621  0.00  0.00     0.183 C 
ATOM     17  O   LIG d   1      10.075   5.689  -0.644  0.00  0.00    -0.290 OA
BRANCH  16  18
ATOM     18  C   LIG d   1      10.202   7.670  -1.860  0.00  0.00     0.019 A 
ATOM     19  C   LIG d   1      10.669   8.311  -3.012  0.00  0.00    -0.051 A 
ATOM     20  C   LIG d   1      10.366   9.639  -3.230  0.00  0.00    -0.058 A 
ATOM     21  H   LIG d   1      11.265   7.767  -3.730  0.00  0.00     0.062 H 
ATOM     22  C   LIG d   1       9.601  10.336  -2.311  0.00  0.00    -0.050 A 
ATOM     23  H   LIG d   1      10.727  10.135  -4.118  0.00  0.00     0.062 H 
ATOM     24  C   LIG d   1       9.139   9.712  -1.166  0.00  0.00    -0.058 A 
ATOM     25  C   LIG d   1       9.429   8.383  -0.938  0.00  0.00    -0.051 A 
ATOM     26  H   LIG d   1       8.547  10.264  -0.452  0.00  0.00     0.062 H 
ATOM     27  H   LIG d   1       9.063   7.895  -0.046  0.00  0.00     0.062 H 
BRANCH  22  28
ATOM     28  C   LIG d   1       9.275  11.787  -2.556  0.00  0.00    -0.040 C 
ATOM     29  H   LIG d   1       8.193  11.919  -2.568  0.00  0.00     0.028 H 
ATOM     30  H   LIG d   1       9.706  12.396  -1.760  0.00  0.00     0.028 H 
ATOM     31  H   LIG d   1       9.690  12.096  -3.515  0.00  0.00     0.028 H 
ENDBRANCH  22  28
ENDBRANCH  16  18
ENDBRANCH  13  16
ENDBRANCH   1  13
BRANCH   5  32
ATOM     32  C   LIG d   1       7.638   0.603  -3.751  0.00  0.00     0.169 C 
ATOM     33  H   LIG d   1       7.875  -0.151  -4.503  0.00  0.00     0.108 H 
ATOM     34  H   LIG d   1       8.375   0.559  -2.949  0.00  0.00     0.108 H 
BRANCH  32  35
ATOM     35  C   LIG d   1       6.266   0.338  -3.188  0.00  0.00     0.017 A 
ATOM     36  C   LIG d   1       5.810  -0.961  -3.062  0.00  0.00    -0.053 A 
ATOM     37  C   LIG d   1       4.553  -1.204  -2.542  0.00  0.00    -0.061 A 
ATOM     38  H   LIG d   1       6.437  -1.785  -3.366  0.00  0.00     0.062 H 
ATOM     39  C   LIG d   1       3.748  -0.148  -2.156  0.00  0.00    -0.062 A 
ATOM     40  H   LIG d   1       4.198  -2.218  -2.439  0.00  0.00     0.062 H 
ATOM     41  C   LIG d   1       4.201   1.151  -2.287  0.00  0.00    -0.061 A 
ATOM     42  H   LIG d   1       2.764  -0.338  -1.752  0.00  0.00     0.062 H 
ATOM     43  C   LIG d   1       5.461   1.394  -2.804  0.00  0.00    -0.053 A 
ATOM     44  H   LIG d   1       3.573   1.976  -1.987  0.00  0.00     0.062 H 
ATOM     45  H   LIG d   1       5.816   2.409  -2.906  0.00  0.00     0.062 H 
ENDBRANCH  32  35
ENDBRANCH   5  32
TORSDOF 6
ENDMDL
