MODEL 1
REMARK VINA RESULT:      -6.5      0.000      0.000
REMARK  8 active torsions:
REMARK  status: ('A' for Active; 'I' for Inactive)
REMARK    1  A    between atoms: C_1  and  C_2 
REMARK    2  A    between atoms: C_2  and  C_3 
REMARK    3  A    between atoms: C_5  and  C_12 
REMARK    4  A    between atoms: C_6  and  O_11 
REMARK    5  A    between atoms: C_8  and  O_9 
REMARK    6  A    between atoms: O_9  and  C_10 
REMARK    7  A    between atoms: C_12  and  C_14 
REMARK    8  A    between atoms: C_14  and  C_15 
ROOT
ATOM      1  C   LIG d   1      10.254   2.311  -4.535  0.00  0.00     0.171 C 
ATOM      2  O   LIG d   1      11.188   1.617  -4.193  0.00  0.00    -0.292 OA
ENDROOT
BRANCH   1   3
ATOM      3  C   LIG d   1      10.128   3.676  -4.019  0.00  0.00     0.060 A 
ATOM      4  C   LIG d   1       9.719   4.715  -4.866  0.00  0.00    -0.041 A 
ATOM      5  C   LIG d   1       9.596   5.985  -4.381  0.00  0.00    -0.005 A 
ATOM      6  H   LIG d   1       9.497   4.510  -5.903  0.00  0.00     0.063 H 
ATOM      7  C   LIG d   1       9.885   6.260  -3.047  0.00  0.00     0.127 A 
ATOM      8  C   LIG d   1      10.297   5.245  -2.195  0.00  0.00     0.022 A 
ATOM      9  C   LIG d   1      10.421   3.952  -2.671  0.00  0.00     0.131 A 
ATOM     10  H   LIG d   1      10.520   5.465  -1.162  0.00  0.00     0.069 H 
BRANCH   5  11
ATOM     11  C   LIG d   1       9.150   7.096  -5.296  0.00  0.00    -0.027 C 
ATOM     12  H   LIG d   1       8.071   7.036  -5.442  0.00  0.00     0.031 H 
ATOM     13  H   LIG d   1       9.403   8.058  -4.851  0.00  0.00     0.031 H 
BRANCH  11  14
ATOM     14  C   LIG d   1       9.855   6.957  -6.647  0.00  0.00    -0.061 C 
ATOM     15  H   LIG d   1       9.967   5.901  -6.892  0.00  0.00     0.023 H 
ATOM     16  H   LIG d   1       9.262   7.449  -7.419  0.00  0.00     0.023 H 
ATOM     17  H   LIG d   1      10.839   7.424  -6.593  0.00  0.00     0.023 H 
ENDBRANCH  11  14
ENDBRANCH   5  11
BRANCH   7  18
ATOM     18  O   LIG d   1       9.765   7.528  -2.580  0.00  0.00    -0.495 OA
BRANCH  18  19
ATOM     19  C   LIG d   1       9.447   7.680  -1.194  0.00  0.00     0.079 C 
ATOM     20  H   LIG d   1       8.378   7.870  -1.086  0.00  0.00     0.066 H 
ATOM     21  H   LIG d   1       9.710   6.768  -0.659  0.00  0.00     0.066 H 
ATOM     22  H   LIG d   1      10.008   8.518  -0.783  0.00  0.00     0.066 H 
ENDBRANCH  18  19
ENDBRANCH   7  18
BRANCH   9  23
ATOM     23  O   LIG d   1      10.821   2.956  -1.843  0.00  0.00    -0.506 OA
ATOM     24  H   LIG d   1      10.851   3.209  -0.909  0.00  0.00     0.292 HD
ENDBRANCH   9  23
ENDBRANCH   1   3
BRANCH   1  25
ATOM     25  C   LIG d   1       9.224   1.770  -5.493  0.00  0.00     0.036 C 
ATOM     26  H   LIG d   1       9.674   1.195  -6.177  0.00  0.00     0.039 H 
ATOM     27  H   LIG d   1       8.719   2.598  -5.990  0.00  0.00     0.039 H 
BRANCH  25  28
ATOM     28  C   LIG d   1       8.214   0.948  -4.734  0.00  0.00    -0.036 A 
ATOM     29  C   LIG d   1       7.312   1.572  -3.891  0.00  0.00    -0.013 A 
ATOM     30  C   LIG d   1       6.386   0.814  -3.194  0.00  0.00     0.162 A 
ATOM     31  H   LIG d   1       7.329   2.646  -3.778  0.00  0.00     0.066 H 
ATOM     32  C   LIG d   1       6.365  -0.565  -3.342  0.00  0.00     0.162 A 
ATOM     33  O   LIG d   1       5.490   1.417  -2.360  0.00  0.00    -0.488 OA
ATOM     34  C   LIG d   1       7.268  -1.187  -4.187  0.00  0.00    -0.016 A 
ATOM     35  O   LIG d   1       5.450  -1.304  -2.649  0.00  0.00    -0.488 OA
ATOM     36  C   LIG d   1       8.192  -0.426  -4.882  0.00  0.00    -0.054 A 
ATOM     37  H   LIG d   1       7.256  -2.261  -4.300  0.00  0.00     0.066 H 
ATOM     38  H   LIG d   1       8.898  -0.907  -5.542  0.00  0.00     0.062 H 
ATOM     39  C   LIG d   1       4.086  -1.136  -3.042  0.00  0.00     0.093 C 
ATOM     40  C   LIG d   1       3.470   0.070  -2.351  0.00  0.00     0.016 C 
ATOM     41  H   LIG d   1       4.039  -0.994  -4.123  0.00  0.00     0.070 H 
ATOM     42  H   LIG d   1       3.523  -2.030  -2.773  0.00  0.00     0.070 H 
ATOM     43  C   LIG d   1       4.124   1.376  -2.775  0.00  0.00     0.093 C 
ATOM     44  H   LIG d   1       2.408   0.112  -2.595  0.00  0.00     0.033 H 
ATOM     45  H   LIG d   1       3.580  -0.046  -1.274  0.00  0.00     0.033 H 
ATOM     46  H   LIG d   1       4.077   1.466  -3.860  0.00  0.00     0.070 H 
ATOM     47  H   LIG d   1       3.587   2.210  -2.323  0.00  0.00     0.070 H 
ENDBRANCH  25  28
ENDBRANCH   1  25
TORSDOF 8
ENDMDL
MODEL 2
REMARK VINA RESULT:      -6.2      1.541      7.380
REMARK  8 active torsions:
REMARK  status: ('A' for Active; 'I' for Inactive)
REMARK    1  A    between atoms: C_1  and  C_2 
REMARK    2  A    between atoms: C_2  and  C_3 
REMARK    3  A    between atoms: C_5  and  C_12 
REMARK    4  A    between atoms: C_6  and  O_11 
REMARK    5  A    between atoms: C_8  and  O_9 
REMARK    6  A    between atoms: O_9  and  C_10 
REMARK    7  A    between atoms: C_12  and  C_14 
REMARK    8  A    between atoms: C_14  and  C_15 
ROOT
ATOM      1  C   LIG d   1       8.322   1.555  -5.071  0.00  0.00     0.171 C 
ATOM      2  O   LIG d   1       7.969   1.975  -6.153  0.00  0.00    -0.292 OA
ENDROOT
BRANCH   1   3
ATOM      3  C   LIG d   1       7.427   0.697  -4.290  0.00  0.00     0.060 A 
ATOM      4  C   LIG d   1       6.503   1.265  -3.403  0.00  0.00    -0.041 A 
ATOM      5  C   LIG d   1       5.666   0.463  -2.682  0.00  0.00    -0.005 A 
ATOM      6  H   LIG d   1       6.450   2.338  -3.293  0.00  0.00     0.063 H 
ATOM      7  C   LIG d   1       5.731  -0.921  -2.813  0.00  0.00     0.127 A 
ATOM      8  C   LIG d   1       6.644  -1.501  -3.682  0.00  0.00     0.022 A 
ATOM      9  C   LIG d   1       7.495  -0.702  -4.425  0.00  0.00     0.131 A 
ATOM     10  H   LIG d   1       6.690  -2.576  -3.779  0.00  0.00     0.069 H 
BRANCH   5  11
ATOM     11  C   LIG d   1       4.670   1.081  -1.735  0.00  0.00    -0.027 C 
ATOM     12  H   LIG d   1       4.425   0.367  -0.948  0.00  0.00     0.031 H 
ATOM     13  H   LIG d   1       5.100   1.979  -1.290  0.00  0.00     0.031 H 
BRANCH  11  14
ATOM     14  C   LIG d   1       3.399   1.451  -2.502  0.00  0.00    -0.061 C 
ATOM     15  H   LIG d   1       3.564   1.309  -3.570  0.00  0.00     0.023 H 
ATOM     16  H   LIG d   1       2.578   0.814  -2.173  0.00  0.00     0.023 H 
ATOM     17  H   LIG d   1       3.148   2.495  -2.309  0.00  0.00     0.023 H 
ENDBRANCH  11  14
ENDBRANCH   5  11
BRANCH   7  18
ATOM     18  O   LIG d   1       4.898  -1.706  -2.085  0.00  0.00    -0.495 OA
BRANCH  18  19
ATOM     19  C   LIG d   1       3.845  -2.365  -2.793  0.00  0.00     0.079 C 
ATOM     20  H   LIG d   1       3.136  -2.787  -2.080  0.00  0.00     0.066 H 
ATOM     21  H   LIG d   1       3.333  -1.648  -3.434  0.00  0.00     0.066 H 
ATOM     22  H   LIG d   1       4.263  -3.165  -3.404  0.00  0.00     0.066 H 
ENDBRANCH  18  19
ENDBRANCH   7  18
BRANCH   9  23
ATOM     23  O   LIG d   1       8.388  -1.263  -5.276  0.00  0.00    -0.506 OA
ATOM     24  H   LIG d   1       8.181  -1.124  -6.211  0.00  0.00     0.292 HD
ENDBRANCH   9  23
ENDBRANCH   1   3
BRANCH   1  25
ATOM     25  C   LIG d   1       9.682   1.915  -4.531  0.00  0.00     0.036 C 
ATOM     26  H   LIG d   1      10.372   1.766  -5.239  0.00  0.00     0.039 H 
ATOM     27  H   LIG d   1       9.907   1.290  -3.667  0.00  0.00     0.039 H 
BRANCH  25  28
ATOM     28  C   LIG d   1       9.691   3.365  -4.118  0.00  0.00    -0.036 A 
ATOM     29  C   LIG d   1      10.056   3.713  -2.830  0.00  0.00    -0.013 A 
ATOM     30  C   LIG d   1      10.062   5.045  -2.454  0.00  0.00     0.162 A 
ATOM     31  H   LIG d   1      10.336   2.947  -2.121  0.00  0.00     0.066 H 
ATOM     32  C   LIG d   1       9.703   6.026  -3.368  0.00  0.00     0.162 A 
ATOM     33  O   LIG d   1      10.421   5.402  -1.188  0.00  0.00    -0.488 OA
ATOM     34  C   LIG d   1       9.339   5.675  -4.656  0.00  0.00    -0.016 A 
ATOM     35  O   LIG d   1       9.711   7.337  -2.987  0.00  0.00    -0.488 OA
ATOM     36  C   LIG d   1       9.334   4.343  -5.028  0.00  0.00    -0.054 A 
ATOM     37  H   LIG d   1       9.055   6.437  -5.367  0.00  0.00     0.066 H 
ATOM     38  H   LIG d   1       9.051   4.065  -6.032  0.00  0.00     0.062 H 
ATOM     39  C   LIG d   1      10.996   7.904  -2.726  0.00  0.00     0.093 C 
ATOM     40  C   LIG d   1      11.439   7.604  -1.302  0.00  0.00     0.016 C 
ATOM     41  H   LIG d   1      11.722   7.484  -3.423  0.00  0.00     0.070 H 
ATOM     42  H   LIG d   1      10.947   8.983  -2.865  0.00  0.00     0.070 H 
ATOM     43  C   LIG d   1      11.652   6.117  -1.063  0.00  0.00     0.093 C 
ATOM     44  H   LIG d   1      12.372   8.130  -1.105  0.00  0.00     0.033 H 
ATOM     45  H   LIG d   1      10.678   7.966  -0.612  0.00  0.00     0.033 H 
ATOM     46  H   LIG d   1      12.363   5.734  -1.796  0.00  0.00     0.070 H 
ATOM     47  H   LIG d   1      12.054   5.968  -0.062  0.00  0.00     0.070 H 
ENDBRANCH  25  28
ENDBRANCH   1  25
TORSDOF 8
ENDMDL
MODEL 3
REMARK VINA RESULT:      -6.1      3.900      6.469
REMARK  8 active torsions:
REMARK  status: ('A' for Active; 'I' for Inactive)
REMARK    1  A    between atoms: C_1  and  C_2 
REMARK    2  A    between atoms: C_2  and  C_3 
REMARK    3  A    between atoms: C_5  and  C_12 
REMARK    4  A    between atoms: C_6  and  O_11 
REMARK    5  A    between atoms: C_8  and  O_9 
REMARK    6  A    between atoms: O_9  and  C_10 
REMARK    7  A    between atoms: C_12  and  C_14 
REMARK    8  A    between atoms: C_14  and  C_15 
ROOT
ATOM      1  C   LIG d   1       8.556  -1.079  -5.548  0.00  0.00     0.171 C 
ATOM      2  O   LIG d   1       9.750  -0.993  -5.351  0.00  0.00    -0.292 OA
ENDROOT
BRANCH   1   3
ATOM      3  C   LIG d   1       7.611  -0.495  -4.593  0.00  0.00     0.060 A 
ATOM      4  C   LIG d   1       6.695  -1.313  -3.917  0.00  0.00    -0.041 A 
ATOM      5  C   LIG d   1       5.821  -0.767  -3.024  0.00  0.00    -0.005 A 
ATOM      6  H   LIG d   1       6.685  -2.377  -4.101  0.00  0.00     0.063 H 
ATOM      7  C   LIG d   1       5.822   0.605  -2.784  0.00  0.00     0.127 A 
ATOM      8  C   LIG d   1       6.718   1.431  -3.449  0.00  0.00     0.022 A 
ATOM      9  C   LIG d   1       7.615   0.892  -4.354  0.00  0.00     0.131 A 
ATOM     10  H   LIG d   1       6.714   2.494  -3.259  0.00  0.00     0.069 H 
BRANCH   5  11
ATOM     11  C   LIG d   1       4.843  -1.653  -2.296  0.00  0.00    -0.027 C 
ATOM     12  H   LIG d   1       5.374  -2.244  -1.549  0.00  0.00     0.031 H 
ATOM     13  H   LIG d   1       4.090  -1.038  -1.804  0.00  0.00     0.031 H 
BRANCH  11  14
ATOM     14  C   LIG d   1       4.163  -2.590  -3.296  0.00  0.00    -0.061 C 
ATOM     15  H   LIG d   1       4.872  -3.352  -3.621  0.00  0.00     0.023 H 
ATOM     16  H   LIG d   1       3.307  -3.069  -2.821  0.00  0.00     0.023 H 
ATOM     17  H   LIG d   1       3.825  -2.016  -4.160  0.00  0.00     0.023 H 
ENDBRANCH  11  14
ENDBRANCH   5  11
BRANCH   7  18
ATOM     18  O   LIG d   1       4.943   1.135  -1.898  0.00  0.00    -0.495 OA
BRANCH  18  19
ATOM     19  C   LIG d   1       3.668   1.529  -2.408  0.00  0.00     0.079 C 
ATOM     20  H   LIG d   1       3.630   1.336  -3.481  0.00  0.00     0.066 H 
ATOM     21  H   LIG d   1       2.885   0.960  -1.908  0.00  0.00     0.066 H 
ATOM     22  H   LIG d   1       3.516   2.593  -2.226  0.00  0.00     0.066 H 
ENDBRANCH  18  19
ENDBRANCH   7  18
BRANCH   9  23
ATOM     23  O   LIG d   1       8.493   1.693  -5.005  0.00  0.00    -0.506 OA
ATOM     24  H   LIG d   1       8.076   2.411  -5.502  0.00  0.00     0.292 HD
ENDBRANCH   9  23
ENDBRANCH   1   3
BRANCH   1  25
ATOM     25  C   LIG d   1       8.045  -1.787  -6.777  0.00  0.00     0.036 C 
ATOM     26  H   LIG d   1       7.458  -2.549  -6.503  0.00  0.00     0.039 H 
ATOM     27  H   LIG d   1       8.887  -2.167  -7.354  0.00  0.00     0.039 H 
BRANCH  25  28
ATOM     28  C   LIG d   1       7.253  -0.821  -7.620  0.00  0.00    -0.036 A 
ATOM     29  C   LIG d   1       5.884  -0.974  -7.743  0.00  0.00    -0.013 A 
ATOM     30  C   LIG d   1       5.160  -0.086  -8.520  0.00  0.00     0.162 A 
ATOM     31  H   LIG d   1       5.381  -1.784  -7.234  0.00  0.00     0.066 H 
ATOM     32  C   LIG d   1       5.807   0.954  -9.172  0.00  0.00     0.162 A 
ATOM     33  O   LIG d   1       3.809  -0.226  -8.648  0.00  0.00    -0.488 OA
ATOM     34  C   LIG d   1       7.177   1.106  -9.047  0.00  0.00    -0.016 A 
ATOM     35  O   LIG d   1       5.085   1.824  -9.937  0.00  0.00    -0.488 OA
ATOM     36  C   LIG d   1       7.897   0.216  -8.270  0.00  0.00    -0.054 A 
ATOM     37  H   LIG d   1       7.683   1.912  -9.557  0.00  0.00     0.066 H 
ATOM     38  H   LIG d   1       8.966   0.331  -8.170  0.00  0.00     0.062 H 
ATOM     39  C   LIG d   1       4.192   2.686  -9.228  0.00  0.00     0.093 C 
ATOM     40  C   LIG d   1       2.865   1.989  -8.965  0.00  0.00     0.016 C 
ATOM     41  H   LIG d   1       4.645   2.967  -8.276  0.00  0.00     0.070 H 
ATOM     42  H   LIG d   1       4.015   3.583  -9.820  0.00  0.00     0.070 H 
ATOM     43  C   LIG d   1       3.014   0.793  -8.038  0.00  0.00     0.093 C 
ATOM     44  H   LIG d   1       2.177   2.703  -8.513  0.00  0.00     0.033 H 
ATOM     45  H   LIG d   1       2.450   1.652  -9.913  0.00  0.00     0.033 H 
ATOM     46  H   LIG d   1       3.491   1.113  -7.112  0.00  0.00     0.070 H 
ATOM     47  H   LIG d   1       2.027   0.390  -7.812  0.00  0.00     0.070 H 
ENDBRANCH  25  28
ENDBRANCH   1  25
TORSDOF 8
ENDMDL
MODEL 4
REMARK VINA RESULT:      -5.9      4.957      8.877
REMARK  8 active torsions:
REMARK  status: ('A' for Active; 'I' for Inactive)
REMARK    1  A    between atoms: C_1  and  C_2 
REMARK    2  A    between atoms: C_2  and  C_3 
REMARK    3  A    between atoms: C_5  and  C_12 
REMARK    4  A    between atoms: C_6  and  O_11 
REMARK    5  A    between atoms: C_8  and  O_9 
REMARK    6  A    between atoms: O_9  and  C_10 
REMARK    7  A    between atoms: C_12  and  C_14 
REMARK    8  A    between atoms: C_14  and  C_15 
ROOT
ATOM      1  C   LIG d   1       8.950  -3.679  -4.994  0.00  0.00     0.171 C 
ATOM      2  O   LIG d   1       9.873  -2.898  -5.096  0.00  0.00    -0.292 OA
ENDROOT
BRANCH   1   3
ATOM      3  C   LIG d   1       9.079  -4.858  -4.134  0.00  0.00     0.060 A 
ATOM      4  C   LIG d   1       8.721  -6.125  -4.617  0.00  0.00    -0.041 A 
ATOM      5  C   LIG d   1       8.848  -7.222  -3.817  0.00  0.00    -0.005 A 
ATOM      6  H   LIG d   1       8.348  -6.232  -5.625  0.00  0.00     0.063 H 
ATOM      7  C   LIG d   1       9.323  -7.093  -2.514  0.00  0.00     0.127 A 
ATOM      8  C   LIG d   1       9.676  -5.847  -2.017  0.00  0.00     0.022 A 
ATOM      9  C   LIG d   1       9.558  -4.725  -2.819  0.00  0.00     0.131 A 
ATOM     10  H   LIG d   1      10.043  -5.753  -1.007  0.00  0.00     0.069 H 
BRANCH   5  11
ATOM     11  C   LIG d   1       8.467  -8.581  -4.345  0.00  0.00    -0.027 C 
ATOM     12  H   LIG d   1       8.797  -8.676  -5.379  0.00  0.00     0.031 H 
ATOM     13  H   LIG d   1       8.943  -9.353  -3.739  0.00  0.00     0.031 H 
BRANCH  11  14
ATOM     14  C   LIG d   1       6.948  -8.746  -4.278  0.00  0.00    -0.061 C 
ATOM     15  H   LIG d   1       6.625  -9.456  -5.040  0.00  0.00     0.023 H 
ATOM     16  H   LIG d   1       6.665  -9.117  -3.292  0.00  0.00     0.023 H 
ATOM     17  H   LIG d   1       6.469  -7.781  -4.454  0.00  0.00     0.023 H 
ENDBRANCH  11  14
ENDBRANCH   5  11
BRANCH   7  18
ATOM     18  O   LIG d   1       9.438  -8.192  -1.727  0.00  0.00    -0.495 OA
BRANCH  18  19
ATOM     19  C   LIG d   1      10.682  -8.374  -1.047  0.00  0.00     0.079 C 
ATOM     20  H   LIG d   1      11.058  -7.406  -0.713  0.00  0.00     0.066 H 
ATOM     21  H   LIG d   1      10.532  -9.022  -0.184  0.00  0.00     0.066 H 
ATOM     22  H   LIG d   1      11.403  -8.830  -1.724  0.00  0.00     0.066 H 
ENDBRANCH  18  19
ENDBRANCH   7  18
BRANCH   9  23
ATOM     23  O   LIG d   1       9.904  -3.505  -2.339  0.00  0.00    -0.506 OA
ATOM     24  H   LIG d   1      10.855  -3.330  -2.358  0.00  0.00     0.292 HD
ENDBRANCH   9  23
ENDBRANCH   1   3
BRANCH   1  25
ATOM     25  C   LIG d   1       7.669  -3.434  -5.750  0.00  0.00     0.036 C 
ATOM     26  H   LIG d   1       7.338  -4.297  -6.133  0.00  0.00     0.039 H 
ATOM     27  H   LIG d   1       7.855  -2.726  -6.558  0.00  0.00     0.039 H 
BRANCH  25  28
ATOM     28  C   LIG d   1       6.633  -2.869  -4.814  0.00  0.00    -0.036 A 
ATOM     29  C   LIG d   1       6.891  -1.698  -4.125  0.00  0.00    -0.013 A 
ATOM     30  C   LIG d   1       5.937  -1.182  -3.264  0.00  0.00     0.162 A 
ATOM     31  H   LIG d   1       7.834  -1.188  -4.257  0.00  0.00     0.066 H 
ATOM     32  C   LIG d   1       4.726  -1.839  -3.096  0.00  0.00     0.162 A 
ATOM     33  O   LIG d   1       6.179  -0.028  -2.579  0.00  0.00    -0.488 OA
ATOM     34  C   LIG d   1       4.470  -3.010  -3.788  0.00  0.00    -0.016 A 
ATOM     35  O   LIG d   1       3.792  -1.324  -2.244  0.00  0.00    -0.488 OA
ATOM     36  C   LIG d   1       5.426  -3.522  -4.647  0.00  0.00    -0.054 A 
ATOM     37  H   LIG d   1       3.529  -3.524  -3.655  0.00  0.00     0.066 H 
ATOM     38  H   LIG d   1       5.229  -4.436  -5.189  0.00  0.00     0.062 H 
ATOM     39  C   LIG d   1       3.188  -0.094  -2.651  0.00  0.00     0.093 C 
ATOM     40  C   LIG d   1       4.050   1.091  -2.243  0.00  0.00     0.016 C 
ATOM     41  H   LIG d   1       3.067  -0.094  -3.735  0.00  0.00     0.070 H 
ATOM     42  H   LIG d   1       2.209  -0.003  -2.180  0.00  0.00     0.070 H 
ATOM     43  C   LIG d   1       5.393   1.102  -2.958  0.00  0.00     0.093 C 
ATOM     44  H   LIG d   1       3.517   2.012  -2.479  0.00  0.00     0.033 H 
ATOM     45  H   LIG d   1       4.224   1.049  -1.169  0.00  0.00     0.033 H 
ATOM     46  H   LIG d   1       5.226   1.076  -4.036  0.00  0.00     0.070 H 
ATOM     47  H   LIG d   1       5.929   2.015  -2.701  0.00  0.00     0.070 H 
ENDBRANCH  25  28
ENDBRANCH   1  25
TORSDOF 8
ENDMDL
MODEL 5
REMARK VINA RESULT:      -5.8      5.371      8.470
REMARK  8 active torsions:
REMARK  status: ('A' for Active; 'I' for Inactive)
REMARK    1  A    between atoms: C_1  and  C_2 
REMARK    2  A    between atoms: C_2  and  C_3 
REMARK    3  A    between atoms: C_5  and  C_12 
REMARK    4  A    between atoms: C_6  and  O_11 
REMARK    5  A    between atoms: C_8  and  O_9 
REMARK    6  A    between atoms: O_9  and  C_10 
REMARK    7  A    between atoms: C_12  and  C_14 
REMARK    8  A    between atoms: C_14  and  C_15 
ROOT
ATOM      1  C   LIG d   1       8.141  -4.284  -4.549  0.00  0.00     0.171 C 
ATOM      2  O   LIG d   1       8.832  -4.683  -3.635  0.00  0.00    -0.292 OA
ENDROOT
BRANCH   1   3
ATOM      3  C   LIG d   1       7.440  -3.002  -4.433  0.00  0.00     0.060 A 
ATOM      4  C   LIG d   1       6.054  -2.973  -4.231  0.00  0.00    -0.041 A 
ATOM      5  C   LIG d   1       5.405  -1.778  -4.116  0.00  0.00    -0.005 A 
ATOM      6  H   LIG d   1       5.499  -3.897  -4.161  0.00  0.00     0.063 H 
ATOM      7  C   LIG d   1       6.110  -0.581  -4.210  0.00  0.00     0.127 A 
ATOM      8  C   LIG d   1       7.483  -0.591  -4.416  0.00  0.00     0.022 A 
ATOM      9  C   LIG d   1       8.156  -1.795  -4.529  0.00  0.00     0.131 A 
ATOM     10  H   LIG d   1       8.025   0.340  -4.489  0.00  0.00     0.069 H 
BRANCH   5  11
ATOM     11  C   LIG d   1       3.915  -1.754  -3.893  0.00  0.00    -0.027 C 
ATOM     12  H   LIG d   1       3.521  -0.776  -4.170  0.00  0.00     0.031 H 
ATOM     13  H   LIG d   1       3.443  -2.522  -4.505  0.00  0.00     0.031 H 
BRANCH  11  14
ATOM     14  C   LIG d   1       3.617  -2.023  -2.417  0.00  0.00    -0.061 C 
ATOM     15  H   LIG d   1       3.170  -3.011  -2.310  0.00  0.00     0.023 H 
ATOM     16  H   LIG d   1       4.544  -1.979  -1.845  0.00  0.00     0.023 H 
ATOM     17  H   LIG d   1       2.923  -1.268  -2.042  0.00  0.00     0.023 H 
ENDBRANCH  11  14
ENDBRANCH   5  11
BRANCH   7  18
ATOM     18  O   LIG d   1       5.452   0.599  -4.101  0.00  0.00    -0.495 OA
BRANCH  18  19
ATOM     19  C   LIG d   1       5.508   1.258  -2.834  0.00  0.00     0.079 C 
ATOM     20  H   LIG d   1       5.901   2.267  -2.966  0.00  0.00     0.066 H 
ATOM     21  H   LIG d   1       4.506   1.311  -2.408  0.00  0.00     0.066 H 
ATOM     22  H   LIG d   1       6.159   0.699  -2.162  0.00  0.00     0.066 H 
ENDBRANCH  18  19
ENDBRANCH   7  18
BRANCH   9  23
ATOM     23  O   LIG d   1       9.497  -1.811  -4.729  0.00  0.00    -0.506 OA
ATOM     24  H   LIG d   1      10.010  -1.478  -3.979  0.00  0.00     0.292 HD
ENDBRANCH   9  23
ENDBRANCH   1   3
BRANCH   1  25
ATOM     25  C   LIG d   1       8.004  -5.106  -5.805  0.00  0.00     0.036 C 
ATOM     26  H   LIG d   1       8.891  -5.506  -6.040  0.00  0.00     0.039 H 
ATOM     27  H   LIG d   1       7.666  -4.469  -6.621  0.00  0.00     0.039 H 
BRANCH  25  28
ATOM     28  C   LIG d   1       7.001  -6.207  -5.579  0.00  0.00    -0.036 A 
ATOM     29  C   LIG d   1       7.422  -7.438  -5.107  0.00  0.00    -0.013 A 
ATOM     30  C   LIG d   1       6.498  -8.448  -4.901  0.00  0.00     0.162 A 
ATOM     31  H   LIG d   1       8.469  -7.609  -4.899  0.00  0.00     0.066 H 
ATOM     32  C   LIG d   1       5.155  -8.225  -5.167  0.00  0.00     0.162 A 
ATOM     33  O   LIG d   1       6.900  -9.665  -4.435  0.00  0.00    -0.488 OA
ATOM     34  C   LIG d   1       4.736  -6.992  -5.638  0.00  0.00    -0.016 A 
ATOM     35  O   LIG d   1       4.251  -9.227  -4.963  0.00  0.00    -0.488 OA
ATOM     36  C   LIG d   1       5.662  -5.986  -5.843  0.00  0.00    -0.054 A 
ATOM     37  H   LIG d   1       3.691  -6.819  -5.851  0.00  0.00     0.066 H 
ATOM     38  H   LIG d   1       5.339  -5.023  -6.210  0.00  0.00     0.062 H 
ATOM     39  C   LIG d   1       4.027  -9.597  -3.601  0.00  0.00     0.093 C 
ATOM     40  C   LIG d   1       5.074 -10.597  -3.134  0.00  0.00     0.016 C 
ATOM     41  H   LIG d   1       4.077  -8.706  -2.974  0.00  0.00     0.070 H 
ATOM     42  H   LIG d   1       3.038 -10.045  -3.510  0.00  0.00     0.070 H 
ATOM     43  C   LIG d   1       6.473 -10.002  -3.114  0.00  0.00     0.093 C 
ATOM     44  H   LIG d   1       4.818 -10.932  -2.129  0.00  0.00     0.033 H 
ATOM     45  H   LIG d   1       5.065 -11.456  -3.804  0.00  0.00     0.033 H 
ATOM     46  H   LIG d   1       6.472  -9.103  -2.498  0.00  0.00     0.070 H 
ATOM     47  H   LIG d   1       7.166 -10.728  -2.688  0.00  0.00     0.070 H 
ENDBRANCH  25  28
ENDBRANCH   1  25
TORSDOF 8
ENDMDL
MODEL 6
REMARK VINA RESULT:      -5.7      4.035      6.893
REMARK  8 active torsions:
REMARK  status: ('A' for Active; 'I' for Inactive)
REMARK    1  A    between atoms: C_1  and  C_2 
REMARK    2  A    between atoms: C_2  and  C_3 
REMARK    3  A    between atoms: C_5  and  C_12 
REMARK    4  A    between atoms: C_6  and  O_11 
REMARK    5  A    between atoms: C_8  and  O_9 
REMARK    6  A    between atoms: O_9  and  C_10 
REMARK    7  A    between atoms: C_12  and  C_14 
REMARK    8  A    between atoms: C_14  and  C_15 
ROOT
ATOM      1  C   LIG d   1       6.696  -3.273  -5.392  0.00  0.00     0.171 C 
ATOM      2  O   LIG d   1       6.872  -4.394  -4.964  0.00  0.00    -0.292 OA
ENDROOT
BRANCH   1   3
ATOM      3  C   LIG d   1       6.237  -2.209  -4.495  0.00  0.00     0.060 A 
ATOM      4  C   LIG d   1       6.973  -1.022  -4.376  0.00  0.00    -0.041 A 
ATOM      5  C   LIG d   1       6.540  -0.031  -3.545  0.00  0.00    -0.005 A 
ATOM      6  H   LIG d   1       7.880  -0.891  -4.947  0.00  0.00     0.063 H 
ATOM      7  C   LIG d   1       5.374  -0.193  -2.801  0.00  0.00     0.127 A 
ATOM      8  C   LIG d   1       4.636  -1.364  -2.902  0.00  0.00     0.022 A 
ATOM      9  C   LIG d   1       5.059  -2.377  -3.745  0.00  0.00     0.131 A 
ATOM     10  H   LIG d   1       3.734  -1.485  -2.323  0.00  0.00     0.069 H 
BRANCH   5  11
ATOM     11  C   LIG d   1       7.333   1.246  -3.427  0.00  0.00    -0.027 C 
ATOM     12  H   LIG d   1       6.659   2.073  -3.201  0.00  0.00     0.031 H 
ATOM     13  H   LIG d   1       8.066   1.146  -2.627  0.00  0.00     0.031 H 
BRANCH  11  14
ATOM     14  C   LIG d   1       8.053   1.522  -4.748  0.00  0.00    -0.061 C 
ATOM     15  H   LIG d   1       8.911   0.856  -4.840  0.00  0.00     0.023 H 
ATOM     16  H   LIG d   1       7.368   1.350  -5.579  0.00  0.00     0.023 H 
ATOM     17  H   LIG d   1       8.394   2.558  -4.767  0.00  0.00     0.023 H 
ENDBRANCH  11  14
ENDBRANCH   5  11
BRANCH   7  18
ATOM     18  O   LIG d   1       4.959   0.798  -1.974  0.00  0.00    -0.495 OA
BRANCH  18  19
ATOM     19  C   LIG d   1       3.689   1.390  -2.257  0.00  0.00     0.079 C 
ATOM     20  H   LIG d   1       3.273   0.941  -3.160  0.00  0.00     0.066 H 
ATOM     21  H   LIG d   1       3.013   1.217  -1.420  0.00  0.00     0.066 H 
ATOM     22  H   LIG d   1       3.814   2.462  -2.409  0.00  0.00     0.066 H 
ENDBRANCH  18  19
ENDBRANCH   7  18
BRANCH   9  23
ATOM     23  O   LIG d   1       4.342  -3.522  -3.848  0.00  0.00    -0.506 OA
ATOM     24  H   LIG d   1       4.664  -4.128  -4.531  0.00  0.00     0.292 HD
ENDBRANCH   9  23
ENDBRANCH   1   3
BRANCH   1  25
ATOM     25  C   LIG d   1       6.950  -2.974  -6.847  0.00  0.00     0.036 C 
ATOM     26  H   LIG d   1       7.015  -3.832  -7.358  0.00  0.00     0.039 H 
ATOM     27  H   LIG d   1       7.883  -2.421  -6.947  0.00  0.00     0.039 H 
BRANCH  25  28
ATOM     28  C   LIG d   1       5.815  -2.148  -7.397  0.00  0.00    -0.036 A 
ATOM     29  C   LIG d   1       5.952  -0.776  -7.507  0.00  0.00    -0.013 A 
ATOM     30  C   LIG d   1       4.907  -0.021  -8.011  0.00  0.00     0.162 A 
ATOM     31  H   LIG d   1       6.870  -0.297  -7.202  0.00  0.00     0.066 H 
ATOM     32  C   LIG d   1       3.728  -0.639  -8.403  0.00  0.00     0.162 A 
ATOM     33  O   LIG d   1       5.029   1.333  -8.126  0.00  0.00    -0.488 OA
ATOM     34  C   LIG d   1       3.595  -2.012  -8.292  0.00  0.00    -0.016 A 
ATOM     35  O   LIG d   1       2.703   0.115  -8.897  0.00  0.00    -0.488 OA
ATOM     36  C   LIG d   1       4.641  -2.764  -7.788  0.00  0.00    -0.054 A 
ATOM     37  H   LIG d   1       2.676  -2.495  -8.593  0.00  0.00     0.066 H 
ATOM     38  H   LIG d   1       4.541  -3.836  -7.700  0.00  0.00     0.062 H 
ATOM     39  C   LIG d   1       2.931   0.721 -10.172  0.00  0.00     0.093 C 
ATOM     40  C   LIG d   1       3.677   2.037 -10.017  0.00  0.00     0.016 C 
ATOM     41  H   LIG d   1       3.522   0.044 -10.790  0.00  0.00     0.070 H 
ATOM     42  H   LIG d   1       1.974   0.906 -10.656  0.00  0.00     0.070 H 
ATOM     43  C   LIG d   1       5.079   1.846  -9.459  0.00  0.00     0.093 C 
ATOM     44  H   LIG d   1       3.748   2.519 -10.992  0.00  0.00     0.033 H 
ATOM     45  H   LIG d   1       3.115   2.684  -9.344  0.00  0.00     0.033 H 
ATOM     46  H   LIG d   1       5.624   1.146 -10.092  0.00  0.00     0.070 H 
ATOM     47  H   LIG d   1       5.597   2.805  -9.455  0.00  0.00     0.070 H 
ENDBRANCH  25  28
ENDBRANCH   1  25
TORSDOF 8
ENDMDL
MODEL 7
REMARK VINA RESULT:      -5.7      5.909     10.026
REMARK  8 active torsions:
REMARK  status: ('A' for Active; 'I' for Inactive)
REMARK    1  A    between atoms: C_1  and  C_2 
REMARK    2  A    between atoms: C_2  and  C_3 
REMARK    3  A    between atoms: C_5  and  C_12 
REMARK    4  A    between atoms: C_6  and  O_11 
REMARK    5  A    between atoms: C_8  and  O_9 
REMARK    6  A    between atoms: O_9  and  C_10 
REMARK    7  A    between atoms: C_12  and  C_14 
REMARK    8  A    between atoms: C_14  and  C_15 
ROOT
ATOM      1  C   LIG d   1       4.058  -4.442  -7.231  0.00  0.00     0.171 C 
ATOM      2  O   LIG d   1       3.535  -5.038  -6.314  0.00  0.00    -0.292 OA
ENDROOT
BRANCH   1   3
ATOM      3  C   LIG d   1       3.331  -4.246  -8.488  0.00  0.00     0.060 A 
ATOM      4  C   LIG d   1       3.074  -2.951  -8.959  0.00  0.00    -0.041 A 
ATOM      5  C   LIG d   1       2.402  -2.772 -10.133  0.00  0.00    -0.005 A 
ATOM      6  H   LIG d   1       3.411  -2.095  -8.394  0.00  0.00     0.063 H 
ATOM      7  C   LIG d   1       1.958  -3.869 -10.866  0.00  0.00     0.127 A 
ATOM      8  C   LIG d   1       2.199  -5.159 -10.411  0.00  0.00     0.022 A 
ATOM      9  C   LIG d   1       2.884  -5.357  -9.226  0.00  0.00     0.131 A 
ATOM     10  H   LIG d   1       1.852  -6.006 -10.983  0.00  0.00     0.069 H 
BRANCH   5  11
ATOM     11  C   LIG d   1       2.135  -1.377 -10.637  0.00  0.00    -0.027 C 
ATOM     12  H   LIG d   1       2.962  -1.053 -11.268  0.00  0.00     0.031 H 
ATOM     13  H   LIG d   1       1.211  -1.371 -11.216  0.00  0.00     0.031 H 
BRANCH  11  14
ATOM     14  C   LIG d   1       1.998  -0.424  -9.448  0.00  0.00    -0.061 C 
ATOM     15  H   LIG d   1       1.671   0.554  -9.801  0.00  0.00     0.023 H 
ATOM     16  H   LIG d   1       1.264  -0.821  -8.746  0.00  0.00     0.023 H 
ATOM     17  H   LIG d   1       2.963  -0.325  -8.948  0.00  0.00     0.023 H 
ENDBRANCH  11  14
ENDBRANCH   5  11
BRANCH   7  18
ATOM     18  O   LIG d   1       1.286  -3.677 -12.028  0.00  0.00    -0.495 OA
BRANCH  18  19
ATOM     19  C   LIG d   1       0.075  -4.415 -12.205  0.00  0.00     0.079 C 
ATOM     20  H   LIG d   1      -0.779  -3.755 -12.045  0.00  0.00     0.066 H 
ATOM     21  H   LIG d   1       0.039  -4.815 -13.218  0.00  0.00     0.066 H 
ATOM     22  H   LIG d   1       0.040  -5.234 -11.488  0.00  0.00     0.066 H 
ENDBRANCH  18  19
ENDBRANCH   7  18
BRANCH   9  23
ATOM     23  O   LIG d   1       3.123  -6.614  -8.778  0.00  0.00    -0.506 OA
ATOM     24  H   LIG d   1       3.407  -7.230  -9.468  0.00  0.00     0.292 HD
ENDBRANCH   9  23
ENDBRANCH   1   3
BRANCH   1  25
ATOM     25  C   LIG d   1       5.456  -3.900  -7.077  0.00  0.00     0.036 C 
ATOM     26  H   LIG d   1       5.717  -3.408  -7.908  0.00  0.00     0.039 H 
ATOM     27  H   LIG d   1       6.149  -4.725  -6.912  0.00  0.00     0.039 H 
BRANCH  25  28
ATOM     28  C   LIG d   1       5.505  -2.960  -5.900  0.00  0.00    -0.036 A 
ATOM     29  C   LIG d   1       4.780  -1.782  -5.928  0.00  0.00    -0.013 A 
ATOM     30  C   LIG d   1       4.827  -0.921  -4.845  0.00  0.00     0.162 A 
ATOM     31  H   LIG d   1       4.178  -1.536  -6.791  0.00  0.00     0.066 H 
ATOM     32  C   LIG d   1       5.600  -1.239  -3.738  0.00  0.00     0.162 A 
ATOM     33  O   LIG d   1       4.116   0.243  -4.860  0.00  0.00    -0.488 OA
ATOM     34  C   LIG d   1       6.323  -2.419  -3.712  0.00  0.00    -0.016 A 
ATOM     35  O   LIG d   1       5.642  -0.382  -2.676  0.00  0.00    -0.488 OA
ATOM     36  C   LIG d   1       6.273  -3.277  -4.796  0.00  0.00    -0.054 A 
ATOM     37  H   LIG d   1       6.929  -2.666  -2.852  0.00  0.00     0.066 H 
ATOM     38  H   LIG d   1       6.837  -4.199  -4.779  0.00  0.00     0.062 H 
ATOM     39  C   LIG d   1       4.431  -0.258  -1.926  0.00  0.00     0.093 C 
ATOM     40  C   LIG d   1       3.502   0.761  -2.568  0.00  0.00     0.016 C 
ATOM     41  H   LIG d   1       3.931  -1.226  -1.888  0.00  0.00     0.070 H 
ATOM     42  H   LIG d   1       4.669   0.064  -0.913  0.00  0.00     0.070 H 
ATOM     43  C   LIG d   1       3.024   0.321  -3.943  0.00  0.00     0.093 C 
ATOM     44  H   LIG d   1       2.636   0.903  -1.922  0.00  0.00     0.033 H 
ATOM     45  H   LIG d   1       4.029   1.708  -2.665  0.00  0.00     0.033 H 
ATOM     46  H   LIG d   1       2.554  -0.660  -3.863  0.00  0.00     0.070 H 
ATOM     47  H   LIG d   1       2.293   1.039  -4.316  0.00  0.00     0.070 H 
ENDBRANCH  25  28
ENDBRANCH   1  25
TORSDOF 8
ENDMDL
MODEL 8
REMARK VINA RESULT:      -5.5      3.995      9.197
REMARK  8 active torsions:
REMARK  status: ('A' for Active; 'I' for Inactive)
REMARK    1  A    between atoms: C_1  and  C_2 
REMARK    2  A    between atoms: C_2  and  C_3 
REMARK    3  A    between atoms: C_5  and  C_12 
REMARK    4  A    between atoms: C_6  and  O_11 
REMARK    5  A    between atoms: C_8  and  O_9 
REMARK    6  A    between atoms: O_9  and  C_10 
REMARK    7  A    between atoms: C_12  and  C_14 
REMARK    8  A    between atoms: C_14  and  C_15 
ROOT
ATOM      1  C   LIG d   1       9.440   7.995  -1.333  0.00  0.00     0.171 C 
ATOM      2  O   LIG d   1       8.375   8.086  -0.758  0.00  0.00    -0.292 OA
ENDROOT
BRANCH   1   3
ATOM      3  C   LIG d   1       9.758   6.789  -2.101  0.00  0.00     0.060 A 
ATOM      4  C   LIG d   1       9.591   6.776  -3.493  0.00  0.00    -0.041 A 
ATOM      5  C   LIG d   1       9.894   5.654  -4.207  0.00  0.00    -0.005 A 
ATOM      6  H   LIG d   1       9.228   7.657  -4.001  0.00  0.00     0.063 H 
ATOM      7  C   LIG d   1      10.358   4.511  -3.561  0.00  0.00     0.127 A 
ATOM      8  C   LIG d   1      10.523   4.504  -2.183  0.00  0.00     0.022 A 
ATOM      9  C   LIG d   1      10.226   5.636  -1.445  0.00  0.00     0.131 A 
ATOM     10  H   LIG d   1      10.883   3.615  -1.687  0.00  0.00     0.069 H 
BRANCH   5  11
ATOM     11  C   LIG d   1       9.718   5.649  -5.704  0.00  0.00    -0.027 C 
ATOM     12  H   LIG d   1      10.566   5.145  -6.168  0.00  0.00     0.031 H 
ATOM     13  H   LIG d   1       8.798   5.123  -5.961  0.00  0.00     0.031 H 
BRANCH  11  14
ATOM     14  C   LIG d   1       9.642   7.090  -6.212  0.00  0.00    -0.061 C 
ATOM     15  H   LIG d   1       8.798   7.190  -6.895  0.00  0.00     0.023 H 
ATOM     16  H   LIG d   1       9.508   7.767  -5.368  0.00  0.00     0.023 H 
ATOM     17  H   LIG d   1      10.565   7.341  -6.736  0.00  0.00     0.023 H 
ENDBRANCH  11  14
ENDBRANCH   5  11
BRANCH   7  18
ATOM     18  O   LIG d   1      10.648   3.400  -4.282  0.00  0.00    -0.495 OA
BRANCH  18  19
ATOM     19  C   LIG d   1      10.923   2.205  -3.548  0.00  0.00     0.079 C 
ATOM     20  H   LIG d   1       9.999   1.644  -3.408  0.00  0.00     0.066 H 
ATOM     21  H   LIG d   1      11.637   1.595  -4.101  0.00  0.00     0.066 H 
ATOM     22  H   LIG d   1      11.342   2.463  -2.576  0.00  0.00     0.066 H 
ENDBRANCH  18  19
ENDBRANCH   7  18
BRANCH   9  23
ATOM     23  O   LIG d   1      10.387   5.635  -0.099  0.00  0.00    -0.506 OA
ATOM     24  H   LIG d   1      10.041   6.426   0.338  0.00  0.00     0.292 HD
ENDBRANCH   9  23
ENDBRANCH   1   3
BRANCH   1  25
ATOM     25  C   LIG d   1      10.436   9.124  -1.257  0.00  0.00     0.036 C 
ATOM     26  H   LIG d   1      11.363   8.756  -1.330  0.00  0.00     0.039 H 
ATOM     27  H   LIG d   1      10.325   9.642  -0.305  0.00  0.00     0.039 H 
BRANCH  25  28
ATOM     28  C   LIG d   1      10.188  10.090  -2.387  0.00  0.00    -0.036 A 
ATOM     29  C   LIG d   1       9.257  11.101  -2.238  0.00  0.00    -0.013 A 
ATOM     30  C   LIG d   1       9.031  11.986  -3.279  0.00  0.00     0.162 A 
ATOM     31  H   LIG d   1       8.708  11.200  -1.313  0.00  0.00     0.066 H 
ATOM     32  C   LIG d   1       9.737  11.857  -4.466  0.00  0.00     0.162 A 
ATOM     33  O   LIG d   1       8.115  12.988  -3.144  0.00  0.00    -0.488 OA
ATOM     34  C   LIG d   1      10.670  10.844  -4.612  0.00  0.00    -0.016 A 
ATOM     35  O   LIG d   1       9.506  12.733  -5.487  0.00  0.00    -0.488 OA
ATOM     36  C   LIG d   1      10.893   9.962  -3.570  0.00  0.00    -0.054 A 
ATOM     37  H   LIG d   1      11.217  10.740  -5.537  0.00  0.00     0.066 H 
ATOM     38  H   LIG d   1      11.620   9.171  -3.680  0.00  0.00     0.062 H 
ATOM     39  C   LIG d   1       9.928  14.080  -5.261  0.00  0.00     0.093 C 
ATOM     40  C   LIG d   1       8.864  14.857  -4.502  0.00  0.00     0.016 C 
ATOM     41  H   LIG d   1      10.851  14.074  -4.681  0.00  0.00     0.070 H 
ATOM     42  H   LIG d   1      10.109  14.564  -6.220  0.00  0.00     0.070 H 
ATOM     43  C   LIG d   1       8.642  14.315  -3.098  0.00  0.00     0.093 C 
ATOM     44  H   LIG d   1       9.172  15.900  -4.433  0.00  0.00     0.033 H 
ATOM     45  H   LIG d   1       7.926  14.803  -5.053  0.00  0.00     0.033 H 
ATOM     46  H   LIG d   1       9.592  14.304  -2.563  0.00  0.00     0.070 H 
ATOM     47  H   LIG d   1       7.941  14.961  -2.570  0.00  0.00     0.070 H 
ENDBRANCH  25  28
ENDBRANCH   1  25
TORSDOF 8
ENDMDL
MODEL 9
REMARK VINA RESULT:      -5.5      4.952      7.958
REMARK  8 active torsions:
REMARK  status: ('A' for Active; 'I' for Inactive)
REMARK    1  A    between atoms: C_1  and  C_2 
REMARK    2  A    between atoms: C_2  and  C_3 
REMARK    3  A    between atoms: C_5  and  C_12 
REMARK    4  A    between atoms: C_6  and  O_11 
REMARK    5  A    between atoms: C_8  and  O_9 
REMARK    6  A    between atoms: O_9  and  C_10 
REMARK    7  A    between atoms: C_12  and  C_14 
REMARK    8  A    between atoms: C_14  and  C_15 
ROOT
ATOM      1  C   LIG d   1      10.478   5.761  -3.679  0.00  0.00     0.171 C 
ATOM      2  O   LIG d   1      11.369   5.235  -4.312  0.00  0.00    -0.292 OA
ENDROOT
BRANCH   1   3
ATOM      3  C   LIG d   1      10.673   6.074  -2.261  0.00  0.00     0.060 A 
ATOM      4  C   LIG d   1      10.492   7.385  -1.798  0.00  0.00    -0.041 A 
ATOM      5  C   LIG d   1      10.668   7.673  -0.476  0.00  0.00    -0.005 A 
ATOM      6  H   LIG d   1      10.209   8.166  -2.488  0.00  0.00     0.063 H 
ATOM      7  C   LIG d   1      11.038   6.674   0.420  0.00  0.00     0.127 A 
ATOM      8  C   LIG d   1      11.227   5.372  -0.022  0.00  0.00     0.022 A 
ATOM      9  C   LIG d   1      11.047   5.062  -1.359  0.00  0.00     0.131 A 
ATOM     10  H   LIG d   1      11.515   4.601   0.677  0.00  0.00     0.069 H 
BRANCH   5  11
ATOM     11  C   LIG d   1      10.465   9.083   0.016  0.00  0.00    -0.027 C 
ATOM     12  H   LIG d   1      10.210   9.066   1.075  0.00  0.00     0.031 H 
ATOM     13  H   LIG d   1      11.383   9.654  -0.128  0.00  0.00     0.031 H 
BRANCH  11  14
ATOM     14  C   LIG d   1       9.329   9.739  -0.771  0.00  0.00    -0.061 C 
ATOM     15  H   LIG d   1       9.547   9.686  -1.838  0.00  0.00     0.023 H 
ATOM     16  H   LIG d   1       8.395   9.216  -0.565  0.00  0.00     0.023 H 
ATOM     17  H   LIG d   1       9.234  10.784  -0.471  0.00  0.00     0.023 H 
ENDBRANCH  11  14
ENDBRANCH   5  11
BRANCH   7  18
ATOM     18  O   LIG d   1      11.216   6.975   1.730  0.00  0.00    -0.495 OA
BRANCH  18  19
ATOM     19  C   LIG d   1      10.904   5.953   2.678  0.00  0.00     0.079 C 
ATOM     20  H   LIG d   1      10.212   5.239   2.229  0.00  0.00     0.066 H 
ATOM     21  H   LIG d   1      11.818   5.437   2.971  0.00  0.00     0.066 H 
ATOM     22  H   LIG d   1      10.442   6.401   3.558  0.00  0.00     0.066 H 
ENDBRANCH  18  19
ENDBRANCH   7  18
BRANCH   9  23
ATOM     23  O   LIG d   1      11.229   3.792  -1.795  0.00  0.00    -0.506 OA
ATOM     24  H   LIG d   1      10.841   3.616  -2.664  0.00  0.00     0.292 HD
ENDBRANCH   9  23
ENDBRANCH   1   3
BRANCH   1  25
ATOM     25  C   LIG d   1       9.170   6.093  -4.351  0.00  0.00     0.036 C 
ATOM     26  H   LIG d   1       8.532   6.461  -3.675  0.00  0.00     0.039 H 
ATOM     27  H   LIG d   1       8.750   5.190  -4.794  0.00  0.00     0.039 H 
BRANCH  25  28
ATOM     28  C   LIG d   1       9.406   7.118  -5.430  0.00  0.00    -0.036 A 
ATOM     29  C   LIG d   1       9.373   8.465  -5.120  0.00  0.00    -0.013 A 
ATOM     30  C   LIG d   1       9.588   9.405  -6.114  0.00  0.00     0.162 A 
ATOM     31  H   LIG d   1       9.179   8.783  -4.106  0.00  0.00     0.066 H 
ATOM     32  C   LIG d   1       9.837   8.994  -7.416  0.00  0.00     0.162 A 
ATOM     33  O   LIG d   1       9.559  10.737  -5.821  0.00  0.00    -0.488 OA
ATOM     34  C   LIG d   1       9.871   7.645  -7.723  0.00  0.00    -0.016 A 
ATOM     35  O   LIG d   1      10.046   9.928  -8.389  0.00  0.00    -0.488 OA
ATOM     36  C   LIG d   1       9.655   6.709  -6.727  0.00  0.00    -0.054 A 
ATOM     37  H   LIG d   1      10.060   7.324  -8.737  0.00  0.00     0.066 H 
ATOM     38  H   LIG d   1       9.680   5.656  -6.964  0.00  0.00     0.062 H 
ATOM     39  C   LIG d   1      11.258  10.678  -8.284  0.00  0.00     0.093 C 
ATOM     40  C   LIG d   1      11.080  11.861  -7.344  0.00  0.00     0.016 C 
ATOM     41  H   LIG d   1      12.049  10.031  -7.902  0.00  0.00     0.070 H 
ATOM     42  H   LIG d   1      11.540  11.044  -9.271  0.00  0.00     0.070 H 
ATOM     43  C   LIG d   1      10.807  11.426  -5.912  0.00  0.00     0.093 C 
ATOM     44  H   LIG d   1      11.987  12.465  -7.362  0.00  0.00     0.033 H 
ATOM     45  H   LIG d   1      10.246  12.467  -7.693  0.00  0.00     0.033 H 
ATOM     46  H   LIG d   1      11.606  10.763  -5.580  0.00  0.00     0.070 H 
ATOM     47  H   LIG d   1      10.779  12.305  -5.269  0.00  0.00     0.070 H 
ENDBRANCH  25  28
ENDBRANCH   1  25
TORSDOF 8
ENDMDL
MODEL 10
REMARK VINA RESULT:      -5.4      1.873      2.366
REMARK  8 active torsions:
REMARK  status: ('A' for Active; 'I' for Inactive)
REMARK    1  A    between atoms: C_1  and  C_2 
REMARK    2  A    between atoms: C_2  and  C_3 
REMARK    3  A    between atoms: C_5  and  C_12 
REMARK    4  A    between atoms: C_6  and  O_11 
REMARK    5  A    between atoms: C_8  and  O_9 
REMARK    6  A    between atoms: O_9  and  C_10 
REMARK    7  A    between atoms: C_12  and  C_14 
REMARK    8  A    between atoms: C_14  and  C_15 
ROOT
ATOM      1  C   LIG d   1      10.329   2.215  -4.382  0.00  0.00     0.171 C 
ATOM      2  O   LIG d   1      10.718   1.066  -4.366  0.00  0.00    -0.292 OA
ENDROOT
BRANCH   1   3
ATOM      3  C   LIG d   1      11.033   3.238  -3.604  0.00  0.00     0.060 A 
ATOM      4  C   LIG d   1      10.321   4.076  -2.734  0.00  0.00    -0.041 A 
ATOM      5  C   LIG d   1      10.980   5.023  -2.006  0.00  0.00    -0.005 A 
ATOM      6  H   LIG d   1       9.251   3.968  -2.638  0.00  0.00     0.063 H 
ATOM      7  C   LIG d   1      12.358   5.173  -2.127  0.00  0.00     0.127 A 
ATOM      8  C   LIG d   1      13.079   4.356  -2.988  0.00  0.00     0.022 A 
ATOM      9  C   LIG d   1      12.426   3.387  -3.729  0.00  0.00     0.131 A 
ATOM     10  H   LIG d   1      14.148   4.477  -3.079  0.00  0.00     0.069 H 
BRANCH   5  11
ATOM     11  C   LIG d   1      10.209   5.916  -1.068  0.00  0.00    -0.027 C 
ATOM     12  H   LIG d   1       9.463   5.326  -0.534  0.00  0.00     0.031 H 
ATOM     13  H   LIG d   1      10.894   6.369  -0.352  0.00  0.00     0.031 H 
BRANCH  11  14
ATOM     14  C   LIG d   1       9.509   7.014  -1.871  0.00  0.00    -0.061 C 
ATOM     15  H   LIG d   1       9.049   7.727  -1.188  0.00  0.00     0.023 H 
ATOM     16  H   LIG d   1      10.239   7.529  -2.496  0.00  0.00     0.023 H 
ATOM     17  H   LIG d   1       8.739   6.568  -2.503  0.00  0.00     0.023 H 
ENDBRANCH  11  14
ENDBRANCH   5  11
BRANCH   7  18
ATOM     18  O   LIG d   1      13.000   6.123  -1.402  0.00  0.00    -0.495 OA
BRANCH  18  19
ATOM     19  C   LIG d   1      13.567   7.217  -2.126  0.00  0.00     0.079 C 
ATOM     20  H   LIG d   1      14.654   7.125  -2.129  0.00  0.00     0.066 H 
ATOM     21  H   LIG d   1      13.198   7.205  -3.151  0.00  0.00     0.066 H 
ATOM     22  H   LIG d   1      13.283   8.154  -1.648  0.00  0.00     0.066 H 
ENDBRANCH  18  19
ENDBRANCH   7  18
BRANCH   9  23
ATOM     23  O   LIG d   1      13.125   2.586  -4.570  0.00  0.00    -0.506 OA
ATOM     24  H   LIG d   1      12.781   2.570  -5.474  0.00  0.00     0.292 HD
ENDBRANCH   9  23
ENDBRANCH   1   3
BRANCH   1  25
ATOM     25  C   LIG d   1       9.124   2.591  -5.205  0.00  0.00     0.036 C 
ATOM     26  H   LIG d   1       9.355   2.542  -6.177  0.00  0.00     0.039 H 
ATOM     27  H   LIG d   1       8.816   3.606  -4.956  0.00  0.00     0.039 H 
BRANCH  25  28
ATOM     28  C   LIG d   1       7.996   1.637  -4.907  0.00  0.00    -0.036 A 
ATOM     29  C   LIG d   1       7.327   1.715  -3.699  0.00  0.00    -0.013 A 
ATOM     30  C   LIG d   1       6.292   0.836  -3.428  0.00  0.00     0.162 A 
ATOM     31  H   LIG d   1       7.612   2.459  -2.969  0.00  0.00     0.066 H 
ATOM     32  C   LIG d   1       5.928  -0.118  -4.368  0.00  0.00     0.162 A 
ATOM     33  O   LIG d   1       5.624   0.903  -2.241  0.00  0.00    -0.488 OA
ATOM     34  C   LIG d   1       6.597  -0.193  -5.577  0.00  0.00    -0.016 A 
ATOM     35  O   LIG d   1       4.907  -0.981  -4.091  0.00  0.00    -0.488 OA
ATOM     36  C   LIG d   1       7.631   0.687  -5.843  0.00  0.00    -0.054 A 
ATOM     37  H   LIG d   1       6.318  -0.938  -6.307  0.00  0.00     0.066 H 
ATOM     38  H   LIG d   1       8.156   0.631  -6.785  0.00  0.00     0.062 H 
ATOM     39  C   LIG d   1       3.602  -0.402  -4.020  0.00  0.00     0.093 C 
ATOM     40  C   LIG d   1       3.342   0.173  -2.636  0.00  0.00     0.016 C 
ATOM     41  H   LIG d   1       3.522   0.395  -4.761  0.00  0.00     0.070 H 
ATOM     42  H   LIG d   1       2.858  -1.168  -4.235  0.00  0.00     0.070 H 
ATOM     43  C   LIG d   1       4.265   1.337  -2.310  0.00  0.00     0.093 C 
ATOM     44  H   LIG d   1       2.309   0.517  -2.585  0.00  0.00     0.033 H 
ATOM     45  H   LIG d   1       3.489  -0.611  -1.895  0.00  0.00     0.033 H 
ATOM     46  H   LIG d   1       4.171   2.097  -3.087  0.00  0.00     0.070 H 
ATOM     47  H   LIG d   1       3.976   1.767  -1.352  0.00  0.00     0.070 H 
ENDBRANCH  25  28
ENDBRANCH   1  25
TORSDOF 8
ENDMDL
