MODEL 1
REMARK VINA RESULT:      -4.2      0.000      0.000
REMARK  7 active torsions:
REMARK  status: ('A' for Active; 'I' for Inactive)
REMARK    1  A    between atoms: C_1  and  O_2 
REMARK    2  A    between atoms: O_2  and  C_3 
REMARK    3  A    between atoms: C_5  and  O_18 
REMARK    4  A    between atoms: C_7  and  O_17 
REMARK    5  A    between atoms: C_9  and  O_16 
REMARK    6  A    between atoms: C_11  and  C_14 
REMARK    7  A    between atoms: C_14  and  O_15 
ROOT
ATOM      1  C   LIG d   1       9.800   6.364  -1.737  0.00  0.00     0.188 C 
ATOM      2  H   LIG d   1       9.203   5.460  -1.863  0.00  0.00     0.094 H 
ATOM      3  C   LIG d   1      10.944   6.087  -0.758  0.00  0.00     0.134 C 
ATOM      4  H   LIG d   1      11.598   5.319  -1.169  0.00  0.00     0.067 H 
ATOM      5  C   LIG d   1      11.741   7.378  -0.540  0.00  0.00     0.114 C 
ATOM      6  H   LIG d   1      12.191   7.692  -1.481  0.00  0.00     0.065 H 
ATOM      7  C   LIG d   1      10.795   8.470  -0.034  0.00  0.00     0.112 C 
ATOM      8  H   LIG d   1      10.383   8.178   0.932  0.00  0.00     0.065 H 
ATOM      9  C   LIG d   1       9.657   8.655  -1.041  0.00  0.00     0.113 C 
ATOM     10  H   LIG d   1      10.065   8.987  -1.996  0.00  0.00     0.065 H 
ATOM     11  O   LIG d   1       8.976   7.411  -1.221  0.00  0.00    -0.341 OA
ENDROOT
BRANCH   1  12
ATOM     12  O   LIG d   1      10.338   6.760  -3.000  0.00  0.00    -0.352 OA
BRANCH  12  13
ATOM     13  C   LIG d   1       9.588   6.295  -4.124  0.00  0.00     0.040 C 
ATOM     14  H   LIG d   1      10.045   6.663  -5.042  0.00  0.00     0.052 H 
ATOM     15  H   LIG d   1       9.584   5.205  -4.132  0.00  0.00     0.052 H 
ATOM     16  H   LIG d   1       8.564   6.662  -4.054  0.00  0.00     0.052 H 
ENDBRANCH  12  13
ENDBRANCH   1  12
BRANCH   3  17
ATOM     17  O   LIG d   1      10.408   5.641   0.489  0.00  0.00    -0.384 OA
ATOM     18  H   LIG d   1       9.521   5.977   0.679  0.00  0.00     0.210 HD
ENDBRANCH   3  17
BRANCH   9  19
ATOM     19  C   LIG d   1       8.674   9.703  -0.515  0.00  0.00     0.073 C 
ATOM     20  H   LIG d   1       9.218  10.457   0.055  0.00  0.00     0.058 H 
ATOM     21  H   LIG d   1       7.939   9.220   0.130  0.00  0.00     0.058 H 
BRANCH  19  22
ATOM     22  O   LIG d   1       8.007  10.326  -1.614  0.00  0.00    -0.392 OA
ATOM     23  H   LIG d   1       7.924  11.285  -1.531  0.00  0.00     0.209 HD
ENDBRANCH  19  22
ENDBRANCH   9  19
BRANCH   5  24
ATOM     24  O   LIG d   1      12.768   7.147   0.428  0.00  0.00    -0.386 OA
ATOM     25  H   LIG d   1      13.334   7.913   0.592  0.00  0.00     0.210 HD
ENDBRANCH   5  24
BRANCH   7  26
ATOM     26  O   LIG d   1      11.513   9.698   0.104  0.00  0.00    -0.387 OA
ATOM     27  H   LIG d   1      12.034   9.759   0.917  0.00  0.00     0.210 HD
ENDBRANCH   7  26
TORSDOF 7
ENDMDL
MODEL 2
REMARK VINA RESULT:      -4.2      9.212     10.701
REMARK  7 active torsions:
REMARK  status: ('A' for Active; 'I' for Inactive)
REMARK    1  A    between atoms: C_1  and  O_2 
REMARK    2  A    between atoms: O_2  and  C_3 
REMARK    3  A    between atoms: C_5  and  O_18 
REMARK    4  A    between atoms: C_7  and  O_17 
REMARK    5  A    between atoms: C_9  and  O_16 
REMARK    6  A    between atoms: C_11  and  C_14 
REMARK    7  A    between atoms: C_14  and  O_15 
ROOT
ATOM      1  C   LIG d   1       6.615  -0.592  -4.193  0.00  0.00     0.188 C 
ATOM      2  H   LIG d   1       7.636  -0.257  -4.378  0.00  0.00     0.094 H 
ATOM      3  C   LIG d   1       5.930  -0.904  -5.525  0.00  0.00     0.134 C 
ATOM      4  H   LIG d   1       6.456  -1.719  -6.023  0.00  0.00     0.067 H 
ATOM      5  C   LIG d   1       4.478  -1.316  -5.260  0.00  0.00     0.114 C 
ATOM      6  H   LIG d   1       4.461  -2.230  -4.666  0.00  0.00     0.065 H 
ATOM      7  C   LIG d   1       3.773  -0.194  -4.493  0.00  0.00     0.112 C 
ATOM      8  H   LIG d   1       3.747   0.707  -5.107  0.00  0.00     0.065 H 
ATOM      9  C   LIG d   1       4.541   0.092  -3.200  0.00  0.00     0.113 C 
ATOM     10  H   LIG d   1       4.532  -0.797  -2.568  0.00  0.00     0.065 H 
ATOM     11  O   LIG d   1       5.891   0.438  -3.516  0.00  0.00    -0.341 OA
ENDROOT
BRANCH   1  12
ATOM     12  O   LIG d   1       6.639  -1.768  -3.381  0.00  0.00    -0.352 OA
BRANCH  12  13
ATOM     13  C   LIG d   1       7.658  -2.703  -3.742  0.00  0.00     0.040 C 
ATOM     14  H   LIG d   1       8.399  -2.207  -4.370  0.00  0.00     0.052 H 
ATOM     15  H   LIG d   1       8.140  -3.081  -2.841  0.00  0.00     0.052 H 
ATOM     16  H   LIG d   1       7.212  -3.532  -4.291  0.00  0.00     0.052 H 
ENDBRANCH  12  13
ENDBRANCH   1  12
BRANCH   3  17
ATOM     17  O   LIG d   1       5.953   0.257  -6.357  0.00  0.00    -0.384 OA
ATOM     18  H   LIG d   1       6.811   0.432  -6.766  0.00  0.00     0.210 HD
ENDBRANCH   3  17
BRANCH   9  19
ATOM     19  C   LIG d   1       3.877   1.252  -2.457  0.00  0.00     0.073 C 
ATOM     20  H   LIG d   1       4.590   1.692  -1.759  0.00  0.00     0.058 H 
ATOM     21  H   LIG d   1       3.011   0.884  -1.908  0.00  0.00     0.058 H 
BRANCH  19  22
ATOM     22  O   LIG d   1       3.457   2.244  -3.397  0.00  0.00    -0.392 OA
ATOM     23  H   LIG d   1       2.683   1.990  -3.917  0.00  0.00     0.209 HD
ENDBRANCH  19  22
ENDBRANCH   9  19
BRANCH   5  24
ATOM     24  O   LIG d   1       3.811  -1.541  -6.503  0.00  0.00    -0.386 OA
ATOM     25  H   LIG d   1       2.849  -1.454  -6.455  0.00  0.00     0.210 HD
ENDBRANCH   5  24
BRANCH   7  26
ATOM     26  O   LIG d   1       2.439  -0.596  -4.177  0.00  0.00    -0.387 OA
ATOM     27  H   LIG d   1       1.829   0.140  -4.036  0.00  0.00     0.210 HD
ENDBRANCH   7  26
TORSDOF 7
ENDMDL
MODEL 3
REMARK VINA RESULT:      -4.2      1.626      3.574
REMARK  7 active torsions:
REMARK  status: ('A' for Active; 'I' for Inactive)
REMARK    1  A    between atoms: C_1  and  O_2 
REMARK    2  A    between atoms: O_2  and  C_3 
REMARK    3  A    between atoms: C_5  and  O_18 
REMARK    4  A    between atoms: C_7  and  O_17 
REMARK    5  A    between atoms: C_9  and  O_16 
REMARK    6  A    between atoms: C_11  and  C_14 
REMARK    7  A    between atoms: C_14  and  O_15 
ROOT
ATOM      1  C   LIG d   1      12.116   8.862   0.378  0.00  0.00     0.188 C 
ATOM      2  H   LIG d   1      13.178   9.107   0.379  0.00  0.00     0.094 H 
ATOM      3  C   LIG d   1      11.935   7.379   0.043  0.00  0.00     0.134 C 
ATOM      4  H   LIG d   1      12.410   6.770   0.812  0.00  0.00     0.067 H 
ATOM      5  C   LIG d   1      10.438   7.056  -0.016  0.00  0.00     0.114 C 
ATOM      6  H   LIG d   1       9.991   7.222   0.963  0.00  0.00     0.065 H 
ATOM      7  C   LIG d   1       9.769   7.971  -1.046  0.00  0.00     0.112 C 
ATOM      8  H   LIG d   1      10.183   7.770  -2.035  0.00  0.00     0.065 H 
ATOM      9  C   LIG d   1      10.034   9.431  -0.669  0.00  0.00     0.113 C 
ATOM     10  H   LIG d   1       9.585   9.643   0.302  0.00  0.00     0.065 H 
ATOM     11  O   LIG d   1      11.444   9.656  -0.601  0.00  0.00    -0.341 OA
ENDROOT
BRANCH   1  12
ATOM     12  O   LIG d   1      11.564   9.130   1.669  0.00  0.00    -0.352 OA
BRANCH  12  13
ATOM     13  C   LIG d   1      12.303  10.087   2.431  0.00  0.00     0.040 C 
ATOM     14  H   LIG d   1      11.756  11.029   2.457  0.00  0.00     0.052 H 
ATOM     15  H   LIG d   1      12.437   9.716   3.446  0.00  0.00     0.052 H 
ATOM     16  H   LIG d   1      13.278  10.243   1.969  0.00  0.00     0.052 H 
ENDBRANCH  12  13
ENDBRANCH   1  12
BRANCH   3  17
ATOM     17  O   LIG d   1      12.534   7.100  -1.225  0.00  0.00    -0.384 OA
ATOM     18  H   LIG d   1      13.423   7.466  -1.329  0.00  0.00     0.210 HD
ENDBRANCH   3  17
BRANCH   9  19
ATOM     19  C   LIG d   1       9.420  10.351  -1.725  0.00  0.00     0.073 C 
ATOM     20  H   LIG d   1       9.648   9.965  -2.719  0.00  0.00     0.058 H 
ATOM     21  H   LIG d   1       9.836  11.353  -1.620  0.00  0.00     0.058 H 
BRANCH  19  22
ATOM     22  O   LIG d   1       8.003  10.403  -1.548  0.00  0.00    -0.392 OA
ATOM     23  H   LIG d   1       7.642   9.657  -1.049  0.00  0.00     0.209 HD
ENDBRANCH  19  22
ENDBRANCH   9  19
BRANCH   5  24
ATOM     24  O   LIG d   1      10.259   5.691  -0.399  0.00  0.00    -0.386 OA
ATOM     25  H   LIG d   1       9.572   5.229   0.101  0.00  0.00     0.210 HD
ENDBRANCH   5  24
BRANCH   7  26
ATOM     26  O   LIG d   1       8.361   7.729  -1.057  0.00  0.00    -0.387 OA
ATOM     27  H   LIG d   1       8.025   7.404  -1.904  0.00  0.00     0.210 HD
ENDBRANCH   7  26
TORSDOF 7
ENDMDL
MODEL 4
REMARK VINA RESULT:      -4.1      9.117     10.363
REMARK  7 active torsions:
REMARK  status: ('A' for Active; 'I' for Inactive)
REMARK    1  A    between atoms: C_1  and  O_2 
REMARK    2  A    between atoms: O_2  and  C_3 
REMARK    3  A    between atoms: C_5  and  O_18 
REMARK    4  A    between atoms: C_7  and  O_17 
REMARK    5  A    between atoms: C_9  and  O_16 
REMARK    6  A    between atoms: C_11  and  C_14 
REMARK    7  A    between atoms: C_14  and  O_15 
ROOT
ATOM      1  C   LIG d   1       5.432  -1.647  -3.843  0.00  0.00     0.188 C 
ATOM      2  H   LIG d   1       5.573  -2.725  -3.762  0.00  0.00     0.094 H 
ATOM      3  C   LIG d   1       5.273  -1.046  -2.445  0.00  0.00     0.134 C 
ATOM      4  H   LIG d   1       6.185  -1.214  -1.870  0.00  0.00     0.067 H 
ATOM      5  C   LIG d   1       5.015   0.459  -2.571  0.00  0.00     0.114 C 
ATOM      6  H   LIG d   1       5.878   0.940  -3.032  0.00  0.00     0.065 H 
ATOM      7  C   LIG d   1       3.777   0.683  -3.443  0.00  0.00     0.112 C 
ATOM      8  H   LIG d   1       2.905   0.244  -2.957  0.00  0.00     0.065 H 
ATOM      9  C   LIG d   1       3.992   0.014  -4.803  0.00  0.00     0.113 C 
ATOM     10  H   LIG d   1       4.840   0.480  -5.307  0.00  0.00     0.065 H 
ATOM     11  O   LIG d   1       4.258  -1.377  -4.613  0.00  0.00    -0.341 OA
ENDROOT
BRANCH   1  12
ATOM     12  O   LIG d   1       6.567  -1.065  -4.487  0.00  0.00    -0.352 OA
BRANCH  12  13
ATOM     13  C   LIG d   1       7.583  -2.007  -4.838  0.00  0.00     0.040 C 
ATOM     14  H   LIG d   1       7.218  -3.018  -4.657  0.00  0.00     0.052 H 
ATOM     15  H   LIG d   1       7.835  -1.894  -5.892  0.00  0.00     0.052 H 
ATOM     16  H   LIG d   1       8.471  -1.826  -4.231  0.00  0.00     0.052 H 
ENDBRANCH  12  13
ENDBRANCH   1  12
BRANCH   3  17
ATOM     17  O   LIG d   1       4.170  -1.666  -1.781  0.00  0.00    -0.384 OA
ATOM     18  H   LIG d   1       3.825  -1.158  -1.033  0.00  0.00     0.210 HD
ENDBRANCH   3  17
BRANCH   9  19
ATOM     19  C   LIG d   1       2.736   0.181  -5.660  0.00  0.00     0.073 C 
ATOM     20  H   LIG d   1       1.876   0.354  -5.013  0.00  0.00     0.058 H 
ATOM     21  H   LIG d   1       2.574  -0.723  -6.246  0.00  0.00     0.058 H 
BRANCH  19  22
ATOM     22  O   LIG d   1       2.903   1.295  -6.540  0.00  0.00    -0.392 OA
ATOM     23  H   LIG d   1       3.801   1.652  -6.556  0.00  0.00     0.209 HD
ENDBRANCH  19  22
ENDBRANCH   9  19
BRANCH   5  24
ATOM     24  O   LIG d   1       4.795   1.016  -1.274  0.00  0.00    -0.386 OA
ATOM     25  H   LIG d   1       4.647   1.972  -1.275  0.00  0.00     0.210 HD
ENDBRANCH   5  24
BRANCH   7  26
ATOM     26  O   LIG d   1       3.568   2.084  -3.628  0.00  0.00    -0.387 OA
ATOM     27  H   LIG d   1       4.296   2.635  -3.308  0.00  0.00     0.210 HD
ENDBRANCH   7  26
TORSDOF 7
ENDMDL
MODEL 5
REMARK VINA RESULT:      -4.1      1.844      4.405
REMARK  7 active torsions:
REMARK  status: ('A' for Active; 'I' for Inactive)
REMARK    1  A    between atoms: C_1  and  O_2 
REMARK    2  A    between atoms: O_2  and  C_3 
REMARK    3  A    between atoms: C_5  and  O_18 
REMARK    4  A    between atoms: C_7  and  O_17 
REMARK    5  A    between atoms: C_9  and  O_16 
REMARK    6  A    between atoms: C_11  and  C_14 
REMARK    7  A    between atoms: C_14  and  O_15 
ROOT
ATOM      1  C   LIG d   1      11.611  10.425  -0.745  0.00  0.00     0.188 C 
ATOM      2  H   LIG d   1      12.249  11.172  -0.270  0.00  0.00     0.094 H 
ATOM      3  C   LIG d   1      10.203  10.997  -0.924  0.00  0.00     0.134 C 
ATOM      4  H   LIG d   1      10.241  11.863  -1.586  0.00  0.00     0.067 H 
ATOM      5  C   LIG d   1       9.298   9.923  -1.536  0.00  0.00     0.114 C 
ATOM      6  H   LIG d   1       9.666   9.657  -2.526  0.00  0.00     0.065 H 
ATOM      7  C   LIG d   1       9.312   8.685  -0.634  0.00  0.00     0.112 C 
ATOM      8  H   LIG d   1       8.898   8.939   0.341  0.00  0.00     0.065 H 
ATOM      9  C   LIG d   1      10.755   8.202  -0.466  0.00  0.00     0.113 C 
ATOM     10  H   LIG d   1      11.156   7.909  -1.437  0.00  0.00     0.065 H 
ATOM     11  O   LIG d   1      11.549   9.259   0.078  0.00  0.00    -0.341 OA
ENDROOT
BRANCH   1  12
ATOM     12  O   LIG d   1      12.151  10.079  -2.022  0.00  0.00    -0.352 OA
BRANCH  12  13
ATOM     13  C   LIG d   1      12.668  11.192  -2.756  0.00  0.00     0.040 C 
ATOM     14  H   LIG d   1      13.733  11.045  -2.934  0.00  0.00     0.052 H 
ATOM     15  H   LIG d   1      12.147  11.271  -3.710  0.00  0.00     0.052 H 
ATOM     16  H   LIG d   1      12.517  12.106  -2.182  0.00  0.00     0.052 H 
ENDBRANCH  12  13
ENDBRANCH   1  12
BRANCH   3  17
ATOM     17  O   LIG d   1       9.683  11.392   0.347  0.00  0.00    -0.384 OA
ATOM     18  H   LIG d   1      10.238  11.136   1.096  0.00  0.00     0.210 HD
ENDBRANCH   3  17
BRANCH   9  19
ATOM     19  C   LIG d   1      10.785   7.001   0.481  0.00  0.00     0.073 C 
ATOM     20  H   LIG d   1      10.159   7.208   1.350  0.00  0.00     0.058 H 
ATOM     21  H   LIG d   1      11.810   6.821   0.807  0.00  0.00     0.058 H 
BRANCH  19  22
ATOM     22  O   LIG d   1      10.291   5.845  -0.198  0.00  0.00    -0.392 OA
ATOM     23  H   LIG d   1      10.975   5.200  -0.425  0.00  0.00     0.209 HD
ENDBRANCH  19  22
ENDBRANCH   9  19
BRANCH   5  24
ATOM     24  O   LIG d   1       7.964  10.424  -1.640  0.00  0.00    -0.386 OA
ATOM     25  H   LIG d   1       7.341   9.807  -2.048  0.00  0.00     0.210 HD
ENDBRANCH   5  24
BRANCH   7  26
ATOM     26  O   LIG d   1       8.529   7.650  -1.231  0.00  0.00    -0.387 OA
ATOM     27  H   LIG d   1       7.628   7.918  -1.456  0.00  0.00     0.210 HD
ENDBRANCH   7  26
TORSDOF 7
ENDMDL
MODEL 6
REMARK VINA RESULT:      -4.0      1.788      3.876
REMARK  7 active torsions:
REMARK  status: ('A' for Active; 'I' for Inactive)
REMARK    1  A    between atoms: C_1  and  O_2 
REMARK    2  A    between atoms: O_2  and  C_3 
REMARK    3  A    between atoms: C_5  and  O_18 
REMARK    4  A    between atoms: C_7  and  O_17 
REMARK    5  A    between atoms: C_9  and  O_16 
REMARK    6  A    between atoms: C_11  and  C_14 
REMARK    7  A    between atoms: C_14  and  O_15 
ROOT
ATOM      1  C   LIG d   1      10.835   7.823  -0.815  0.00  0.00     0.188 C 
ATOM      2  H   LIG d   1      11.378   7.128  -1.456  0.00  0.00     0.094 H 
ATOM      3  C   LIG d   1       9.723   8.499  -1.622  0.00  0.00     0.134 C 
ATOM      4  H   LIG d   1       9.012   7.747  -1.964  0.00  0.00     0.067 H 
ATOM      5  C   LIG d   1       9.004   9.518  -0.732  0.00  0.00     0.114 C 
ATOM      6  H   LIG d   1       8.530   9.003   0.103  0.00  0.00     0.065 H 
ATOM      7  C   LIG d   1      10.028  10.524  -0.197  0.00  0.00     0.112 C 
ATOM      8  H   LIG d   1      10.467  11.074  -1.029  0.00  0.00     0.065 H 
ATOM      9  C   LIG d   1      11.128   9.770   0.554  0.00  0.00     0.113 C 
ATOM     10  H   LIG d   1      10.695   9.253   1.411  0.00  0.00     0.065 H 
ATOM     11  O   LIG d   1      11.735   8.817  -0.321  0.00  0.00    -0.341 OA
ENDROOT
BRANCH   1  12
ATOM     12  O   LIG d   1      10.262   7.111   0.283  0.00  0.00    -0.352 OA
BRANCH  12  13
ATOM     13  C   LIG d   1      11.075   6.042   0.771  0.00  0.00     0.040 C 
ATOM     14  H   LIG d   1      11.589   6.362   1.677  0.00  0.00     0.052 H 
ATOM     15  H   LIG d   1      10.446   5.180   0.995  0.00  0.00     0.052 H 
ATOM     16  H   LIG d   1      11.809   5.769   0.012  0.00  0.00     0.052 H 
ENDBRANCH  12  13
ENDBRANCH   1  12
BRANCH   3  17
ATOM     17  O   LIG d   1      10.290   9.167  -2.751  0.00  0.00    -0.384 OA
ATOM     18  H   LIG d   1       9.935   8.874  -3.601  0.00  0.00     0.210 HD
ENDBRANCH   3  17
BRANCH   9  19
ATOM     19  C   LIG d   1      12.186  10.762   1.041  0.00  0.00     0.073 C 
ATOM     20  H   LIG d   1      12.314  11.550   0.298  0.00  0.00     0.058 H 
ATOM     21  H   LIG d   1      13.133  10.242   1.185  0.00  0.00     0.058 H 
BRANCH  19  22
ATOM     22  O   LIG d   1      11.766  11.339   2.279  0.00  0.00    -0.392 OA
ATOM     23  H   LIG d   1      11.718  12.305   2.267  0.00  0.00     0.209 HD
ENDBRANCH  19  22
ENDBRANCH   9  19
BRANCH   5  24
ATOM     24  O   LIG d   1       8.012  10.204  -1.497  0.00  0.00    -0.386 OA
ATOM     25  H   LIG d   1       7.126   9.823  -1.425  0.00  0.00     0.210 HD
ENDBRANCH   5  24
BRANCH   7  26
ATOM     26  O   LIG d   1       9.381  11.436   0.692  0.00  0.00    -0.387 OA
ATOM     27  H   LIG d   1       8.676  11.954   0.281  0.00  0.00     0.210 HD
ENDBRANCH   7  26
TORSDOF 7
ENDMDL
MODEL 7
REMARK VINA RESULT:      -4.0      9.795     11.245
REMARK  7 active torsions:
REMARK  status: ('A' for Active; 'I' for Inactive)
REMARK    1  A    between atoms: C_1  and  O_2 
REMARK    2  A    between atoms: O_2  and  C_3 
REMARK    3  A    between atoms: C_5  and  O_18 
REMARK    4  A    between atoms: C_7  and  O_17 
REMARK    5  A    between atoms: C_9  and  O_16 
REMARK    6  A    between atoms: C_11  and  C_14 
REMARK    7  A    between atoms: C_14  and  O_15 
ROOT
ATOM      1  C   LIG d   1       5.664  -0.651  -5.786  0.00  0.00     0.188 C 
ATOM      2  H   LIG d   1       5.842  -0.337  -6.815  0.00  0.00     0.094 H 
ATOM      3  C   LIG d   1       5.165  -2.098  -5.774  0.00  0.00     0.134 C 
ATOM      4  H   LIG d   1       5.932  -2.753  -6.187  0.00  0.00     0.067 H 
ATOM      5  C   LIG d   1       4.860  -2.512  -4.330  0.00  0.00     0.114 C 
ATOM      6  H   LIG d   1       5.776  -2.482  -3.741  0.00  0.00     0.065 H 
ATOM      7  C   LIG d   1       3.837  -1.539  -3.737  0.00  0.00     0.112 C 
ATOM      8  H   LIG d   1       2.904  -1.604  -4.296  0.00  0.00     0.065 H 
ATOM      9  C   LIG d   1       4.388  -0.113  -3.828  0.00  0.00     0.113 C 
ATOM     10  H   LIG d   1       5.300  -0.037  -3.235  0.00  0.00     0.065 H 
ATOM     11  O   LIG d   1       4.680   0.197  -5.193  0.00  0.00    -0.341 OA
ENDROOT
BRANCH   1  12
ATOM     12  O   LIG d   1       6.882  -0.560  -5.043  0.00  0.00    -0.352 OA
BRANCH  12  13
ATOM     13  C   LIG d   1       8.034  -1.018  -5.755  0.00  0.00     0.040 C 
ATOM     14  H   LIG d   1       8.636  -0.161  -6.058  0.00  0.00     0.052 H 
ATOM     15  H   LIG d   1       8.624  -1.668  -5.110  0.00  0.00     0.052 H 
ATOM     16  H   LIG d   1       7.718  -1.572  -6.639  0.00  0.00     0.052 H 
ENDBRANCH  12  13
ENDBRANCH   1  12
BRANCH   3  17
ATOM     17  O   LIG d   1       3.976  -2.199  -6.561  0.00  0.00    -0.384 OA
ATOM     18  H   LIG d   1       3.920  -1.550  -7.275  0.00  0.00     0.210 HD
ENDBRANCH   3  17
BRANCH   9  19
ATOM     19  C   LIG d   1       3.348   0.872  -3.292  0.00  0.00     0.073 C 
ATOM     20  H   LIG d   1       2.354   0.432  -3.377  0.00  0.00     0.058 H 
ATOM     21  H   LIG d   1       3.388   1.794  -3.872  0.00  0.00     0.058 H 
BRANCH  19  22
ATOM     22  O   LIG d   1       3.626   1.160  -1.920  0.00  0.00    -0.392 OA
ATOM     23  H   LIG d   1       3.619   2.103  -1.707  0.00  0.00     0.209 HD
ENDBRANCH  19  22
ENDBRANCH   9  19
BRANCH   5  24
ATOM     24  O   LIG d   1       4.326  -3.837  -4.316  0.00  0.00    -0.386 OA
ATOM     25  H   LIG d   1       4.291  -4.238  -3.438  0.00  0.00     0.210 HD
ENDBRANCH   5  24
BRANCH   7  26
ATOM     26  O   LIG d   1       3.600  -1.871  -2.368  0.00  0.00    -0.387 OA
ATOM     27  H   LIG d   1       4.403  -1.932  -1.833  0.00  0.00     0.210 HD
ENDBRANCH   7  26
TORSDOF 7
ENDMDL
MODEL 8
REMARK VINA RESULT:      -4.0     19.268     21.220
REMARK  7 active torsions:
REMARK  status: ('A' for Active; 'I' for Inactive)
REMARK    1  A    between atoms: C_1  and  O_2 
REMARK    2  A    between atoms: O_2  and  C_3 
REMARK    3  A    between atoms: C_5  and  O_18 
REMARK    4  A    between atoms: C_7  and  O_17 
REMARK    5  A    between atoms: C_9  and  O_16 
REMARK    6  A    between atoms: C_11  and  C_14 
REMARK    7  A    between atoms: C_14  and  O_15 
ROOT
ATOM      1  C   LIG d   1      -2.856  -6.238 -12.124  0.00  0.00     0.188 C 
ATOM      2  H   LIG d   1      -3.017  -5.804 -13.111  0.00  0.00     0.094 H 
ATOM      3  C   LIG d   1      -3.642  -5.439 -11.082  0.00  0.00     0.134 C 
ATOM      4  H   LIG d   1      -4.709  -5.507 -11.298  0.00  0.00     0.067 H 
ATOM      5  C   LIG d   1      -3.363  -6.017  -9.690  0.00  0.00     0.114 C 
ATOM      6  H   LIG d   1      -3.720  -7.045  -9.644  0.00  0.00     0.065 H 
ATOM      7  C   LIG d   1      -1.855  -5.986  -9.429  0.00  0.00     0.112 C 
ATOM      8  H   LIG d   1      -1.507  -4.953  -9.426  0.00  0.00     0.065 H 
ATOM      9  C   LIG d   1      -1.137  -6.763 -10.535  0.00  0.00     0.113 C 
ATOM     10  H   LIG d   1      -1.455  -7.806 -10.512  0.00  0.00     0.065 H 
ATOM     11  O   LIG d   1      -1.464  -6.194 -11.805  0.00  0.00    -0.341 OA
ENDROOT
BRANCH   1  12
ATOM     12  O   LIG d   1      -3.302  -7.595 -12.121  0.00  0.00    -0.352 OA
BRANCH  12  13
ATOM     13  C   LIG d   1      -3.149  -8.261 -13.376  0.00  0.00     0.040 C 
ATOM     14  H   LIG d   1      -4.131  -8.534 -13.764  0.00  0.00     0.052 H 
ATOM     15  H   LIG d   1      -2.651  -7.596 -14.081  0.00  0.00     0.052 H 
ATOM     16  H   LIG d   1      -2.549  -9.161 -13.239  0.00  0.00     0.052 H 
ENDBRANCH  12  13
ENDBRANCH   1  12
BRANCH   3  17
ATOM     17  O   LIG d   1      -3.233  -4.070 -11.121  0.00  0.00    -0.384 OA
ATOM     18  H   LIG d   1      -2.421  -3.917 -11.622  0.00  0.00     0.210 HD
ENDBRANCH   3  17
BRANCH   9  19
ATOM     19  C   LIG d   1       0.375  -6.687 -10.315  0.00  0.00     0.073 C 
ATOM     20  H   LIG d   1       0.878  -6.610 -11.279  0.00  0.00     0.058 H 
ATOM     21  H   LIG d   1       0.712  -7.585  -9.799  0.00  0.00     0.058 H 
BRANCH  19  22
ATOM     22  O   LIG d   1       0.684  -5.538  -9.524  0.00  0.00    -0.392 OA
ATOM     23  H   LIG d   1       0.696  -4.709 -10.021  0.00  0.00     0.209 HD
ENDBRANCH  19  22
ENDBRANCH   9  19
BRANCH   5  24
ATOM     24  O   LIG d   1      -4.037  -5.233  -8.703  0.00  0.00    -0.386 OA
ATOM     25  H   LIG d   1      -3.567  -4.427  -8.452  0.00  0.00     0.210 HD
ENDBRANCH   5  24
BRANCH   7  26
ATOM     26  O   LIG d   1      -1.576  -6.589  -8.164  0.00  0.00    -0.387 OA
ATOM     27  H   LIG d   1      -2.056  -7.413  -8.007  0.00  0.00     0.210 HD
ENDBRANCH   7  26
TORSDOF 7
ENDMDL
MODEL 9
REMARK VINA RESULT:      -3.9      1.580      4.387
REMARK  7 active torsions:
REMARK  status: ('A' for Active; 'I' for Inactive)
REMARK    1  A    between atoms: C_1  and  O_2 
REMARK    2  A    between atoms: O_2  and  C_3 
REMARK    3  A    between atoms: C_5  and  O_18 
REMARK    4  A    between atoms: C_7  and  O_17 
REMARK    5  A    between atoms: C_9  and  O_16 
REMARK    6  A    between atoms: C_11  and  C_14 
REMARK    7  A    between atoms: C_14  and  O_15 
ROOT
ATOM      1  C   LIG d   1      10.238   7.528  -0.059  0.00  0.00     0.188 C 
ATOM      2  H   LIG d   1       9.814   7.553   0.945  0.00  0.00     0.094 H 
ATOM      3  C   LIG d   1       9.497   8.528  -0.950  0.00  0.00     0.134 C 
ATOM      4  H   LIG d   1       9.636   9.537  -0.561  0.00  0.00     0.067 H 
ATOM      5  C   LIG d   1      10.058   8.444  -2.374  0.00  0.00     0.114 C 
ATOM      6  H   LIG d   1      11.109   8.734  -2.369  0.00  0.00     0.065 H 
ATOM      7  C   LIG d   1       9.926   7.005  -2.879  0.00  0.00     0.112 C 
ATOM      8  H   LIG d   1       8.872   6.732  -2.931  0.00  0.00     0.065 H 
ATOM      9  C   LIG d   1      10.650   6.064  -1.913  0.00  0.00     0.113 C 
ATOM     10  H   LIG d   1      11.712   6.311  -1.892  0.00  0.00     0.065 H 
ATOM     11  O   LIG d   1      10.101   6.214  -0.602  0.00  0.00    -0.341 OA
ENDROOT
BRANCH   1  12
ATOM     12  O   LIG d   1      11.623   7.877   0.000  0.00  0.00    -0.352 OA
BRANCH  12  13
ATOM     13  C   LIG d   1      11.963   8.723   1.101  0.00  0.00     0.040 C 
ATOM     14  H   LIG d   1      11.560   9.721   0.929  0.00  0.00     0.052 H 
ATOM     15  H   LIG d   1      11.541   8.313   2.018  0.00  0.00     0.052 H 
ATOM     16  H   LIG d   1      13.048   8.779   1.193  0.00  0.00     0.052 H 
ENDBRANCH  12  13
ENDBRANCH   1  12
BRANCH   3  17
ATOM     17  O   LIG d   1       8.104   8.211  -0.967  0.00  0.00    -0.384 OA
ATOM     18  H   LIG d   1       7.588   8.670  -0.290  0.00  0.00     0.210 HD
ENDBRANCH   3  17
BRANCH   9  19
ATOM     19  C   LIG d   1      10.472   4.618  -2.379  0.00  0.00     0.073 C 
ATOM     20  H   LIG d   1      10.867   4.510  -3.389  0.00  0.00     0.058 H 
ATOM     21  H   LIG d   1       9.412   4.362  -2.373  0.00  0.00     0.058 H 
BRANCH  19  22
ATOM     22  O   LIG d   1      11.177   3.742  -1.496  0.00  0.00    -0.392 OA
ATOM     23  H   LIG d   1      11.038   2.803  -1.680  0.00  0.00     0.209 HD
ENDBRANCH  19  22
ENDBRANCH   9  19
BRANCH   5  24
ATOM     24  O   LIG d   1       9.324   9.323  -3.229  0.00  0.00    -0.386 OA
ATOM     25  H   LIG d   1       8.625   8.887  -3.735  0.00  0.00     0.210 HD
ENDBRANCH   5  24
BRANCH   7  26
ATOM     26  O   LIG d   1      10.512   6.899  -4.178  0.00  0.00    -0.387 OA
ATOM     27  H   LIG d   1       9.988   7.308  -4.880  0.00  0.00     0.210 HD
ENDBRANCH   7  26
TORSDOF 7
ENDMDL
MODEL 10
REMARK VINA RESULT:      -3.9      1.480      4.066
REMARK  7 active torsions:
REMARK  status: ('A' for Active; 'I' for Inactive)
REMARK    1  A    between atoms: C_1  and  O_2 
REMARK    2  A    between atoms: O_2  and  C_3 
REMARK    3  A    between atoms: C_5  and  O_18 
REMARK    4  A    between atoms: C_7  and  O_17 
REMARK    5  A    between atoms: C_9  and  O_16 
REMARK    6  A    between atoms: C_11  and  C_14 
REMARK    7  A    between atoms: C_14  and  O_15 
ROOT
ATOM      1  C   LIG d   1      10.200   9.215  -0.463  0.00  0.00     0.188 C 
ATOM      2  H   LIG d   1       9.719  10.033   0.074  0.00  0.00     0.094 H 
ATOM      3  C   LIG d   1       9.227   8.639  -1.494  0.00  0.00     0.134 C 
ATOM      4  H   LIG d   1       8.973   9.406  -2.226  0.00  0.00     0.067 H 
ATOM      5  C   LIG d   1       9.889   7.452  -2.202  0.00  0.00     0.114 C 
ATOM      6  H   LIG d   1      10.768   7.797  -2.747  0.00  0.00     0.065 H 
ATOM      7  C   LIG d   1      10.309   6.416  -1.156  0.00  0.00     0.112 C 
ATOM      8  H   LIG d   1       9.424   6.035  -0.645  0.00  0.00     0.065 H 
ATOM      9  C   LIG d   1      11.240   7.079  -0.138  0.00  0.00     0.113 C 
ATOM     10  H   LIG d   1      12.144   7.424  -0.642  0.00  0.00     0.065 H 
ATOM     11  O   LIG d   1      10.574   8.193   0.462  0.00  0.00    -0.341 OA
ENDROOT
BRANCH   1  12
ATOM     12  O   LIG d   1      11.366   9.705  -1.130  0.00  0.00    -0.352 OA
BRANCH  12  13
ATOM     13  C   LIG d   1      11.187  10.976  -1.758  0.00  0.00     0.040 C 
ATOM     14  H   LIG d   1      11.406  10.888  -2.822  0.00  0.00     0.052 H 
ATOM     15  H   LIG d   1      10.157  11.304  -1.625  0.00  0.00     0.052 H 
ATOM     16  H   LIG d   1      11.862  11.702  -1.306  0.00  0.00     0.052 H 
ENDBRANCH  12  13
ENDBRANCH   1  12
BRANCH   3  17
ATOM     17  O   LIG d   1       8.038   8.198  -0.834  0.00  0.00    -0.384 OA
ATOM     18  H   LIG d   1       7.643   8.860  -0.252  0.00  0.00     0.210 HD
ENDBRANCH   3  17
BRANCH   9  19
ATOM     19  C   LIG d   1      11.617   6.066   0.946  0.00  0.00     0.073 C 
ATOM     20  H   LIG d   1      11.937   6.597   1.843  0.00  0.00     0.058 H 
ATOM     21  H   LIG d   1      12.430   5.436   0.586  0.00  0.00     0.058 H 
BRANCH  19  22
ATOM     22  O   LIG d   1      10.483   5.252   1.252  0.00  0.00    -0.392 OA
ATOM     23  H   LIG d   1      10.684   4.308   1.321  0.00  0.00     0.209 HD
ENDBRANCH  19  22
ENDBRANCH   9  19
BRANCH   5  24
ATOM     24  O   LIG d   1       8.962   6.863  -3.116  0.00  0.00    -0.386 OA
ATOM     25  H   LIG d   1       9.340   6.653  -3.981  0.00  0.00     0.210 HD
ENDBRANCH   5  24
BRANCH   7  26
ATOM     26  O   LIG d   1      10.993   5.339  -1.797  0.00  0.00    -0.387 OA
ATOM     27  H   LIG d   1      10.921   4.494  -1.331  0.00  0.00     0.210 HD
ENDBRANCH   7  26
TORSDOF 7
ENDMDL
