MODEL 1
REMARK VINA RESULT:      -7.7      0.000      0.000
REMARK  3 active torsions:
REMARK  status: ('A' for Active; 'I' for Inactive)
REMARK    1  A    between atoms: C_7  and  N_12 
REMARK    2  A    between atoms: C_13  and  C_19 
REMARK       I    between atoms: C_19  and  N_21 
REMARK    3  A    between atoms: N_21  and  C_22 
ROOT
ATOM      1  N   LIG d   1       5.196  -0.116  -3.259  0.00  0.00    -0.251 N 
ATOM      2  C   LIG d   1       4.378  -1.056  -4.035  0.00  0.00     0.107 C 
ATOM      3  H   LIG d   1       4.930  -1.980  -4.211  0.00  0.00     0.060 H 
ATOM      4  C   LIG d   1       3.132  -1.337  -3.166  0.00  0.00    -0.017 C 
ATOM      5  C   LIG d   1       3.056  -0.052  -2.305  0.00  0.00     0.026 C 
ATOM      6  C   LIG d   1       4.477   0.467  -2.285  0.00  0.00     0.219 C 
ATOM      7  O   LIG d   1       4.905   1.290  -1.503  0.00  0.00    -0.276 OA
ATOM      8  H   LIG d   1       2.242  -1.447  -3.784  0.00  0.00     0.029 H 
ATOM      9  H   LIG d   1       3.283  -2.217  -2.540  0.00  0.00     0.029 H 
ATOM     10  H   LIG d   1       2.722  -0.288  -1.295  0.00  0.00     0.036 H 
ATOM     11  H   LIG d   1       2.390   0.678  -2.767  0.00  0.00     0.036 H 
ENDROOT
BRANCH   2  12
ATOM     12  C   LIG d   1       3.970  -0.436  -5.346  0.00  0.00     0.238 C 
ATOM     13  O   LIG d   1       3.456   0.663  -5.362  0.00  0.00    -0.273 OA
ATOM     14  N   LIG d   1       4.177  -1.101  -6.499  0.00  0.00    -0.284 N 
ATOM     15  H   LIG d   1       4.515  -2.010  -6.482  0.00  0.00     0.155 HD
BRANCH  14  16
ATOM     16  C   LIG d   1       3.903  -0.481  -7.723  0.00  0.00     0.035 A 
ATOM     17  C   LIG d   1       2.758  -0.815  -8.433  0.00  0.00    -0.022 A 
ATOM     18  C   LIG d   1       2.491  -0.201  -9.643  0.00  0.00     0.043 A 
ATOM     19  H   LIG d   1       2.077  -1.555  -8.040  0.00  0.00     0.065 H 
ATOM     20  C   LIG d   1       3.364   0.748 -10.145  0.00  0.00    -0.043 A 
ATOM     21 CL   LIG d   1       1.060  -0.620 -10.530  0.00  0.00    -0.084 Cl
ATOM     22  C   LIG d   1       4.505   1.083  -9.440  0.00  0.00    -0.059 A 
ATOM     23  H   LIG d   1       3.154   1.226 -11.090  0.00  0.00     0.063 H 
ATOM     24  C   LIG d   1       4.777   0.472  -8.232  0.00  0.00    -0.040 A 
ATOM     25  H   LIG d   1       5.185   1.824  -9.835  0.00  0.00     0.062 H 
ATOM     26  H   LIG d   1       5.671   0.732  -7.684  0.00  0.00     0.064 H 
ENDBRANCH  14  16
ENDBRANCH   2  12
BRANCH   1  27
ATOM     27  C   LIG d   1       6.614   0.152  -3.514  0.00  0.00     0.201 A 
ATOM     28  C   LIG d   1       7.263  -1.055  -4.142  0.00  0.00     0.025 A 
ATOM     29  C   LIG d   1       7.736  -0.641  -5.391  0.00  0.00     0.067 A 
ATOM     30  C   LIG d   1       7.445  -2.353  -3.724  0.00  0.00    -0.053 A 
ATOM     31  C   LIG d   1       8.394  -1.558  -6.213  0.00  0.00    -0.047 A 
ATOM     32  C   LIG d   1       7.399   0.785  -5.558  0.00  0.00     0.342 A 
ATOM     33  C   LIG d   1       8.571  -2.859  -5.782  0.00  0.00    -0.061 A 
ATOM     34  H   LIG d   1       8.763  -1.251  -7.180  0.00  0.00     0.063 H 
ATOM     35  C   LIG d   1       8.099  -3.257  -4.543  0.00  0.00    -0.061 A 
ATOM     36  H   LIG d   1       9.080  -3.570  -6.418  0.00  0.00     0.062 H 
ATOM     37  H   LIG d   1       8.241  -4.277  -4.216  0.00  0.00     0.062 H 
ATOM     38  O   LIG d   1       6.751   1.238  -4.471  0.00  0.00    -0.435 OA
ATOM     39  O   LIG d   1       7.669   1.453  -6.536  0.00  0.00    -0.245 OA
ATOM     40  H   LIG d   1       7.079  -2.667  -2.758  0.00  0.00     0.062 H 
ATOM     41  H   LIG d   1       7.118   0.409  -2.582  0.00  0.00     0.101 H 
ENDBRANCH   1  27
TORSDOF 3
ENDMDL
MODEL 2
REMARK VINA RESULT:      -7.4      2.155      4.336
REMARK  3 active torsions:
REMARK  status: ('A' for Active; 'I' for Inactive)
REMARK    1  A    between atoms: C_7  and  N_12 
REMARK    2  A    between atoms: C_13  and  C_19 
REMARK       I    between atoms: C_19  and  N_21 
REMARK    3  A    between atoms: N_21  and  C_22 
ROOT
ATOM      1  N   LIG d   1       7.652  -1.184  -4.689  0.00  0.00    -0.251 N 
ATOM      2  C   LIG d   1       7.190   0.021  -5.390  0.00  0.00     0.107 C 
ATOM      3  H   LIG d   1       6.683   0.690  -4.694  0.00  0.00     0.060 H 
ATOM      4  C   LIG d   1       8.465   0.694  -5.944  0.00  0.00    -0.017 C 
ATOM      5  C   LIG d   1       9.428  -0.513  -6.065  0.00  0.00     0.026 C 
ATOM      6  C   LIG d   1       8.904  -1.510  -5.055  0.00  0.00     0.219 C 
ATOM      7  O   LIG d   1       9.523  -2.465  -4.634  0.00  0.00    -0.276 OA
ATOM      8  H   LIG d   1       8.278   1.144  -6.918  0.00  0.00     0.029 H 
ATOM      9  H   LIG d   1       8.854   1.433  -5.242  0.00  0.00     0.029 H 
ATOM     10  H   LIG d   1      10.446  -0.217  -5.815  0.00  0.00     0.036 H 
ATOM     11  H   LIG d   1       9.387  -0.933  -7.071  0.00  0.00     0.036 H 
ENDROOT
BRANCH   2  12
ATOM     12  C   LIG d   1       6.266  -0.354  -6.519  0.00  0.00     0.238 C 
ATOM     13  O   LIG d   1       6.294  -1.476  -6.978  0.00  0.00    -0.273 OA
ATOM     14  N   LIG d   1       5.408   0.558  -7.019  0.00  0.00    -0.284 N 
ATOM     15  H   LIG d   1       5.440   1.476  -6.707  0.00  0.00     0.155 HD
BRANCH  14  16
ATOM     16  C   LIG d   1       4.473   0.181  -7.989  0.00  0.00     0.035 A 
ATOM     17  C   LIG d   1       4.761   0.348  -9.336  0.00  0.00    -0.022 A 
ATOM     18  C   LIG d   1       3.834  -0.025 -10.292  0.00  0.00     0.043 A 
ATOM     19  H   LIG d   1       5.709   0.769  -9.637  0.00  0.00     0.065 H 
ATOM     20  C   LIG d   1       2.621  -0.566  -9.906  0.00  0.00    -0.043 A 
ATOM     21 CL   LIG d   1       4.194   0.185 -11.977  0.00  0.00    -0.084 Cl
ATOM     22  C   LIG d   1       2.331  -0.734  -8.564  0.00  0.00    -0.059 A 
ATOM     23  H   LIG d   1       1.898  -0.856 -10.653  0.00  0.00     0.063 H 
ATOM     24  C   LIG d   1       3.253  -0.362  -7.606  0.00  0.00    -0.040 A 
ATOM     25  H   LIG d   1       1.383  -1.156  -8.265  0.00  0.00     0.062 H 
ATOM     26  H   LIG d   1       3.024  -0.490  -6.558  0.00  0.00     0.064 H 
ENDBRANCH  14  16
ENDBRANCH   2  12
BRANCH   1  27
ATOM     27  C   LIG d   1       6.852  -1.933  -3.718  0.00  0.00     0.201 A 
ATOM     28  C   LIG d   1       5.684  -1.098  -3.256  0.00  0.00     0.025 A 
ATOM     29  C   LIG d   1       4.532  -1.803  -3.617  0.00  0.00     0.067 A 
ATOM     30  C   LIG d   1       5.587   0.111  -2.606  0.00  0.00    -0.053 A 
ATOM     31  C   LIG d   1       3.278  -1.267  -3.314  0.00  0.00    -0.047 A 
ATOM     32  C   LIG d   1       4.948  -3.048  -4.288  0.00  0.00     0.342 A 
ATOM     33  C   LIG d   1       3.192  -0.052  -2.660  0.00  0.00    -0.061 A 
ATOM     34  H   LIG d   1       2.381  -1.801  -3.587  0.00  0.00     0.063 H 
ATOM     35  C   LIG d   1       4.341   0.635  -2.308  0.00  0.00    -0.061 A 
ATOM     36  H   LIG d   1       2.223   0.363  -2.425  0.00  0.00     0.062 H 
ATOM     37  H   LIG d   1       4.264   1.585  -1.798  0.00  0.00     0.062 H 
ATOM     38  O   LIG d   1       6.289  -3.118  -4.344  0.00  0.00    -0.435 OA
ATOM     39  O   LIG d   1       4.188  -3.888  -4.727  0.00  0.00    -0.245 OA
ATOM     40  H   LIG d   1       6.480   0.650  -2.330  0.00  0.00     0.062 H 
ATOM     41  H   LIG d   1       7.470  -2.218  -2.866  0.00  0.00     0.101 H 
ENDBRANCH   1  27
TORSDOF 3
ENDMDL
MODEL 3
REMARK VINA RESULT:      -7.1      3.154      5.612
REMARK  3 active torsions:
REMARK  status: ('A' for Active; 'I' for Inactive)
REMARK    1  A    between atoms: C_7  and  N_12 
REMARK    2  A    between atoms: C_13  and  C_19 
REMARK       I    between atoms: C_19  and  N_21 
REMARK    3  A    between atoms: N_21  and  C_22 
ROOT
ATOM      1  N   LIG d   1       4.619  -1.166  -4.267  0.00  0.00    -0.251 N 
ATOM      2  C   LIG d   1       4.931   0.209  -3.857  0.00  0.00     0.107 C 
ATOM      3  H   LIG d   1       4.491   0.920  -4.557  0.00  0.00     0.060 H 
ATOM      4  C   LIG d   1       4.301   0.378  -2.457  0.00  0.00    -0.017 C 
ATOM      5  C   LIG d   1       4.269  -1.085  -1.950  0.00  0.00     0.026 C 
ATOM      6  C   LIG d   1       4.250  -1.916  -3.214  0.00  0.00     0.219 C 
ATOM      7  O   LIG d   1       3.945  -3.089  -3.271  0.00  0.00    -0.276 OA
ATOM      8  H   LIG d   1       4.929   0.999  -1.819  0.00  0.00     0.029 H 
ATOM      9  H   LIG d   1       3.293   0.788  -2.529  0.00  0.00     0.029 H 
ATOM     10  H   LIG d   1       3.369  -1.266  -1.362  0.00  0.00     0.036 H 
ATOM     11  H   LIG d   1       5.161  -1.305  -1.363  0.00  0.00     0.036 H 
ENDROOT
BRANCH   2  12
ATOM     12  C   LIG d   1       6.423   0.406  -3.785  0.00  0.00     0.238 C 
ATOM     13  O   LIG d   1       7.115  -0.411  -3.215  0.00  0.00    -0.273 OA
ATOM     14  N   LIG d   1       6.988   1.489  -4.354  0.00  0.00    -0.284 N 
ATOM     15  H   LIG d   1       6.429   2.181  -4.741  0.00  0.00     0.155 HD
BRANCH  14  16
ATOM     16  C   LIG d   1       8.381   1.616  -4.386  0.00  0.00     0.035 A 
ATOM     17  C   LIG d   1       9.126   0.887  -5.302  0.00  0.00    -0.022 A 
ATOM     18  C   LIG d   1      10.503   1.014  -5.330  0.00  0.00     0.043 A 
ATOM     19  H   LIG d   1       8.631   0.221  -5.992  0.00  0.00     0.065 H 
ATOM     20  C   LIG d   1      11.137   1.869  -4.446  0.00  0.00    -0.043 A 
ATOM     21 CL   LIG d   1      11.435   0.102  -6.474  0.00  0.00    -0.084 Cl
ATOM     22  C   LIG d   1      10.397   2.597  -3.532  0.00  0.00    -0.059 A 
ATOM     23  H   LIG d   1      12.212   1.967  -4.469  0.00  0.00     0.063 H 
ATOM     24  C   LIG d   1       9.022   2.473  -3.499  0.00  0.00    -0.040 A 
ATOM     25  H   LIG d   1      10.895   3.263  -2.843  0.00  0.00     0.062 H 
ATOM     26  H   LIG d   1       8.445   3.039  -2.783  0.00  0.00     0.064 H 
ENDBRANCH  14  16
ENDBRANCH   2  12
BRANCH   1  27
ATOM     27  C   LIG d   1       4.699  -1.656  -5.645  0.00  0.00     0.201 A 
ATOM     28  C   LIG d   1       4.234  -0.587  -6.602  0.00  0.00     0.025 A 
ATOM     29  C   LIG d   1       5.321  -0.308  -7.436  0.00  0.00     0.067 A 
ATOM     30  C   LIG d   1       3.042   0.081  -6.766  0.00  0.00    -0.053 A 
ATOM     31  C   LIG d   1       5.187   0.656  -8.437  0.00  0.00    -0.047 A 
ATOM     32  C   LIG d   1       6.445  -1.170  -7.026  0.00  0.00     0.342 A 
ATOM     33  C   LIG d   1       3.985   1.320  -8.593  0.00  0.00    -0.061 A 
ATOM     34  H   LIG d   1       6.019   0.881  -9.088  0.00  0.00     0.063 H 
ATOM     35  C   LIG d   1       2.916   1.034  -7.761  0.00  0.00    -0.061 A 
ATOM     36  H   LIG d   1       3.880   2.066  -9.367  0.00  0.00     0.062 H 
ATOM     37  H   LIG d   1       1.979   1.559  -7.889  0.00  0.00     0.062 H 
ATOM     38  O   LIG d   1       6.080  -1.946  -5.991  0.00  0.00    -0.435 OA
ATOM     39  O   LIG d   1       7.541  -1.177  -7.549  0.00  0.00    -0.245 OA
ATOM     40  H   LIG d   1       2.206  -0.140  -6.119  0.00  0.00     0.062 H 
ATOM     41  H   LIG d   1       4.088  -2.552  -5.758  0.00  0.00     0.101 H 
ENDBRANCH   1  27
TORSDOF 3
ENDMDL
MODEL 4
REMARK VINA RESULT:      -7.1      2.952      6.519
REMARK  3 active torsions:
REMARK  status: ('A' for Active; 'I' for Inactive)
REMARK    1  A    between atoms: C_7  and  N_12 
REMARK    2  A    between atoms: C_13  and  C_19 
REMARK       I    between atoms: C_19  and  N_21 
REMARK    3  A    between atoms: N_21  and  C_22 
ROOT
ATOM      1  N   LIG d   1       6.172  -0.564  -8.993  0.00  0.00    -0.251 N 
ATOM      2  C   LIG d   1       5.789  -1.803  -8.306  0.00  0.00     0.107 C 
ATOM      3  H   LIG d   1       4.858  -2.191  -8.720  0.00  0.00     0.060 H 
ATOM      4  C   LIG d   1       6.944  -2.795  -8.565  0.00  0.00    -0.017 C 
ATOM      5  C   LIG d   1       8.134  -1.834  -8.806  0.00  0.00     0.026 C 
ATOM      6  C   LIG d   1       7.485  -0.552  -9.280  0.00  0.00     0.219 C 
ATOM      7  O   LIG d   1       8.065   0.355  -9.839  0.00  0.00    -0.276 OA
ATOM      8  H   LIG d   1       7.120  -3.425  -7.693  0.00  0.00     0.029 H 
ATOM      9  H   LIG d   1       6.747  -3.402  -9.449  0.00  0.00     0.029 H 
ATOM     10  H   LIG d   1       8.797  -2.232  -9.574  0.00  0.00     0.036 H 
ATOM     11  H   LIG d   1       8.681  -1.664  -7.878  0.00  0.00     0.036 H 
ENDROOT
BRANCH   2  12
ATOM     12  C   LIG d   1       5.636  -1.554  -6.827  0.00  0.00     0.238 C 
ATOM     13  O   LIG d   1       6.552  -1.069  -6.197  0.00  0.00    -0.273 OA
ATOM     14  N   LIG d   1       4.483  -1.871  -6.206  0.00  0.00    -0.284 N 
ATOM     15  H   LIG d   1       3.780  -2.330  -6.692  0.00  0.00     0.155 HD
BRANCH  14  16
ATOM     16  C   LIG d   1       4.299  -1.538  -4.860  0.00  0.00     0.035 A 
ATOM     17  C   LIG d   1       4.024  -0.227  -4.498  0.00  0.00    -0.022 A 
ATOM     18  C   LIG d   1       3.845   0.100  -3.166  0.00  0.00     0.043 A 
ATOM     19  H   LIG d   1       3.952   0.539  -5.256  0.00  0.00     0.065 H 
ATOM     20  C   LIG d   1       3.937  -0.882  -2.195  0.00  0.00    -0.043 A 
ATOM     21 CL   LIG d   1       3.502   1.739  -2.714  0.00  0.00    -0.084 Cl
ATOM     22  C   LIG d   1       4.210  -2.190  -2.552  0.00  0.00    -0.059 A 
ATOM     23  H   LIG d   1       3.796  -0.626  -1.155  0.00  0.00     0.063 H 
ATOM     24  C   LIG d   1       4.392  -2.520  -3.881  0.00  0.00    -0.040 A 
ATOM     25  H   LIG d   1       4.282  -2.953  -1.792  0.00  0.00     0.062 H 
ATOM     26  H   LIG d   1       4.609  -3.541  -4.159  0.00  0.00     0.064 H 
ENDBRANCH  14  16
ENDBRANCH   2  12
BRANCH   1  27
ATOM     27  C   LIG d   1       5.243   0.520  -9.323  0.00  0.00     0.201 A 
ATOM     28  C   LIG d   1       4.020  -0.037 -10.007  0.00  0.00     0.025 A 
ATOM     29  C   LIG d   1       2.932   0.292  -9.193  0.00  0.00     0.067 A 
ATOM     30  C   LIG d   1       3.829  -0.739 -11.175  0.00  0.00    -0.053 A 
ATOM     31  C   LIG d   1       1.647  -0.098  -9.575  0.00  0.00    -0.047 A 
ATOM     32  C   LIG d   1       3.442   1.036  -8.027  0.00  0.00     0.342 A 
ATOM     33  C   LIG d   1       1.467  -0.802 -10.752  0.00  0.00    -0.061 A 
ATOM     34  H   LIG d   1       0.799   0.150  -8.956  0.00  0.00     0.063 H 
ATOM     35  C   LIG d   1       2.553  -1.122 -11.549  0.00  0.00    -0.061 A 
ATOM     36  H   LIG d   1       0.473  -1.105 -11.049  0.00  0.00     0.062 H 
ATOM     37  H   LIG d   1       2.402  -1.673 -12.466  0.00  0.00     0.062 H 
ATOM     38  O   LIG d   1       4.777   1.165  -8.106  0.00  0.00    -0.435 OA
ATOM     39  O   LIG d   1       2.754   1.470  -7.124  0.00  0.00    -0.245 OA
ATOM     40  H   LIG d   1       4.673  -0.990 -11.799  0.00  0.00     0.062 H 
ATOM     41  H   LIG d   1       5.735   1.249  -9.968  0.00  0.00     0.101 H 
ENDBRANCH   1  27
TORSDOF 3
ENDMDL
MODEL 5
REMARK VINA RESULT:      -6.8      3.386      6.331
REMARK  3 active torsions:
REMARK  status: ('A' for Active; 'I' for Inactive)
REMARK    1  A    between atoms: C_7  and  N_12 
REMARK    2  A    between atoms: C_13  and  C_19 
REMARK       I    between atoms: C_19  and  N_21 
REMARK    3  A    between atoms: N_21  and  C_22 
ROOT
ATOM      1  N   LIG d   1       5.286  -3.854  -7.553  0.00  0.00    -0.251 N 
ATOM      2  C   LIG d   1       4.307  -3.990  -6.467  0.00  0.00     0.107 C 
ATOM      3  H   LIG d   1       3.306  -3.755  -6.831  0.00  0.00     0.060 H 
ATOM      4  C   LIG d   1       4.380  -5.468  -6.025  0.00  0.00    -0.017 C 
ATOM      5  C   LIG d   1       5.822  -5.848  -6.442  0.00  0.00     0.026 C 
ATOM      6  C   LIG d   1       6.153  -4.881  -7.558  0.00  0.00     0.219 C 
ATOM      7  O   LIG d   1       7.067  -5.013  -8.344  0.00  0.00    -0.276 OA
ATOM      8  H   LIG d   1       4.247  -5.560  -4.947  0.00  0.00     0.029 H 
ATOM      9  H   LIG d   1       3.647  -6.073  -6.559  0.00  0.00     0.029 H 
ATOM     10  H   LIG d   1       5.856  -6.875  -6.805  0.00  0.00     0.036 H 
ATOM     11  H   LIG d   1       6.509  -5.714  -5.606  0.00  0.00     0.036 H 
ENDROOT
BRANCH   2  12
ATOM     12  C   LIG d   1       4.670  -3.083  -5.320  0.00  0.00     0.238 C 
ATOM     13  O   LIG d   1       5.606  -3.361  -4.602  0.00  0.00    -0.273 OA
ATOM     14  N   LIG d   1       3.954  -1.964  -5.092  0.00  0.00    -0.284 N 
ATOM     15  H   LIG d   1       3.158  -1.782  -5.617  0.00  0.00     0.155 HD
BRANCH  14  16
ATOM     16  C   LIG d   1       4.357  -1.065  -4.099  0.00  0.00     0.035 A 
ATOM     17  C   LIG d   1       5.465  -0.254  -4.303  0.00  0.00    -0.022 A 
ATOM     18  C   LIG d   1       5.862   0.633  -3.319  0.00  0.00     0.043 A 
ATOM     19  H   LIG d   1       6.016  -0.315  -5.229  0.00  0.00     0.065 H 
ATOM     20  C   LIG d   1       5.155   0.712  -2.132  0.00  0.00    -0.043 A 
ATOM     21 CL   LIG d   1       7.246   1.647  -3.573  0.00  0.00    -0.084 Cl
ATOM     22  C   LIG d   1       4.050  -0.095  -1.926  0.00  0.00    -0.059 A 
ATOM     23  H   LIG d   1       5.466   1.405  -1.365  0.00  0.00     0.063 H 
ATOM     24  C   LIG d   1       3.651  -0.983  -2.906  0.00  0.00    -0.040 A 
ATOM     25  H   LIG d   1       3.501  -0.032  -0.999  0.00  0.00     0.062 H 
ATOM     26  H   LIG d   1       2.791  -1.616  -2.743  0.00  0.00     0.064 H 
ENDBRANCH  14  16
ENDBRANCH   2  12
BRANCH   1  27
ATOM     27  C   LIG d   1       5.314  -2.743  -8.507  0.00  0.00     0.201 A 
ATOM     28  C   LIG d   1       3.932  -2.504  -9.063  0.00  0.00     0.025 A 
ATOM     29  C   LIG d   1       3.586  -1.197  -8.704  0.00  0.00     0.067 A 
ATOM     30  C   LIG d   1       3.059  -3.281  -9.788  0.00  0.00    -0.053 A 
ATOM     31  C   LIG d   1       2.344  -0.688  -9.086  0.00  0.00    -0.047 A 
ATOM     32  C   LIG d   1       4.709  -0.620  -7.943  0.00  0.00     0.342 A 
ATOM     33  C   LIG d   1       1.475  -1.478  -9.815  0.00  0.00    -0.061 A 
ATOM     34  H   LIG d   1       2.065   0.319  -8.816  0.00  0.00     0.063 H 
ATOM     35  C   LIG d   1       1.829  -2.770 -10.165  0.00  0.00    -0.061 A 
ATOM     36  H   LIG d   1       0.513  -1.085 -10.112  0.00  0.00     0.062 H 
ATOM     37  H   LIG d   1       1.143  -3.381 -10.734  0.00  0.00     0.062 H 
ATOM     38  O   LIG d   1       5.704  -1.516  -7.831  0.00  0.00    -0.435 OA
ATOM     39  O   LIG d   1       4.731   0.505  -7.483  0.00  0.00    -0.245 OA
ATOM     40  H   LIG d   1       3.332  -4.289 -10.063  0.00  0.00     0.062 H 
ATOM     41  H   LIG d   1       6.011  -2.963  -9.316  0.00  0.00     0.101 H 
ENDBRANCH   1  27
TORSDOF 3
ENDMDL
MODEL 6
REMARK VINA RESULT:      -6.6      4.005      6.782
REMARK  3 active torsions:
REMARK  status: ('A' for Active; 'I' for Inactive)
REMARK    1  A    between atoms: C_7  and  N_12 
REMARK    2  A    between atoms: C_13  and  C_19 
REMARK       I    between atoms: C_19  and  N_21 
REMARK    3  A    between atoms: N_21  and  C_22 
ROOT
ATOM      1  N   LIG d   1       7.006  -0.386  -5.530  0.00  0.00    -0.251 N 
ATOM      2  C   LIG d   1       8.289   0.235  -5.881  0.00  0.00     0.107 C 
ATOM      3  H   LIG d   1       9.115  -0.415  -5.591  0.00  0.00     0.060 H 
ATOM      4  C   LIG d   1       8.260   0.407  -7.416  0.00  0.00    -0.017 C 
ATOM      5  C   LIG d   1       6.738   0.473  -7.695  0.00  0.00     0.026 C 
ATOM      6  C   LIG d   1       6.114  -0.261  -6.528  0.00  0.00     0.219 C 
ATOM      7  O   LIG d   1       4.976  -0.678  -6.498  0.00  0.00    -0.276 OA
ATOM      8  H   LIG d   1       8.753   1.332  -7.715  0.00  0.00     0.029 H 
ATOM      9  H   LIG d   1       8.710  -0.452  -7.915  0.00  0.00     0.029 H 
ATOM     10  H   LIG d   1       6.499  -0.028  -8.632  0.00  0.00     0.036 H 
ATOM     11  H   LIG d   1       6.399   1.510  -7.717  0.00  0.00     0.036 H 
ENDROOT
BRANCH   2  12
ATOM     12  C   LIG d   1       8.421   1.577  -5.209  0.00  0.00     0.238 C 
ATOM     13  O   LIG d   1       7.438   2.133  -4.769  0.00  0.00    -0.273 OA
ATOM     14  N   LIG d   1       9.632   2.157  -5.095  0.00  0.00    -0.284 N 
ATOM     15  H   LIG d   1      10.407   1.750  -5.515  0.00  0.00     0.155 HD
BRANCH  14  16
ATOM     16  C   LIG d   1       9.773   3.347  -4.373  0.00  0.00     0.035 A 
ATOM     17  C   LIG d   1       9.504   4.566  -4.980  0.00  0.00    -0.022 A 
ATOM     18  C   LIG d   1       9.645   5.740  -4.264  0.00  0.00     0.043 A 
ATOM     19  H   LIG d   1       9.185   4.597  -6.011  0.00  0.00     0.065 H 
ATOM     20  C   LIG d   1      10.053   5.700  -2.942  0.00  0.00    -0.043 A 
ATOM     21 CL   LIG d   1       9.310   7.264  -5.022  0.00  0.00    -0.084 Cl
ATOM     22  C   LIG d   1      10.321   4.487  -2.334  0.00  0.00    -0.059 A 
ATOM     23  H   LIG d   1      10.162   6.618  -2.384  0.00  0.00     0.063 H 
ATOM     24  C   LIG d   1      10.183   3.312  -3.046  0.00  0.00    -0.040 A 
ATOM     25  H   LIG d   1      10.639   4.458  -1.303  0.00  0.00     0.062 H 
ATOM     26  H   LIG d   1      10.396   2.365  -2.572  0.00  0.00     0.064 H 
ENDBRANCH  14  16
ENDBRANCH   2  12
BRANCH   1  27
ATOM     27  C   LIG d   1       6.733  -1.055  -4.256  0.00  0.00     0.201 A 
ATOM     28  C   LIG d   1       5.577  -0.385  -3.557  0.00  0.00     0.025 A 
ATOM     29  C   LIG d   1       4.585  -1.361  -3.419  0.00  0.00     0.067 A 
ATOM     30  C   LIG d   1       5.370   0.890  -3.086  0.00  0.00    -0.053 A 
ATOM     31  C   LIG d   1       3.379  -1.028  -2.799  0.00  0.00    -0.047 A 
ATOM     32  C   LIG d   1       5.089  -2.614  -4.010  0.00  0.00     0.342 A 
ATOM     33  C   LIG d   1       3.182   0.256  -2.328  0.00  0.00    -0.061 A 
ATOM     34  H   LIG d   1       2.604  -1.772  -2.686  0.00  0.00     0.063 H 
ATOM     35  C   LIG d   1       4.172   1.213  -2.471  0.00  0.00    -0.061 A 
ATOM     36  H   LIG d   1       2.249   0.515  -1.848  0.00  0.00     0.062 H 
ATOM     37  H   LIG d   1       4.009   2.215  -2.102  0.00  0.00     0.062 H 
ATOM     38  O   LIG d   1       6.330  -2.432  -4.492  0.00  0.00    -0.435 OA
ATOM     39  O   LIG d   1       4.472  -3.659  -4.054  0.00  0.00    -0.245 OA
ATOM     40  H   LIG d   1       6.140   1.639  -3.195  0.00  0.00     0.062 H 
ATOM     41  H   LIG d   1       7.621  -1.029  -3.623  0.00  0.00     0.101 H 
ENDBRANCH   1  27
TORSDOF 3
ENDMDL
MODEL 7
REMARK VINA RESULT:      -6.5      3.034      4.950
REMARK  3 active torsions:
REMARK  status: ('A' for Active; 'I' for Inactive)
REMARK    1  A    between atoms: C_7  and  N_12 
REMARK    2  A    between atoms: C_13  and  C_19 
REMARK       I    between atoms: C_19  and  N_21 
REMARK    3  A    between atoms: N_21  and  C_22 
ROOT
ATOM      1  N   LIG d   1       6.525  -0.622  -6.151  0.00  0.00    -0.251 N 
ATOM      2  C   LIG d   1       5.299  -0.533  -6.954  0.00  0.00     0.107 C 
ATOM      3  H   LIG d   1       4.447  -0.296  -6.316  0.00  0.00     0.060 H 
ATOM      4  C   LIG d   1       5.546   0.612  -7.961  0.00  0.00    -0.017 C 
ATOM      5  C   LIG d   1       7.091   0.612  -8.061  0.00  0.00     0.026 C 
ATOM      6  C   LIG d   1       7.549   0.007  -6.752  0.00  0.00     0.219 C 
ATOM      7  O   LIG d   1       8.676   0.079  -6.309  0.00  0.00    -0.276 OA
ATOM      8  H   LIG d   1       5.092   0.388  -8.926  0.00  0.00     0.029 H 
ATOM      9  H   LIG d   1       5.181   1.562  -7.571  0.00  0.00     0.029 H 
ATOM     10  H   LIG d   1       7.467   1.630  -8.163  0.00  0.00     0.036 H 
ATOM     11  H   LIG d   1       7.419  -0.003  -8.900  0.00  0.00     0.036 H 
ENDROOT
BRANCH   2  12
ATOM     12  C   LIG d   1       5.058  -1.828  -7.685  0.00  0.00     0.238 C 
ATOM     13  O   LIG d   1       5.866  -2.224  -8.497  0.00  0.00    -0.273 OA
ATOM     14  N   LIG d   1       3.944  -2.545  -7.436  0.00  0.00    -0.284 N 
ATOM     15  H   LIG d   1       3.261  -2.191  -6.845  0.00  0.00     0.155 HD
BRANCH  14  16
ATOM     16  C   LIG d   1       3.774  -3.801  -8.029  0.00  0.00     0.035 A 
ATOM     17  C   LIG d   1       3.145  -3.909  -9.262  0.00  0.00    -0.022 A 
ATOM     18  C   LIG d   1       2.977  -5.151  -9.845  0.00  0.00     0.043 A 
ATOM     19  H   LIG d   1       2.788  -3.023  -9.765  0.00  0.00     0.065 H 
ATOM     20  C   LIG d   1       3.436  -6.286  -9.200  0.00  0.00    -0.043 A 
ATOM     21 CL   LIG d   1       2.191  -5.286 -11.385  0.00  0.00    -0.084 Cl
ATOM     22  C   LIG d   1       4.063  -6.182  -7.972  0.00  0.00    -0.059 A 
ATOM     23  H   LIG d   1       3.304  -7.256  -9.657  0.00  0.00     0.063 H 
ATOM     24  C   LIG d   1       4.232  -4.943  -7.385  0.00  0.00    -0.040 A 
ATOM     25  H   LIG d   1       4.420  -7.069  -7.471  0.00  0.00     0.062 H 
ATOM     26  H   LIG d   1       4.718  -4.863  -6.424  0.00  0.00     0.064 H 
ENDBRANCH  14  16
ENDBRANCH   2  12
BRANCH   1  27
ATOM     27  C   LIG d   1       6.619  -1.309  -4.860  0.00  0.00     0.201 A 
ATOM     28  C   LIG d   1       5.881  -0.527  -3.803  0.00  0.00     0.025 A 
ATOM     29  C   LIG d   1       4.872  -1.369  -3.325  0.00  0.00     0.067 A 
ATOM     30  C   LIG d   1       6.030   0.742  -3.291  0.00  0.00    -0.053 A 
ATOM     31  C   LIG d   1       4.014  -0.910  -2.324  0.00  0.00    -0.047 A 
ATOM     32  C   LIG d   1       4.961  -2.648  -4.053  0.00  0.00     0.342 A 
ATOM     33  C   LIG d   1       4.173   0.366  -1.817  0.00  0.00    -0.061 A 
ATOM     34  H   LIG d   1       3.231  -1.550  -1.946  0.00  0.00     0.063 H 
ATOM     35  C   LIG d   1       5.176   1.190  -2.298  0.00  0.00    -0.061 A 
ATOM     36  H   LIG d   1       3.510   0.722  -1.042  0.00  0.00     0.062 H 
ATOM     37  H   LIG d   1       5.292   2.186  -1.897  0.00  0.00     0.062 H 
ATOM     38  O   LIG d   1       5.972  -2.608  -4.938  0.00  0.00    -0.435 OA
ATOM     39  O   LIG d   1       4.227  -3.600  -3.877  0.00  0.00    -0.245 OA
ATOM     40  H   LIG d   1       6.811   1.387  -3.664  0.00  0.00     0.062 H 
ATOM     41  H   LIG d   1       7.665  -1.429  -4.577  0.00  0.00     0.101 H 
ENDBRANCH   1  27
TORSDOF 3
ENDMDL
MODEL 8
REMARK VINA RESULT:      -6.4      3.615      6.165
REMARK  3 active torsions:
REMARK  status: ('A' for Active; 'I' for Inactive)
REMARK    1  A    between atoms: C_7  and  N_12 
REMARK    2  A    between atoms: C_13  and  C_19 
REMARK       I    between atoms: C_19  and  N_21 
REMARK    3  A    between atoms: N_21  and  C_22 
ROOT
ATOM      1  N   LIG d   1       9.972  -0.045  -5.879  0.00  0.00    -0.251 N 
ATOM      2  C   LIG d   1       8.734   0.062  -6.661  0.00  0.00     0.107 C 
ATOM      3  H   LIG d   1       8.808   0.886  -7.373  0.00  0.00     0.060 H 
ATOM      4  C   LIG d   1       8.601  -1.281  -7.412  0.00  0.00    -0.017 C 
ATOM      5  C   LIG d   1       9.402  -2.235  -6.492  0.00  0.00     0.026 C 
ATOM      6  C   LIG d   1      10.366  -1.325  -5.763  0.00  0.00     0.219 C 
ATOM      7  O   LIG d   1      11.352  -1.695  -5.161  0.00  0.00    -0.276 OA
ATOM      8  H   LIG d   1       7.558  -1.588  -7.480  0.00  0.00     0.029 H 
ATOM      9  H   LIG d   1       9.055  -1.223  -8.402  0.00  0.00     0.029 H 
ATOM     10  H   LIG d   1       9.946  -2.970  -7.084  0.00  0.00     0.036 H 
ATOM     11  H   LIG d   1       8.736  -2.730  -5.784  0.00  0.00     0.036 H 
ENDROOT
BRANCH   2  12
ATOM     12  C   LIG d   1       7.555   0.268  -5.747  0.00  0.00     0.238 C 
ATOM     13  O   LIG d   1       6.538   0.774  -6.175  0.00  0.00    -0.273 OA
ATOM     14  N   LIG d   1       7.629  -0.108  -4.455  0.00  0.00    -0.284 N 
ATOM     15  H   LIG d   1       8.466  -0.439  -4.094  0.00  0.00     0.155 HD
BRANCH  14  16
ATOM     16  C   LIG d   1       6.499  -0.021  -3.635  0.00  0.00     0.035 A 
ATOM     17  C   LIG d   1       5.745  -1.155  -3.366  0.00  0.00    -0.022 A 
ATOM     18  C   LIG d   1       4.628  -1.066  -2.556  0.00  0.00     0.043 A 
ATOM     19  H   LIG d   1       6.030  -2.106  -3.790  0.00  0.00     0.065 H 
ATOM     20  C   LIG d   1       4.263   0.153  -2.012  0.00  0.00    -0.043 A 
ATOM     21 CL   LIG d   1       3.685  -2.483  -2.220  0.00  0.00    -0.084 Cl
ATOM     22  C   LIG d   1       5.012   1.285  -2.279  0.00  0.00    -0.059 A 
ATOM     23  H   LIG d   1       3.390   0.222  -1.380  0.00  0.00     0.063 H 
ATOM     24  C   LIG d   1       6.128   1.201  -3.088  0.00  0.00    -0.040 A 
ATOM     25  H   LIG d   1       4.725   2.235  -1.853  0.00  0.00     0.062 H 
ATOM     26  H   LIG d   1       6.711   2.085  -3.299  0.00  0.00     0.064 H 
ENDBRANCH  14  16
ENDBRANCH   2  12
BRANCH   1  27
ATOM     27  C   LIG d   1      10.685   1.097  -5.300  0.00  0.00     0.201 A 
ATOM     28  C   LIG d   1      10.480   2.322  -6.155  0.00  0.00     0.025 A 
ATOM     29  C   LIG d   1       9.849   3.267  -5.340  0.00  0.00     0.067 A 
ATOM     30  C   LIG d   1      10.785   2.622  -7.462  0.00  0.00    -0.053 A 
ATOM     31  C   LIG d   1       9.528   4.520  -5.866  0.00  0.00    -0.047 A 
ATOM     32  C   LIG d   1       9.655   2.665  -4.008  0.00  0.00     0.342 A 
ATOM     33  C   LIG d   1       9.839   4.811  -7.181  0.00  0.00    -0.061 A 
ATOM     34  H   LIG d   1       9.040   5.258  -5.247  0.00  0.00     0.063 H 
ATOM     35  C   LIG d   1      10.465   3.867  -7.977  0.00  0.00    -0.061 A 
ATOM     36  H   LIG d   1       9.592   5.780  -7.589  0.00  0.00     0.062 H 
ATOM     37  H   LIG d   1      10.703   4.103  -9.004  0.00  0.00     0.062 H 
ATOM     38  O   LIG d   1      10.140   1.412  -3.990  0.00  0.00    -0.435 OA
ATOM     39  O   LIG d   1       9.134   3.223  -3.063  0.00  0.00    -0.245 OA
ATOM     40  H   LIG d   1      11.273   1.889  -8.086  0.00  0.00     0.062 H 
ATOM     41  H   LIG d   1      11.748   0.869  -5.218  0.00  0.00     0.101 H 
ENDBRANCH   1  27
TORSDOF 3
ENDMDL
MODEL 9
REMARK VINA RESULT:      -6.2      3.334      6.036
REMARK  3 active torsions:
REMARK  status: ('A' for Active; 'I' for Inactive)
REMARK    1  A    between atoms: C_7  and  N_12 
REMARK    2  A    between atoms: C_13  and  C_19 
REMARK       I    between atoms: C_19  and  N_21 
REMARK    3  A    between atoms: N_21  and  C_22 
ROOT
ATOM      1  N   LIG d   1       3.738  -1.385  -9.069  0.00  0.00    -0.251 N 
ATOM      2  C   LIG d   1       3.959  -0.108  -8.380  0.00  0.00     0.107 C 
ATOM      3  H   LIG d   1       4.958   0.270  -8.597  0.00  0.00     0.060 H 
ATOM      4  C   LIG d   1       2.890   0.856  -8.942  0.00  0.00    -0.017 C 
ATOM      5  C   LIG d   1       1.785  -0.130  -9.392  0.00  0.00     0.026 C 
ATOM      6  C   LIG d   1       2.522  -1.428  -9.641  0.00  0.00     0.219 C 
ATOM      7  O   LIG d   1       2.082  -2.369 -10.266  0.00  0.00    -0.276 OA
ATOM      8  H   LIG d   1       2.524   1.528  -8.166  0.00  0.00     0.029 H 
ATOM      9  H   LIG d   1       3.279   1.419  -9.791  0.00  0.00     0.029 H 
ATOM     10  H   LIG d   1       1.310   0.220 -10.308  0.00  0.00     0.036 H 
ATOM     11  H   LIG d   1       1.044  -0.259  -8.601  0.00  0.00     0.036 H 
ENDROOT
BRANCH   2  12
ATOM     12  C   LIG d   1       3.777  -0.278  -6.894  0.00  0.00     0.238 C 
ATOM     13  O   LIG d   1       2.688  -0.098  -6.392  0.00  0.00    -0.273 OA
ATOM     14  N   LIG d   1       4.825  -0.629  -6.123  0.00  0.00    -0.284 N 
ATOM     15  H   LIG d   1       5.712  -0.696  -6.511  0.00  0.00     0.155 HD
BRANCH  14  16
ATOM     16  C   LIG d   1       4.635  -0.896  -4.763  0.00  0.00     0.035 A 
ATOM     17  C   LIG d   1       4.704   0.133  -3.834  0.00  0.00    -0.022 A 
ATOM     18  C   LIG d   1       4.517  -0.135  -2.491  0.00  0.00     0.043 A 
ATOM     19  H   LIG d   1       4.906   1.142  -4.161  0.00  0.00     0.065 H 
ATOM     20  C   LIG d   1       4.259  -1.429  -2.072  0.00  0.00    -0.043 A 
ATOM     21 CL   LIG d   1       4.605   1.151  -1.330  0.00  0.00    -0.084 Cl
ATOM     22  C   LIG d   1       4.188  -2.456  -2.996  0.00  0.00    -0.059 A 
ATOM     23  H   LIG d   1       4.112  -1.637  -1.023  0.00  0.00     0.063 H 
ATOM     24  C   LIG d   1       4.376  -2.194  -4.338  0.00  0.00    -0.040 A 
ATOM     25  H   LIG d   1       3.987  -3.465  -2.666  0.00  0.00     0.062 H 
ATOM     26  H   LIG d   1       4.325  -2.997  -5.058  0.00  0.00     0.064 H 
ENDBRANCH  14  16
ENDBRANCH   2  12
BRANCH   1  27
ATOM     27  C   LIG d   1       4.718  -2.474  -9.126  0.00  0.00     0.201 A 
ATOM     28  C   LIG d   1       5.995  -1.987  -9.762  0.00  0.00     0.025 A 
ATOM     29  C   LIG d   1       6.997  -2.146  -8.799  0.00  0.00     0.067 A 
ATOM     30  C   LIG d   1       6.296  -1.470 -11.001  0.00  0.00    -0.053 A 
ATOM     31  C   LIG d   1       8.308  -1.774  -9.107  0.00  0.00    -0.047 A 
ATOM     32  C   LIG d   1       6.381  -2.715  -7.587  0.00  0.00     0.342 A 
ATOM     33  C   LIG d   1       8.598  -1.257 -10.355  0.00  0.00    -0.061 A 
ATOM     34  H   LIG d   1       9.090  -1.892  -8.373  0.00  0.00     0.063 H 
ATOM     35  C   LIG d   1       7.597  -1.105 -11.300  0.00  0.00    -0.061 A 
ATOM     36  H   LIG d   1       9.612  -0.970 -10.595  0.00  0.00     0.062 H 
ATOM     37  H   LIG d   1       7.833  -0.699 -12.273  0.00  0.00     0.062 H 
ATOM     38  O   LIG d   1       5.064  -2.903  -7.781  0.00  0.00    -0.435 OA
ATOM     39  O   LIG d   1       6.978  -2.978  -6.562  0.00  0.00    -0.245 OA
ATOM     40  H   LIG d   1       5.518  -1.350 -11.740  0.00  0.00     0.062 H 
ATOM     41  H   LIG d   1       4.312  -3.312  -9.693  0.00  0.00     0.101 H 
ENDBRANCH   1  27
TORSDOF 3
ENDMDL
