MODEL 1
REMARK VINA RESULT:      -7.1      0.000      0.000
REMARK  15 active torsions:
REMARK  status: ('A' for Active; 'I' for Inactive)
REMARK    1  A    between atoms: C_1  and  N_2 
REMARK    2  A    between atoms: N_2  and  C_3 
REMARK       I    between atoms: N_2  and  C_18 
REMARK    3  A    between atoms: C_3  and  C_4 
REMARK    4  A    between atoms: C_4  and  C_6 
REMARK    5  A    between atoms: C_4  and  O_17 
REMARK    6  A    between atoms: C_6  and  C_8 
REMARK    7  A    between atoms: C_6  and  O_16 
REMARK    8  A    between atoms: C_8  and  C_10 
REMARK    9  A    between atoms: C_8  and  O_15 
REMARK   10  A    between atoms: C_10  and  C_12 
REMARK   11  A    between atoms: C_10  and  O_14 
REMARK   12  A    between atoms: C_12  and  O_13 
REMARK   13  A    between atoms: C_18  and  C_20 
REMARK   14  A    between atoms: C_20  and  O_21 
REMARK   15  A    between atoms: O_21  and  C_22 
ROOT
ATOM      1  N   LIG d   1      10.683   5.078  -4.044  0.00  0.00    -0.299 N 
ATOM      2  C   LIG d   1      11.110   3.932  -4.610  0.00  0.00     0.253 C 
ATOM      3  O   LIG d   1      12.192   3.475  -4.311  0.00  0.00    -0.272 OA
ENDROOT
BRANCH   1   4
ATOM      4  C   LIG d   1       9.375   5.631  -4.406  0.00  0.00     0.003 C 
ATOM      5  H   LIG d   1       8.971   5.081  -5.256  0.00  0.00     0.043 H 
ATOM      6  H   LIG d   1       8.695   5.541  -3.559  0.00  0.00     0.043 H 
ATOM      7  H   LIG d   1       9.487   6.682  -4.672  0.00  0.00     0.043 H 
ENDBRANCH   1   4
BRANCH   1   8
ATOM      8  C   LIG d   1      11.526   5.772  -3.067  0.00  0.00     0.043 C 
ATOM      9  H   LIG d   1      12.575   5.630  -3.327  0.00  0.00     0.049 H 
ATOM     10  H   LIG d   1      11.290   6.836  -3.073  0.00  0.00     0.049 H 
BRANCH   8  11
ATOM     11  C   LIG d   1      11.265   5.199  -1.672  0.00  0.00     0.099 C 
ATOM     12  H   LIG d   1      10.841   4.200  -1.763  0.00  0.00     0.064 H 
BRANCH  11  13
ATOM     13  C   LIG d   1      10.281   6.104  -0.927  0.00  0.00     0.111 C 
ATOM     14  H   LIG d   1       9.266   5.896  -1.266  0.00  0.00     0.065 H 
BRANCH  13  15
ATOM     15  C   LIG d   1      10.622   7.569  -1.209  0.00  0.00     0.111 C 
ATOM     16  H   LIG d   1      10.808   7.700  -2.275  0.00  0.00     0.065 H 
BRANCH  15  17
ATOM     17  C   LIG d   1       9.450   8.457  -0.784  0.00  0.00     0.106 C 
ATOM     18  H   LIG d   1       9.550   8.709   0.271  0.00  0.00     0.064 H 
BRANCH  17  19
ATOM     19  C   LIG d   1       9.453   9.740  -1.618  0.00  0.00     0.073 C 
ATOM     20  H   LIG d   1      10.164  10.448  -1.191  0.00  0.00     0.058 H 
ATOM     21  H   LIG d   1       9.743   9.507  -2.642  0.00  0.00     0.058 H 
BRANCH  19  22
ATOM     22  O   LIG d   1       8.146  10.316  -1.612  0.00  0.00    -0.392 OA
ATOM     23  H   LIG d   1       7.701  10.292  -2.470  0.00  0.00     0.209 HD
ENDBRANCH  19  22
ENDBRANCH  17  19
BRANCH  17  24
ATOM     24  O   LIG d   1       8.223   7.757  -0.993  0.00  0.00    -0.387 OA
ATOM     25  H   LIG d   1       8.081   7.019  -0.384  0.00  0.00     0.210 HD
ENDBRANCH  17  24
ENDBRANCH  15  17
BRANCH  15  26
ATOM     26  O   LIG d   1      11.790   7.937  -0.473  0.00  0.00    -0.387 OA
ATOM     27  H   LIG d   1      12.573   7.412  -0.690  0.00  0.00     0.210 HD
ENDBRANCH  15  26
ENDBRANCH  13  15
BRANCH  13  28
ATOM     28  O   LIG d   1      10.373   5.856   0.477  0.00  0.00    -0.387 OA
ATOM     29  H   LIG d   1      10.862   5.053   0.703  0.00  0.00     0.210 HD
ENDBRANCH  13  28
ENDBRANCH  11  13
BRANCH  11  30
ATOM     30  O   LIG d   1      12.493   5.133  -0.946  0.00  0.00    -0.388 OA
ATOM     31  H   LIG d   1      13.261   4.909  -1.490  0.00  0.00     0.210 HD
ENDBRANCH  11  30
ENDBRANCH   8  11
ENDBRANCH   1   8
BRANCH   2  32
ATOM     32  C   LIG d   1      10.242   3.219  -5.615  0.00  0.00     0.165 C 
ATOM     33  H   LIG d   1       9.205   3.528  -5.484  0.00  0.00     0.080 H 
ATOM     34  H   LIG d   1      10.571   3.472  -6.623  0.00  0.00     0.080 H 
BRANCH  32  35
ATOM     35  O   LIG d   1      10.348   1.808  -5.419  0.00  0.00    -0.483 OA
BRANCH  35  36
ATOM     36  C   LIG d   1       9.244   1.164  -4.960  0.00  0.00     0.125 A 
ATOM     37  C   LIG d   1       8.298   1.860  -4.226  0.00  0.00     0.023 A 
ATOM     38  C   LIG d   1       7.166   1.210  -3.760  0.00  0.00     0.143 A 
ATOM     39  H   LIG d   1       8.440   2.911  -4.020  0.00  0.00     0.069 H 
ATOM     40  C   LIG d   1       6.992  -0.156  -4.035  0.00  0.00     0.025 A 
ATOM     41  O   LIG d   1       6.239   1.887  -3.036  0.00  0.00    -0.422 OA
ATOM     42  C   LIG d   1       7.953  -0.849  -4.767  0.00  0.00    -0.047 A 
ATOM     43  C   LIG d   1       5.772  -0.827  -3.546  0.00  0.00    -0.000 A 
ATOM     44  C   LIG d   1       9.072  -0.191  -5.226  0.00  0.00    -0.019 A 
ATOM     45  H   LIG d   1       7.821  -1.901  -4.975  0.00  0.00     0.063 H 
ATOM     46  H   LIG d   1       9.819  -0.727  -5.794  0.00  0.00     0.065 H 
ATOM     47  C   LIG d   1       4.732  -0.005  -3.054  0.00  0.00     0.067 A 
ATOM     48  C   LIG d   1       5.618  -2.206  -3.552  0.00  0.00    -0.053 A 
ATOM     49  C   LIG d   1       3.559  -0.580  -2.584  0.00  0.00    -0.047 A 
ATOM     50  C   LIG d   1       4.958   1.451  -3.068  0.00  0.00     0.345 C 
ATOM     51  C   LIG d   1       3.423  -1.953  -2.599  0.00  0.00    -0.061 A 
ATOM     52  H   LIG d   1       2.758   0.043  -2.211  0.00  0.00     0.063 H 
ATOM     53  C   LIG d   1       4.444  -2.760  -3.080  0.00  0.00    -0.061 A 
ATOM     54  H   LIG d   1       2.512  -2.405  -2.235  0.00  0.00     0.062 H 
ATOM     55  H   LIG d   1       4.321  -3.833  -3.082  0.00  0.00     0.062 H 
ATOM     56  O   LIG d   1       4.027   2.233  -3.105  0.00  0.00    -0.244 OA
ATOM     57  H   LIG d   1       6.409  -2.841  -3.925  0.00  0.00     0.062 H 
ENDBRANCH  35  36
ENDBRANCH  32  35
ENDBRANCH   2  32
TORSDOF 15
ENDMDL
MODEL 2
REMARK VINA RESULT:      -6.8      8.308     13.508
REMARK  15 active torsions:
REMARK  status: ('A' for Active; 'I' for Inactive)
REMARK    1  A    between atoms: C_1  and  N_2 
REMARK    2  A    between atoms: N_2  and  C_3 
REMARK       I    between atoms: N_2  and  C_18 
REMARK    3  A    between atoms: C_3  and  C_4 
REMARK    4  A    between atoms: C_4  and  C_6 
REMARK    5  A    between atoms: C_4  and  O_17 
REMARK    6  A    between atoms: C_6  and  C_8 
REMARK    7  A    between atoms: C_6  and  O_16 
REMARK    8  A    between atoms: C_8  and  C_10 
REMARK    9  A    between atoms: C_8  and  O_15 
REMARK   10  A    between atoms: C_10  and  C_12 
REMARK   11  A    between atoms: C_10  and  O_14 
REMARK   12  A    between atoms: C_12  and  O_13 
REMARK   13  A    between atoms: C_18  and  C_20 
REMARK   14  A    between atoms: C_20  and  O_21 
REMARK   15  A    between atoms: O_21  and  C_22 
ROOT
ATOM      1  N   LIG d   1       1.074  -3.508 -11.746  0.00  0.00    -0.299 N 
ATOM      2  C   LIG d   1       1.628  -3.240 -10.547  0.00  0.00     0.253 C 
ATOM      3  O   LIG d   1       2.077  -4.141  -9.871  0.00  0.00    -0.272 OA
ENDROOT
BRANCH   1   4
ATOM      4  C   LIG d   1       0.531  -2.420 -12.562  0.00  0.00     0.003 C 
ATOM      5  H   LIG d   1       0.317  -1.560 -11.926  0.00  0.00     0.043 H 
ATOM      6  H   LIG d   1       1.260  -2.137 -13.322  0.00  0.00     0.043 H 
ATOM      7  H   LIG d   1      -0.388  -2.752 -13.045  0.00  0.00     0.043 H 
ENDBRANCH   1   4
BRANCH   1   8
ATOM      8  C   LIG d   1       1.014  -4.889 -12.233  0.00  0.00     0.043 C 
ATOM      9  H   LIG d   1       1.294  -4.914 -13.287  0.00  0.00     0.049 H 
ATOM     10  H   LIG d   1       1.704  -5.507 -11.658  0.00  0.00     0.049 H 
BRANCH   8  11
ATOM     11  C   LIG d   1      -0.410  -5.425 -12.070  0.00  0.00     0.099 C 
ATOM     12  H   LIG d   1      -1.014  -4.695 -11.533  0.00  0.00     0.064 H 
BRANCH  11  13
ATOM     13  C   LIG d   1      -0.372  -6.736 -11.280  0.00  0.00     0.111 C 
ATOM     14  H   LIG d   1      -0.199  -7.568 -11.963  0.00  0.00     0.065 H 
BRANCH  13  15
ATOM     15  C   LIG d   1      -1.708  -6.936 -10.561  0.00  0.00     0.111 C 
ATOM     16  H   LIG d   1      -1.706  -7.899 -10.051  0.00  0.00     0.065 H 
BRANCH  15  17
ATOM     17  C   LIG d   1      -1.907  -5.817  -9.535  0.00  0.00     0.106 C 
ATOM     18  H   LIG d   1      -1.263  -4.975  -9.787  0.00  0.00     0.064 H 
BRANCH  17  19
ATOM     19  C   LIG d   1      -3.369  -5.364  -9.552  0.00  0.00     0.073 C 
ATOM     20  H   LIG d   1      -3.997  -6.179  -9.910  0.00  0.00     0.058 H 
ATOM     21  H   LIG d   1      -3.675  -5.087  -8.543  0.00  0.00     0.058 H 
BRANCH  19  22
ATOM     22  O   LIG d   1      -3.509  -4.238 -10.419  0.00  0.00    -0.392 OA
ATOM     23  H   LIG d   1      -2.738  -3.654 -10.433  0.00  0.00     0.209 HD
ENDBRANCH  19  22
ENDBRANCH  17  19
BRANCH  17  24
ATOM     24  O   LIG d   1      -1.574  -6.301  -8.233  0.00  0.00    -0.387 OA
ATOM     25  H   LIG d   1      -1.374  -7.247  -8.203  0.00  0.00     0.210 HD
ENDBRANCH  17  24
ENDBRANCH  15  17
BRANCH  15  26
ATOM     26  O   LIG d   1      -2.772  -6.903 -11.515  0.00  0.00    -0.387 OA
ATOM     27  H   LIG d   1      -2.487  -6.688 -12.413  0.00  0.00     0.210 HD
ENDBRANCH  15  26
ENDBRANCH  13  15
BRANCH  13  28
ATOM     28  O   LIG d   1       0.683  -6.683 -10.318  0.00  0.00    -0.387 OA
ATOM     29  H   LIG d   1       0.775  -7.487  -9.790  0.00  0.00     0.210 HD
ENDBRANCH  13  28
ENDBRANCH  11  13
BRANCH  11  30
ATOM     30  O   LIG d   1      -0.980  -5.662 -13.357  0.00  0.00    -0.388 OA
ATOM     31  H   LIG d   1      -0.333  -5.689 -14.076  0.00  0.00     0.210 HD
ENDBRANCH  11  30
ENDBRANCH   8  11
ENDBRANCH   1   8
BRANCH   2  32
ATOM     32  C   LIG d   1       1.689  -1.819 -10.046  0.00  0.00     0.165 C 
ATOM     33  H   LIG d   1       1.349  -1.143 -10.829  0.00  0.00     0.080 H 
ATOM     34  H   LIG d   1       1.047  -1.715  -9.172  0.00  0.00     0.080 H 
BRANCH  32  35
ATOM     35  O   LIG d   1       3.036  -1.498  -9.690  0.00  0.00    -0.483 OA
BRANCH  35  36
ATOM     36  C   LIG d   1       3.261  -1.135  -8.401  0.00  0.00     0.125 A 
ATOM     37  C   LIG d   1       4.159  -1.855  -7.630  0.00  0.00     0.023 A 
ATOM     38  C   LIG d   1       4.398  -1.485  -6.316  0.00  0.00     0.143 A 
ATOM     39  H   LIG d   1       4.677  -2.703  -8.055  0.00  0.00     0.069 H 
ATOM     40  C   LIG d   1       3.720  -0.380  -5.776  0.00  0.00     0.025 A 
ATOM     41  O   LIG d   1       5.273  -2.191  -5.556  0.00  0.00    -0.422 OA
ATOM     42  C   LIG d   1       2.812   0.333  -6.557  0.00  0.00    -0.047 A 
ATOM     43  C   LIG d   1       4.000   0.010  -4.381  0.00  0.00    -0.000 A 
ATOM     44  C   LIG d   1       2.586  -0.044  -7.861  0.00  0.00    -0.019 A 
ATOM     45  H   LIG d   1       2.287   1.180  -6.140  0.00  0.00     0.063 H 
ATOM     46  H   LIG d   1       1.882   0.508  -8.468  0.00  0.00     0.065 H 
ATOM     47  C   LIG d   1       5.116  -0.587  -3.752  0.00  0.00     0.067 A 
ATOM     48  C   LIG d   1       3.220   0.921  -3.683  0.00  0.00    -0.053 A 
ATOM     49  C   LIG d   1       5.432  -0.255  -2.441  0.00  0.00    -0.047 A 
ATOM     50  C   LIG d   1       5.903  -1.550  -4.543  0.00  0.00     0.345 C 
ATOM     51  C   LIG d   1       4.645   0.653  -1.763  0.00  0.00    -0.061 A 
ATOM     52  H   LIG d   1       6.287  -0.704  -1.955  0.00  0.00     0.063 H 
ATOM     53  C   LIG d   1       3.548   1.237  -2.379  0.00  0.00    -0.061 A 
ATOM     54  H   LIG d   1       4.887   0.915  -0.743  0.00  0.00     0.062 H 
ATOM     55  H   LIG d   1       2.943   1.946  -1.832  0.00  0.00     0.062 H 
ATOM     56  O   LIG d   1       7.073  -1.764  -4.293  0.00  0.00    -0.244 OA
ATOM     57  H   LIG d   1       2.363   1.380  -4.156  0.00  0.00     0.062 H 
ENDBRANCH  35  36
ENDBRANCH  32  35
ENDBRANCH   2  32
TORSDOF 15
ENDMDL
MODEL 3
REMARK VINA RESULT:      -6.8      1.316      1.992
REMARK  15 active torsions:
REMARK  status: ('A' for Active; 'I' for Inactive)
REMARK    1  A    between atoms: C_1  and  N_2 
REMARK    2  A    between atoms: N_2  and  C_3 
REMARK       I    between atoms: N_2  and  C_18 
REMARK    3  A    between atoms: C_3  and  C_4 
REMARK    4  A    between atoms: C_4  and  C_6 
REMARK    5  A    between atoms: C_4  and  O_17 
REMARK    6  A    between atoms: C_6  and  C_8 
REMARK    7  A    between atoms: C_6  and  O_16 
REMARK    8  A    between atoms: C_8  and  C_10 
REMARK    9  A    between atoms: C_8  and  O_15 
REMARK   10  A    between atoms: C_10  and  C_12 
REMARK   11  A    between atoms: C_10  and  O_14 
REMARK   12  A    between atoms: C_12  and  O_13 
REMARK   13  A    between atoms: C_18  and  C_20 
REMARK   14  A    between atoms: C_20  and  O_21 
REMARK   15  A    between atoms: O_21  and  C_22 
ROOT
ATOM      1  N   LIG d   1      11.207   3.836  -3.656  0.00  0.00    -0.299 N 
ATOM      2  C   LIG d   1      10.978   4.005  -4.973  0.00  0.00     0.253 C 
ATOM      3  O   LIG d   1      11.086   5.105  -5.471  0.00  0.00    -0.272 OA
ENDROOT
BRANCH   1   4
ATOM      4  C   LIG d   1      11.076   2.507  -3.054  0.00  0.00     0.003 C 
ATOM      5  H   LIG d   1      11.512   2.516  -2.055  0.00  0.00     0.043 H 
ATOM      6  H   LIG d   1      10.021   2.240  -2.987  0.00  0.00     0.043 H 
ATOM      7  H   LIG d   1      11.598   1.776  -3.672  0.00  0.00     0.043 H 
ENDBRANCH   1   4
BRANCH   1   8
ATOM      8  C   LIG d   1      11.587   4.982  -2.825  0.00  0.00     0.043 C 
ATOM      9  H   LIG d   1      12.402   4.693  -2.160  0.00  0.00     0.049 H 
ATOM     10  H   LIG d   1      11.913   5.802  -3.464  0.00  0.00     0.049 H 
BRANCH   8  11
ATOM     11  C   LIG d   1      10.383   5.429  -1.993  0.00  0.00     0.099 C 
ATOM     12  H   LIG d   1       9.492   4.901  -2.330  0.00  0.00     0.064 H 
BRANCH  11  13
ATOM     13  C   LIG d   1      10.178   6.936  -2.165  0.00  0.00     0.111 C 
ATOM     14  H   LIG d   1      11.131   7.409  -2.405  0.00  0.00     0.065 H 
BRANCH  13  15
ATOM     15  C   LIG d   1       9.629   7.527  -0.865  0.00  0.00     0.111 C 
ATOM     16  H   LIG d   1       9.733   6.798  -0.062  0.00  0.00     0.065 H 
BRANCH  15  17
ATOM     17  C   LIG d   1      10.413   8.793  -0.509  0.00  0.00     0.106 C 
ATOM     18  H   LIG d   1       9.873   9.351   0.256  0.00  0.00     0.064 H 
BRANCH  17  19
ATOM     19  C   LIG d   1      11.794   8.404   0.022  0.00  0.00     0.073 C 
ATOM     20  H   LIG d   1      12.396   8.000  -0.792  0.00  0.00     0.058 H 
ATOM     21  H   LIG d   1      12.286   9.285   0.434  0.00  0.00     0.058 H 
BRANCH  19  22
ATOM     22  O   LIG d   1      11.651   7.416   1.044  0.00  0.00    -0.392 OA
ATOM     23  H   LIG d   1      10.943   7.603   1.675  0.00  0.00     0.209 HD
ENDBRANCH  19  22
ENDBRANCH  17  19
BRANCH  17  24
ATOM     24  O   LIG d   1      10.562   9.603  -1.675  0.00  0.00    -0.387 OA
ATOM     25  H   LIG d   1      10.182   9.216  -2.476  0.00  0.00     0.210 HD
ENDBRANCH  17  24
ENDBRANCH  15  17
BRANCH  15  26
ATOM     26  O   LIG d   1       8.248   7.854  -1.036  0.00  0.00    -0.387 OA
ATOM     27  H   LIG d   1       7.675   7.085  -1.162  0.00  0.00     0.210 HD
ENDBRANCH  15  26
ENDBRANCH  13  15
BRANCH  13  28
ATOM     28  O   LIG d   1       9.249   7.173  -3.226  0.00  0.00    -0.387 OA
ATOM     29  H   LIG d   1       8.323   7.130  -2.954  0.00  0.00     0.210 HD
ENDBRANCH  13  28
ENDBRANCH  11  13
BRANCH  11  30
ATOM     30  O   LIG d   1      10.620   5.136  -0.616  0.00  0.00    -0.388 OA
ATOM     31  H   LIG d   1      11.534   5.279  -0.334  0.00  0.00     0.210 HD
ENDBRANCH  11  30
ENDBRANCH   8  11
ENDBRANCH   1   8
BRANCH   2  32
ATOM     32  C   LIG d   1      10.587   2.826  -5.827  0.00  0.00     0.165 C 
ATOM     33  H   LIG d   1      11.189   2.819  -6.735  0.00  0.00     0.080 H 
ATOM     34  H   LIG d   1      10.758   1.904  -5.272  0.00  0.00     0.080 H 
BRANCH  32  35
ATOM     35  O   LIG d   1       9.204   2.926  -6.172  0.00  0.00    -0.483 OA
BRANCH  35  36
ATOM     36  C   LIG d   1       8.368   1.997  -5.640  0.00  0.00     0.125 A 
ATOM     37  C   LIG d   1       7.782   2.225  -4.405  0.00  0.00     0.023 A 
ATOM     38  C   LIG d   1       6.924   1.283  -3.860  0.00  0.00     0.143 A 
ATOM     39  H   LIG d   1       7.991   3.139  -3.869  0.00  0.00     0.069 H 
ATOM     40  C   LIG d   1       6.660   0.099  -4.568  0.00  0.00     0.025 A 
ATOM     41  O   LIG d   1       6.352   1.500  -2.649  0.00  0.00    -0.422 OA
ATOM     42  C   LIG d   1       7.261  -0.126  -5.804  0.00  0.00    -0.047 A 
ATOM     43  C   LIG d   1       5.730  -0.884  -3.979  0.00  0.00    -0.000 A 
ATOM     44  C   LIG d   1       8.110   0.820  -6.335  0.00  0.00    -0.019 A 
ATOM     45  H   LIG d   1       7.061  -1.038  -6.346  0.00  0.00     0.063 H 
ATOM     46  H   LIG d   1       8.576   0.647  -7.294  0.00  0.00     0.065 H 
ATOM     47  C   LIG d   1       4.963  -0.468  -2.867  0.00  0.00     0.067 A 
ATOM     48  C   LIG d   1       5.589  -2.174  -4.471  0.00  0.00    -0.053 A 
ATOM     49  C   LIG d   1       4.067  -1.349  -2.275  0.00  0.00    -0.047 A 
ATOM     50  C   LIG d   1       5.161   0.912  -2.388  0.00  0.00     0.345 C 
ATOM     51  C   LIG d   1       3.940  -2.627  -2.778  0.00  0.00    -0.061 A 
ATOM     52  H   LIG d   1       3.475  -1.035  -1.427  0.00  0.00     0.063 H 
ATOM     53  C   LIG d   1       4.695  -3.037  -3.868  0.00  0.00    -0.061 A 
ATOM     54  H   LIG d   1       3.245  -3.315  -2.321  0.00  0.00     0.062 H 
ATOM     55  H   LIG d   1       4.583  -4.042  -4.247  0.00  0.00     0.062 H 
ATOM     56  O   LIG d   1       4.287   1.499  -1.779  0.00  0.00    -0.244 OA
ATOM     57  H   LIG d   1       6.173  -2.501  -5.319  0.00  0.00     0.062 H 
ENDBRANCH  35  36
ENDBRANCH  32  35
ENDBRANCH   2  32
TORSDOF 15
ENDMDL
MODEL 4
REMARK VINA RESULT:      -6.7      8.025     13.310
REMARK  15 active torsions:
REMARK  status: ('A' for Active; 'I' for Inactive)
REMARK    1  A    between atoms: C_1  and  N_2 
REMARK    2  A    between atoms: N_2  and  C_3 
REMARK       I    between atoms: N_2  and  C_18 
REMARK    3  A    between atoms: C_3  and  C_4 
REMARK    4  A    between atoms: C_4  and  C_6 
REMARK    5  A    between atoms: C_4  and  O_17 
REMARK    6  A    between atoms: C_6  and  C_8 
REMARK    7  A    between atoms: C_6  and  O_16 
REMARK    8  A    between atoms: C_8  and  C_10 
REMARK    9  A    between atoms: C_8  and  O_15 
REMARK   10  A    between atoms: C_10  and  C_12 
REMARK   11  A    between atoms: C_10  and  O_14 
REMARK   12  A    between atoms: C_12  and  O_13 
REMARK   13  A    between atoms: C_18  and  C_20 
REMARK   14  A    between atoms: C_20  and  O_21 
REMARK   15  A    between atoms: O_21  and  C_22 
ROOT
ATOM      1  N   LIG d   1       2.883  -5.583 -10.801  0.00  0.00    -0.299 N 
ATOM      2  C   LIG d   1       3.406  -5.758  -9.571  0.00  0.00     0.253 C 
ATOM      3  O   LIG d   1       2.955  -6.611  -8.837  0.00  0.00    -0.272 OA
ENDROOT
BRANCH   1   4
ATOM      4  C   LIG d   1       3.426  -4.552 -11.689  0.00  0.00     0.003 C 
ATOM      5  H   LIG d   1       4.438  -4.297 -11.372  0.00  0.00     0.043 H 
ATOM      6  H   LIG d   1       3.450  -4.928 -12.711  0.00  0.00     0.043 H 
ATOM      7  H   LIG d   1       2.796  -3.664 -11.642  0.00  0.00     0.043 H 
ENDBRANCH   1   4
BRANCH   1   8
ATOM      8  C   LIG d   1       1.770  -6.424 -11.251  0.00  0.00     0.043 C 
ATOM      9  H   LIG d   1       1.897  -6.658 -12.309  0.00  0.00     0.049 H 
ATOM     10  H   LIG d   1       1.757  -7.349 -10.673  0.00  0.00     0.049 H 
BRANCH   8  11
ATOM     11  C   LIG d   1       0.451  -5.676 -11.048  0.00  0.00     0.099 C 
ATOM     12  H   LIG d   1       0.615  -4.824 -10.388  0.00  0.00     0.064 H 
BRANCH  11  13
ATOM     13  C   LIG d   1      -0.576  -6.619 -10.418  0.00  0.00     0.111 C 
ATOM     14  H   LIG d   1      -1.049  -7.216 -11.198  0.00  0.00     0.065 H 
BRANCH  13  15
ATOM     15  C   LIG d   1      -1.642  -5.797  -9.689  0.00  0.00     0.111 C 
ATOM     16  H   LIG d   1      -1.392  -4.738  -9.754  0.00  0.00     0.065 H 
BRANCH  15  17
ATOM     17  C   LIG d   1      -3.006  -6.039 -10.340  0.00  0.00     0.106 C 
ATOM     18  H   LIG d   1      -3.433  -6.965  -9.954  0.00  0.00     0.064 H 
BRANCH  17  19
ATOM     19  C   LIG d   1      -3.941  -4.872 -10.014  0.00  0.00     0.073 C 
ATOM     20  H   LIG d   1      -3.415  -3.931 -10.173  0.00  0.00     0.058 H 
ATOM     21  H   LIG d   1      -4.814  -4.914 -10.665  0.00  0.00     0.058 H 
BRANCH  19  22
ATOM     22  O   LIG d   1      -4.358  -4.961  -8.651  0.00  0.00    -0.392 OA
ATOM     23  H   LIG d   1      -3.831  -4.425  -8.043  0.00  0.00     0.209 HD
ENDBRANCH  19  22
ENDBRANCH  17  19
BRANCH  17  24
ATOM     24  O   LIG d   1      -2.847  -6.141 -11.755  0.00  0.00    -0.387 OA
ATOM     25  H   LIG d   1      -3.148  -6.982 -12.126  0.00  0.00     0.210 HD
ENDBRANCH  17  24
ENDBRANCH  15  17
BRANCH  15  26
ATOM     26  O   LIG d   1      -1.692  -6.191  -8.316  0.00  0.00    -0.387 OA
ATOM     27  H   LIG d   1      -0.974  -6.784  -8.052  0.00  0.00     0.210 HD
ENDBRANCH  15  26
ENDBRANCH  13  15
BRANCH  13  28
ATOM     28  O   LIG d   1       0.077  -7.484  -9.487  0.00  0.00    -0.387 OA
ATOM     29  H   LIG d   1       1.023  -7.595  -9.651  0.00  0.00     0.210 HD
ENDBRANCH  13  28
ENDBRANCH  11  13
BRANCH  11  30
ATOM     30  O   LIG d   1      -0.034  -5.216 -12.309  0.00  0.00    -0.388 OA
ATOM     31  H   LIG d   1      -0.697  -5.794 -12.712  0.00  0.00     0.210 HD
ENDBRANCH  11  30
ENDBRANCH   8  11
ENDBRANCH   1   8
BRANCH   2  32
ATOM     32  C   LIG d   1       4.550  -4.893  -9.109  0.00  0.00     0.165 C 
ATOM     33  H   LIG d   1       5.400  -5.026  -9.778  0.00  0.00     0.080 H 
ATOM     34  H   LIG d   1       4.241  -3.848  -9.119  0.00  0.00     0.080 H 
BRANCH  32  35
ATOM     35  O   LIG d   1       4.924  -5.267  -7.782  0.00  0.00    -0.483 OA
BRANCH  35  36
ATOM     36  C   LIG d   1       4.803  -4.319  -6.817  0.00  0.00     0.125 A 
ATOM     37  C   LIG d   1       4.598  -2.997  -7.174  0.00  0.00     0.023 A 
ATOM     38  C   LIG d   1       4.468  -2.025  -6.194  0.00  0.00     0.143 A 
ATOM     39  H   LIG d   1       4.535  -2.723  -8.217  0.00  0.00     0.069 H 
ATOM     40  C   LIG d   1       4.550  -2.395  -4.842  0.00  0.00     0.025 A 
ATOM     41  O   LIG d   1       4.272  -0.728  -6.540  0.00  0.00    -0.422 OA
ATOM     42  C   LIG d   1       4.765  -3.726  -4.492  0.00  0.00    -0.047 A 
ATOM     43  C   LIG d   1       4.392  -1.350  -3.812  0.00  0.00    -0.000 A 
ATOM     44  C   LIG d   1       4.891  -4.681  -5.476  0.00  0.00    -0.019 A 
ATOM     45  H   LIG d   1       4.834  -4.009  -3.452  0.00  0.00     0.063 H 
ATOM     46  H   LIG d   1       5.058  -5.714  -5.207  0.00  0.00     0.065 H 
ATOM     47  C   LIG d   1       3.912  -0.089  -4.235  0.00  0.00     0.067 A 
ATOM     48  C   LIG d   1       4.692  -1.561  -2.474  0.00  0.00    -0.053 A 
ATOM     49  C   LIG d   1       3.738   0.931  -3.309  0.00  0.00    -0.047 A 
ATOM     50  C   LIG d   1       3.616   0.075  -5.669  0.00  0.00     0.345 C 
ATOM     51  C   LIG d   1       4.042   0.703  -1.983  0.00  0.00    -0.061 A 
ATOM     52  H   LIG d   1       3.368   1.897  -3.625  0.00  0.00     0.063 H 
ATOM     53  C   LIG d   1       4.515  -0.534  -1.568  0.00  0.00    -0.061 A 
ATOM     54  H   LIG d   1       3.908   1.494  -1.259  0.00  0.00     0.062 H 
ATOM     55  H   LIG d   1       4.748  -0.693  -0.525  0.00  0.00     0.062 H 
ATOM     56  O   LIG d   1       2.813   0.902  -6.056  0.00  0.00    -0.244 OA
ATOM     57  H   LIG d   1       5.061  -2.521  -2.143  0.00  0.00     0.062 H 
ENDBRANCH  35  36
ENDBRANCH  32  35
ENDBRANCH   2  32
TORSDOF 15
ENDMDL
MODEL 5
REMARK VINA RESULT:      -6.7      2.140      9.151
REMARK  15 active torsions:
REMARK  status: ('A' for Active; 'I' for Inactive)
REMARK    1  A    between atoms: C_1  and  N_2 
REMARK    2  A    between atoms: N_2  and  C_3 
REMARK       I    between atoms: N_2  and  C_18 
REMARK    3  A    between atoms: C_3  and  C_4 
REMARK    4  A    between atoms: C_4  and  C_6 
REMARK    5  A    between atoms: C_4  and  O_17 
REMARK    6  A    between atoms: C_6  and  C_8 
REMARK    7  A    between atoms: C_6  and  O_16 
REMARK    8  A    between atoms: C_8  and  C_10 
REMARK    9  A    between atoms: C_8  and  O_15 
REMARK   10  A    between atoms: C_10  and  C_12 
REMARK   11  A    between atoms: C_10  and  O_14 
REMARK   12  A    between atoms: C_12  and  O_13 
REMARK   13  A    between atoms: C_18  and  C_20 
REMARK   14  A    between atoms: C_20  and  O_21 
REMARK   15  A    between atoms: O_21  and  C_22 
ROOT
ATOM      1  N   LIG d   1       7.907   0.562  -4.923  0.00  0.00    -0.299 N 
ATOM      2  C   LIG d   1       8.009   1.599  -4.068  0.00  0.00     0.253 C 
ATOM      3  O   LIG d   1       7.008   2.116  -3.620  0.00  0.00    -0.272 OA
ENDROOT
BRANCH   1   4
ATOM      4  C   LIG d   1       9.116  -0.063  -5.465  0.00  0.00     0.003 C 
ATOM      5  H   LIG d   1       9.189  -1.088  -5.101  0.00  0.00     0.043 H 
ATOM      6  H   LIG d   1       9.066  -0.067  -6.554  0.00  0.00     0.043 H 
ATOM      7  H   LIG d   1       9.991   0.501  -5.143  0.00  0.00     0.043 H 
ENDBRANCH   1   4
BRANCH   1   8
ATOM      8  C   LIG d   1       6.586   0.059  -5.310  0.00  0.00     0.043 C 
ATOM      9  H   LIG d   1       5.841   0.841  -5.157  0.00  0.00     0.049 H 
ATOM     10  H   LIG d   1       6.600  -0.228  -6.361  0.00  0.00     0.049 H 
BRANCH   8  11
ATOM     11  C   LIG d   1       6.233  -1.158  -4.453  0.00  0.00     0.099 C 
ATOM     12  H   LIG d   1       6.682  -2.050  -4.887  0.00  0.00     0.064 H 
BRANCH  11  13
ATOM     13  C   LIG d   1       4.712  -1.323  -4.406  0.00  0.00     0.111 C 
ATOM     14  H   LIG d   1       4.239  -0.484  -4.917  0.00  0.00     0.065 H 
BRANCH  13  15
ATOM     15  C   LIG d   1       4.248  -1.358  -2.948  0.00  0.00     0.111 C 
ATOM     16  H   LIG d   1       5.079  -1.091  -2.295  0.00  0.00     0.065 H 
BRANCH  15  17
ATOM     17  C   LIG d   1       3.105  -0.360  -2.752  0.00  0.00     0.106 C 
ATOM     18  H   LIG d   1       2.572  -0.595  -1.831  0.00  0.00     0.064 H 
BRANCH  17  19
ATOM     19  C   LIG d   1       3.676   1.058  -2.662  0.00  0.00     0.073 C 
ATOM     20  H   LIG d   1       3.938   1.407  -3.661  0.00  0.00     0.058 H 
ATOM     21  H   LIG d   1       2.930   1.723  -2.229  0.00  0.00     0.058 H 
BRANCH  19  22
ATOM     22  O   LIG d   1       4.843   1.050  -1.839  0.00  0.00    -0.392 OA
ATOM     23  H   LIG d   1       5.411   1.824  -1.953  0.00  0.00     0.209 HD
ENDBRANCH  19  22
ENDBRANCH  17  19
BRANCH  17  24
ATOM     24  O   LIG d   1       2.206  -0.442  -3.858  0.00  0.00    -0.387 OA
ATOM     25  H   LIG d   1       1.485  -1.074  -3.734  0.00  0.00     0.210 HD
ENDBRANCH  17  24
ENDBRANCH  15  17
BRANCH  15  26
ATOM     26  O   LIG d   1       3.793  -2.674  -2.625  0.00  0.00    -0.387 OA
ATOM     27  H   LIG d   1       4.161  -3.026  -1.803  0.00  0.00     0.210 HD
ENDBRANCH  15  26
ENDBRANCH  13  15
BRANCH  13  28
ATOM     28  O   LIG d   1       4.344  -2.543  -5.053  0.00  0.00    -0.387 OA
ATOM     29  H   LIG d   1       4.139  -2.443  -5.992  0.00  0.00     0.210 HD
ENDBRANCH  13  28
ENDBRANCH  11  13
BRANCH  11  30
ATOM     30  O   LIG d   1       6.732  -0.968  -3.128  0.00  0.00    -0.388 OA
ATOM     31  H   LIG d   1       6.045  -0.932  -2.449  0.00  0.00     0.210 HD
ENDBRANCH  11  30
ENDBRANCH   8  11
ENDBRANCH   1   8
BRANCH   2  32
ATOM     32  C   LIG d   1       9.368   2.115  -3.669  0.00  0.00     0.165 C 
ATOM     33  H   LIG d   1       9.376   2.335  -2.602  0.00  0.00     0.080 H 
ATOM     34  H   LIG d   1      10.122   1.360  -3.890  0.00  0.00     0.080 H 
BRANCH  32  35
ATOM     35  O   LIG d   1       9.658   3.307  -4.404  0.00  0.00    -0.483 OA
BRANCH  35  36
ATOM     36  C   LIG d   1       9.759   4.459  -3.693  0.00  0.00     0.125 A 
ATOM     37  C   LIG d   1      10.185   4.420  -2.375  0.00  0.00     0.023 A 
ATOM     38  C   LIG d   1      10.296   5.594  -1.646  0.00  0.00     0.143 A 
ATOM     39  H   LIG d   1      10.436   3.474  -1.917  0.00  0.00     0.069 H 
ATOM     40  C   LIG d   1       9.968   6.816  -2.255  0.00  0.00     0.025 A 
ATOM     41  O   LIG d   1      10.708   5.559  -0.354  0.00  0.00    -0.422 OA
ATOM     42  C   LIG d   1       9.532   6.845  -3.577  0.00  0.00    -0.047 A 
ATOM     43  C   LIG d   1      10.109   8.057  -1.469  0.00  0.00    -0.000 A 
ATOM     44  C   LIG d   1       9.429   5.672  -4.290  0.00  0.00    -0.019 A 
ATOM     45  H   LIG d   1       9.276   7.785  -4.043  0.00  0.00     0.063 H 
ATOM     46  H   LIG d   1       9.091   5.692  -5.317  0.00  0.00     0.065 H 
ATOM     47  C   LIG d   1      10.806   7.973  -0.241  0.00  0.00     0.067 A 
ATOM     48  C   LIG d   1       9.590   9.275  -1.886  0.00  0.00    -0.053 A 
ATOM     49  C   LIG d   1      10.973   9.110   0.539  0.00  0.00    -0.047 A 
ATOM     50  C   LIG d   1      11.328   6.652   0.150  0.00  0.00     0.345 C 
ATOM     51  C   LIG d   1      10.451  10.311   0.108  0.00  0.00    -0.061 A 
ATOM     52  H   LIG d   1      11.508   9.053   1.477  0.00  0.00     0.063 H 
ATOM     53  C   LIG d   1       9.765  10.394  -1.095  0.00  0.00    -0.061 A 
ATOM     54  H   LIG d   1      10.579  11.198   0.711  0.00  0.00     0.062 H 
ATOM     55  H   LIG d   1       9.363  11.344  -1.416  0.00  0.00     0.062 H 
ATOM     56  O   LIG d   1      12.279   6.547   0.900  0.00  0.00    -0.244 OA
ATOM     57  H   LIG d   1       9.055   9.348  -2.821  0.00  0.00     0.062 H 
ENDBRANCH  35  36
ENDBRANCH  32  35
ENDBRANCH   2  32
TORSDOF 15
ENDMDL
MODEL 6
REMARK VINA RESULT:      -6.5      2.847      8.677
REMARK  15 active torsions:
REMARK  status: ('A' for Active; 'I' for Inactive)
REMARK    1  A    between atoms: C_1  and  N_2 
REMARK    2  A    between atoms: N_2  and  C_3 
REMARK       I    between atoms: N_2  and  C_18 
REMARK    3  A    between atoms: C_3  and  C_4 
REMARK    4  A    between atoms: C_4  and  C_6 
REMARK    5  A    between atoms: C_4  and  O_17 
REMARK    6  A    between atoms: C_6  and  C_8 
REMARK    7  A    between atoms: C_6  and  O_16 
REMARK    8  A    between atoms: C_8  and  C_10 
REMARK    9  A    between atoms: C_8  and  O_15 
REMARK   10  A    between atoms: C_10  and  C_12 
REMARK   11  A    between atoms: C_10  and  O_14 
REMARK   12  A    between atoms: C_12  and  O_13 
REMARK   13  A    between atoms: C_18  and  C_20 
REMARK   14  A    between atoms: C_20  and  O_21 
REMARK   15  A    between atoms: O_21  and  C_22 
ROOT
ATOM      1  N   LIG d   1       7.058  -0.545  -6.234  0.00  0.00    -0.299 N 
ATOM      2  C   LIG d   1       7.410   0.681  -5.799  0.00  0.00     0.253 C 
ATOM      3  O   LIG d   1       6.867   1.157  -4.825  0.00  0.00    -0.272 OA
ENDROOT
BRANCH   1   4
ATOM      4  C   LIG d   1       7.713  -1.121  -7.411  0.00  0.00     0.003 C 
ATOM      5  H   LIG d   1       8.614  -0.552  -7.640  0.00  0.00     0.043 H 
ATOM      6  H   LIG d   1       7.980  -2.158  -7.208  0.00  0.00     0.043 H 
ATOM      7  H   LIG d   1       7.032  -1.081  -8.261  0.00  0.00     0.043 H 
ENDBRANCH   1   4
BRANCH   1   8
ATOM      8  C   LIG d   1       6.020  -1.303  -5.529  0.00  0.00     0.043 C 
ATOM      9  H   LIG d   1       6.277  -2.363  -5.536  0.00  0.00     0.049 H 
ATOM     10  H   LIG d   1       5.950  -0.952  -4.499  0.00  0.00     0.049 H 
BRANCH   8  11
ATOM     11  C   LIG d   1       4.676  -1.099  -6.231  0.00  0.00     0.099 C 
ATOM     12  H   LIG d   1       4.841  -0.646  -7.207  0.00  0.00     0.064 H 
BRANCH  11  13
ATOM     13  C   LIG d   1       3.795  -0.178  -5.384  0.00  0.00     0.111 C 
ATOM     14  H   LIG d   1       4.147   0.849  -5.475  0.00  0.00     0.065 H 
BRANCH  13  15
ATOM     15  C   LIG d   1       3.866  -0.612  -3.918  0.00  0.00     0.111 C 
ATOM     16  H   LIG d   1       4.889  -0.894  -3.671  0.00  0.00     0.065 H 
BRANCH  15  17
ATOM     17  C   LIG d   1       3.427   0.548  -3.020  0.00  0.00     0.106 C 
ATOM     18  H   LIG d   1       2.438   0.337  -2.613  0.00  0.00     0.064 H 
BRANCH  17  19
ATOM     19  C   LIG d   1       4.427   0.712  -1.874  0.00  0.00     0.073 C 
ATOM     20  H   LIG d   1       3.958   1.262  -1.059  0.00  0.00     0.058 H 
ATOM     21  H   LIG d   1       4.736  -0.271  -1.518  0.00  0.00     0.058 H 
BRANCH  19  22
ATOM     22  O   LIG d   1       5.570   1.432  -2.339  0.00  0.00    -0.392 OA
ATOM     23  H   LIG d   1       6.273   1.522  -1.681  0.00  0.00     0.209 HD
ENDBRANCH  19  22
ENDBRANCH  17  19
BRANCH  17  24
ATOM     24  O   LIG d   1       3.380   1.751  -3.788  0.00  0.00    -0.387 OA
ATOM     25  H   LIG d   1       4.042   1.796  -4.492  0.00  0.00     0.210 HD
ENDBRANCH  17  24
ENDBRANCH  15  17
BRANCH  15  26
ATOM     26  O   LIG d   1       3.000  -1.730  -3.710  0.00  0.00    -0.387 OA
ATOM     27  H   LIG d   1       3.308  -2.344  -3.029  0.00  0.00     0.210 HD
ENDBRANCH  15  26
ENDBRANCH  13  15
BRANCH  13  28
ATOM     28  O   LIG d   1       2.443  -0.260  -5.839  0.00  0.00    -0.387 OA
ATOM     29  H   LIG d   1       1.837  -0.662  -5.203  0.00  0.00     0.210 HD
ENDBRANCH  13  28
ENDBRANCH  11  13
BRANCH  11  30
ATOM     30  O   LIG d   1       4.027  -2.361  -6.394  0.00  0.00    -0.388 OA
ATOM     31  H   LIG d   1       4.056  -2.705  -7.297  0.00  0.00     0.210 HD
ENDBRANCH  11  30
ENDBRANCH   8  11
ENDBRANCH   1   8
BRANCH   2  32
ATOM     32  C   LIG d   1       8.478   1.460  -6.524  0.00  0.00     0.165 C 
ATOM     33  H   LIG d   1       8.748   0.939  -7.442  0.00  0.00     0.080 H 
ATOM     34  H   LIG d   1       8.100   2.453  -6.768  0.00  0.00     0.080 H 
BRANCH  32  35
ATOM     35  O   LIG d   1       9.630   1.580  -5.687  0.00  0.00    -0.483 OA
BRANCH  35  36
ATOM     36  C   LIG d   1       9.750   2.725  -4.967  0.00  0.00     0.125 A 
ATOM     37  C   LIG d   1       9.904   3.937  -5.621  0.00  0.00     0.023 A 
ATOM     38  C   LIG d   1      10.022   5.109  -4.891  0.00  0.00     0.143 A 
ATOM     39  H   LIG d   1       9.927   3.968  -6.700  0.00  0.00     0.069 H 
ATOM     40  C   LIG d   1       9.989   5.055  -3.488  0.00  0.00     0.025 A 
ATOM     41  O   LIG d   1      10.177   6.297  -5.528  0.00  0.00    -0.422 OA
ATOM     42  C   LIG d   1       9.843   3.831  -2.839  0.00  0.00    -0.047 A 
ATOM     43  C   LIG d   1      10.098   6.315  -2.728  0.00  0.00    -0.000 A 
ATOM     44  C   LIG d   1       9.725   2.674  -3.576  0.00  0.00    -0.019 A 
ATOM     45  H   LIG d   1       9.822   3.789  -1.760  0.00  0.00     0.063 H 
ATOM     46  H   LIG d   1       9.611   1.724  -3.075  0.00  0.00     0.065 H 
ATOM     47  C   LIG d   1       9.971   7.523  -3.453  0.00  0.00     0.067 A 
ATOM     48  C   LIG d   1      10.317   6.351  -1.359  0.00  0.00    -0.053 A 
ATOM     49  C   LIG d   1      10.061   8.740  -2.790  0.00  0.00    -0.047 A 
ATOM     50  C   LIG d   1       9.745   7.419  -4.905  0.00  0.00     0.345 C 
ATOM     51  C   LIG d   1      10.278   8.756  -1.428  0.00  0.00    -0.061 A 
ATOM     52  H   LIG d   1       9.961   9.667  -3.337  0.00  0.00     0.063 H 
ATOM     53  C   LIG d   1      10.405   7.571  -0.717  0.00  0.00    -0.061 A 
ATOM     54  H   LIG d   1      10.349   9.701  -0.909  0.00  0.00     0.062 H 
ATOM     55  H   LIG d   1      10.576   7.604   0.348  0.00  0.00     0.062 H 
ATOM     56  O   LIG d   1       9.193   8.309  -5.522  0.00  0.00    -0.244 OA
ATOM     57  H   LIG d   1      10.417   5.433  -0.798  0.00  0.00     0.062 H 
ENDBRANCH  35  36
ENDBRANCH  32  35
ENDBRANCH   2  32
TORSDOF 15
ENDMDL
MODEL 7
REMARK VINA RESULT:      -6.5      3.874      5.562
REMARK  15 active torsions:
REMARK  status: ('A' for Active; 'I' for Inactive)
REMARK    1  A    between atoms: C_1  and  N_2 
REMARK    2  A    between atoms: N_2  and  C_3 
REMARK       I    between atoms: N_2  and  C_18 
REMARK    3  A    between atoms: C_3  and  C_4 
REMARK    4  A    between atoms: C_4  and  C_6 
REMARK    5  A    between atoms: C_4  and  O_17 
REMARK    6  A    between atoms: C_6  and  C_8 
REMARK    7  A    between atoms: C_6  and  O_16 
REMARK    8  A    between atoms: C_8  and  C_10 
REMARK    9  A    between atoms: C_8  and  O_15 
REMARK   10  A    between atoms: C_10  and  C_12 
REMARK   11  A    between atoms: C_10  and  O_14 
REMARK   12  A    between atoms: C_12  and  O_13 
REMARK   13  A    between atoms: C_18  and  C_20 
REMARK   14  A    between atoms: C_20  and  O_21 
REMARK   15  A    between atoms: O_21  and  C_22 
ROOT
ATOM      1  N   LIG d   1      10.800   5.583  -6.769  0.00  0.00    -0.299 N 
ATOM      2  C   LIG d   1      10.139   4.470  -7.147  0.00  0.00     0.253 C 
ATOM      3  O   LIG d   1       9.854   4.302  -8.313  0.00  0.00    -0.272 OA
ENDROOT
BRANCH   1   4
ATOM      4  C   LIG d   1      11.145   5.787  -5.360  0.00  0.00     0.003 C 
ATOM      5  H   LIG d   1      10.327   6.304  -4.857  0.00  0.00     0.043 H 
ATOM      6  H   LIG d   1      11.311   4.821  -4.882  0.00  0.00     0.043 H 
ATOM      7  H   LIG d   1      12.052   6.388  -5.291  0.00  0.00     0.043 H 
ENDBRANCH   1   4
BRANCH   1   8
ATOM      8  C   LIG d   1      11.175   6.588  -7.767  0.00  0.00     0.043 C 
ATOM      9  H   LIG d   1      12.196   6.921  -7.581  0.00  0.00     0.049 H 
ATOM     10  H   LIG d   1      11.111   6.151  -8.764  0.00  0.00     0.049 H 
BRANCH   8  11
ATOM     11  C   LIG d   1      10.222   7.781  -7.671  0.00  0.00     0.099 C 
ATOM     12  H   LIG d   1       9.739   7.782  -6.695  0.00  0.00     0.064 H 
BRANCH  11  13
ATOM     13  C   LIG d   1       9.159   7.673  -8.766  0.00  0.00     0.111 C 
ATOM     14  H   LIG d   1       8.547   6.787  -8.594  0.00  0.00     0.065 H 
BRANCH  13  15
ATOM     15  C   LIG d   1       9.843   7.561 -10.131  0.00  0.00     0.111 C 
ATOM     16  H   LIG d   1      10.873   7.233  -9.995  0.00  0.00     0.065 H 
BRANCH  15  17
ATOM     17  C   LIG d   1       9.094   6.545 -10.996  0.00  0.00     0.106 C 
ATOM     18  H   LIG d   1       8.664   7.050 -11.860  0.00  0.00     0.064 H 
BRANCH  17  19
ATOM     19  C   LIG d   1      10.067   5.462 -11.469  0.00  0.00     0.073 C 
ATOM     20  H   LIG d   1      10.229   5.565 -12.542  0.00  0.00     0.058 H 
ATOM     21  H   LIG d   1      11.016   5.574 -10.946  0.00  0.00     0.058 H 
BRANCH  19  22
ATOM     22  O   LIG d   1       9.518   4.173 -11.191  0.00  0.00    -0.392 OA
ATOM     23  H   LIG d   1       9.349   3.639 -11.978  0.00  0.00     0.209 HD
ENDBRANCH  19  22
ENDBRANCH  17  19
BRANCH  17  24
ATOM     24  O   LIG d   1       8.051   5.944 -10.227  0.00  0.00    -0.387 OA
ATOM     25  H   LIG d   1       7.159   6.172 -10.526  0.00  0.00     0.210 HD
ENDBRANCH  17  24
ENDBRANCH  15  17
BRANCH  15  26
ATOM     26  O   LIG d   1       9.831   8.837 -10.776  0.00  0.00    -0.387 OA
ATOM     27  H   LIG d   1       9.809   9.586 -10.164  0.00  0.00     0.210 HD
ENDBRANCH  15  26
ENDBRANCH  13  15
BRANCH  13  28
ATOM     28  O   LIG d   1       8.330   8.837  -8.743  0.00  0.00    -0.387 OA
ATOM     29  H   LIG d   1       8.735   9.599  -8.308  0.00  0.00     0.210 HD
ENDBRANCH  13  28
ENDBRANCH  11  13
BRANCH  11  30
ATOM     30  O   LIG d   1      10.958   8.993  -7.840  0.00  0.00    -0.388 OA
ATOM     31  H   LIG d   1      11.710   8.917  -8.443  0.00  0.00     0.210 HD
ENDBRANCH  11  30
ENDBRANCH   8  11
ENDBRANCH   1   8
BRANCH   2  32
ATOM     32  C   LIG d   1       9.755   3.437  -6.119  0.00  0.00     0.165 C 
ATOM     33  H   LIG d   1      10.620   3.199  -5.501  0.00  0.00     0.080 H 
ATOM     34  H   LIG d   1       8.956   3.831  -5.490  0.00  0.00     0.080 H 
BRANCH  32  35
ATOM     35  O   LIG d   1       9.301   2.254  -6.781  0.00  0.00    -0.483 OA
BRANCH  35  36
ATOM     36  C   LIG d   1       8.428   1.465  -6.102  0.00  0.00     0.125 A 
ATOM     37  C   LIG d   1       7.988   1.848  -4.846  0.00  0.00     0.023 A 
ATOM     38  C   LIG d   1       7.093   1.050  -4.151  0.00  0.00     0.143 A 
ATOM     39  H   LIG d   1       8.340   2.771  -4.409  0.00  0.00     0.069 H 
ATOM     40  C   LIG d   1       6.643  -0.147  -4.732  0.00  0.00     0.025 A 
ATOM     41  O   LIG d   1       6.664   1.418  -2.918  0.00  0.00    -0.422 OA
ATOM     42  C   LIG d   1       7.097  -0.528  -5.992  0.00  0.00    -0.047 A 
ATOM     43  C   LIG d   1       5.676  -0.976  -3.985  0.00  0.00    -0.000 A 
ATOM     44  C   LIG d   1       7.985   0.275  -6.672  0.00  0.00    -0.019 A 
ATOM     45  H   LIG d   1       6.754  -1.451  -6.435  0.00  0.00     0.063 H 
ATOM     46  H   LIG d   1       8.339  -0.018  -7.650  0.00  0.00     0.065 H 
ATOM     47  C   LIG d   1       5.065  -0.395  -2.850  0.00  0.00     0.067 A 
ATOM     48  C   LIG d   1       5.357  -2.275  -4.352  0.00  0.00    -0.053 A 
ATOM     49  C   LIG d   1       4.143  -1.125  -2.110  0.00  0.00    -0.047 A 
ATOM     50  C   LIG d   1       5.448   0.986  -2.507  0.00  0.00     0.345 C 
ATOM     51  C   LIG d   1       3.838  -2.415  -2.491  0.00  0.00    -0.061 A 
ATOM     52  H   LIG d   1       3.669  -0.686  -1.244  0.00  0.00     0.063 H 
ATOM     53  C   LIG d   1       4.440  -2.986  -3.604  0.00  0.00    -0.061 A 
ATOM     54  H   LIG d   1       3.122  -2.987  -1.920  0.00  0.00     0.062 H 
ATOM     55  H   LIG d   1       4.189  -3.998  -3.886  0.00  0.00     0.062 H 
ATOM     56  O   LIG d   1       4.702   1.710  -1.877  0.00  0.00    -0.244 OA
ATOM     57  H   LIG d   1       5.821  -2.726  -5.217  0.00  0.00     0.062 H 
ENDBRANCH  35  36
ENDBRANCH  32  35
ENDBRANCH   2  32
TORSDOF 15
ENDMDL
MODEL 8
REMARK VINA RESULT:      -6.3      4.050      5.596
REMARK  15 active torsions:
REMARK  status: ('A' for Active; 'I' for Inactive)
REMARK    1  A    between atoms: C_1  and  N_2 
REMARK    2  A    between atoms: N_2  and  C_3 
REMARK       I    between atoms: N_2  and  C_18 
REMARK    3  A    between atoms: C_3  and  C_4 
REMARK    4  A    between atoms: C_4  and  C_6 
REMARK    5  A    between atoms: C_4  and  O_17 
REMARK    6  A    between atoms: C_6  and  C_8 
REMARK    7  A    between atoms: C_6  and  O_16 
REMARK    8  A    between atoms: C_8  and  C_10 
REMARK    9  A    between atoms: C_8  and  O_15 
REMARK   10  A    between atoms: C_10  and  C_12 
REMARK   11  A    between atoms: C_10  and  O_14 
REMARK   12  A    between atoms: C_12  and  O_13 
REMARK   13  A    between atoms: C_18  and  C_20 
REMARK   14  A    between atoms: C_20  and  O_21 
REMARK   15  A    between atoms: O_21  and  C_22 
ROOT
ATOM      1  N   LIG d   1      10.187   3.690  -9.887  0.00  0.00    -0.299 N 
ATOM      2  C   LIG d   1       9.188   3.128  -9.177  0.00  0.00     0.253 C 
ATOM      3  O   LIG d   1       8.050   3.518  -9.320  0.00  0.00    -0.272 OA
ENDROOT
BRANCH   1   4
ATOM      4  C   LIG d   1      11.564   3.219  -9.714  0.00  0.00     0.003 C 
ATOM      5  H   LIG d   1      12.248   3.907 -10.212  0.00  0.00     0.043 H 
ATOM      6  H   LIG d   1      11.802   3.175  -8.652  0.00  0.00     0.043 H 
ATOM      7  H   LIG d   1      11.665   2.226 -10.151  0.00  0.00     0.043 H 
ENDBRANCH   1   4
BRANCH   1   8
ATOM      8  C   LIG d   1       9.896   4.771 -10.832  0.00  0.00     0.043 C 
ATOM      9  H   LIG d   1      10.216   4.475 -11.832  0.00  0.00     0.049 H 
ATOM     10  H   LIG d   1       8.825   4.971 -10.837  0.00  0.00     0.049 H 
BRANCH   8  11
ATOM     11  C   LIG d   1      10.649   6.034 -10.408  0.00  0.00     0.099 C 
ATOM     12  H   LIG d   1      11.353   5.788  -9.614  0.00  0.00     0.064 H 
BRANCH  11  13
ATOM     13  C   LIG d   1       9.649   7.075  -9.898  0.00  0.00     0.111 C 
ATOM     14  H   LIG d   1       9.652   7.939 -10.562  0.00  0.00     0.065 H 
BRANCH  13  15
ATOM     15  C   LIG d   1      10.047   7.515  -8.487  0.00  0.00     0.111 C 
ATOM     16  H   LIG d   1      10.896   8.196  -8.545  0.00  0.00     0.065 H 
BRANCH  15  17
ATOM     17  C   LIG d   1       8.866   8.229  -7.824  0.00  0.00     0.106 C 
ATOM     18  H   LIG d   1       8.058   7.516  -7.660  0.00  0.00     0.064 H 
BRANCH  17  19
ATOM     19  C   LIG d   1       9.312   8.812  -6.481  0.00  0.00     0.073 C 
ATOM     20  H   LIG d   1      10.392   8.961  -6.491  0.00  0.00     0.058 H 
ATOM     21  H   LIG d   1       8.816   9.769  -6.318  0.00  0.00     0.058 H 
BRANCH  19  22
ATOM     22  O   LIG d   1       8.965   7.910  -5.430  0.00  0.00    -0.392 OA
ATOM     23  H   LIG d   1       9.205   6.990  -5.606  0.00  0.00     0.209 HD
ENDBRANCH  19  22
ENDBRANCH  17  19
BRANCH  17  24
ATOM     24  O   LIG d   1       8.409   9.282  -8.673  0.00  0.00    -0.387 OA
ATOM     25  H   LIG d   1       8.599   9.143  -9.611  0.00  0.00     0.210 HD
ENDBRANCH  17  24
ENDBRANCH  15  17
BRANCH  15  26
ATOM     26  O   LIG d   1      10.407   6.368  -7.714  0.00  0.00    -0.387 OA
ATOM     27  H   LIG d   1      10.098   6.400  -6.798  0.00  0.00     0.210 HD
ENDBRANCH  15  26
ENDBRANCH  13  15
BRANCH  13  28
ATOM     28  O   LIG d   1       8.339   6.503  -9.867  0.00  0.00    -0.387 OA
ATOM     29  H   LIG d   1       7.918   6.438 -10.734  0.00  0.00     0.210 HD
ENDBRANCH  13  28
ENDBRANCH  11  13
BRANCH  11  30
ATOM     30  O   LIG d   1      11.358   6.565 -11.528  0.00  0.00    -0.388 OA
ATOM     31  H   LIG d   1      11.242   6.059 -12.344  0.00  0.00     0.210 HD
ENDBRANCH  11  30
ENDBRANCH   8  11
ENDBRANCH   1   8
BRANCH   2  32
ATOM     32  C   LIG d   1       9.488   2.015  -8.206  0.00  0.00     0.165 C 
ATOM     33  H   LIG d   1       8.819   1.177  -8.394  0.00  0.00     0.080 H 
ATOM     34  H   LIG d   1      10.521   1.691  -8.334  0.00  0.00     0.080 H 
BRANCH  32  35
ATOM     35  O   LIG d   1       9.299   2.486  -6.870  0.00  0.00    -0.483 OA
BRANCH  35  36
ATOM     36  C   LIG d   1       8.426   1.796  -6.091  0.00  0.00     0.125 A 
ATOM     37  C   LIG d   1       7.746   0.709  -6.617  0.00  0.00     0.023 A 
ATOM     38  C   LIG d   1       6.858  -0.002  -5.825  0.00  0.00     0.143 A 
ATOM     39  H   LIG d   1       7.912   0.413  -7.642  0.00  0.00     0.069 H 
ATOM     40  C   LIG d   1       6.652   0.393  -4.494  0.00  0.00     0.025 A 
ATOM     41  O   LIG d   1       6.187  -1.064  -6.338  0.00  0.00    -0.422 OA
ATOM     42  C   LIG d   1       7.334   1.492  -3.976  0.00  0.00    -0.047 A 
ATOM     43  C   LIG d   1       5.716  -0.387  -3.661  0.00  0.00    -0.000 A 
ATOM     44  C   LIG d   1       8.215   2.189  -4.773  0.00  0.00    -0.019 A 
ATOM     45  H   LIG d   1       7.171   1.798  -2.954  0.00  0.00     0.063 H 
ATOM     46  H   LIG d   1       8.744   3.042  -4.374  0.00  0.00     0.065 H 
ATOM     47  C   LIG d   1       5.278  -1.632  -4.169  0.00  0.00     0.067 A 
ATOM     48  C   LIG d   1       5.262   0.053  -2.426  0.00  0.00    -0.053 A 
ATOM     49  C   LIG d   1       4.400  -2.412  -3.428  0.00  0.00    -0.047 A 
ATOM     50  C   LIG d   1       5.791  -2.041  -5.488  0.00  0.00     0.345 C 
ATOM     51  C   LIG d   1       3.960  -1.959  -2.201  0.00  0.00    -0.061 A 
ATOM     52  H   LIG d   1       4.064  -3.366  -3.808  0.00  0.00     0.063 H 
ATOM     53  C   LIG d   1       4.388  -0.736  -1.704  0.00  0.00    -0.061 A 
ATOM     54  H   LIG d   1       3.278  -2.562  -1.621  0.00  0.00     0.062 H 
ATOM     55  H   LIG d   1       4.032  -0.397  -0.742  0.00  0.00     0.062 H 
ATOM     56  O   LIG d   1       5.854  -3.214  -5.804  0.00  0.00    -0.244 OA
ATOM     57  H   LIG d   1       5.591   1.003  -2.031  0.00  0.00     0.062 H 
ENDBRANCH  35  36
ENDBRANCH  32  35
ENDBRANCH   2  32
TORSDOF 15
ENDMDL
MODEL 9
REMARK VINA RESULT:      -6.3      4.077      5.885
REMARK  15 active torsions:
REMARK  status: ('A' for Active; 'I' for Inactive)
REMARK    1  A    between atoms: C_1  and  N_2 
REMARK    2  A    between atoms: N_2  and  C_3 
REMARK       I    between atoms: N_2  and  C_18 
REMARK    3  A    between atoms: C_3  and  C_4 
REMARK    4  A    between atoms: C_4  and  C_6 
REMARK    5  A    between atoms: C_4  and  O_17 
REMARK    6  A    between atoms: C_6  and  C_8 
REMARK    7  A    between atoms: C_6  and  O_16 
REMARK    8  A    between atoms: C_8  and  C_10 
REMARK    9  A    between atoms: C_8  and  O_15 
REMARK   10  A    between atoms: C_10  and  C_12 
REMARK   11  A    between atoms: C_10  and  O_14 
REMARK   12  A    between atoms: C_12  and  O_13 
REMARK   13  A    between atoms: C_18  and  C_20 
REMARK   14  A    between atoms: C_20  and  O_21 
REMARK   15  A    between atoms: O_21  and  C_22 
ROOT
ATOM      1  N   LIG d   1      11.499   5.989  -6.793  0.00  0.00    -0.299 N 
ATOM      2  C   LIG d   1      11.055   4.723  -6.926  0.00  0.00     0.253 C 
ATOM      3  O   LIG d   1      10.628   4.339  -7.993  0.00  0.00    -0.272 OA
ENDROOT
BRANCH   1   4
ATOM      4  C   LIG d   1      12.014   6.454  -5.503  0.00  0.00     0.003 C 
ATOM      5  H   LIG d   1      12.395   7.470  -5.609  0.00  0.00     0.043 H 
ATOM      6  H   LIG d   1      11.212   6.442  -4.766  0.00  0.00     0.043 H 
ATOM      7  H   LIG d   1      12.819   5.796  -5.176  0.00  0.00     0.043 H 
ENDBRANCH   1   4
BRANCH   1   8
ATOM      8  C   LIG d   1      11.465   6.901  -7.940  0.00  0.00     0.043 C 
ATOM      9  H   LIG d   1      12.427   7.408  -8.028  0.00  0.00     0.049 H 
ATOM     10  H   LIG d   1      11.268   6.334  -8.850  0.00  0.00     0.049 H 
BRANCH   8  11
ATOM     11  C   LIG d   1      10.358   7.937  -7.734  0.00  0.00     0.099 C 
ATOM     12  H   LIG d   1       9.988   7.875  -6.712  0.00  0.00     0.064 H 
BRANCH  11  13
ATOM     13  C   LIG d   1       9.213   7.658  -8.710  0.00  0.00     0.111 C 
ATOM     14  H   LIG d   1       8.644   6.794  -8.367  0.00  0.00     0.065 H 
BRANCH  13  15
ATOM     15  C   LIG d   1       9.786   7.370 -10.100  0.00  0.00     0.111 C 
ATOM     16  H   LIG d   1      10.836   7.092 -10.009  0.00  0.00     0.065 H 
BRANCH  15  17
ATOM     17  C   LIG d   1       9.008   6.220 -10.744  0.00  0.00     0.106 C 
ATOM     18  H   LIG d   1       8.248   6.625 -11.411  0.00  0.00     0.064 H 
BRANCH  17  19
ATOM     19  C   LIG d   1       9.971   5.338 -11.542  0.00  0.00     0.073 C 
ATOM     20  H   LIG d   1      10.129   4.399 -11.011  0.00  0.00     0.058 H 
ATOM     21  H   LIG d   1       9.545   5.131 -12.524  0.00  0.00     0.058 H 
BRANCH  19  22
ATOM     22  O   LIG d   1      11.220   6.014 -11.697  0.00  0.00    -0.392 OA
ATOM     23  H   LIG d   1      11.793   5.964 -10.921  0.00  0.00     0.209 HD
ENDBRANCH  19  22
ENDBRANCH  17  19
BRANCH  17  24
ATOM     24  O   LIG d   1       8.382   5.440  -9.725  0.00  0.00    -0.387 OA
ATOM     25  H   LIG d   1       7.416   5.491  -9.728  0.00  0.00     0.210 HD
ENDBRANCH  17  24
ENDBRANCH  15  17
BRANCH  15  26
ATOM     26  O   LIG d   1       9.672   8.539 -10.914  0.00  0.00    -0.387 OA
ATOM     27  H   LIG d   1      10.087   8.454 -11.783  0.00  0.00     0.210 HD
ENDBRANCH  15  26
ENDBRANCH  13  15
BRANCH  13  28
ATOM     28  O   LIG d   1       8.354   8.799  -8.777  0.00  0.00    -0.387 OA
ATOM     29  H   LIG d   1       8.534   9.382  -9.526  0.00  0.00     0.210 HD
ENDBRANCH  13  28
ENDBRANCH  11  13
BRANCH  11  30
ATOM     30  O   LIG d   1      10.880   9.245  -7.974  0.00  0.00    -0.388 OA
ATOM     31  H   LIG d   1      11.633   9.264  -8.580  0.00  0.00     0.210 HD
ENDBRANCH  11  30
ENDBRANCH   8  11
ENDBRANCH   1   8
BRANCH   2  32
ATOM     32  C   LIG d   1      11.090   3.785  -5.746  0.00  0.00     0.165 C 
ATOM     33  H   LIG d   1      12.112   3.699  -5.380  0.00  0.00     0.080 H 
ATOM     34  H   LIG d   1      10.452   4.177  -4.953  0.00  0.00     0.080 H 
BRANCH  32  35
ATOM     35  O   LIG d   1      10.616   2.498  -6.147  0.00  0.00    -0.483 OA
BRANCH  35  36
ATOM     36  C   LIG d   1       9.566   1.985  -5.456  0.00  0.00     0.125 A 
ATOM     37  C   LIG d   1       9.181   0.671  -5.663  0.00  0.00     0.023 A 
ATOM     38  C   LIG d   1       8.113   0.141  -4.957  0.00  0.00     0.143 A 
ATOM     39  H   LIG d   1       9.717   0.058  -6.373  0.00  0.00     0.069 H 
ATOM     40  C   LIG d   1       7.427   0.948  -4.036  0.00  0.00     0.025 A 
ATOM     41  O   LIG d   1       7.730  -1.145  -5.161  0.00  0.00    -0.422 OA
ATOM     42  C   LIG d   1       7.815   2.272  -3.840  0.00  0.00    -0.047 A 
ATOM     43  C   LIG d   1       6.303   0.361  -3.280  0.00  0.00    -0.000 A 
ATOM     44  C   LIG d   1       8.879   2.785  -4.547  0.00  0.00    -0.019 A 
ATOM     45  H   LIG d   1       7.283   2.894  -3.135  0.00  0.00     0.063 H 
ATOM     46  H   LIG d   1       9.182   3.811  -4.397  0.00  0.00     0.065 H 
ATOM     47  C   LIG d   1       6.147  -1.043  -3.335  0.00  0.00     0.067 A 
ATOM     48  C   LIG d   1       5.416   1.126  -2.535  0.00  0.00    -0.053 A 
ATOM     49  C   LIG d   1       5.111  -1.652  -2.640  0.00  0.00    -0.047 A 
ATOM     50  C   LIG d   1       7.117  -1.799  -4.147  0.00  0.00     0.345 C 
ATOM     51  C   LIG d   1       4.239  -0.876  -1.904  0.00  0.00    -0.061 A 
ATOM     52  H   LIG d   1       4.988  -2.726  -2.674  0.00  0.00     0.063 H 
ATOM     53  C   LIG d   1       4.391   0.502  -1.852  0.00  0.00    -0.061 A 
ATOM     54  H   LIG d   1       3.432  -1.345  -1.362  0.00  0.00     0.062 H 
ATOM     55  H   LIG d   1       3.698   1.094  -1.272  0.00  0.00     0.062 H 
ATOM     56  O   LIG d   1       7.356  -2.969  -3.915  0.00  0.00    -0.244 OA
ATOM     57  H   LIG d   1       5.527   2.199  -2.489  0.00  0.00     0.062 H 
ENDBRANCH  35  36
ENDBRANCH  32  35
ENDBRANCH   2  32
TORSDOF 15
ENDMDL
MODEL 10
REMARK VINA RESULT:      -6.3      1.686      2.115
REMARK  15 active torsions:
REMARK  status: ('A' for Active; 'I' for Inactive)
REMARK    1  A    between atoms: C_1  and  N_2 
REMARK    2  A    between atoms: N_2  and  C_3 
REMARK       I    between atoms: N_2  and  C_18 
REMARK    3  A    between atoms: C_3  and  C_4 
REMARK    4  A    between atoms: C_4  and  C_6 
REMARK    5  A    between atoms: C_4  and  O_17 
REMARK    6  A    between atoms: C_6  and  C_8 
REMARK    7  A    between atoms: C_6  and  O_16 
REMARK    8  A    between atoms: C_8  and  C_10 
REMARK    9  A    between atoms: C_8  and  O_15 
REMARK   10  A    between atoms: C_10  and  C_12 
REMARK   11  A    between atoms: C_10  and  O_14 
REMARK   12  A    between atoms: C_12  and  O_13 
REMARK   13  A    between atoms: C_18  and  C_20 
REMARK   14  A    between atoms: C_20  and  O_21 
REMARK   15  A    between atoms: O_21  and  C_22 
ROOT
ATOM      1  N   LIG d   1      11.442   5.585  -5.231  0.00  0.00    -0.299 N 
ATOM      2  C   LIG d   1      10.303   4.868  -5.168  0.00  0.00     0.253 C 
ATOM      3  O   LIG d   1       9.231   5.433  -5.157  0.00  0.00    -0.272 OA
ENDROOT
BRANCH   1   4
ATOM      4  C   LIG d   1      12.739   4.903  -5.243  0.00  0.00     0.003 C 
ATOM      5  H   LIG d   1      13.500   5.577  -5.636  0.00  0.00     0.043 H 
ATOM      6  H   LIG d   1      13.004   4.607  -4.228  0.00  0.00     0.043 H 
ATOM      7  H   LIG d   1      12.676   4.017  -5.875  0.00  0.00     0.043 H 
ENDBRANCH   1   4
BRANCH   1   8
ATOM      8  C   LIG d   1      11.385   7.049  -5.286  0.00  0.00     0.043 C 
ATOM      9  H   LIG d   1      12.205   7.421  -5.900  0.00  0.00     0.049 H 
ATOM     10  H   LIG d   1      10.435   7.359  -5.721  0.00  0.00     0.049 H 
BRANCH   8  11
ATOM     11  C   LIG d   1      11.508   7.617  -3.871  0.00  0.00     0.099 C 
ATOM     12  H   LIG d   1      11.600   6.799  -3.157  0.00  0.00     0.064 H 
BRANCH  11  13
ATOM     13  C   LIG d   1      10.261   8.441  -3.543  0.00  0.00     0.111 C 
ATOM     14  H   LIG d   1      10.035   9.107  -4.376  0.00  0.00     0.065 H 
BRANCH  13  15
ATOM     15  C   LIG d   1      10.516   9.272  -2.283  0.00  0.00     0.111 C 
ATOM     16  H   LIG d   1      11.291  10.011  -2.485  0.00  0.00     0.065 H 
BRANCH  15  17
ATOM     17  C   LIG d   1       9.226   9.986  -1.873  0.00  0.00     0.106 C 
ATOM     18  H   LIG d   1       8.479   9.865  -2.658  0.00  0.00     0.064 H 
BRANCH  17  19
ATOM     19  C   LIG d   1       8.699   9.379  -0.571  0.00  0.00     0.073 C 
ATOM     20  H   LIG d   1       9.537   9.138   0.083  0.00  0.00     0.058 H 
ATOM     21  H   LIG d   1       8.046  10.097  -0.074  0.00  0.00     0.058 H 
BRANCH  19  22
ATOM     22  O   LIG d   1       7.964   8.189  -0.862  0.00  0.00    -0.392 OA
ATOM     23  H   LIG d   1       7.260   8.311  -1.513  0.00  0.00     0.209 HD
ENDBRANCH  19  22
ENDBRANCH  17  19
BRANCH  17  24
ATOM     24  O   LIG d   1       9.492  11.375  -1.678  0.00  0.00    -0.387 OA
ATOM     25  H   LIG d   1      10.250  11.705  -2.180  0.00  0.00     0.210 HD
ENDBRANCH  17  24
ENDBRANCH  15  17
BRANCH  15  26
ATOM     26  O   LIG d   1      10.942   8.412  -1.224  0.00  0.00    -0.387 OA
ATOM     27  H   LIG d   1      11.451   8.860  -0.535  0.00  0.00     0.210 HD
ENDBRANCH  15  26
ENDBRANCH  13  15
BRANCH  13  28
ATOM     28  O   LIG d   1       9.155   7.565  -3.320  0.00  0.00    -0.387 OA
ATOM     29  H   LIG d   1       8.330   8.020  -3.103  0.00  0.00     0.210 HD
ENDBRANCH  13  28
ENDBRANCH  11  13
BRANCH  11  30
ATOM     30  O   LIG d   1      12.665   8.451  -3.792  0.00  0.00    -0.388 OA
ATOM     31  H   LIG d   1      12.565   9.209  -3.199  0.00  0.00     0.210 HD
ENDBRANCH  11  30
ENDBRANCH   8  11
ENDBRANCH   1   8
BRANCH   2  32
ATOM     32  C   LIG d   1      10.363   3.363  -5.112  0.00  0.00     0.165 C 
ATOM     33  H   LIG d   1      11.359   3.027  -5.398  0.00  0.00     0.080 H 
ATOM     34  H   LIG d   1      10.146   3.029  -4.097  0.00  0.00     0.080 H 
BRANCH  32  35
ATOM     35  O   LIG d   1       9.397   2.814  -6.011  0.00  0.00    -0.483 OA
BRANCH  35  36
ATOM     36  C   LIG d   1       8.522   1.910  -5.499  0.00  0.00     0.125 A 
ATOM     37  C   LIG d   1       7.866   2.185  -4.311  0.00  0.00     0.023 A 
ATOM     38  C   LIG d   1       6.968   1.269  -3.787  0.00  0.00     0.143 A 
ATOM     39  H   LIG d   1       8.050   3.116  -3.795  0.00  0.00     0.069 H 
ATOM     40  C   LIG d   1       6.736   0.063  -4.468  0.00  0.00     0.025 A 
ATOM     41  O   LIG d   1       6.326   1.532  -2.621  0.00  0.00    -0.422 OA
ATOM     42  C   LIG d   1       7.407  -0.209  -5.658  0.00  0.00    -0.047 A 
ATOM     43  C   LIG d   1       5.763  -0.893  -3.904  0.00  0.00    -0.000 A 
ATOM     44  C   LIG d   1       8.295   0.711  -6.169  0.00  0.00    -0.019 A 
ATOM     45  H   LIG d   1       7.232  -1.138  -6.179  0.00  0.00     0.063 H 
ATOM     46  H   LIG d   1       8.817   0.503  -7.092  0.00  0.00     0.065 H 
ATOM     47  C   LIG d   1       4.934  -0.433  -2.855  0.00  0.00     0.067 A 
ATOM     48  C   LIG d   1       5.640  -2.198  -4.359  0.00  0.00    -0.053 A 
ATOM     49  C   LIG d   1       3.997  -1.286  -2.288  0.00  0.00    -0.047 A 
ATOM     50  C   LIG d   1       5.116   0.961  -2.412  0.00  0.00     0.345 C 
ATOM     51  C   LIG d   1       3.888  -2.580  -2.754  0.00  0.00    -0.061 A 
ATOM     52  H   LIG d   1       3.357  -0.940  -1.488  0.00  0.00     0.063 H 
ATOM     53  C   LIG d   1       4.703  -3.033  -3.782  0.00  0.00    -0.061 A 
ATOM     54  H   LIG d   1       3.160  -3.247  -2.316  0.00  0.00     0.062 H 
ATOM     55  H   LIG d   1       4.604  -4.049  -4.133  0.00  0.00     0.062 H 
ATOM     56  O   LIG d   1       4.213   1.575  -1.877  0.00  0.00    -0.244 OA
ATOM     57  H   LIG d   1       6.271  -2.558  -5.159  0.00  0.00     0.062 H 
ENDBRANCH  35  36
ENDBRANCH  32  35
ENDBRANCH   2  32
TORSDOF 15
ENDMDL
