MODEL 1
REMARK VINA RESULT:      -6.1      0.000      0.000
REMARK  7 active torsions:
REMARK  status: ('A' for Active; 'I' for Inactive)
REMARK    1  A    between atoms: C_1  and  C_2 
REMARK    2  A    between atoms: C_10  and  C_27 
REMARK    3  A    between atoms: N_16  and  C_21 
REMARK    4  A    between atoms: C_21  and  C_22 
REMARK    5  A    between atoms: C_22  and  O_23 
REMARK    6  A    between atoms: O_23  and  C_24 
REMARK    7  A    between atoms: C_24  and  C_26 
ROOT
ATOM      1  C   LIG d   1       5.213   0.674  -8.839  0.00  0.00     0.018 C 
ATOM      2  H   LIG d   1       6.109   0.265  -9.304  0.00  0.00     0.092 H 
ATOM      3  C   LIG d   1       4.052  -0.258  -9.082  0.00  0.00     0.089 A 
ATOM      4  C   LIG d   1       2.825   0.261  -9.448  0.00  0.00    -0.035 A 
ATOM      5  C   LIG d   1       1.765  -0.604  -9.668  0.00  0.00    -0.058 A 
ATOM      6  C   LIG d   1       1.979  -1.965  -9.511  0.00  0.00    -0.035 A 
ATOM      7  C   LIG d   1       3.234  -2.410  -9.143  0.00  0.00     0.089 A 
ATOM      8  N   LIG d   1       4.220  -1.558  -8.941  0.00  0.00    -0.245 NA
ATOM      9  C   LIG d   1       3.479  -3.887  -8.968  0.00  0.00     0.018 C 
ATOM     10  H   LIG d   1       2.704  -4.448  -9.490  0.00  0.00     0.092 H 
ATOM     11  N   LIG d   1       3.449  -4.223  -7.538  0.00  0.00     0.233 N 
ATOM     12  C   LIG d   1       4.816  -4.474  -7.065  0.00  0.00    -0.032 C 
ATOM     13  C   LIG d   1       4.840  -4.441  -5.535  0.00  0.00     0.000 C 
ATOM     14  C   LIG d   1       6.174  -3.862  -5.059  0.00  0.00     0.004 C 
ATOM     15  N   LIG d   1       5.961  -2.504  -4.539  0.00  0.00    -0.299 N 
ATOM     16  C   LIG d   1       7.024  -1.595  -4.988  0.00  0.00     0.004 C 
ATOM     17  C   LIG d   1       6.406  -0.264  -5.424  0.00  0.00     0.000 C 
ATOM     18  C   LIG d   1       6.430  -0.166  -6.950  0.00  0.00    -0.032 C 
ATOM     19  N   LIG d   1       5.432   0.816  -7.394  0.00  0.00     0.233 N 
ATOM     20  H   LIG d   1       2.694   1.327  -9.560  0.00  0.00     0.064 H 
ATOM     21  H   LIG d   1       0.794  -0.227  -9.956  0.00  0.00     0.062 H 
ATOM     22  H   LIG d   1       1.176  -2.668  -9.675  0.00  0.00     0.064 H 
ATOM     23  H   LIG d   1       3.049  -3.454  -7.021  0.00  0.00     0.202 HD
ATOM     24  H   LIG d   1       5.147  -5.453  -7.412  0.00  0.00     0.081 H 
ATOM     25  H   LIG d   1       5.482  -3.705  -7.455  0.00  0.00     0.081 H 
ATOM     26  H   LIG d   1       4.023  -3.817  -5.172  0.00  0.00     0.033 H 
ATOM     27  H   LIG d   1       4.725  -5.453  -5.149  0.00  0.00     0.033 H 
ATOM     28  H   LIG d   1       6.583  -4.493  -4.271  0.00  0.00     0.043 H 
ATOM     29  H   LIG d   1       6.873  -3.825  -5.895  0.00  0.00     0.043 H 
ATOM     30  H   LIG d   1       7.722  -1.421  -4.170  0.00  0.00     0.043 H 
ATOM     31  H   LIG d   1       7.553  -2.042  -5.830  0.00  0.00     0.043 H 
ATOM     32  H   LIG d   1       5.376  -0.211  -5.072  0.00  0.00     0.033 H 
ATOM     33  H   LIG d   1       6.978   0.559  -4.996  0.00  0.00     0.033 H 
ATOM     34  H   LIG d   1       7.421   0.149  -7.277  0.00  0.00     0.081 H 
ATOM     35  H   LIG d   1       6.199  -1.140  -7.381  0.00  0.00     0.081 H 
ATOM     36  H   LIG d   1       5.765   1.748  -7.195  0.00  0.00     0.202 HD
ATOM     37  H   LIG d   1       2.888  -5.050  -7.399  0.00  0.00     0.202 HD
ATOM     38  H   LIG d   1       4.564   0.657  -6.904  0.00  0.00     0.202 HD
ENDROOT
BRANCH  15  39
ATOM     39  C   LIG d   1       4.636  -1.996  -4.921  0.00  0.00     0.033 C 
ATOM     40  H   LIG d   1       4.751  -1.068  -5.479  0.00  0.00     0.046 H 
ATOM     41  H   LIG d   1       4.129  -2.734  -5.542  0.00  0.00     0.046 H 
BRANCH  39  42
ATOM     42  C   LIG d   1       3.808  -1.734  -3.661  0.00  0.00     0.105 C 
ATOM     43  H   LIG d   1       3.097  -2.547  -3.518  0.00  0.00     0.071 H 
ATOM     44  H   LIG d   1       4.470  -1.674  -2.797  0.00  0.00     0.071 H 
BRANCH  42  45
ATOM     45  O   LIG d   1       3.100  -0.502  -3.804  0.00  0.00    -0.464 OA
BRANCH  45  46
ATOM     46  C   LIG d   1       3.620   0.576  -3.195  0.00  0.00     0.304 C 
ATOM     47  O   LIG d   1       3.498   1.670  -3.695  0.00  0.00    -0.251 OA
BRANCH  46  48
ATOM     48  C   LIG d   1       4.357   0.422  -1.890  0.00  0.00     0.033 C 
ATOM     49  H   LIG d   1       5.245  -0.191  -2.045  0.00  0.00     0.034 H 
ATOM     50  H   LIG d   1       4.651   1.404  -1.520  0.00  0.00     0.034 H 
ATOM     51  H   LIG d   1       3.706  -0.060  -1.160  0.00  0.00     0.034 H 
ENDBRANCH  46  48
ENDBRANCH  45  46
ENDBRANCH  42  45
ENDBRANCH  39  42
ENDBRANCH  15  39
BRANCH   9  52
ATOM     52  C   LIG d   1       4.848  -4.249  -9.548  0.00  0.00    -0.016 C 
ATOM     53  H   LIG d   1       4.714  -4.797 -10.480  0.00  0.00     0.029 H 
ATOM     54  H   LIG d   1       5.413  -3.337  -9.741  0.00  0.00     0.029 H 
ATOM     55  H   LIG d   1       5.392  -4.870  -8.836  0.00  0.00     0.029 H 
ENDBRANCH   9  52
BRANCH   1  56
ATOM     56  C   LIG d   1       4.902   2.043  -9.445  0.00  0.00    -0.016 C 
ATOM     57  H   LIG d   1       4.208   1.922 -10.279  0.00  0.00     0.029 H 
ATOM     58  H   LIG d   1       4.450   2.682  -8.687  0.00  0.00     0.029 H 
ATOM     59  H   LIG d   1       5.824   2.499  -9.804  0.00  0.00     0.029 H 
ENDBRANCH   1  56
TORSDOF 7
ENDMDL
MODEL 2
REMARK VINA RESULT:      -5.9      1.612      2.366
REMARK  7 active torsions:
REMARK  status: ('A' for Active; 'I' for Inactive)
REMARK    1  A    between atoms: C_1  and  C_2 
REMARK    2  A    between atoms: C_10  and  C_27 
REMARK    3  A    between atoms: N_16  and  C_21 
REMARK    4  A    between atoms: C_21  and  C_22 
REMARK    5  A    between atoms: C_22  and  O_23 
REMARK    6  A    between atoms: O_23  and  C_24 
REMARK    7  A    between atoms: C_24  and  C_26 
ROOT
ATOM      1  C   LIG d   1       7.499   1.717  -8.558  0.00  0.00     0.018 C 
ATOM      2  H   LIG d   1       8.060   0.920  -9.044  0.00  0.00     0.092 H 
ATOM      3  C   LIG d   1       6.022   1.469  -8.733  0.00  0.00     0.089 A 
ATOM      4  C   LIG d   1       5.188   2.519  -9.068  0.00  0.00    -0.035 A 
ATOM      5  C   LIG d   1       3.832   2.281  -9.226  0.00  0.00    -0.058 A 
ATOM      6  C   LIG d   1       3.362   0.989  -9.041  0.00  0.00    -0.035 A 
ATOM      7  C   LIG d   1       4.256  -0.010  -8.706  0.00  0.00     0.089 A 
ATOM      8  N   LIG d   1       5.541   0.253  -8.563  0.00  0.00    -0.245 NA
ATOM      9  C   LIG d   1       3.758  -1.417  -8.500  0.00  0.00     0.018 C 
ATOM     10  H   LIG d   1       2.785  -1.531  -8.978  0.00  0.00     0.092 H 
ATOM     11  N   LIG d   1       3.632  -1.687  -7.062  0.00  0.00     0.233 N 
ATOM     12  C   LIG d   1       4.723  -2.571  -6.632  0.00  0.00    -0.032 C 
ATOM     13  C   LIG d   1       4.829  -2.545  -5.106  0.00  0.00     0.000 C 
ATOM     14  C   LIG d   1       6.296  -2.688  -4.694  0.00  0.00     0.004 C 
ATOM     15  N   LIG d   1       6.795  -1.396  -4.203  0.00  0.00    -0.299 N 
ATOM     16  C   LIG d   1       8.145  -1.124  -4.716  0.00  0.00     0.004 C 
ATOM     17  C   LIG d   1       8.235   0.336  -5.164  0.00  0.00     0.000 C 
ATOM     18  C   LIG d   1       8.236   0.401  -6.693  0.00  0.00    -0.032 C 
ATOM     19  N   LIG d   1       7.824   1.743  -7.126  0.00  0.00     0.233 N 
ATOM     20  H   LIG d   1       5.588   3.513  -9.205  0.00  0.00     0.064 H 
ATOM     21  H   LIG d   1       3.157   3.082  -9.489  0.00  0.00     0.062 H 
ATOM     22  H   LIG d   1       2.312   0.767  -9.156  0.00  0.00     0.064 H 
ATOM     23  H   LIG d   1       3.681  -0.818  -6.551  0.00  0.00     0.202 HD
ATOM     24  H   LIG d   1       4.519  -3.589  -6.964  0.00  0.00     0.081 H 
ATOM     25  H   LIG d   1       5.661  -2.228  -7.067  0.00  0.00     0.081 H 
ATOM     26  H   LIG d   1       4.437  -1.600  -4.730  0.00  0.00     0.033 H 
ATOM     27  H   LIG d   1       4.252  -3.370  -4.688  0.00  0.00     0.033 H 
ATOM     28  H   LIG d   1       6.381  -3.434  -3.904  0.00  0.00     0.043 H 
ATOM     29  H   LIG d   1       6.886  -3.002  -5.556  0.00  0.00     0.043 H 
ATOM     30  H   LIG d   1       8.875  -1.308  -3.929  0.00  0.00     0.043 H 
ATOM     31  H   LIG d   1       8.350  -1.778  -5.563  0.00  0.00     0.043 H 
ATOM     32  H   LIG d   1       7.379   0.888  -4.777  0.00  0.00     0.033 H 
ATOM     33  H   LIG d   1       9.155   0.777  -4.780  0.00  0.00     0.033 H 
ATOM     34  H   LIG d   1       9.239   0.190  -7.064  0.00  0.00     0.081 H 
ATOM     35  H   LIG d   1       7.540  -0.339  -7.088  0.00  0.00     0.081 H 
ATOM     36  H   LIG d   1       8.578   2.394  -6.965  0.00  0.00     0.202 HD
ATOM     37  H   LIG d   1       2.746  -2.134  -6.881  0.00  0.00     0.202 HD
ATOM     38  H   LIG d   1       7.012   2.031  -6.601  0.00  0.00     0.202 HD
ENDROOT
BRANCH  15  39
ATOM     39  C   LIG d   1       5.871  -0.308  -4.551  0.00  0.00     0.033 C 
ATOM     40  H   LIG d   1       6.396   0.439  -5.144  0.00  0.00     0.046 H 
ATOM     41  H   LIG d   1       5.037  -0.709  -5.126  0.00  0.00     0.046 H 
BRANCH  39  42
ATOM     42  C   LIG d   1       5.341   0.339  -3.269  0.00  0.00     0.105 C 
ATOM     43  H   LIG d   1       5.055  -0.439  -2.561  0.00  0.00     0.071 H 
ATOM     44  H   LIG d   1       6.118   0.963  -2.829  0.00  0.00     0.071 H 
BRANCH  42  45
ATOM     45  O   LIG d   1       4.201   1.143  -3.578  0.00  0.00    -0.464 OA
BRANCH  45  46
ATOM     46  C   LIG d   1       3.132   0.515  -4.091  0.00  0.00     0.304 C 
ATOM     47  O   LIG d   1       2.743   0.794  -5.201  0.00  0.00    -0.251 OA
BRANCH  46  48
ATOM     48  C   LIG d   1       2.417  -0.538  -3.285  0.00  0.00     0.033 C 
ATOM     49  H   LIG d   1       3.136  -1.067  -2.659  0.00  0.00     0.034 H 
ATOM     50  H   LIG d   1       1.665  -0.064  -2.653  0.00  0.00     0.034 H 
ATOM     51  H   LIG d   1       1.932  -1.245  -3.958  0.00  0.00     0.034 H 
ENDBRANCH  46  48
ENDBRANCH  45  46
ENDBRANCH  42  45
ENDBRANCH  39  42
ENDBRANCH  15  39
BRANCH   9  52
ATOM     52  C   LIG d   1       4.749  -2.405  -9.120  0.00  0.00    -0.016 C 
ATOM     53  H   LIG d   1       4.612  -3.388  -8.670  0.00  0.00     0.029 H 
ATOM     54  H   LIG d   1       4.574  -2.470 -10.194  0.00  0.00     0.029 H 
ATOM     55  H   LIG d   1       5.767  -2.061  -8.938  0.00  0.00     0.029 H 
ENDBRANCH   9  52
BRANCH   1  56
ATOM     56  C   LIG d   1       7.868   3.060  -9.189  0.00  0.00    -0.016 C 
ATOM     57  H   LIG d   1       6.961   3.640  -9.367  0.00  0.00     0.029 H 
ATOM     58  H   LIG d   1       8.524   3.611  -8.515  0.00  0.00     0.029 H 
ATOM     59  H   LIG d   1       8.380   2.888 -10.136  0.00  0.00     0.029 H 
ENDBRANCH   1  56
TORSDOF 7
ENDMDL
MODEL 3
REMARK VINA RESULT:      -5.8      2.316      5.542
REMARK  7 active torsions:
REMARK  status: ('A' for Active; 'I' for Inactive)
REMARK    1  A    between atoms: C_1  and  C_2 
REMARK    2  A    between atoms: C_10  and  C_27 
REMARK    3  A    between atoms: N_16  and  C_21 
REMARK    4  A    between atoms: C_21  and  C_22 
REMARK    5  A    between atoms: C_22  and  O_23 
REMARK    6  A    between atoms: O_23  and  C_24 
REMARK    7  A    between atoms: C_24  and  C_26 
ROOT
ATOM      1  C   LIG d   1       4.271  -0.650  -3.507  0.00  0.00     0.018 C 
ATOM      2  H   LIG d   1       3.340  -1.189  -3.330  0.00  0.00     0.092 H 
ATOM      3  C   LIG d   1       5.371  -1.635  -3.811  0.00  0.00     0.089 A 
ATOM      4  C   LIG d   1       6.614  -1.472  -3.230  0.00  0.00    -0.035 A 
ATOM      5  C   LIG d   1       7.618  -2.383  -3.516  0.00  0.00    -0.058 A 
ATOM      6  C   LIG d   1       7.334  -3.429  -4.381  0.00  0.00    -0.035 A 
ATOM      7  C   LIG d   1       6.068  -3.528  -4.924  0.00  0.00     0.089 A 
ATOM      8  N   LIG d   1       5.135  -2.642  -4.629  0.00  0.00    -0.245 NA
ATOM      9  C   LIG d   1       5.746  -4.660  -5.865  0.00  0.00     0.018 C 
ATOM     10  H   LIG d   1       6.475  -5.460  -5.732  0.00  0.00     0.092 H 
ATOM     11  N   LIG d   1       5.799  -4.175  -7.251  0.00  0.00     0.233 N 
ATOM     12  C   LIG d   1       4.434  -4.047  -7.777  0.00  0.00    -0.032 C 
ATOM     13  C   LIG d   1       4.455  -3.194  -9.048  0.00  0.00     0.000 C 
ATOM     14  C   LIG d   1       3.169  -2.369  -9.129  0.00  0.00     0.004 C 
ATOM     15  N   LIG d   1       3.471  -0.961  -8.837  0.00  0.00    -0.299 N 
ATOM     16  C   LIG d   1       2.448  -0.373  -7.963  0.00  0.00     0.004 C 
ATOM     17  C   LIG d   1       3.126   0.473  -6.883  0.00  0.00     0.000 C 
ATOM     18  C   LIG d   1       3.063  -0.264  -5.543  0.00  0.00    -0.032 C 
ATOM     19  N   LIG d   1       4.101   0.261  -4.646  0.00  0.00     0.233 N 
ATOM     20  H   LIG d   1       6.801  -0.644  -2.561  0.00  0.00     0.064 H 
ATOM     21  H   LIG d   1       8.600  -2.280  -3.076  0.00  0.00     0.062 H 
ATOM     22  H   LIG d   1       8.092  -4.158  -4.626  0.00  0.00     0.064 H 
ATOM     23  H   LIG d   1       6.255  -3.275  -7.275  0.00  0.00     0.202 HD
ATOM     24  H   LIG d   1       4.040  -5.036  -8.010  0.00  0.00     0.081 H 
ATOM     25  H   LIG d   1       3.800  -3.569  -7.030  0.00  0.00     0.081 H 
ATOM     26  H   LIG d   1       5.315  -2.525  -9.022  0.00  0.00     0.033 H 
ATOM     27  H   LIG d   1       4.526  -3.845  -9.919  0.00  0.00     0.033 H 
ATOM     28  H   LIG d   1       2.748  -2.450 -10.131  0.00  0.00     0.043 H 
ATOM     29  H   LIG d   1       2.450  -2.745  -8.401  0.00  0.00     0.043 H 
ATOM     30  H   LIG d   1       1.784   0.257  -8.554  0.00  0.00     0.043 H 
ATOM     31  H   LIG d   1       1.871  -1.169  -7.492  0.00  0.00     0.043 H 
ATOM     32  H   LIG d   1       4.167   0.644  -7.156  0.00  0.00     0.033 H 
ATOM     33  H   LIG d   1       2.612   1.430  -6.796  0.00  0.00     0.033 H 
ATOM     34  H   LIG d   1       2.082  -0.114  -5.092  0.00  0.00     0.081 H 
ATOM     35  H   LIG d   1       3.228  -1.329  -5.707  0.00  0.00     0.081 H 
ATOM     36  H   LIG d   1       3.826   1.172  -4.310  0.00  0.00     0.202 HD
ATOM     37  H   LIG d   1       6.317  -4.830  -7.816  0.00  0.00     0.202 HD
ATOM     38  H   LIG d   1       4.972   0.337  -5.149  0.00  0.00     0.202 HD
ENDROOT
BRANCH  15  39
ATOM     39  C   LIG d   1       4.811  -0.821  -8.249  0.00  0.00     0.033 C 
ATOM     40  H   LIG d   1       4.757  -0.175  -7.374  0.00  0.00     0.046 H 
ATOM     41  H   LIG d   1       5.183  -1.802  -7.955  0.00  0.00     0.046 H 
BRANCH  39  42
ATOM     42  C   LIG d   1       5.759  -0.205  -9.281  0.00  0.00     0.105 C 
ATOM     43  H   LIG d   1       6.621   0.224  -8.771  0.00  0.00     0.071 H 
ATOM     44  H   LIG d   1       6.093  -0.977  -9.973  0.00  0.00     0.071 H 
BRANCH  42  45
ATOM     45  O   LIG d   1       5.075   0.820 -10.004  0.00  0.00    -0.464 OA
BRANCH  45  46
ATOM     46  C   LIG d   1       5.141   2.065  -9.506  0.00  0.00     0.304 C 
ATOM     47  O   LIG d   1       6.212   2.541  -9.211  0.00  0.00    -0.251 OA
BRANCH  46  48
ATOM     48  C   LIG d   1       3.881   2.869  -9.318  0.00  0.00     0.033 C 
ATOM     49  H   LIG d   1       3.040   2.194  -9.158  0.00  0.00     0.034 H 
ATOM     50  H   LIG d   1       3.993   3.523  -8.452  0.00  0.00     0.034 H 
ATOM     51  H   LIG d   1       3.698   3.473 -10.207  0.00  0.00     0.034 H 
ENDBRANCH  46  48
ENDBRANCH  45  46
ENDBRANCH  42  45
ENDBRANCH  39  42
ENDBRANCH  15  39
BRANCH   9  52
ATOM     52  C   LIG d   1       4.344  -5.192  -5.564  0.00  0.00    -0.016 C 
ATOM     53  H   LIG d   1       3.649  -4.357  -5.479  0.00  0.00     0.029 H 
ATOM     54  H   LIG d   1       4.023  -5.850  -6.372  0.00  0.00     0.029 H 
ATOM     55  H   LIG d   1       4.360  -5.748  -4.627  0.00  0.00     0.029 H 
ENDBRANCH   9  52
BRANCH   1  56
ATOM     56  C   LIG d   1       4.639   0.156  -2.260  0.00  0.00    -0.016 C 
ATOM     57  H   LIG d   1       5.664  -0.077  -1.967  0.00  0.00     0.029 H 
ATOM     58  H   LIG d   1       4.557   1.221  -2.477  0.00  0.00     0.029 H 
ATOM     59  H   LIG d   1       3.962  -0.103  -1.446  0.00  0.00     0.029 H 
ENDBRANCH   1  56
TORSDOF 7
ENDMDL
MODEL 4
REMARK VINA RESULT:      -5.6      2.540      6.101
REMARK  7 active torsions:
REMARK  status: ('A' for Active; 'I' for Inactive)
REMARK    1  A    between atoms: C_1  and  C_2 
REMARK    2  A    between atoms: C_10  and  C_27 
REMARK    3  A    between atoms: N_16  and  C_21 
REMARK    4  A    between atoms: C_21  and  C_22 
REMARK    5  A    between atoms: C_22  and  O_23 
REMARK    6  A    between atoms: O_23  and  C_24 
REMARK    7  A    between atoms: C_24  and  C_26 
ROOT
ATOM      1  C   LIG d   1       4.795  -2.340  -3.617  0.00  0.00     0.018 C 
ATOM      2  H   LIG d   1       5.461  -3.195  -3.498  0.00  0.00     0.092 H 
ATOM      3  C   LIG d   1       5.610  -1.073  -3.664  0.00  0.00     0.089 A 
ATOM      4  C   LIG d   1       5.190   0.036  -2.953  0.00  0.00    -0.035 A 
ATOM      5  C   LIG d   1       5.946   1.196  -3.004  0.00  0.00    -0.058 A 
ATOM      6  C   LIG d   1       7.101   1.199  -3.771  0.00  0.00    -0.035 A 
ATOM      7  C   LIG d   1       7.457   0.053  -4.454  0.00  0.00     0.089 A 
ATOM      8  N   LIG d   1       6.714  -1.034  -4.384  0.00  0.00    -0.245 NA
ATOM      9  C   LIG d   1       8.710   0.044  -5.292  0.00  0.00     0.018 C 
ATOM     10  H   LIG d   1       9.363   0.858  -4.977  0.00  0.00     0.092 H 
ATOM     11  N   LIG d   1       8.355   0.221  -6.707  0.00  0.00     0.233 N 
ATOM     12  C   LIG d   1       8.503  -1.059  -7.412  0.00  0.00    -0.032 C 
ATOM     13  C   LIG d   1       7.782  -0.984  -8.760  0.00  0.00     0.000 C 
ATOM     14  C   LIG d   1       7.191  -2.355  -9.098  0.00  0.00     0.004 C 
ATOM     15  N   LIG d   1       5.731  -2.313  -8.934  0.00  0.00    -0.299 N 
ATOM     16  C   LIG d   1       5.241  -3.528  -8.269  0.00  0.00     0.004 C 
ATOM     17  C   LIG d   1       4.197  -3.147  -7.217  0.00  0.00     0.000 C 
ATOM     18  C   LIG d   1       4.806  -3.289  -5.820  0.00  0.00    -0.032 C 
ATOM     19  N   LIG d   1       4.035  -2.481  -4.865  0.00  0.00     0.233 N 
ATOM     20  H   LIG d   1       4.284  -0.002  -2.366  0.00  0.00     0.064 H 
ATOM     21  H   LIG d   1       5.642   2.078  -2.458  0.00  0.00     0.062 H 
ATOM     22  H   LIG d   1       7.715   2.086  -3.833  0.00  0.00     0.064 H 
ATOM     23  H   LIG d   1       7.398   0.535  -6.776  0.00  0.00     0.202 HD
ATOM     24  H   LIG d   1       9.561  -1.262  -7.578  0.00  0.00     0.081 H 
ATOM     25  H   LIG d   1       8.069  -1.857  -6.811  0.00  0.00     0.081 H 
ATOM     26  H   LIG d   1       6.981  -0.248  -8.703  0.00  0.00     0.033 H 
ATOM     27  H   LIG d   1       8.490  -0.693  -9.535  0.00  0.00     0.033 H 
ATOM     28  H   LIG d   1       7.433  -2.611 -10.129  0.00  0.00     0.043 H 
ATOM     29  H   LIG d   1       7.610  -3.106  -8.428  0.00  0.00     0.043 H 
ATOM     30  H   LIG d   1       4.788  -4.187  -9.008  0.00  0.00     0.043 H 
ATOM     31  H   LIG d   1       6.074  -4.039  -7.787  0.00  0.00     0.043 H 
ATOM     32  H   LIG d   1       3.883  -2.115  -7.374  0.00  0.00     0.033 H 
ATOM     33  H   LIG d   1       3.334  -3.806  -7.306  0.00  0.00     0.033 H 
ATOM     34  H   LIG d   1       4.778  -4.335  -5.517  0.00  0.00     0.081 H 
ATOM     35  H   LIG d   1       5.840  -2.943  -5.838  0.00  0.00     0.081 H 
ATOM     36  H   LIG d   1       3.155  -2.935  -4.674  0.00  0.00     0.202 HD
ATOM     37  H   LIG d   1       8.965   0.908  -7.123  0.00  0.00     0.202 HD
ATOM     38  H   LIG d   1       3.864  -1.568  -5.260  0.00  0.00     0.202 HD
ENDROOT
BRANCH  15  39
ATOM     39  C   LIG d   1       5.318  -1.108  -8.201  0.00  0.00     0.033 C 
ATOM     40  H   LIG d   1       4.874  -1.396  -7.250  0.00  0.00     0.046 H 
ATOM     41  H   LIG d   1       6.188  -0.477  -8.021  0.00  0.00     0.046 H 
BRANCH  39  42
ATOM     42  C   LIG d   1       4.290  -0.335  -9.030  0.00  0.00     0.105 C 
ATOM     43  H   LIG d   1       3.715  -1.033  -9.639  0.00  0.00     0.071 H 
ATOM     44  H   LIG d   1       3.617   0.204  -8.364  0.00  0.00     0.071 H 
BRANCH  42  45
ATOM     45  O   LIG d   1       4.965   0.594  -9.880  0.00  0.00    -0.464 OA
BRANCH  45  46
ATOM     46  C   LIG d   1       5.063   1.860  -9.443  0.00  0.00     0.304 C 
ATOM     47  O   LIG d   1       6.151   2.343  -9.233  0.00  0.00    -0.251 OA
BRANCH  46  48
ATOM     48  C   LIG d   1       3.819   2.678  -9.216  0.00  0.00     0.033 C 
ATOM     49  H   LIG d   1       4.082   3.605  -8.706  0.00  0.00     0.034 H 
ATOM     50  H   LIG d   1       3.355   2.908 -10.175  0.00  0.00     0.034 H 
ATOM     51  H   LIG d   1       3.119   2.112  -8.600  0.00  0.00     0.034 H 
ENDBRANCH  46  48
ENDBRANCH  45  46
ENDBRANCH  42  45
ENDBRANCH  39  42
ENDBRANCH  15  39
BRANCH   9  52
ATOM     52  C   LIG d   1       9.435  -1.290  -5.111  0.00  0.00    -0.016 C 
ATOM     53  H   LIG d   1      10.437  -1.110  -4.722  0.00  0.00     0.029 H 
ATOM     54  H   LIG d   1       8.880  -1.914  -4.410  0.00  0.00     0.029 H 
ATOM     55  H   LIG d   1       9.505  -1.800  -6.072  0.00  0.00     0.029 H 
ENDBRANCH   9  52
BRANCH   1  56
ATOM     56  C   LIG d   1       3.827  -2.280  -2.435  0.00  0.00    -0.016 C 
ATOM     57  H   LIG d   1       3.582  -3.293  -2.113  0.00  0.00     0.029 H 
ATOM     58  H   LIG d   1       4.293  -1.741  -1.609  0.00  0.00     0.029 H 
ATOM     59  H   LIG d   1       2.915  -1.765  -2.737  0.00  0.00     0.029 H 
ENDBRANCH   1  56
TORSDOF 7
ENDMDL
MODEL 5
REMARK VINA RESULT:      -5.3      3.067      4.718
REMARK  7 active torsions:
REMARK  status: ('A' for Active; 'I' for Inactive)
REMARK    1  A    between atoms: C_1  and  C_2 
REMARK    2  A    between atoms: C_10  and  C_27 
REMARK    3  A    between atoms: N_16  and  C_21 
REMARK    4  A    between atoms: C_21  and  C_22 
REMARK    5  A    between atoms: C_22  and  O_23 
REMARK    6  A    between atoms: O_23  and  C_24 
REMARK    7  A    between atoms: C_24  and  C_26 
ROOT
ATOM      1  C   LIG d   1       3.914   0.196  -7.881  0.00  0.00     0.018 C 
ATOM      2  H   LIG d   1       4.086  -0.714  -8.455  0.00  0.00     0.092 H 
ATOM      3  C   LIG d   1       3.630  -0.165  -6.445  0.00  0.00     0.089 A 
ATOM      4  C   LIG d   1       2.604   0.472  -5.772  0.00  0.00    -0.035 A 
ATOM      5  C   LIG d   1       2.351   0.134  -4.451  0.00  0.00    -0.058 A 
ATOM      6  C   LIG d   1       3.142  -0.837  -3.855  0.00  0.00    -0.035 A 
ATOM      7  C   LIG d   1       4.149  -1.429  -4.591  0.00  0.00     0.089 A 
ATOM      8  N   LIG d   1       4.362  -1.083  -5.846  0.00  0.00    -0.245 NA
ATOM      9  C   LIG d   1       5.016  -2.484  -3.954  0.00  0.00     0.018 C 
ATOM     10  H   LIG d   1       4.510  -2.888  -3.077  0.00  0.00     0.092 H 
ATOM     11  N   LIG d   1       6.296  -1.888  -3.549  0.00  0.00     0.233 N 
ATOM     12  C   LIG d   1       7.353  -2.324  -4.471  0.00  0.00    -0.032 C 
ATOM     13  C   LIG d   1       8.580  -1.426  -4.302  0.00  0.00     0.000 C 
ATOM     14  C   LIG d   1       9.274  -1.252  -5.655  0.00  0.00     0.004 C 
ATOM     15  N   LIG d   1       9.031   0.107  -6.159  0.00  0.00    -0.299 N 
ATOM     16  C   LIG d   1       8.727   0.089  -7.596  0.00  0.00     0.004 C 
ATOM     17  C   LIG d   1       7.557   1.033  -7.881  0.00  0.00     0.000 C 
ATOM     18  C   LIG d   1       6.297   0.212  -8.163  0.00  0.00    -0.032 C 
ATOM     19  N   LIG d   1       5.108   1.048  -7.944  0.00  0.00     0.233 N 
ATOM     20  H   LIG d   1       2.008   1.224  -6.268  0.00  0.00     0.064 H 
ATOM     21  H   LIG d   1       1.556   0.615  -3.900  0.00  0.00     0.062 H 
ATOM     22  H   LIG d   1       2.973  -1.125  -2.828  0.00  0.00     0.064 H 
ATOM     23  H   LIG d   1       6.222  -0.882  -3.575  0.00  0.00     0.202 HD
ATOM     24  H   LIG d   1       7.625  -3.356  -4.250  0.00  0.00     0.081 H 
ATOM     25  H   LIG d   1       6.991  -2.256  -5.497  0.00  0.00     0.081 H 
ATOM     26  H   LIG d   1       8.269  -0.453  -3.926  0.00  0.00     0.033 H 
ATOM     27  H   LIG d   1       9.271  -1.886  -3.596  0.00  0.00     0.033 H 
ATOM     28  H   LIG d   1      10.346  -1.408  -5.536  0.00  0.00     0.043 H 
ATOM     29  H   LIG d   1       8.876  -1.979  -6.363  0.00  0.00     0.043 H 
ATOM     30  H   LIG d   1       9.602   0.416  -8.155  0.00  0.00     0.043 H 
ATOM     31  H   LIG d   1       8.459  -0.924  -7.898  0.00  0.00     0.043 H 
ATOM     32  H   LIG d   1       7.388   1.673  -7.016  0.00  0.00     0.033 H 
ATOM     33  H   LIG d   1       7.791   1.649  -8.749  0.00  0.00     0.033 H 
ATOM     34  H   LIG d   1       6.312  -0.134  -9.196  0.00  0.00     0.081 H 
ATOM     35  H   LIG d   1       6.265  -0.647  -7.493  0.00  0.00     0.081 H 
ATOM     36  H   LIG d   1       5.014   1.703  -8.706  0.00  0.00     0.202 HD
ATOM     37  H   LIG d   1       6.524  -2.185  -2.612  0.00  0.00     0.202 HD
ATOM     38  H   LIG d   1       5.208   1.553  -7.076  0.00  0.00     0.202 HD
ENDROOT
BRANCH  15  39
ATOM     39  C   LIG d   1       7.956   0.764  -5.402  0.00  0.00     0.033 C 
ATOM     40  H   LIG d   1       7.088   0.897  -6.045  0.00  0.00     0.046 H 
ATOM     41  H   LIG d   1       7.685   0.147  -4.546  0.00  0.00     0.046 H 
BRANCH  39  42
ATOM     42  C   LIG d   1       8.441   2.131  -4.911  0.00  0.00     0.105 C 
ATOM     43  H   LIG d   1       9.252   2.480  -5.551  0.00  0.00     0.071 H 
ATOM     44  H   LIG d   1       7.617   2.843  -4.948  0.00  0.00     0.071 H 
BRANCH  42  45
ATOM     45  O   LIG d   1       8.912   2.015  -3.568  0.00  0.00    -0.464 OA
BRANCH  45  46
ATOM     46  C   LIG d   1      10.097   2.579  -3.285  0.00  0.00     0.304 C 
ATOM     47  O   LIG d   1      11.112   1.930  -3.378  0.00  0.00    -0.251 OA
BRANCH  46  48
ATOM     48  C   LIG d   1      10.162   4.021  -2.854  0.00  0.00     0.033 C 
ATOM     49  H   LIG d   1      10.595   4.621  -3.655  0.00  0.00     0.034 H 
ATOM     50  H   LIG d   1       9.156   4.380  -2.634  0.00  0.00     0.034 H 
ATOM     51  H   LIG d   1      10.781   4.106  -1.961  0.00  0.00     0.034 H 
ENDBRANCH  46  48
ENDBRANCH  45  46
ENDBRANCH  42  45
ENDBRANCH  39  42
ENDBRANCH  15  39
BRANCH   9  52
ATOM     52  C   LIG d   1       5.272  -3.610  -4.958  0.00  0.00    -0.016 C 
ATOM     53  H   LIG d   1       4.718  -3.412  -5.875  0.00  0.00     0.029 H 
ATOM     54  H   LIG d   1       6.338  -3.661  -5.182  0.00  0.00     0.029 H 
ATOM     55  H   LIG d   1       4.945  -4.558  -4.533  0.00  0.00     0.029 H 
ENDBRANCH   9  52
BRANCH   1  56
ATOM     56  C   LIG d   1       2.718   0.949  -8.464  0.00  0.00    -0.016 C 
ATOM     57  H   LIG d   1       2.768   0.923  -9.553  0.00  0.00     0.029 H 
ATOM     58  H   LIG d   1       1.793   0.477  -8.131  0.00  0.00     0.029 H 
ATOM     59  H   LIG d   1       2.740   1.985  -8.125  0.00  0.00     0.029 H 
ENDBRANCH   1  56
TORSDOF 7
ENDMDL
MODEL 6
REMARK VINA RESULT:      -5.2      2.401      6.236
REMARK  7 active torsions:
REMARK  status: ('A' for Active; 'I' for Inactive)
REMARK    1  A    between atoms: C_1  and  C_2 
REMARK    2  A    between atoms: C_10  and  C_27 
REMARK    3  A    between atoms: N_16  and  C_21 
REMARK    4  A    between atoms: C_21  and  C_22 
REMARK    5  A    between atoms: C_22  and  O_23 
REMARK    6  A    between atoms: O_23  and  C_24 
REMARK    7  A    between atoms: C_24  and  C_26 
ROOT
ATOM      1  C   LIG d   1       5.835  -2.553  -5.356  0.00  0.00     0.018 C 
ATOM      2  H   LIG d   1       6.793  -3.052  -5.502  0.00  0.00     0.092 H 
ATOM      3  C   LIG d   1       6.052  -1.261  -4.610  0.00  0.00     0.089 A 
ATOM      4  C   LIG d   1       5.196  -0.914  -3.582  0.00  0.00    -0.035 A 
ATOM      5  C   LIG d   1       5.404   0.276  -2.903  0.00  0.00    -0.058 A 
ATOM      6  C   LIG d   1       6.470   1.077  -3.285  0.00  0.00    -0.035 A 
ATOM      7  C   LIG d   1       7.283   0.665  -4.322  0.00  0.00     0.089 A 
ATOM      8  N   LIG d   1       7.056  -0.474  -4.947  0.00  0.00    -0.245 NA
ATOM      9  C   LIG d   1       8.444   1.527  -4.748  0.00  0.00     0.018 C 
ATOM     10  H   LIG d   1       8.694   2.220  -3.944  0.00  0.00     0.092 H 
ATOM     11  N   LIG d   1       8.077   2.285  -5.951  0.00  0.00     0.233 N 
ATOM     12  C   LIG d   1       8.756   1.708  -7.119  0.00  0.00    -0.032 C 
ATOM     13  C   LIG d   1       8.097   2.226  -8.399  0.00  0.00     0.000 C 
ATOM     14  C   LIG d   1       8.134   1.132  -9.469  0.00  0.00     0.004 C 
ATOM     15  N   LIG d   1       6.785   0.578  -9.651  0.00  0.00    -0.299 N 
ATOM     16  C   LIG d   1       6.829  -0.885  -9.770  0.00  0.00     0.004 C 
ATOM     17  C   LIG d   1       5.699  -1.498  -8.939  0.00  0.00     0.000 C 
ATOM     18  C   LIG d   1       6.284  -2.132  -7.675  0.00  0.00    -0.032 C 
ATOM     19  N   LIG d   1       5.227  -2.268  -6.662  0.00  0.00     0.233 N 
ATOM     20  H   LIG d   1       4.375  -1.562  -3.311  0.00  0.00     0.064 H 
ATOM     21  H   LIG d   1       4.752   0.573  -2.095  0.00  0.00     0.062 H 
ATOM     22  H   LIG d   1       6.662   2.011  -2.777  0.00  0.00     0.064 H 
ATOM     23  H   LIG d   1       7.078   2.237  -6.086  0.00  0.00     0.202 HD
ATOM     24  H   LIG d   1       9.807   2.000  -7.108  0.00  0.00     0.081 H 
ATOM     25  H   LIG d   1       8.680   0.622  -7.084  0.00  0.00     0.081 H 
ATOM     26  H   LIG d   1       7.062   2.495  -8.191  0.00  0.00     0.033 H 
ATOM     27  H   LIG d   1       8.637   3.102  -8.756  0.00  0.00     0.033 H 
ATOM     28  H   LIG d   1       8.482   1.556 -10.410  0.00  0.00     0.043 H 
ATOM     29  H   LIG d   1       8.813   0.339  -9.154  0.00  0.00     0.043 H 
ATOM     30  H   LIG d   1       6.705  -1.167 -10.815  0.00  0.00     0.043 H 
ATOM     31  H   LIG d   1       7.788  -1.251  -9.406  0.00  0.00     0.043 H 
ATOM     32  H   LIG d   1       4.990  -0.719  -8.661  0.00  0.00     0.033 H 
ATOM     33  H   LIG d   1       5.189  -2.261  -9.527  0.00  0.00     0.033 H 
ATOM     34  H   LIG d   1       6.685  -3.117  -7.915  0.00  0.00     0.081 H 
ATOM     35  H   LIG d   1       7.081  -1.499  -7.286  0.00  0.00     0.081 H 
ATOM     36  H   LIG d   1       4.611  -3.024  -6.919  0.00  0.00     0.202 HD
ATOM     37  H   LIG d   1       8.356   3.247  -5.840  0.00  0.00     0.202 HD
ATOM     38  H   LIG d   1       4.702  -1.408  -6.609  0.00  0.00     0.202 HD
ENDROOT
BRANCH  15  39
ATOM     39  C   LIG d   1       5.895   0.991  -8.557  0.00  0.00     0.033 C 
ATOM     40  H   LIG d   1       5.585   0.114  -7.991  0.00  0.00     0.046 H 
ATOM     41  H   LIG d   1       6.424   1.681  -7.899  0.00  0.00     0.046 H 
BRANCH  39  42
ATOM     42  C   LIG d   1       4.661   1.686  -9.139  0.00  0.00     0.105 C 
ATOM     43  H   LIG d   1       4.938   2.677  -9.498  0.00  0.00     0.071 H 
ATOM     44  H   LIG d   1       4.269   1.095  -9.967  0.00  0.00     0.071 H 
BRANCH  42  45
ATOM     45  O   LIG d   1       3.662   1.809  -8.125  0.00  0.00    -0.464 OA
BRANCH  45  46
ATOM     46  C   LIG d   1       3.171   0.670  -7.611  0.00  0.00     0.304 C 
ATOM     47  O   LIG d   1       3.415   0.370  -6.467  0.00  0.00    -0.251 OA
BRANCH  46  48
ATOM     48  C   LIG d   1       2.315  -0.233  -8.461  0.00  0.00     0.033 C 
ATOM     49  H   LIG d   1       1.283   0.117  -8.437  0.00  0.00     0.034 H 
ATOM     50  H   LIG d   1       2.681  -0.219  -9.488  0.00  0.00     0.034 H 
ATOM     51  H   LIG d   1       2.363  -1.251  -8.073  0.00  0.00     0.034 H 
ENDBRANCH  46  48
ENDBRANCH  45  46
ENDBRANCH  42  45
ENDBRANCH  39  42
ENDBRANCH  15  39
BRANCH   9  52
ATOM     52  C   LIG d   1       9.653   0.640  -5.052  0.00  0.00    -0.016 C 
ATOM     53  H   LIG d   1       9.351  -0.173  -5.711  0.00  0.00     0.029 H 
ATOM     54  H   LIG d   1      10.426   1.235  -5.540  0.00  0.00     0.029 H 
ATOM     55  H   LIG d   1      10.045   0.228  -4.122  0.00  0.00     0.029 H 
ENDBRANCH   9  52
BRANCH   1  56
ATOM     56  C   LIG d   1       4.905  -3.458  -4.547  0.00  0.00    -0.016 C 
ATOM     57  H   LIG d   1       5.454  -4.339  -4.214  0.00  0.00     0.029 H 
ATOM     58  H   LIG d   1       4.531  -2.914  -3.680  0.00  0.00     0.029 H 
ATOM     59  H   LIG d   1       4.066  -3.768  -5.171  0.00  0.00     0.029 H 
ENDBRANCH   1  56
TORSDOF 7
ENDMDL
MODEL 7
REMARK VINA RESULT:      -5.2      2.864      5.509
REMARK  7 active torsions:
REMARK  status: ('A' for Active; 'I' for Inactive)
REMARK    1  A    between atoms: C_1  and  C_2 
REMARK    2  A    between atoms: C_10  and  C_27 
REMARK    3  A    between atoms: N_16  and  C_21 
REMARK    4  A    between atoms: C_21  and  C_22 
REMARK    5  A    between atoms: C_22  and  O_23 
REMARK    6  A    between atoms: O_23  and  C_24 
REMARK    7  A    between atoms: C_24  and  C_26 
ROOT
ATOM      1  C   LIG d   1       6.379  -0.780  -4.599  0.00  0.00     0.018 C 
ATOM      2  H   LIG d   1       7.028  -0.209  -5.263  0.00  0.00     0.092 H 
ATOM      3  C   LIG d   1       4.945  -0.376  -4.830  0.00  0.00     0.089 A 
ATOM      4  C   LIG d   1       4.110  -0.171  -3.748  0.00  0.00    -0.035 A 
ATOM      5  C   LIG d   1       2.793   0.200  -3.971  0.00  0.00    -0.058 A 
ATOM      6  C   LIG d   1       2.363   0.350  -5.281  0.00  0.00    -0.035 A 
ATOM      7  C   LIG d   1       3.255   0.127  -6.312  0.00  0.00     0.089 A 
ATOM      8  N   LIG d   1       4.501  -0.225  -6.062  0.00  0.00    -0.245 NA
ATOM      9  C   LIG d   1       2.798   0.285  -7.739  0.00  0.00     0.018 C 
ATOM     10  H   LIG d   1       1.893   0.892  -7.766  0.00  0.00     0.092 H 
ATOM     11  N   LIG d   1       2.518  -1.037  -8.314  0.00  0.00     0.233 N 
ATOM     12  C   LIG d   1       3.590  -1.402  -9.250  0.00  0.00    -0.032 C 
ATOM     13  C   LIG d   1       3.517  -2.900  -9.550  0.00  0.00     0.000 C 
ATOM     14  C   LIG d   1       4.931  -3.449  -9.752  0.00  0.00     0.004 C 
ATOM     15  N   LIG d   1       5.313  -4.259  -8.587  0.00  0.00    -0.299 N 
ATOM     16  C   LIG d   1       6.699  -3.985  -8.187  0.00  0.00     0.004 C 
ATOM     17  C   LIG d   1       6.777  -3.870  -6.663  0.00  0.00     0.000 C 
ATOM     18  C   LIG d   1       6.952  -2.401  -6.271  0.00  0.00    -0.032 C 
ATOM     19  N   LIG d   1       6.535  -2.214  -4.875  0.00  0.00     0.233 N 
ATOM     20  H   LIG d   1       4.479  -0.297  -2.740  0.00  0.00     0.064 H 
ATOM     21  H   LIG d   1       2.119   0.368  -3.145  0.00  0.00     0.062 H 
ATOM     22  H   LIG d   1       1.343   0.638  -5.492  0.00  0.00     0.064 H 
ATOM     23  H   LIG d   1       2.470  -1.722  -7.574  0.00  0.00     0.202 HD
ATOM     24  H   LIG d   1       3.471  -0.840 -10.176  0.00  0.00     0.081 H 
ATOM     25  H   LIG d   1       4.556  -1.167  -8.804  0.00  0.00     0.081 H 
ATOM     26  H   LIG d   1       3.043  -3.416  -8.715  0.00  0.00     0.033 H 
ATOM     27  H   LIG d   1       2.932  -3.060 -10.456  0.00  0.00     0.033 H 
ATOM     28  H   LIG d   1       4.956  -4.068 -10.648  0.00  0.00     0.043 H 
ATOM     29  H   LIG d   1       5.630  -2.620  -9.862  0.00  0.00     0.043 H 
ATOM     30  H   LIG d   1       7.341  -4.799  -8.522  0.00  0.00     0.043 H 
ATOM     31  H   LIG d   1       7.030  -3.051  -8.639  0.00  0.00     0.043 H 
ATOM     32  H   LIG d   1       5.858  -4.257  -6.222  0.00  0.00     0.033 H 
ATOM     33  H   LIG d   1       7.625  -4.448  -6.298  0.00  0.00     0.033 H 
ATOM     34  H   LIG d   1       8.000  -2.120  -6.379  0.00  0.00     0.081 H 
ATOM     35  H   LIG d   1       6.340  -1.776  -6.921  0.00  0.00     0.081 H 
ATOM     36  H   LIG d   1       7.235  -2.600  -4.260  0.00  0.00     0.202 HD
ATOM     37  H   LIG d   1       1.637  -1.010  -8.806  0.00  0.00     0.202 HD
ATOM     38  H   LIG d   1       5.655  -2.684  -4.721  0.00  0.00     0.202 HD
ENDROOT
BRANCH  15  39
ATOM     39  C   LIG d   1       4.388  -4.039  -7.466  0.00  0.00     0.033 C 
ATOM     40  H   LIG d   1       4.949  -3.714  -6.591  0.00  0.00     0.046 H 
ATOM     41  H   LIG d   1       3.663  -3.272  -7.739  0.00  0.00     0.046 H 
BRANCH  39  42
ATOM     42  C   LIG d   1       3.654  -5.343  -7.147  0.00  0.00     0.105 C 
ATOM     43  H   LIG d   1       3.558  -5.451  -6.066  0.00  0.00     0.071 H 
ATOM     44  H   LIG d   1       2.662  -5.322  -7.599  0.00  0.00     0.071 H 
BRANCH  42  45
ATOM     45  O   LIG d   1       4.393  -6.447  -7.671  0.00  0.00    -0.464 OA
BRANCH  45  46
ATOM     46  C   LIG d   1       4.578  -7.499  -6.858  0.00  0.00     0.304 C 
ATOM     47  O   LIG d   1       4.179  -8.592  -7.186  0.00  0.00    -0.251 OA
BRANCH  46  48
ATOM     48  C   LIG d   1       5.283  -7.318  -5.539  0.00  0.00     0.033 C 
ATOM     49  H   LIG d   1       5.740  -8.261  -5.239  0.00  0.00     0.034 H 
ATOM     50  H   LIG d   1       6.056  -6.556  -5.642  0.00  0.00     0.034 H 
ATOM     51  H   LIG d   1       4.564  -7.005  -4.782  0.00  0.00     0.034 H 
ENDBRANCH  46  48
ENDBRANCH  45  46
ENDBRANCH  42  45
ENDBRANCH  39  42
ENDBRANCH  15  39
BRANCH   9  52
ATOM     52  C   LIG d   1       3.897   0.973  -8.553  0.00  0.00    -0.016 C 
ATOM     53  H   LIG d   1       4.072   0.414  -9.472  0.00  0.00     0.029 H 
ATOM     54  H   LIG d   1       3.585   1.988  -8.799  0.00  0.00     0.029 H 
ATOM     55  H   LIG d   1       4.815   1.007  -7.967  0.00  0.00     0.029 H 
ENDBRANCH   9  52
BRANCH   1  56
ATOM     56  C   LIG d   1       6.760  -0.496  -3.145  0.00  0.00    -0.016 C 
ATOM     57  H   LIG d   1       5.931   0.007  -2.644  0.00  0.00     0.029 H 
ATOM     58  H   LIG d   1       6.974  -1.435  -2.635  0.00  0.00     0.029 H 
ATOM     59  H   LIG d   1       7.642   0.143  -3.118  0.00  0.00     0.029 H 
ENDBRANCH   1  56
TORSDOF 7
ENDMDL
MODEL 8
REMARK VINA RESULT:      -5.1      2.867      5.240
REMARK  7 active torsions:
REMARK  status: ('A' for Active; 'I' for Inactive)
REMARK    1  A    between atoms: C_1  and  C_2 
REMARK    2  A    between atoms: C_10  and  C_27 
REMARK    3  A    between atoms: N_16  and  C_21 
REMARK    4  A    between atoms: C_21  and  C_22 
REMARK    5  A    between atoms: C_22  and  O_23 
REMARK    6  A    between atoms: O_23  and  C_24 
REMARK    7  A    between atoms: C_24  and  C_26 
ROOT
ATOM      1  C   LIG d   1       5.506   0.023  -3.313  0.00  0.00     0.018 C 
ATOM      2  H   LIG d   1       6.389   0.550  -3.674  0.00  0.00     0.092 H 
ATOM      3  C   LIG d   1       4.410   0.114  -4.344  0.00  0.00     0.089 A 
ATOM      4  C   LIG d   1       3.117   0.388  -3.942  0.00  0.00    -0.035 A 
ATOM      5  C   LIG d   1       2.116   0.469  -4.898  0.00  0.00    -0.058 A 
ATOM      6  C   LIG d   1       2.455   0.271  -6.228  0.00  0.00    -0.035 A 
ATOM      7  C   LIG d   1       3.770   0.000  -6.554  0.00  0.00     0.089 A 
ATOM      8  N   LIG d   1       4.697  -0.070  -5.618  0.00  0.00    -0.245 NA
ATOM      9  C   LIG d   1       4.151  -0.219  -7.995  0.00  0.00     0.018 C 
ATOM     10  H   LIG d   1       3.382   0.203  -8.642  0.00  0.00     0.092 H 
ATOM     11  N   LIG d   1       4.276  -1.659  -8.256  0.00  0.00     0.233 N 
ATOM     12  C   LIG d   1       5.696  -2.015  -8.374  0.00  0.00    -0.032 C 
ATOM     13  C   LIG d   1       5.853  -3.532  -8.258  0.00  0.00     0.000 C 
ATOM     14  C   LIG d   1       7.171  -3.856  -7.551  0.00  0.00     0.004 C 
ATOM     15  N   LIG d   1       6.894  -4.331  -6.189  0.00  0.00    -0.299 N 
ATOM     16  C   LIG d   1       7.833  -3.743  -5.225  0.00  0.00     0.004 C 
ATOM     17  C   LIG d   1       7.071  -3.307  -3.971  0.00  0.00     0.000 C 
ATOM     18  C   LIG d   1       6.952  -1.781  -3.953  0.00  0.00    -0.032 C 
ATOM     19  N   LIG d   1       5.840  -1.388  -3.076  0.00  0.00     0.233 N 
ATOM     20  H   LIG d   1       2.888   0.537  -2.897  0.00  0.00     0.064 H 
ATOM     21  H   LIG d   1       1.096   0.683  -4.614  0.00  0.00     0.062 H 
ATOM     22  H   LIG d   1       1.701   0.327  -7.000  0.00  0.00     0.064 H 
ATOM     23  H   LIG d   1       3.862  -2.175  -7.494  0.00  0.00     0.202 HD
ATOM     24  H   LIG d   1       6.075  -1.684  -9.341  0.00  0.00     0.081 H 
ATOM     25  H   LIG d   1       6.259  -1.529  -7.577  0.00  0.00     0.081 H 
ATOM     26  H   LIG d   1       5.023  -3.940  -7.681  0.00  0.00     0.033 H 
ATOM     27  H   LIG d   1       5.856  -3.974  -9.254  0.00  0.00     0.033 H 
ATOM     28  H   LIG d   1       7.700  -4.631  -8.105  0.00  0.00     0.043 H 
ATOM     29  H   LIG d   1       7.788  -2.957  -7.504  0.00  0.00     0.043 H 
ATOM     30  H   LIG d   1       8.584  -4.484  -4.953  0.00  0.00     0.043 H 
ATOM     31  H   LIG d   1       8.321  -2.878  -5.673  0.00  0.00     0.043 H 
ATOM     32  H   LIG d   1       6.075  -3.749  -3.980  0.00  0.00     0.033 H 
ATOM     33  H   LIG d   1       7.609  -3.641  -3.085  0.00  0.00     0.033 H 
ATOM     34  H   LIG d   1       7.880  -1.350  -3.579  0.00  0.00     0.081 H 
ATOM     35  H   LIG d   1       6.765  -1.419  -4.964  0.00  0.00     0.081 H 
ATOM     36  H   LIG d   1       6.112  -1.512  -2.113  0.00  0.00     0.202 HD
ATOM     37  H   LIG d   1       3.800  -1.887  -9.116  0.00  0.00     0.202 HD
ATOM     38  H   LIG d   1       5.036  -1.962  -3.277  0.00  0.00     0.202 HD
ENDROOT
BRANCH  15  39
ATOM     39  C   LIG d   1       5.503  -4.050  -5.807  0.00  0.00     0.033 C 
ATOM     40  H   LIG d   1       5.489  -3.340  -4.982  0.00  0.00     0.046 H 
ATOM     41  H   LIG d   1       4.970  -3.628  -6.659  0.00  0.00     0.046 H 
BRANCH  39  42
ATOM     42  C   LIG d   1       4.822  -5.350  -5.372  0.00  0.00     0.105 C 
ATOM     43  H   LIG d   1       4.858  -5.433  -4.285  0.00  0.00     0.071 H 
ATOM     44  H   LIG d   1       3.782  -5.343  -5.701  0.00  0.00     0.071 H 
BRANCH  42  45
ATOM     45  O   LIG d   1       5.500  -6.462  -5.957  0.00  0.00    -0.464 OA
BRANCH  45  46
ATOM     46  C   LIG d   1       4.741  -7.392  -6.560  0.00  0.00     0.304 C 
ATOM     47  O   LIG d   1       4.353  -8.351  -5.935  0.00  0.00    -0.251 OA
BRANCH  46  48
ATOM     48  C   LIG d   1       4.372  -7.238  -8.012  0.00  0.00     0.033 C 
ATOM     49  H   LIG d   1       3.991  -8.186  -8.392  0.00  0.00     0.034 H 
ATOM     50  H   LIG d   1       3.605  -6.471  -8.113  0.00  0.00     0.034 H 
ATOM     51  H   LIG d   1       5.254  -6.947  -8.583  0.00  0.00     0.034 H 
ENDBRANCH  46  48
ENDBRANCH  45  46
ENDBRANCH  42  45
ENDBRANCH  39  42
ENDBRANCH  15  39
BRANCH   9  52
ATOM     52  C   LIG d   1       5.488   0.468  -8.279  0.00  0.00    -0.016 C 
ATOM     53  H   LIG d   1       5.307   1.438  -8.744  0.00  0.00     0.029 H 
ATOM     54  H   LIG d   1       6.030   0.610  -7.344  0.00  0.00     0.029 H 
ATOM     55  H   LIG d   1       6.081  -0.152  -8.952  0.00  0.00     0.029 H 
ENDBRANCH   9  52
BRANCH   1  56
ATOM     56  C   LIG d   1       5.031   0.660  -2.006  0.00  0.00    -0.016 C 
ATOM     57  H   LIG d   1       5.089   1.746  -2.089  0.00  0.00     0.029 H 
ATOM     58  H   LIG d   1       3.999   0.366  -1.812  0.00  0.00     0.029 H 
ATOM     59  H   LIG d   1       5.665   0.324  -1.186  0.00  0.00     0.029 H 
ENDBRANCH   1  56
TORSDOF 7
ENDMDL
MODEL 9
REMARK VINA RESULT:      -5.0      2.755      5.538
REMARK  7 active torsions:
REMARK  status: ('A' for Active; 'I' for Inactive)
REMARK    1  A    between atoms: C_1  and  C_2 
REMARK    2  A    between atoms: C_10  and  C_27 
REMARK    3  A    between atoms: N_16  and  C_21 
REMARK    4  A    between atoms: C_21  and  C_22 
REMARK    5  A    between atoms: C_22  and  O_23 
REMARK    6  A    between atoms: O_23  and  C_24 
REMARK    7  A    between atoms: C_24  and  C_26 
ROOT
ATOM      1  C   LIG d   1      10.813  -1.486  -5.225  0.00  0.00     0.018 C 
ATOM      2  H   LIG d   1      10.923  -2.005  -6.177  0.00  0.00     0.092 H 
ATOM      3  C   LIG d   1      10.166  -0.145  -5.456  0.00  0.00     0.089 A 
ATOM      4  C   LIG d   1      10.658   0.972  -4.808  0.00  0.00    -0.035 A 
ATOM      5  C   LIG d   1      10.055   2.201  -5.028  0.00  0.00    -0.058 A 
ATOM      6  C   LIG d   1       8.974   2.261  -5.895  0.00  0.00    -0.035 A 
ATOM      7  C   LIG d   1       8.538   1.102  -6.506  0.00  0.00     0.089 A 
ATOM      8  N   LIG d   1       9.135  -0.051  -6.274  0.00  0.00    -0.245 NA
ATOM      9  C   LIG d   1       7.363   1.153  -7.450  0.00  0.00     0.018 C 
ATOM     10  H   LIG d   1       7.217   2.178  -7.790  0.00  0.00     0.092 H 
ATOM     11  N   LIG d   1       6.155   0.691  -6.754  0.00  0.00     0.233 N 
ATOM     12  C   LIG d   1       5.803  -0.654  -7.226  0.00  0.00    -0.032 C 
ATOM     13  C   LIG d   1       4.804  -1.290  -6.255  0.00  0.00     0.000 C 
ATOM     14  C   LIG d   1       5.056  -2.797  -6.180  0.00  0.00     0.004 C 
ATOM     15  N   LIG d   1       5.680  -3.126  -4.891  0.00  0.00    -0.299 N 
ATOM     16  C   LIG d   1       6.765  -4.101  -5.065  0.00  0.00     0.004 C 
ATOM     17  C   LIG d   1       7.966  -3.685  -4.212  0.00  0.00     0.000 C 
ATOM     18  C   LIG d   1       9.064  -3.124  -5.118  0.00  0.00    -0.032 C 
ATOM     19  N   LIG d   1       9.974  -2.286  -4.324  0.00  0.00     0.233 N 
ATOM     20  H   LIG d   1      11.502   0.889  -4.139  0.00  0.00     0.064 H 
ATOM     21  H   LIG d   1      10.419   3.091  -4.536  0.00  0.00     0.062 H 
ATOM     22  H   LIG d   1       8.480   3.201  -6.090  0.00  0.00     0.064 H 
ATOM     23  H   LIG d   1       6.329   0.665  -5.760  0.00  0.00     0.202 HD
ATOM     24  H   LIG d   1       5.353  -0.586  -8.216  0.00  0.00     0.081 H 
ATOM     25  H   LIG d   1       6.702  -1.269  -7.275  0.00  0.00     0.081 H 
ATOM     26  H   LIG d   1       4.930  -0.851  -5.266  0.00  0.00     0.033 H 
ATOM     27  H   LIG d   1       3.790  -1.108  -6.609  0.00  0.00     0.033 H 
ATOM     28  H   LIG d   1       4.109  -3.329  -6.271  0.00  0.00     0.043 H 
ATOM     29  H   LIG d   1       5.720  -3.096  -6.992  0.00  0.00     0.043 H 
ATOM     30  H   LIG d   1       6.421  -5.086  -4.751  0.00  0.00     0.043 H 
ATOM     31  H   LIG d   1       7.058  -4.135  -6.114  0.00  0.00     0.043 H 
ATOM     32  H   LIG d   1       7.657  -2.921  -3.499  0.00  0.00     0.033 H 
ATOM     33  H   LIG d   1       8.346  -4.552  -3.673  0.00  0.00     0.033 H 
ATOM     34  H   LIG d   1       9.623  -3.948  -5.563  0.00  0.00     0.081 H 
ATOM     35  H   LIG d   1       8.612  -2.524  -5.908  0.00  0.00     0.081 H 
ATOM     36  H   LIG d   1      10.560  -2.875  -3.753  0.00  0.00     0.202 HD
ATOM     37  H   LIG d   1       5.394   1.325  -6.946  0.00  0.00     0.202 HD
ATOM     38  H   LIG d   1       9.434  -1.673  -3.733  0.00  0.00     0.202 HD
ENDROOT
BRANCH  15  39
ATOM     39  C   LIG d   1       6.165  -1.914  -4.216  0.00  0.00     0.033 C 
ATOM     40  H   LIG d   1       7.188  -2.071  -3.878  0.00  0.00     0.046 H 
ATOM     41  H   LIG d   1       6.136  -1.075  -4.912  0.00  0.00     0.046 H 
BRANCH  39  42
ATOM     42  C   LIG d   1       5.271  -1.608  -3.012  0.00  0.00     0.105 C 
ATOM     43  H   LIG d   1       4.236  -1.514  -3.343  0.00  0.00     0.071 H 
ATOM     44  H   LIG d   1       5.348  -2.419  -2.287  0.00  0.00     0.071 H 
BRANCH  42  45
ATOM     45  O   LIG d   1       5.690  -0.385  -2.406  0.00  0.00    -0.464 OA
BRANCH  45  46
ATOM     46  C   LIG d   1       5.113   0.744  -2.849  0.00  0.00     0.304 C 
ATOM     47  O   LIG d   1       5.671   1.421  -3.680  0.00  0.00    -0.251 OA
BRANCH  46  48
ATOM     48  C   LIG d   1       3.771   1.167  -2.310  0.00  0.00     0.033 C 
ATOM     49  H   LIG d   1       3.606   0.699  -1.339  0.00  0.00     0.034 H 
ATOM     50  H   LIG d   1       3.748   2.251  -2.200  0.00  0.00     0.034 H 
ATOM     51  H   LIG d   1       2.987   0.855  -3.001  0.00  0.00     0.034 H 
ENDBRANCH  46  48
ENDBRANCH  45  46
ENDBRANCH  42  45
ENDBRANCH  39  42
ENDBRANCH  15  39
BRANCH   9  52
ATOM     52  C   LIG d   1       7.636   0.250  -8.654  0.00  0.00    -0.016 C 
ATOM     53  H   LIG d   1       8.374   0.721  -9.302  0.00  0.00     0.029 H 
ATOM     54  H   LIG d   1       8.017  -0.711  -8.308  0.00  0.00     0.029 H 
ATOM     55  H   LIG d   1       6.711   0.095  -9.209  0.00  0.00     0.029 H 
ENDBRANCH   9  52
BRANCH   1  56
ATOM     56  C   LIG d   1      12.191  -1.284  -4.592  0.00  0.00    -0.016 C 
ATOM     57  H   LIG d   1      12.696  -2.247  -4.506  0.00  0.00     0.029 H 
ATOM     58  H   LIG d   1      12.785  -0.618  -5.218  0.00  0.00     0.029 H 
ATOM     59  H   LIG d   1      12.075  -0.845  -3.601  0.00  0.00     0.029 H 
ENDBRANCH   1  56
TORSDOF 7
ENDMDL
MODEL 10
REMARK VINA RESULT:      -4.9      2.882      6.198
REMARK  7 active torsions:
REMARK  status: ('A' for Active; 'I' for Inactive)
REMARK    1  A    between atoms: C_1  and  C_2 
REMARK    2  A    between atoms: C_10  and  C_27 
REMARK    3  A    between atoms: N_16  and  C_21 
REMARK    4  A    between atoms: C_21  and  C_22 
REMARK    5  A    between atoms: C_22  and  O_23 
REMARK    6  A    between atoms: O_23  and  C_24 
REMARK    7  A    between atoms: C_24  and  C_26 
ROOT
ATOM      1  C   LIG d   1       8.538   0.443  -5.642  0.00  0.00     0.018 C 
ATOM      2  H   LIG d   1       8.317   1.438  -5.256  0.00  0.00     0.092 H 
ATOM      3  C   LIG d   1       7.643  -0.566  -4.969  0.00  0.00     0.089 A 
ATOM      4  C   LIG d   1       8.172  -1.766  -4.534  0.00  0.00    -0.035 A 
ATOM      5  C   LIG d   1       7.341  -2.687  -3.917  0.00  0.00    -0.058 A 
ATOM      6  C   LIG d   1       6.000  -2.366  -3.761  0.00  0.00    -0.035 A 
ATOM      7  C   LIG d   1       5.543  -1.147  -4.222  0.00  0.00     0.089 A 
ATOM      8  N   LIG d   1       6.363  -0.294  -4.805  0.00  0.00    -0.245 NA
ATOM      9  C   LIG d   1       4.088  -0.787  -4.059  0.00  0.00     0.018 C 
ATOM     10  H   LIG d   1       3.645  -1.412  -3.284  0.00  0.00     0.092 H 
ATOM     11  N   LIG d   1       3.383  -1.009  -5.329  0.00  0.00     0.233 N 
ATOM     12  C   LIG d   1       3.091   0.284  -5.959  0.00  0.00    -0.032 C 
ATOM     13  C   LIG d   1       2.717   0.064  -7.427  0.00  0.00     0.000 C 
ATOM     14  C   LIG d   1       3.221   1.242  -8.263  0.00  0.00     0.004 C 
ATOM     15  N   LIG d   1       4.378   0.816  -9.063  0.00  0.00    -0.299 N 
ATOM     16  C   LIG d   1       5.430   1.841  -9.054  0.00  0.00     0.004 C 
ATOM     17  C   LIG d   1       6.793   1.170  -8.866  0.00  0.00     0.000 C 
ATOM     18  C   LIG d   1       7.294   1.425  -7.443  0.00  0.00    -0.032 C 
ATOM     19  N   LIG d   1       8.303   0.417  -7.091  0.00  0.00     0.233 N 
ATOM     20  H   LIG d   1       9.222  -1.983  -4.672  0.00  0.00     0.064 H 
ATOM     21  H   LIG d   1       7.727  -3.633  -3.566  0.00  0.00     0.062 H 
ATOM     22  H   LIG d   1       5.324  -3.060  -3.285  0.00  0.00     0.064 H 
ATOM     23  H   LIG d   1       3.964  -1.560  -5.944  0.00  0.00     0.202 HD
ATOM     24  H   LIG d   1       2.259   0.761  -5.441  0.00  0.00     0.081 H 
ATOM     25  H   LIG d   1       3.971   0.925  -5.901  0.00  0.00     0.081 H 
ATOM     26  H   LIG d   1       3.177  -0.858  -7.784  0.00  0.00     0.033 H 
ATOM     27  H   LIG d   1       1.634  -0.010  -7.518  0.00  0.00     0.033 H 
ATOM     28  H   LIG d   1       2.427   1.583  -8.927  0.00  0.00     0.043 H 
ATOM     29  H   LIG d   1       3.517   2.057  -7.602  0.00  0.00     0.043 H 
ATOM     30  H   LIG d   1       5.419   2.381 -10.000  0.00  0.00     0.043 H 
ATOM     31  H   LIG d   1       5.252   2.538  -8.235  0.00  0.00     0.043 H 
ATOM     32  H   LIG d   1       6.695   0.098  -9.031  0.00  0.00     0.033 H 
ATOM     33  H   LIG d   1       7.503   1.584  -9.582  0.00  0.00     0.033 H 
ATOM     34  H   LIG d   1       7.739   2.419  -7.388  0.00  0.00     0.081 H 
ATOM     35  H   LIG d   1       6.459   1.362  -6.747  0.00  0.00     0.081 H 
ATOM     36  H   LIG d   1       9.165   0.621  -7.575  0.00  0.00     0.202 HD
ATOM     37  H   LIG d   1       2.520  -1.501  -5.153  0.00  0.00     0.202 HD
ATOM     38  H   LIG d   1       7.973  -0.497  -7.362  0.00  0.00     0.202 HD
ENDROOT
BRANCH  15  39
ATOM     39  C   LIG d   1       4.896  -0.476  -8.592  0.00  0.00     0.033 C 
ATOM     40  H   LIG d   1       5.926  -0.354  -8.259  0.00  0.00     0.046 H 
ATOM     41  H   LIG d   1       4.285  -0.832  -7.763  0.00  0.00     0.046 H 
BRANCH  39  42
ATOM     42  C   LIG d   1       4.848  -1.492  -9.736  0.00  0.00     0.105 C 
ATOM     43  H   LIG d   1       5.842  -1.598 -10.170  0.00  0.00     0.071 H 
ATOM     44  H   LIG d   1       4.515  -2.456  -9.351  0.00  0.00     0.071 H 
BRANCH  42  45
ATOM     45  O   LIG d   1       3.936  -1.039 -10.737  0.00  0.00    -0.464 OA
BRANCH  45  46
ATOM     46  C   LIG d   1       2.783  -1.716 -10.865  0.00  0.00     0.304 C 
ATOM     47  O   LIG d   1       2.799  -2.921 -10.959  0.00  0.00    -0.251 OA
BRANCH  46  48
ATOM     48  C   LIG d   1       1.472  -0.975 -10.890  0.00  0.00     0.033 C 
ATOM     49  H   LIG d   1       0.915  -1.192  -9.977  0.00  0.00     0.034 H 
ATOM     50  H   LIG d   1       1.661   0.096 -10.955  0.00  0.00     0.034 H 
ATOM     51  H   LIG d   1       0.890  -1.294 -11.755  0.00  0.00     0.034 H 
ENDBRANCH  46  48
ENDBRANCH  45  46
ENDBRANCH  42  45
ENDBRANCH  39  42
ENDBRANCH  15  39
BRANCH   9  52
ATOM     52  C   LIG d   1       3.968   0.684  -3.660  0.00  0.00    -0.016 C 
ATOM     53  H   LIG d   1       4.260   1.314  -4.500  0.00  0.00     0.029 H 
ATOM     54  H   LIG d   1       2.937   0.903  -3.384  0.00  0.00     0.029 H 
ATOM     55  H   LIG d   1       4.622   0.885  -2.811  0.00  0.00     0.029 H 
ENDBRANCH   9  52
BRANCH   1  56
ATOM     56  C   LIG d   1      10.000   0.098  -5.355  0.00  0.00    -0.016 C 
ATOM     57  H   LIG d   1      10.057  -0.892  -4.901  0.00  0.00     0.029 H 
ATOM     58  H   LIG d   1      10.564   0.101  -6.288  0.00  0.00     0.029 H 
ATOM     59  H   LIG d   1      10.421   0.836  -4.673  0.00  0.00     0.029 H 
ENDBRANCH   1  56
TORSDOF 7
ENDMDL
