MODEL 1
REMARK VINA RESULT:      -6.1      0.000      0.000
REMARK  12 active torsions:
REMARK  status: ('A' for Active; 'I' for Inactive)
REMARK    1  A    between atoms: C_1  and  C_2 
REMARK    2  A    between atoms: C_4  and  C_31 
REMARK    3  A    between atoms: C_6  and  C_28 
REMARK    4  A    between atoms: C_9  and  C_11 
REMARK    5  A    between atoms: C_11  and  C_12 
REMARK    6  A    between atoms: C_15  and  C_17 
REMARK    7  A    between atoms: C_17  and  C_18 
REMARK    8  A    between atoms: C_28  and  C_29 
REMARK    9  A    between atoms: C_28  and  C_30 
REMARK   10  A    between atoms: C_31  and  N_32 
REMARK   11  A    between atoms: N_32  and  C_33 
REMARK   12  A    between atoms: C_33  and  C_34 
ROOT
ATOM      1  C   LIG d   1       2.486  -3.906 -11.039  0.00  0.00    -0.056 C 
ATOM      2  C   LIG d   1       3.479  -4.489 -11.267  0.00  0.00    -0.114 C 
ATOM      3  H   LIG d   1       4.367  -5.011 -11.471  0.00  0.00     0.123 H 
ENDROOT
BRANCH   1   4
ATOM      4  C   LIG d   1       1.242  -3.173 -10.753  0.00  0.00     0.029 C 
ATOM      5  H   LIG d   1       0.540  -3.834 -10.244  0.00  0.00     0.096 H 
ATOM      6  H   LIG d   1       0.802  -2.828 -11.689  0.00  0.00     0.096 H 
BRANCH   4   7
ATOM      7  N   LIG d   1       1.538  -2.019  -9.896  0.00  0.00     0.236 N 
ATOM      8  H   LIG d   1       2.471  -2.108  -9.522  0.00  0.00     0.202 HD
ATOM      9  H   LIG d   1       0.873  -1.984  -9.136  0.00  0.00     0.202 HD
BRANCH   7  10
ATOM     10  C   LIG d   1       1.442  -0.784 -10.686  0.00  0.00    -0.026 C 
ATOM     11  H   LIG d   1       0.665  -0.145 -10.269  0.00  0.00     0.082 H 
ATOM     12  H   LIG d   1       1.193  -1.032 -11.718  0.00  0.00     0.082 H 
BRANCH  10  13
ATOM     13  C   LIG d   1       2.783  -0.048 -10.647  0.00  0.00     0.021 C 
ATOM     14  C   LIG d   1       3.662  -0.557 -11.752  0.00  0.00    -0.076 C 
ATOM     15  C   LIG d   1       4.922  -0.817 -11.614  0.00  0.00    -0.072 C 
ATOM     16  H   LIG d   1       3.215  -0.717 -12.722  0.00  0.00     0.058 H 
ATOM     17  C   LIG d   1       5.677  -0.661 -10.327  0.00  0.00    -0.011 C 
ATOM     18  C   LIG d   1       4.892   0.233  -9.362  0.00  0.00    -0.042 C 
ATOM     19  H   LIG d   1       6.647  -0.207 -10.529  0.00  0.00     0.035 H 
ATOM     20  C   LIG d   1       3.450  -0.285  -9.290  0.00  0.00    -0.027 C 
ATOM     21  H   LIG d   1       4.895   1.261  -9.726  0.00  0.00     0.027 H 
ATOM     22  H   LIG d   1       5.346   0.191  -8.372  0.00  0.00     0.027 H 
ATOM     23  H   LIG d   1       3.455  -1.352  -9.066  0.00  0.00     0.031 H 
ATOM     24  H   LIG d   1       2.613   1.020 -10.785  0.00  0.00     0.040 H 
BRANCH  15  25
ATOM     25  C   LIG d   1       5.678  -1.312 -12.820  0.00  0.00    -0.043 C 
ATOM     26  H   LIG d   1       4.970  -1.599 -13.599  0.00  0.00     0.027 H 
ATOM     27  H   LIG d   1       6.327  -0.522 -13.193  0.00  0.00     0.027 H 
ATOM     28  H   LIG d   1       6.280  -2.177 -12.542  0.00  0.00     0.027 H 
ENDBRANCH  15  25
BRANCH  17  29
ATOM     29  C   LIG d   1       5.887  -2.037  -9.692  0.00  0.00     0.032 C 
ATOM     30  H   LIG d   1       4.920  -2.502  -9.502  0.00  0.00     0.037 H 
ATOM     31  H   LIG d   1       6.466  -2.665 -10.368  0.00  0.00     0.037 H 
BRANCH  29  32
ATOM     32  C   LIG d   1       6.633  -1.882  -8.391  0.00  0.00     0.218 A 
ATOM     33  O   LIG d   1       6.200  -2.261  -7.176  0.00  0.00    -0.424 OA
ATOM     34  C   LIG d   1       7.175  -1.938  -6.309  0.00  0.00     0.222 A 
ATOM     35  N   LIG d   1       8.136  -1.384  -6.991  0.00  0.00    -0.112 NA
ATOM     36  N   LIG d   1       7.812  -1.351  -8.237  0.00  0.00    -0.112 NA
BRANCH  34  37
ATOM     37  C   LIG d   1       7.156  -2.169  -4.820  0.00  0.00     0.053 C 
ATOM     38  H   LIG d   1       7.475  -3.189  -4.606  0.00  0.00     0.041 H 
ATOM     39  H   LIG d   1       7.835  -1.467  -4.335  0.00  0.00     0.041 H 
BRANCH  37  40
ATOM     40  C   LIG d   1       5.759  -1.958  -4.297  0.00  0.00    -0.013 A 
ATOM     41  C   LIG d   1       5.252  -0.762  -3.621  0.00  0.00     0.003 A 
ATOM     42  C   LIG d   1       3.903  -1.025  -3.323  0.00  0.00     0.047 A 
ATOM     43  C   LIG d   1       5.818   0.463  -3.264  0.00  0.00    -0.052 A 
ATOM     44  N   LIG d   1       3.627  -2.295  -3.780  0.00  0.00    -0.360 N 
ATOM     45  C   LIG d   1       3.146  -0.055  -2.674  0.00  0.00    -0.038 A 
ATOM     46  C   LIG d   1       4.743  -2.835  -4.358  0.00  0.00     0.006 A 
ATOM     47  H   LIG d   1       2.768  -2.739  -3.704  0.00  0.00     0.165 HD
ATOM     48  H   LIG d   1       4.800  -3.819  -4.796  0.00  0.00     0.081 H 
ATOM     49  C   LIG d   1       3.727   1.143  -2.323  0.00  0.00    -0.060 A 
ATOM     50  H   LIG d   1       2.110  -0.246  -2.436  0.00  0.00     0.064 H 
ATOM     51  C   LIG d   1       5.058   1.401  -2.623  0.00  0.00    -0.061 A 
ATOM     52  H   LIG d   1       3.139   1.894  -1.815  0.00  0.00     0.062 H 
ATOM     53  H   LIG d   1       5.496   2.349  -2.347  0.00  0.00     0.062 H 
ATOM     54  H   LIG d   1       6.853   0.671  -3.494  0.00  0.00     0.062 H 
ENDBRANCH  37  40
ENDBRANCH  34  37
ENDBRANCH  29  32
ENDBRANCH  17  29
BRANCH  20  55
ATOM     55  C   LIG d   1       2.682   0.466  -8.201  0.00  0.00    -0.043 C 
ATOM     56  H   LIG d   1       1.626   0.203  -8.254  0.00  0.00     0.030 H 
BRANCH  55  57
ATOM     57  C   LIG d   1       3.236   0.082  -6.828  0.00  0.00    -0.062 C 
ATOM     58  H   LIG d   1       4.069   0.738  -6.575  0.00  0.00     0.023 H 
ATOM     59  H   LIG d   1       2.452   0.183  -6.079  0.00  0.00     0.023 H 
ATOM     60  H   LIG d   1       3.583  -0.953  -6.853  0.00  0.00     0.023 H 
ENDBRANCH  55  57
BRANCH  55  61
ATOM     61  C   LIG d   1       2.843   1.974  -8.412  0.00  0.00    -0.062 C 
ATOM     62  H   LIG d   1       3.568   2.154  -9.206  0.00  0.00     0.023 H 
ATOM     63  H   LIG d   1       1.883   2.406  -8.690  0.00  0.00     0.023 H 
ATOM     64  H   LIG d   1       3.195   2.434  -7.488  0.00  0.00     0.023 H 
ENDBRANCH  55  61
ENDBRANCH  20  55
ENDBRANCH  10  13
ENDBRANCH   7  10
ENDBRANCH   4   7
ENDBRANCH   1   4
TORSDOF 12
ENDMDL
MODEL 2
REMARK VINA RESULT:      -5.9      1.895      3.204
REMARK  12 active torsions:
REMARK  status: ('A' for Active; 'I' for Inactive)
REMARK    1  A    between atoms: C_1  and  C_2 
REMARK    2  A    between atoms: C_4  and  C_31 
REMARK    3  A    between atoms: C_6  and  C_28 
REMARK    4  A    between atoms: C_9  and  C_11 
REMARK    5  A    between atoms: C_11  and  C_12 
REMARK    6  A    between atoms: C_15  and  C_17 
REMARK    7  A    between atoms: C_17  and  C_18 
REMARK    8  A    between atoms: C_28  and  C_29 
REMARK    9  A    between atoms: C_28  and  C_30 
REMARK   10  A    between atoms: C_31  and  N_32 
REMARK   11  A    between atoms: N_32  and  C_33 
REMARK   12  A    between atoms: C_33  and  C_34 
ROOT
ATOM      1  C   LIG d   1       4.577  -1.066 -12.681  0.00  0.00    -0.056 C 
ATOM      2  C   LIG d   1       5.659  -0.808 -12.306  0.00  0.00    -0.114 C 
ATOM      3  H   LIG d   1       6.627  -0.577 -11.972  0.00  0.00     0.123 H 
ENDROOT
BRANCH   1   4
ATOM      4  C   LIG d   1       3.219  -1.390 -13.148  0.00  0.00     0.029 C 
ATOM      5  H   LIG d   1       3.123  -2.470 -13.265  0.00  0.00     0.096 H 
ATOM      6  H   LIG d   1       3.041  -0.904 -14.108  0.00  0.00     0.096 H 
BRANCH   4   7
ATOM      7  N   LIG d   1       2.235  -0.913 -12.168  0.00  0.00     0.236 N 
ATOM      8  H   LIG d   1       1.429  -0.547 -12.652  0.00  0.00     0.202 HD
ATOM      9  H   LIG d   1       2.648  -0.185 -11.604  0.00  0.00     0.202 HD
BRANCH   7  10
ATOM     10  C   LIG d   1       1.824  -2.028 -11.304  0.00  0.00    -0.026 C 
ATOM     11  H   LIG d   1       2.415  -2.911 -11.544  0.00  0.00     0.082 H 
ATOM     12  H   LIG d   1       0.768  -2.242 -11.468  0.00  0.00     0.082 H 
BRANCH  10  13
ATOM     13  C   LIG d   1       2.047  -1.647  -9.839  0.00  0.00     0.021 C 
ATOM     14  C   LIG d   1       1.941  -0.158  -9.691  0.00  0.00    -0.076 C 
ATOM     15  C   LIG d   1       2.746   0.557  -8.972  0.00  0.00    -0.072 C 
ATOM     16  H   LIG d   1       1.145   0.349 -10.215  0.00  0.00     0.058 H 
ATOM     17  C   LIG d   1       3.906   0.000  -8.201  0.00  0.00    -0.011 C 
ATOM     18  C   LIG d   1       3.742  -1.513  -8.027  0.00  0.00    -0.042 C 
ATOM     19  H   LIG d   1       3.947   0.472  -7.219  0.00  0.00     0.035 H 
ATOM     20  C   LIG d   1       3.433  -2.125  -9.400  0.00  0.00    -0.027 C 
ATOM     21  H   LIG d   1       2.922  -1.720  -7.340  0.00  0.00     0.027 H 
ATOM     22  H   LIG d   1       4.668  -1.938  -7.637  0.00  0.00     0.027 H 
ATOM     23  H   LIG d   1       4.179  -1.799 -10.123  0.00  0.00     0.031 H 
ATOM     24  H   LIG d   1       1.287  -2.127  -9.222  0.00  0.00     0.040 H 
BRANCH  15  25
ATOM     25  C   LIG d   1       2.505   2.044  -8.911  0.00  0.00    -0.043 C 
ATOM     26  H   LIG d   1       2.115   2.388  -9.870  0.00  0.00     0.027 H 
ATOM     27  H   LIG d   1       1.784   2.264  -8.125  0.00  0.00     0.027 H 
ATOM     28  H   LIG d   1       3.444   2.555  -8.696  0.00  0.00     0.027 H 
ENDBRANCH  15  25
BRANCH  17  29
ATOM     29  C   LIG d   1       5.204   0.292  -8.956  0.00  0.00     0.032 C 
ATOM     30  H   LIG d   1       5.525  -0.605  -9.488  0.00  0.00     0.037 H 
ATOM     31  H   LIG d   1       5.036   1.097  -9.670  0.00  0.00     0.037 H 
BRANCH  29  32
ATOM     32  C   LIG d   1       6.273   0.704  -7.977  0.00  0.00     0.218 A 
ATOM     33  O   LIG d   1       6.629   0.042  -6.863  0.00  0.00    -0.424 OA
ATOM     34  C   LIG d   1       7.615   0.758  -6.296  0.00  0.00     0.222 A 
ATOM     35  N   LIG d   1       7.822   1.802  -7.047  0.00  0.00    -0.112 NA
ATOM     36  N   LIG d   1       7.019   1.768  -8.053  0.00  0.00    -0.112 NA
BRANCH  34  37
ATOM     37  C   LIG d   1       8.343   0.418  -5.021  0.00  0.00     0.053 C 
ATOM     38  H   LIG d   1       9.296  -0.054  -5.261  0.00  0.00     0.041 H 
ATOM     39  H   LIG d   1       8.524   1.330  -4.452  0.00  0.00     0.041 H 
BRANCH  37  40
ATOM     40  C   LIG d   1       7.506  -0.529  -4.201  0.00  0.00    -0.013 A 
ATOM     41  C   LIG d   1       6.363  -0.174  -3.357  0.00  0.00     0.003 A 
ATOM     42  C   LIG d   1       5.903  -1.381  -2.797  0.00  0.00     0.047 A 
ATOM     43  C   LIG d   1       5.720   1.026  -3.049  0.00  0.00    -0.052 A 
ATOM     44  N   LIG d   1       6.722  -2.383  -3.267  0.00  0.00    -0.360 N 
ATOM     45  C   LIG d   1       4.807  -1.360  -1.941  0.00  0.00    -0.038 A 
ATOM     46  C   LIG d   1       7.670  -1.858  -4.102  0.00  0.00     0.006 A 
ATOM     47  H   LIG d   1       6.638  -3.322  -3.039  0.00  0.00     0.165 HD
ATOM     48  H   LIG d   1       8.437  -2.427  -4.605  0.00  0.00     0.081 H 
ATOM     49  C   LIG d   1       4.194  -0.163  -1.644  0.00  0.00    -0.060 A 
ATOM     50  H   LIG d   1       4.447  -2.278  -1.501  0.00  0.00     0.064 H 
ATOM     51  C   LIG d   1       4.648   1.024  -2.202  0.00  0.00    -0.061 A 
ATOM     52  H   LIG d   1       3.345  -0.150  -0.975  0.00  0.00     0.062 H 
ATOM     53  H   LIG d   1       4.150   1.952  -1.964  0.00  0.00     0.062 H 
ATOM     54  H   LIG d   1       6.068   1.954  -3.479  0.00  0.00     0.062 H 
ENDBRANCH  37  40
ENDBRANCH  34  37
ENDBRANCH  29  32
ENDBRANCH  17  29
BRANCH  20  55
ATOM     55  C   LIG d   1       3.444  -3.651  -9.301  0.00  0.00    -0.043 C 
ATOM     56  H   LIG d   1       2.443  -4.035  -9.499  0.00  0.00     0.030 H 
BRANCH  55  57
ATOM     57  C   LIG d   1       4.422  -4.222 -10.330  0.00  0.00    -0.062 C 
ATOM     58  H   LIG d   1       5.147  -3.457 -10.606  0.00  0.00     0.023 H 
ATOM     59  H   LIG d   1       4.941  -5.079  -9.902  0.00  0.00     0.023 H 
ATOM     60  H   LIG d   1       3.871  -4.537 -11.218  0.00  0.00     0.023 H 
ENDBRANCH  55  57
BRANCH  55  61
ATOM     61  C   LIG d   1       3.882  -4.069  -7.895  0.00  0.00    -0.062 C 
ATOM     62  H   LIG d   1       4.322  -3.212  -7.383  0.00  0.00     0.023 H 
ATOM     63  H   LIG d   1       3.018  -4.423  -7.336  0.00  0.00     0.023 H 
ATOM     64  H   LIG d   1       4.622  -4.867  -7.968  0.00  0.00     0.023 H 
ENDBRANCH  55  61
ENDBRANCH  20  55
ENDBRANCH  10  13
ENDBRANCH   7  10
ENDBRANCH   4   7
ENDBRANCH   1   4
TORSDOF 12
ENDMDL
MODEL 3
REMARK VINA RESULT:      -5.8      2.107      7.008
REMARK  12 active torsions:
REMARK  status: ('A' for Active; 'I' for Inactive)
REMARK    1  A    between atoms: C_1  and  C_2 
REMARK    2  A    between atoms: C_4  and  C_31 
REMARK    3  A    between atoms: C_6  and  C_28 
REMARK    4  A    between atoms: C_9  and  C_11 
REMARK    5  A    between atoms: C_11  and  C_12 
REMARK    6  A    between atoms: C_15  and  C_17 
REMARK    7  A    between atoms: C_17  and  C_18 
REMARK    8  A    between atoms: C_28  and  C_29 
REMARK    9  A    between atoms: C_28  and  C_30 
REMARK   10  A    between atoms: C_31  and  N_32 
REMARK   11  A    between atoms: N_32  and  C_33 
REMARK   12  A    between atoms: C_33  and  C_34 
ROOT
ATOM      1  C   LIG d   1       8.698   0.915  -4.722  0.00  0.00    -0.056 C 
ATOM      2  C   LIG d   1       9.526   0.353  -5.335  0.00  0.00    -0.114 C 
ATOM      3  H   LIG d   1      10.267  -0.151  -5.883  0.00  0.00     0.123 H 
ENDROOT
BRANCH   1   4
ATOM      4  C   LIG d   1       7.660   1.622  -3.954  0.00  0.00     0.029 C 
ATOM      5  H   LIG d   1       7.615   2.662  -4.276  0.00  0.00     0.096 H 
ATOM      6  H   LIG d   1       7.904   1.581  -2.892  0.00  0.00     0.096 H 
BRANCH   4   7
ATOM      7  N   LIG d   1       6.359   0.981  -4.181  0.00  0.00     0.236 N 
ATOM      8  H   LIG d   1       6.478   0.186  -4.792  0.00  0.00     0.202 HD
ATOM      9  H   LIG d   1       5.728   1.642  -4.610  0.00  0.00     0.202 HD
BRANCH   7  10
ATOM     10  C   LIG d   1       5.802   0.533  -2.898  0.00  0.00    -0.026 C 
ATOM     11  H   LIG d   1       4.864   1.054  -2.708  0.00  0.00     0.082 H 
ATOM     12  H   LIG d   1       6.509   0.754  -2.099  0.00  0.00     0.082 H 
BRANCH  10  13
ATOM     13  C   LIG d   1       5.545  -0.974  -2.951  0.00  0.00     0.021 C 
ATOM     14  C   LIG d   1       6.854  -1.698  -3.070  0.00  0.00    -0.076 C 
ATOM     15  C   LIG d   1       7.057  -2.703  -3.860  0.00  0.00    -0.072 C 
ATOM     16  H   LIG d   1       7.677  -1.359  -2.458  0.00  0.00     0.058 H 
ATOM     17  C   LIG d   1       6.019  -3.275  -4.779  0.00  0.00    -0.011 C 
ATOM     18  C   LIG d   1       4.623  -2.815  -4.344  0.00  0.00    -0.042 C 
ATOM     19  H   LIG d   1       6.065  -4.362  -4.745  0.00  0.00     0.035 H 
ATOM     20  C   LIG d   1       4.655  -1.293  -4.155  0.00  0.00    -0.027 C 
ATOM     21  H   LIG d   1       4.351  -3.296  -3.405  0.00  0.00     0.027 H 
ATOM     22  H   LIG d   1       3.897  -3.072  -5.115  0.00  0.00     0.027 H 
ATOM     23  H   LIG d   1       5.063  -0.820  -5.048  0.00  0.00     0.031 H 
ATOM     24  H   LIG d   1       5.041  -1.287  -2.036  0.00  0.00     0.040 H 
BRANCH  15  25
ATOM     25  C   LIG d   1       8.426  -3.335  -3.860  0.00  0.00    -0.043 C 
ATOM     26  H   LIG d   1       8.432  -4.187  -4.541  0.00  0.00     0.027 H 
ATOM     27  H   LIG d   1       9.164  -2.603  -4.186  0.00  0.00     0.027 H 
ATOM     28  H   LIG d   1       8.670  -3.674  -2.853  0.00  0.00     0.027 H 
ENDBRANCH  15  25
BRANCH  17  29
ATOM     29  C   LIG d   1       6.291  -2.802  -6.208  0.00  0.00     0.032 C 
ATOM     30  H   LIG d   1       6.386  -1.716  -6.221  0.00  0.00     0.037 H 
ATOM     31  H   LIG d   1       7.215  -3.252  -6.570  0.00  0.00     0.037 H 
BRANCH  29  32
ATOM     32  C   LIG d   1       5.148  -3.216  -7.100  0.00  0.00     0.218 A 
ATOM     33  O   LIG d   1       4.494  -2.429  -7.971  0.00  0.00    -0.424 OA
ATOM     34  C   LIG d   1       3.559  -3.201  -8.551  0.00  0.00     0.222 A 
ATOM     35  N   LIG d   1       3.660  -4.392  -8.033  0.00  0.00    -0.112 NA
ATOM     36  N   LIG d   1       4.611  -4.400  -7.165  0.00  0.00    -0.112 NA
BRANCH  34  37
ATOM     37  C   LIG d   1       2.572  -2.767  -9.604  0.00  0.00     0.053 C 
ATOM     38  H   LIG d   1       2.444  -3.567 -10.333  0.00  0.00     0.041 H 
ATOM     39  H   LIG d   1       1.613  -2.548  -9.133  0.00  0.00     0.041 H 
BRANCH  37  40
ATOM     40  C   LIG d   1       3.086  -1.532 -10.296  0.00  0.00    -0.013 A 
ATOM     41  C   LIG d   1       3.083  -0.168  -9.762  0.00  0.00     0.003 A 
ATOM     42  C   LIG d   1       3.663   0.641 -10.757  0.00  0.00     0.047 A 
ATOM     43  C   LIG d   1       2.651   0.403  -8.564  0.00  0.00    -0.052 A 
ATOM     44  N   LIG d   1       3.980  -0.182 -11.814  0.00  0.00    -0.360 N 
ATOM     45  C   LIG d   1       3.800   2.006 -10.530  0.00  0.00    -0.038 A 
ATOM     46  C   LIG d   1       3.631  -1.473 -11.522  0.00  0.00     0.006 A 
ATOM     47  H   LIG d   1       4.392   0.110 -12.643  0.00  0.00     0.165 HD
ATOM     48  H   LIG d   1       3.771  -2.317 -12.179  0.00  0.00     0.081 H 
ATOM     49  C   LIG d   1       3.359   2.550  -9.344  0.00  0.00    -0.060 A 
ATOM     50  H   LIG d   1       4.240   2.639 -11.287  0.00  0.00     0.064 H 
ATOM     51  C   LIG d   1       2.792   1.748  -8.364  0.00  0.00    -0.061 A 
ATOM     52  H   LIG d   1       3.464   3.612  -9.172  0.00  0.00     0.062 H 
ATOM     53  H   LIG d   1       2.459   2.190  -7.437  0.00  0.00     0.062 H 
ATOM     54  H   LIG d   1       2.208  -0.215  -7.797  0.00  0.00     0.062 H 
ENDBRANCH  37  40
ENDBRANCH  34  37
ENDBRANCH  29  32
ENDBRANCH  17  29
BRANCH  20  55
ATOM     55  C   LIG d   1       3.239  -0.772  -3.900  0.00  0.00    -0.043 C 
ATOM     56  H   LIG d   1       2.530  -1.597  -3.978  0.00  0.00     0.030 H 
BRANCH  55  57
ATOM     57  C   LIG d   1       3.163  -0.165  -2.498  0.00  0.00    -0.062 C 
ATOM     58  H   LIG d   1       3.653  -0.829  -1.787  0.00  0.00     0.023 H 
ATOM     59  H   LIG d   1       3.663   0.804  -2.495  0.00  0.00     0.023 H 
ATOM     60  H   LIG d   1       2.118  -0.035  -2.214  0.00  0.00     0.023 H 
ENDBRANCH  55  57
BRANCH  55  61
ATOM     61  C   LIG d   1       2.894   0.297  -4.939  0.00  0.00    -0.062 C 
ATOM     62  H   LIG d   1       2.113  -0.078  -5.600  0.00  0.00     0.023 H 
ATOM     63  H   LIG d   1       2.542   1.195  -4.432  0.00  0.00     0.023 H 
ATOM     64  H   LIG d   1       3.783   0.534  -5.524  0.00  0.00     0.023 H 
ENDBRANCH  55  61
ENDBRANCH  20  55
ENDBRANCH  10  13
ENDBRANCH   7  10
ENDBRANCH   4   7
ENDBRANCH   1   4
TORSDOF 12
ENDMDL
MODEL 4
REMARK VINA RESULT:      -5.8      1.605      6.412
REMARK  12 active torsions:
REMARK  status: ('A' for Active; 'I' for Inactive)
REMARK    1  A    between atoms: C_1  and  C_2 
REMARK    2  A    between atoms: C_4  and  C_31 
REMARK    3  A    between atoms: C_6  and  C_28 
REMARK    4  A    between atoms: C_9  and  C_11 
REMARK    5  A    between atoms: C_11  and  C_12 
REMARK    6  A    between atoms: C_15  and  C_17 
REMARK    7  A    between atoms: C_17  and  C_18 
REMARK    8  A    between atoms: C_28  and  C_29 
REMARK    9  A    between atoms: C_28  and  C_30 
REMARK   10  A    between atoms: C_31  and  N_32 
REMARK   11  A    between atoms: N_32  and  C_33 
REMARK   12  A    between atoms: C_33  and  C_34 
ROOT
ATOM      1  C   LIG d   1       2.763   0.365  -6.183  0.00  0.00    -0.056 C 
ATOM      2  C   LIG d   1       3.150   0.030  -7.240  0.00  0.00    -0.114 C 
ATOM      3  H   LIG d   1       3.496  -0.270  -8.184  0.00  0.00     0.123 H 
ENDROOT
BRANCH   1   4
ATOM      4  C   LIG d   1       2.277   0.787  -4.859  0.00  0.00     0.029 C 
ATOM      5  H   LIG d   1       1.898  -0.081  -4.318  0.00  0.00     0.096 H 
ATOM      6  H   LIG d   1       1.475   1.516  -4.982  0.00  0.00     0.096 H 
BRANCH   4   7
ATOM      7  N   LIG d   1       3.378   1.393  -4.102  0.00  0.00     0.236 N 
ATOM      8  H   LIG d   1       3.146   2.350  -3.878  0.00  0.00     0.202 HD
ATOM      9  H   LIG d   1       4.220   1.375  -4.659  0.00  0.00     0.202 HD
BRANCH   7  10
ATOM     10  C   LIG d   1       3.596   0.638  -2.862  0.00  0.00    -0.026 C 
ATOM     11  H   LIG d   1       2.830  -0.131  -2.766  0.00  0.00     0.082 H 
ATOM     12  H   LIG d   1       3.538   1.315  -2.009  0.00  0.00     0.082 H 
BRANCH  10  13
ATOM     13  C   LIG d   1       4.977  -0.020  -2.899  0.00  0.00     0.021 C 
ATOM     14  C   LIG d   1       6.030   1.043  -3.011  0.00  0.00    -0.076 C 
ATOM     15  C   LIG d   1       7.060   0.962  -3.791  0.00  0.00    -0.072 C 
ATOM     16  H   LIG d   1       5.923   1.929  -2.403  0.00  0.00     0.058 H 
ATOM     17  C   LIG d   1       7.336  -0.195  -4.704  0.00  0.00    -0.011 C 
ATOM     18  C   LIG d   1       6.510  -1.411  -4.274  0.00  0.00    -0.042 C 
ATOM     19  H   LIG d   1       8.395  -0.447  -4.660  0.00  0.00     0.035 H 
ATOM     20  C   LIG d   1       5.052  -0.966  -4.100  0.00  0.00    -0.027 C 
ATOM     21  H   LIG d   1       6.890  -1.802  -3.330  0.00  0.00     0.027 H 
ATOM     22  H   LIG d   1       6.567  -2.183  -5.043  0.00  0.00     0.027 H 
ATOM     23  H   LIG d   1       4.717  -0.447  -4.997  0.00  0.00     0.031 H 
ATOM     24  H   LIG d   1       5.132  -0.587  -1.982  0.00  0.00     0.040 H 
BRANCH  15  25
ATOM     25  C   LIG d   1       8.041   2.107  -3.785  0.00  0.00    -0.043 C 
ATOM     26  H   LIG d   1       7.497   3.051  -3.731  0.00  0.00     0.027 H 
ATOM     27  H   LIG d   1       8.699   2.018  -2.922  0.00  0.00     0.027 H 
ATOM     28  H   LIG d   1       8.634   2.082  -4.700  0.00  0.00     0.027 H 
ENDBRANCH  15  25
BRANCH  17  29
ATOM     29  C   LIG d   1       6.969   0.191  -6.138  0.00  0.00     0.032 C 
ATOM     30  H   LIG d   1       5.917   0.474  -6.182  0.00  0.00     0.037 H 
ATOM     31  H   LIG d   1       7.585   1.032  -6.457  0.00  0.00     0.037 H 
BRANCH  29  32
ATOM     32  C   LIG d   1       7.211  -0.982  -7.052  0.00  0.00     0.218 A 
ATOM     33  O   LIG d   1       6.315  -1.542  -7.883  0.00  0.00    -0.424 OA
ATOM     34  C   LIG d   1       6.952  -2.550  -8.504  0.00  0.00     0.222 A 
ATOM     35  N   LIG d   1       8.171  -2.582  -8.047  0.00  0.00    -0.112 NA
ATOM     36  N   LIG d   1       8.326  -1.644  -7.179  0.00  0.00    -0.112 NA
BRANCH  34  37
ATOM     37  C   LIG d   1       6.360  -3.477  -9.535  0.00  0.00     0.053 C 
ATOM     38  H   LIG d   1       6.672  -3.160 -10.530  0.00  0.00     0.041 H 
ATOM     39  H   LIG d   1       6.709  -4.493  -9.351  0.00  0.00     0.041 H 
BRANCH  37  40
ATOM     40  C   LIG d   1       4.857  -3.437  -9.442  0.00  0.00    -0.013 A 
ATOM     41  C   LIG d   1       3.977  -2.406  -9.997  0.00  0.00     0.003 A 
ATOM     42  C   LIG d   1       2.665  -2.795  -9.665  0.00  0.00     0.047 A 
ATOM     43  C   LIG d   1       4.193  -1.232 -10.721  0.00  0.00    -0.052 A 
ATOM     44  N   LIG d   1       2.758  -3.970  -8.954  0.00  0.00    -0.360 N 
ATOM     45  C   LIG d   1       1.597  -2.000 -10.069  0.00  0.00    -0.038 A 
ATOM     46  C   LIG d   1       4.071  -4.338  -8.832  0.00  0.00     0.006 A 
ATOM     47  H   LIG d   1       2.005  -4.464  -8.595  0.00  0.00     0.165 HD
ATOM     48  H   LIG d   1       4.422  -5.221  -8.320  0.00  0.00     0.081 H 
ATOM     49  C   LIG d   1       1.834  -0.842 -10.774  0.00  0.00    -0.060 A 
ATOM     50  H   LIG d   1       0.586  -2.285  -9.817  0.00  0.00     0.064 H 
ATOM     51  C   LIG d   1       3.129  -0.465 -11.103  0.00  0.00    -0.061 A 
ATOM     52  H   LIG d   1       1.003  -0.224 -11.082  0.00  0.00     0.062 H 
ATOM     53  H   LIG d   1       3.297   0.443 -11.663  0.00  0.00     0.062 H 
ATOM     54  H   LIG d   1       5.198  -0.932 -10.979  0.00  0.00     0.062 H 
ENDBRANCH  37  40
ENDBRANCH  34  37
ENDBRANCH  29  32
ENDBRANCH  17  29
BRANCH  20  55
ATOM     55  C   LIG d   1       4.164  -2.186  -3.850  0.00  0.00    -0.043 C 
ATOM     56  H   LIG d   1       3.189  -2.026  -4.312  0.00  0.00     0.030 H 
BRANCH  55  57
ATOM     57  C   LIG d   1       4.819  -3.428  -4.457  0.00  0.00    -0.062 C 
ATOM     58  H   LIG d   1       4.956  -3.280  -5.528  0.00  0.00     0.023 H 
ATOM     59  H   LIG d   1       5.787  -3.595  -3.985  0.00  0.00     0.023 H 
ATOM     60  H   LIG d   1       4.179  -4.295  -4.289  0.00  0.00     0.023 H 
ENDBRANCH  55  57
BRANCH  55  61
ATOM     61  C   LIG d   1       3.987  -2.388  -2.343  0.00  0.00    -0.062 C 
ATOM     62  H   LIG d   1       3.239  -1.689  -1.968  0.00  0.00     0.023 H 
ATOM     63  H   LIG d   1       3.660  -3.409  -2.149  0.00  0.00     0.023 H 
ATOM     64  H   LIG d   1       4.937  -2.208  -1.839  0.00  0.00     0.023 H 
ENDBRANCH  55  61
ENDBRANCH  20  55
ENDBRANCH  10  13
ENDBRANCH   7  10
ENDBRANCH   4   7
ENDBRANCH   1   4
TORSDOF 12
ENDMDL
MODEL 5
REMARK VINA RESULT:      -5.8      4.773      7.590
REMARK  12 active torsions:
REMARK  status: ('A' for Active; 'I' for Inactive)
REMARK    1  A    between atoms: C_1  and  C_2 
REMARK    2  A    between atoms: C_4  and  C_31 
REMARK    3  A    between atoms: C_6  and  C_28 
REMARK    4  A    between atoms: C_9  and  C_11 
REMARK    5  A    between atoms: C_11  and  C_12 
REMARK    6  A    between atoms: C_15  and  C_17 
REMARK    7  A    between atoms: C_17  and  C_18 
REMARK    8  A    between atoms: C_28  and  C_29 
REMARK    9  A    between atoms: C_28  and  C_30 
REMARK   10  A    between atoms: C_31  and  N_32 
REMARK   11  A    between atoms: N_32  and  C_33 
REMARK   12  A    between atoms: C_33  and  C_34 
ROOT
ATOM      1  C   LIG d   1       5.040  -7.040  -6.036  0.00  0.00    -0.056 C 
ATOM      2  C   LIG d   1       5.552  -8.061  -5.765  0.00  0.00    -0.114 C 
ATOM      3  H   LIG d   1       6.010  -8.974  -5.522  0.00  0.00     0.123 H 
ENDROOT
BRANCH   1   4
ATOM      4  C   LIG d   1       4.399  -5.759  -6.376  0.00  0.00     0.029 C 
ATOM      5  H   LIG d   1       3.430  -5.949  -6.838  0.00  0.00     0.096 H 
ATOM      6  H   LIG d   1       5.032  -5.211  -7.074  0.00  0.00     0.096 H 
BRANCH   4   7
ATOM      7  N   LIG d   1       4.213  -4.965  -5.156  0.00  0.00     0.236 N 
ATOM      8  H   LIG d   1       4.773  -5.354  -4.412  0.00  0.00     0.202 HD
ATOM      9  H   LIG d   1       3.240  -4.983  -4.888  0.00  0.00     0.202 HD
BRANCH   7  10
ATOM     10  C   LIG d   1       4.626  -3.578  -5.406  0.00  0.00    -0.026 C 
ATOM     11  H   LIG d   1       3.751  -2.975  -5.644  0.00  0.00     0.082 H 
ATOM     12  H   LIG d   1       5.323  -3.552  -6.243  0.00  0.00     0.082 H 
BRANCH  10  13
ATOM     13  C   LIG d   1       5.308  -3.015  -4.157  0.00  0.00     0.021 C 
ATOM     14  C   LIG d   1       4.388  -2.036  -3.487  0.00  0.00    -0.076 C 
ATOM     15  C   LIG d   1       4.769  -0.898  -3.003  0.00  0.00    -0.072 C 
ATOM     16  H   LIG d   1       3.344  -2.298  -3.403  0.00  0.00     0.058 H 
ATOM     17  C   LIG d   1       6.180  -0.390  -3.059  0.00  0.00    -0.011 C 
ATOM     18  C   LIG d   1       7.143  -1.545  -3.351  0.00  0.00    -0.042 C 
ATOM     19  H   LIG d   1       6.440   0.062  -2.103  0.00  0.00     0.035 H 
ATOM     20  C   LIG d   1       6.611  -2.322  -4.562  0.00  0.00    -0.027 C 
ATOM     21  H   LIG d   1       7.199  -2.206  -2.486  0.00  0.00     0.027 H 
ATOM     22  H   LIG d   1       8.132  -1.148  -3.576  0.00  0.00     0.027 H 
ATOM     23  H   LIG d   1       6.419  -1.633  -5.384  0.00  0.00     0.031 H 
ATOM     24  H   LIG d   1       5.530  -3.830  -3.468  0.00  0.00     0.040 H 
BRANCH  15  25
ATOM     25  C   LIG d   1       3.729  -0.025  -2.348  0.00  0.00    -0.043 C 
ATOM     26  H   LIG d   1       2.855   0.046  -2.996  0.00  0.00     0.027 H 
ATOM     27  H   LIG d   1       3.439  -0.460  -1.393  0.00  0.00     0.027 H 
ATOM     28  H   LIG d   1       4.142   0.971  -2.185  0.00  0.00     0.027 H 
ENDBRANCH  15  25
BRANCH  17  29
ATOM     29  C   LIG d   1       6.296   0.663  -4.163  0.00  0.00     0.032 C 
ATOM     30  H   LIG d   1       6.088   0.203  -5.130  0.00  0.00     0.037 H 
ATOM     31  H   LIG d   1       5.579   1.463  -3.980  0.00  0.00     0.037 H 
BRANCH  29  32
ATOM     32  C   LIG d   1       7.692   1.232  -4.170  0.00  0.00     0.218 A 
ATOM     33  O   LIG d   1       8.221   2.050  -3.244  0.00  0.00    -0.424 OA
ATOM     34  C   LIG d   1       9.480   2.307  -3.641  0.00  0.00     0.222 A 
ATOM     35  N   LIG d   1       9.674   1.668  -4.759  0.00  0.00    -0.112 NA
ATOM     36  N   LIG d   1       8.605   1.025  -5.075  0.00  0.00    -0.112 NA
BRANCH  34  37
ATOM     37  C   LIG d   1      10.480   3.178  -2.925  0.00  0.00     0.053 C 
ATOM     38  H   LIG d   1      10.549   2.870  -1.881  0.00  0.00     0.041 H 
ATOM     39  H   LIG d   1      11.456   3.075  -3.399  0.00  0.00     0.041 H 
BRANCH  37  40
ATOM     40  C   LIG d   1      10.035   4.615  -2.996  0.00  0.00    -0.013 A 
ATOM     41  C   LIG d   1      10.184   5.627  -1.947  0.00  0.00     0.003 A 
ATOM     42  C   LIG d   1       9.629   6.811  -2.467  0.00  0.00     0.047 A 
ATOM     43  C   LIG d   1      10.727   5.618  -0.661  0.00  0.00    -0.052 A 
ATOM     44  N   LIG d   1       9.171   6.523  -3.733  0.00  0.00    -0.360 N 
ATOM     45  C   LIG d   1       9.630   7.963  -1.687  0.00  0.00    -0.038 A 
ATOM     46  C   LIG d   1       9.422   5.211  -4.032  0.00  0.00     0.006 A 
ATOM     47  H   LIG d   1       8.737   7.156  -4.325  0.00  0.00     0.165 HD
ATOM     48  H   LIG d   1       9.165   4.727  -4.961  0.00  0.00     0.081 H 
ATOM     49  C   LIG d   1      10.162   7.929  -0.417  0.00  0.00    -0.060 A 
ATOM     50  H   LIG d   1       9.203   8.878  -2.072  0.00  0.00     0.064 H 
ATOM     51  C   LIG d   1      10.713   6.760   0.089  0.00  0.00    -0.061 A 
ATOM     52  H   LIG d   1      10.158   8.825   0.188  0.00  0.00     0.062 H 
ATOM     53  H   LIG d   1      11.133   6.753   1.084  0.00  0.00     0.062 H 
ATOM     54  H   LIG d   1      11.156   4.712  -0.260  0.00  0.00     0.062 H 
ENDBRANCH  37  40
ENDBRANCH  34  37
ENDBRANCH  29  32
ENDBRANCH  17  29
BRANCH  20  55
ATOM     55  C   LIG d   1       7.637  -3.370  -4.997  0.00  0.00    -0.043 C 
ATOM     56  H   LIG d   1       7.141  -4.332  -5.125  0.00  0.00     0.030 H 
BRANCH  55  57
ATOM     57  C   LIG d   1       8.273  -2.943  -6.320  0.00  0.00    -0.062 C 
ATOM     58  H   LIG d   1       7.494  -2.795  -7.067  0.00  0.00     0.023 H 
ATOM     59  H   LIG d   1       8.821  -2.012  -6.176  0.00  0.00     0.023 H 
ATOM     60  H   LIG d   1       8.960  -3.719  -6.660  0.00  0.00     0.023 H 
ENDBRANCH  55  57
BRANCH  55  61
ATOM     61  C   LIG d   1       8.723  -3.496  -3.925  0.00  0.00    -0.062 C 
ATOM     62  H   LIG d   1       9.555  -4.080  -4.319  0.00  0.00     0.023 H 
ATOM     63  H   LIG d   1       9.074  -2.503  -3.646  0.00  0.00     0.023 H 
ATOM     64  H   LIG d   1       8.311  -3.996  -3.048  0.00  0.00     0.023 H 
ENDBRANCH  55  61
ENDBRANCH  20  55
ENDBRANCH  10  13
ENDBRANCH   7  10
ENDBRANCH   4   7
ENDBRANCH   1   4
TORSDOF 12
ENDMDL
MODEL 6
REMARK VINA RESULT:      -5.7      4.557      7.944
REMARK  12 active torsions:
REMARK  status: ('A' for Active; 'I' for Inactive)
REMARK    1  A    between atoms: C_1  and  C_2 
REMARK    2  A    between atoms: C_4  and  C_31 
REMARK    3  A    between atoms: C_6  and  C_28 
REMARK    4  A    between atoms: C_9  and  C_11 
REMARK    5  A    between atoms: C_11  and  C_12 
REMARK    6  A    between atoms: C_15  and  C_17 
REMARK    7  A    between atoms: C_17  and  C_18 
REMARK    8  A    between atoms: C_28  and  C_29 
REMARK    9  A    between atoms: C_28  and  C_30 
REMARK   10  A    between atoms: C_31  and  N_32 
REMARK   11  A    between atoms: N_32  and  C_33 
REMARK   12  A    between atoms: C_33  and  C_34 
ROOT
ATOM      1  C   LIG d   1       8.682   1.850  -6.645  0.00  0.00    -0.056 C 
ATOM      2  C   LIG d   1       8.716   1.632  -7.798  0.00  0.00    -0.114 C 
ATOM      3  H   LIG d   1       8.745   1.438  -8.829  0.00  0.00     0.123 H 
ENDROOT
BRANCH   1   4
ATOM      4  C   LIG d   1       8.641   2.122  -5.199  0.00  0.00     0.029 C 
ATOM      5  H   LIG d   1       7.919   2.914  -4.999  0.00  0.00     0.096 H 
ATOM      6  H   LIG d   1       9.628   2.437  -4.861  0.00  0.00     0.096 H 
BRANCH   4   7
ATOM      7  N   LIG d   1       8.243   0.905  -4.481  0.00  0.00     0.236 N 
ATOM      8  H   LIG d   1       8.887   0.736  -3.722  0.00  0.00     0.202 HD
ATOM      9  H   LIG d   1       8.260   0.119  -5.116  0.00  0.00     0.202 HD
BRANCH   7  10
ATOM     10  C   LIG d   1       6.886   1.072  -3.945  0.00  0.00    -0.026 C 
ATOM     11  H   LIG d   1       6.197   1.288  -4.761  0.00  0.00     0.082 H 
ATOM     12  H   LIG d   1       6.876   1.898  -3.234  0.00  0.00     0.082 H 
BRANCH  10  13
ATOM     13  C   LIG d   1       6.453  -0.215  -3.240  0.00  0.00     0.021 C 
ATOM     14  C   LIG d   1       7.394  -1.324  -3.607  0.00  0.00    -0.076 C 
ATOM     15  C   LIG d   1       7.017  -2.527  -3.901  0.00  0.00    -0.072 C 
ATOM     16  H   LIG d   1       8.451  -1.105  -3.628  0.00  0.00     0.058 H 
ATOM     17  C   LIG d   1       5.586  -2.976  -3.931  0.00  0.00    -0.011 C 
ATOM     18  C   LIG d   1       4.707  -1.982  -3.164  0.00  0.00    -0.042 C 
ATOM     19  H   LIG d   1       5.506  -3.959  -3.467  0.00  0.00     0.035 H 
ATOM     20  C   LIG d   1       5.027  -0.569  -3.668  0.00  0.00    -0.027 C 
ATOM     21  H   LIG d   1       4.919  -2.049  -2.097  0.00  0.00     0.027 H 
ATOM     22  H   LIG d   1       3.657  -2.207  -3.347  0.00  0.00     0.027 H 
ATOM     23  H   LIG d   1       4.953  -0.542  -4.755  0.00  0.00     0.031 H 
ATOM     24  H   LIG d   1       6.479  -0.061  -2.161  0.00  0.00     0.040 H 
BRANCH  15  25
ATOM     25  C   LIG d   1       8.083  -3.538  -4.239  0.00  0.00    -0.043 C 
ATOM     26  H   LIG d   1       8.483  -3.965  -3.318  0.00  0.00     0.027 H 
ATOM     27  H   LIG d   1       7.652  -4.330  -4.849  0.00  0.00     0.027 H 
ATOM     28  H   LIG d   1       8.886  -3.049  -4.791  0.00  0.00     0.027 H 
ENDBRANCH  15  25
BRANCH  17  29
ATOM     29  C   LIG d   1       5.112  -3.064  -5.383  0.00  0.00     0.032 C 
ATOM     30  H   LIG d   1       4.179  -2.511  -5.496  0.00  0.00     0.037 H 
ATOM     31  H   LIG d   1       5.870  -2.635  -6.039  0.00  0.00     0.037 H 
BRANCH  29  32
ATOM     32  C   LIG d   1       4.888  -4.508  -5.752  0.00  0.00     0.218 A 
ATOM     33  O   LIG d   1       5.839  -5.441  -5.926  0.00  0.00    -0.424 OA
ATOM     34  C   LIG d   1       5.199  -6.580  -6.242  0.00  0.00     0.222 A 
ATOM     35  N   LIG d   1       3.923  -6.319  -6.259  0.00  0.00    -0.112 NA
ATOM     36  N   LIG d   1       3.737  -5.079  -5.966  0.00  0.00    -0.112 NA
BRANCH  34  37
ATOM     37  C   LIG d   1       5.841  -7.913  -6.530  0.00  0.00     0.053 C 
ATOM     38  H   LIG d   1       5.071  -8.637  -6.795  0.00  0.00     0.041 H 
ATOM     39  H   LIG d   1       6.540  -7.807  -7.359  0.00  0.00     0.041 H 
BRANCH  37  40
ATOM     40  C   LIG d   1       6.580  -8.389  -5.307  0.00  0.00    -0.013 A 
ATOM     41  C   LIG d   1       6.037  -9.215  -4.227  0.00  0.00     0.003 A 
ATOM     42  C   LIG d   1       7.090  -9.405  -3.314  0.00  0.00     0.047 A 
ATOM     43  C   LIG d   1       4.787  -9.787  -3.977  0.00  0.00    -0.052 A 
ATOM     44  N   LIG d   1       8.183  -8.730  -3.810  0.00  0.00    -0.360 N 
ATOM     45  C   LIG d   1       6.872 -10.166  -2.170  0.00  0.00    -0.038 A 
ATOM     46  C   LIG d   1       7.861  -8.131  -4.998  0.00  0.00     0.006 A 
ATOM     47  H   LIG d   1       9.052  -8.686  -3.381  0.00  0.00     0.165 HD
ATOM     48  H   LIG d   1       8.536  -7.540  -5.596  0.00  0.00     0.081 H 
ATOM     49  C   LIG d   1       5.629 -10.712  -1.938  0.00  0.00    -0.060 A 
ATOM     50  H   LIG d   1       7.671 -10.316  -1.459  0.00  0.00     0.064 H 
ATOM     51  C   LIG d   1       4.594 -10.527  -2.844  0.00  0.00    -0.061 A 
ATOM     52  H   LIG d   1       5.461 -11.299  -1.047  0.00  0.00     0.062 H 
ATOM     53  H   LIG d   1       3.628 -10.969  -2.652  0.00  0.00     0.062 H 
ATOM     54  H   LIG d   1       3.977  -9.646  -4.676  0.00  0.00     0.062 H 
ENDBRANCH  37  40
ENDBRANCH  34  37
ENDBRANCH  29  32
ENDBRANCH  17  29
BRANCH  20  55
ATOM     55  C   LIG d   1       4.043   0.432  -3.060  0.00  0.00    -0.043 C 
ATOM     56  H   LIG d   1       4.030   1.341  -3.663  0.00  0.00     0.030 H 
BRANCH  55  57
ATOM     57  C   LIG d   1       2.642  -0.181  -3.031  0.00  0.00    -0.062 C 
ATOM     58  H   LIG d   1       1.944   0.483  -3.540  0.00  0.00     0.023 H 
ATOM     59  H   LIG d   1       2.658  -1.147  -3.535  0.00  0.00     0.023 H 
ATOM     60  H   LIG d   1       2.327  -0.317  -1.996  0.00  0.00     0.023 H 
ENDBRANCH  55  57
BRANCH  55  61
ATOM     61  C   LIG d   1       4.480   0.774  -1.633  0.00  0.00    -0.062 C 
ATOM     62  H   LIG d   1       4.623  -0.147  -1.067  0.00  0.00     0.023 H 
ATOM     63  H   LIG d   1       5.415   1.332  -1.664  0.00  0.00     0.023 H 
ATOM     64  H   LIG d   1       3.710   1.380  -1.154  0.00  0.00     0.023 H 
ENDBRANCH  55  61
ENDBRANCH  20  55
ENDBRANCH  10  13
ENDBRANCH   7  10
ENDBRANCH   4   7
ENDBRANCH   1   4
TORSDOF 12
ENDMDL
MODEL 7
REMARK VINA RESULT:      -5.7      4.864      7.963
REMARK  12 active torsions:
REMARK  status: ('A' for Active; 'I' for Inactive)
REMARK    1  A    between atoms: C_1  and  C_2 
REMARK    2  A    between atoms: C_4  and  C_31 
REMARK    3  A    between atoms: C_6  and  C_28 
REMARK    4  A    between atoms: C_9  and  C_11 
REMARK    5  A    between atoms: C_11  and  C_12 
REMARK    6  A    between atoms: C_15  and  C_17 
REMARK    7  A    between atoms: C_17  and  C_18 
REMARK    8  A    between atoms: C_28  and  C_29 
REMARK    9  A    between atoms: C_28  and  C_30 
REMARK   10  A    between atoms: C_31  and  N_32 
REMARK   11  A    between atoms: N_32  and  C_33 
REMARK   12  A    between atoms: C_33  and  C_34 
ROOT
ATOM      1  C   LIG d   1       3.279   0.363  -2.688  0.00  0.00    -0.056 C 
ATOM      2  C   LIG d   1       3.667   1.407  -2.316  0.00  0.00    -0.114 C 
ATOM      3  H   LIG d   1       4.014   2.341  -1.985  0.00  0.00     0.123 H 
ENDROOT
BRANCH   1   4
ATOM      4  C   LIG d   1       2.793  -0.947  -3.152  0.00  0.00     0.029 C 
ATOM      5  H   LIG d   1       1.841  -0.818  -3.668  0.00  0.00     0.096 H 
ATOM      6  H   LIG d   1       2.655  -1.607  -2.295  0.00  0.00     0.096 H 
BRANCH   4   7
ATOM      7  N   LIG d   1       3.773  -1.537  -4.071  0.00  0.00     0.236 N 
ATOM      8  H   LIG d   1       4.260  -0.801  -4.562  0.00  0.00     0.202 HD
ATOM      9  H   LIG d   1       3.297  -2.126  -4.738  0.00  0.00     0.202 HD
BRANCH   7  10
ATOM     10  C   LIG d   1       4.739  -2.340  -3.310  0.00  0.00    -0.026 C 
ATOM     11  H   LIG d   1       4.509  -3.397  -3.433  0.00  0.00     0.082 H 
ATOM     12  H   LIG d   1       4.677  -2.076  -2.254  0.00  0.00     0.082 H 
BRANCH  10  13
ATOM     13  C   LIG d   1       6.153  -2.061  -3.824  0.00  0.00     0.021 C 
ATOM     14  C   LIG d   1       6.532  -0.647  -3.494  0.00  0.00    -0.076 C 
ATOM     15  C   LIG d   1       7.142   0.149  -4.313  0.00  0.00    -0.072 C 
ATOM     16  H   LIG d   1       6.282  -0.271  -2.514  0.00  0.00     0.058 H 
ATOM     17  C   LIG d   1       7.539  -0.224  -5.710  0.00  0.00    -0.011 C 
ATOM     18  C   LIG d   1       7.528  -1.748  -5.870  0.00  0.00    -0.042 C 
ATOM     19  H   LIG d   1       8.542   0.151  -5.914  0.00  0.00     0.035 H 
ATOM     20  C   LIG d   1       6.190  -2.279  -5.339  0.00  0.00    -0.027 C 
ATOM     21  H   LIG d   1       8.349  -2.185  -5.302  0.00  0.00     0.027 H 
ATOM     22  H   LIG d   1       7.631  -2.005  -6.925  0.00  0.00     0.027 H 
ATOM     23  H   LIG d   1       5.369  -1.737  -5.807  0.00  0.00     0.031 H 
ATOM     24  H   LIG d   1       6.853  -2.745  -3.343  0.00  0.00     0.040 H 
BRANCH  15  25
ATOM     25  C   LIG d   1       7.468   1.540  -3.833  0.00  0.00    -0.043 C 
ATOM     26  H   LIG d   1       7.636   1.522  -2.755  0.00  0.00     0.027 H 
ATOM     27  H   LIG d   1       8.366   1.896  -4.335  0.00  0.00     0.027 H 
ATOM     28  H   LIG d   1       6.635   2.206  -4.059  0.00  0.00     0.027 H 
ENDBRANCH  15  25
BRANCH  17  29
ATOM     29  C   LIG d   1       6.556   0.401  -6.701  0.00  0.00     0.032 C 
ATOM     30  H   LIG d   1       6.081  -0.385  -7.289  0.00  0.00     0.037 H 
ATOM     31  H   LIG d   1       5.794   0.958  -6.156  0.00  0.00     0.037 H 
BRANCH  29  32
ATOM     32  C   LIG d   1       7.297   1.337  -7.622  0.00  0.00     0.218 A 
ATOM     33  O   LIG d   1       8.483   1.920  -7.377  0.00  0.00    -0.424 OA
ATOM     34  C   LIG d   1       8.769   2.664  -8.459  0.00  0.00     0.222 A 
ATOM     35  N   LIG d   1       7.785   2.526  -9.300  0.00  0.00    -0.112 NA
ATOM     36  N   LIG d   1       6.904   1.732  -8.799  0.00  0.00    -0.112 NA
BRANCH  34  37
ATOM     37  C   LIG d   1      10.002   3.508  -8.659  0.00  0.00     0.053 C 
ATOM     38  H   LIG d   1      10.608   3.488  -7.752  0.00  0.00     0.041 H 
ATOM     39  H   LIG d   1      10.582   3.112  -9.492  0.00  0.00     0.041 H 
BRANCH  37  40
ATOM     40  C   LIG d   1       9.596   4.927  -8.960  0.00  0.00    -0.013 A 
ATOM     41  C   LIG d   1       9.538   6.039  -8.007  0.00  0.00     0.003 A 
ATOM     42  C   LIG d   1       9.112   7.160  -8.742  0.00  0.00     0.047 A 
ATOM     43  C   LIG d   1       9.808   6.161  -6.643  0.00  0.00    -0.052 A 
ATOM     44  N   LIG d   1       8.919   6.744 -10.041  0.00  0.00    -0.360 N 
ATOM     45  C   LIG d   1       8.967   8.383  -8.096  0.00  0.00    -0.038 A 
ATOM     46  C   LIG d   1       9.212   5.412 -10.152  0.00  0.00     0.006 A 
ATOM     47  H   LIG d   1       8.620   7.312 -10.768  0.00  0.00     0.165 HD
ATOM     48  H   LIG d   1       9.145   4.836 -11.062  0.00  0.00     0.081 H 
ATOM     49  C   LIG d   1       9.229   8.480  -6.747  0.00  0.00    -0.060 A 
ATOM     50  H   LIG d   1       8.636   9.251  -8.648  0.00  0.00     0.064 H 
ATOM     51  C   LIG d   1       9.654   7.372  -6.027  0.00  0.00    -0.061 A 
ATOM     52  H   LIG d   1       9.111   9.430  -6.247  0.00  0.00     0.062 H 
ATOM     53  H   LIG d   1       9.862   7.467  -4.972  0.00  0.00     0.062 H 
ATOM     54  H   LIG d   1      10.138   5.304  -6.075  0.00  0.00     0.062 H 
ENDBRANCH  37  40
ENDBRANCH  34  37
ENDBRANCH  29  32
ENDBRANCH  17  29
BRANCH  20  55
ATOM     55  C   LIG d   1       6.065  -3.771  -5.648  0.00  0.00    -0.043 C 
ATOM     56  H   LIG d   1       5.156  -4.162  -5.189  0.00  0.00     0.030 H 
BRANCH  55  57
ATOM     57  C   LIG d   1       6.001  -3.975  -7.162  0.00  0.00    -0.062 C 
ATOM     58  H   LIG d   1       5.479  -3.135  -7.621  0.00  0.00     0.023 H 
ATOM     59  H   LIG d   1       7.012  -4.039  -7.563  0.00  0.00     0.023 H 
ATOM     60  H   LIG d   1       5.465  -4.899  -7.382  0.00  0.00     0.023 H 
ENDBRANCH  55  57
BRANCH  55  61
ATOM     61  C   LIG d   1       7.280  -4.513  -5.084  0.00  0.00    -0.062 C 
ATOM     62  H   LIG d   1       7.771  -5.065  -5.885  0.00  0.00     0.023 H 
ATOM     63  H   LIG d   1       7.977  -3.794  -4.656  0.00  0.00     0.023 H 
ATOM     64  H   LIG d   1       6.953  -5.208  -4.310  0.00  0.00     0.023 H 
ENDBRANCH  55  61
ENDBRANCH  20  55
ENDBRANCH  10  13
ENDBRANCH   7  10
ENDBRANCH   4   7
ENDBRANCH   1   4
TORSDOF 12
ENDMDL
MODEL 8
REMARK VINA RESULT:      -5.6      4.512      7.774
REMARK  12 active torsions:
REMARK  status: ('A' for Active; 'I' for Inactive)
REMARK    1  A    between atoms: C_1  and  C_2 
REMARK    2  A    between atoms: C_4  and  C_31 
REMARK    3  A    between atoms: C_6  and  C_28 
REMARK    4  A    between atoms: C_9  and  C_11 
REMARK    5  A    between atoms: C_11  and  C_12 
REMARK    6  A    between atoms: C_15  and  C_17 
REMARK    7  A    between atoms: C_17  and  C_18 
REMARK    8  A    between atoms: C_28  and  C_29 
REMARK    9  A    between atoms: C_28  and  C_30 
REMARK   10  A    between atoms: C_31  and  N_32 
REMARK   11  A    between atoms: N_32  and  C_33 
REMARK   12  A    between atoms: C_33  and  C_34 
ROOT
ATOM      1  C   LIG d   1      11.756  -0.184  -4.856  0.00  0.00    -0.056 C 
ATOM      2  C   LIG d   1      10.941  -0.827  -5.404  0.00  0.00    -0.114 C 
ATOM      3  H   LIG d   1      10.211  -1.401  -5.893  0.00  0.00     0.123 H 
ENDROOT
BRANCH   1   4
ATOM      4  C   LIG d   1      12.780   0.620  -4.170  0.00  0.00     0.029 C 
ATOM      5  H   LIG d   1      13.303   1.241  -4.898  0.00  0.00     0.096 H 
ATOM      6  H   LIG d   1      13.494  -0.042  -3.680  0.00  0.00     0.096 H 
BRANCH   4   7
ATOM      7  N   LIG d   1      12.139   1.478  -3.166  0.00  0.00     0.236 N 
ATOM      8  H   LIG d   1      12.544   1.296  -2.260  0.00  0.00     0.202 HD
ATOM      9  H   LIG d   1      11.149   1.280  -3.137  0.00  0.00     0.202 HD
BRANCH   7  10
ATOM     10  C   LIG d   1      12.345   2.888  -3.521  0.00  0.00    -0.026 C 
ATOM     11  H   LIG d   1      13.001   2.952  -4.389  0.00  0.00     0.082 H 
ATOM     12  H   LIG d   1      12.803   3.411  -2.681  0.00  0.00     0.082 H 
BRANCH  10  13
ATOM     13  C   LIG d   1      10.998   3.534  -3.851  0.00  0.00     0.021 C 
ATOM     14  C   LIG d   1       9.890   2.606  -3.449  0.00  0.00    -0.076 C 
ATOM     15  C   LIG d   1       8.840   2.376  -4.170  0.00  0.00    -0.072 C 
ATOM     16  H   LIG d   1       9.973   2.098  -2.500  0.00  0.00     0.058 H 
ATOM     17  C   LIG d   1       8.591   2.993  -5.515  0.00  0.00    -0.011 C 
ATOM     18  C   LIG d   1       9.491   4.218  -5.705  0.00  0.00    -0.042 C 
ATOM     19  H   LIG d   1       7.548   3.299  -5.586  0.00  0.00     0.035 H 
ATOM     20  C   LIG d   1      10.930   3.819  -5.353  0.00  0.00    -0.027 C 
ATOM     21  H   LIG d   1       9.162   5.024  -5.048  0.00  0.00     0.027 H 
ATOM     22  H   LIG d   1       9.446   4.547  -6.744  0.00  0.00     0.027 H 
ATOM     23  H   LIG d   1      11.208   2.924  -5.909  0.00  0.00     0.031 H 
ATOM     24  H   LIG d   1      10.902   4.470  -3.301  0.00  0.00     0.040 H 
BRANCH  15  25
ATOM     25  C   LIG d   1       7.804   1.426  -3.627  0.00  0.00    -0.043 C 
ATOM     26  H   LIG d   1       7.235   0.998  -4.453  0.00  0.00     0.027 H 
ATOM     27  H   LIG d   1       8.298   0.627  -3.074  0.00  0.00     0.027 H 
ATOM     28  H   LIG d   1       7.129   1.965  -2.962  0.00  0.00     0.027 H 
ENDBRANCH  15  25
BRANCH  17  29
ATOM     29  C   LIG d   1       8.890   1.964  -6.608  0.00  0.00     0.032 C 
ATOM     30  H   LIG d   1       9.476   2.433  -7.399  0.00  0.00     0.037 H 
ATOM     31  H   LIG d   1       9.454   1.135  -6.182  0.00  0.00     0.037 H 
BRANCH  29  32
ATOM     32  C   LIG d   1       7.595   1.449  -7.181  0.00  0.00     0.218 A 
ATOM     33  O   LIG d   1       6.901   0.384  -6.746  0.00  0.00    -0.424 OA
ATOM     34  C   LIG d   1       5.818   0.289  -7.536  0.00  0.00     0.222 A 
ATOM     35  N   LIG d   1       5.882   1.258  -8.405  0.00  0.00    -0.112 NA
ATOM     36  N   LIG d   1       6.945   1.952  -8.191  0.00  0.00    -0.112 NA
BRANCH  34  37
ATOM     37  C   LIG d   1       4.732  -0.752  -7.439  0.00  0.00     0.053 C 
ATOM     38  H   LIG d   1       4.107  -0.710  -8.332  0.00  0.00     0.041 H 
ATOM     39  H   LIG d   1       5.184  -1.741  -7.360  0.00  0.00     0.041 H 
BRANCH  37  40
ATOM     40  C   LIG d   1       3.888  -0.486  -6.221  0.00  0.00    -0.013 A 
ATOM     41  C   LIG d   1       4.182  -0.905  -4.848  0.00  0.00     0.003 A 
ATOM     42  C   LIG d   1       3.118  -0.429  -4.060  0.00  0.00     0.047 A 
ATOM     43  C   LIG d   1       5.226  -1.617  -4.254  0.00  0.00    -0.052 A 
ATOM     44  N   LIG d   1       2.246   0.220  -4.904  0.00  0.00    -0.360 N 
ATOM     45  C   LIG d   1       3.123  -0.674  -2.690  0.00  0.00    -0.038 A 
ATOM     46  C   LIG d   1       2.721   0.177  -6.187  0.00  0.00     0.006 A 
ATOM     47  H   LIG d   1       1.418   0.645  -4.630  0.00  0.00     0.165 HD
ATOM     48  H   LIG d   1       2.230   0.610  -7.045  0.00  0.00     0.081 H 
ATOM     49  C   LIG d   1       4.158  -1.386  -2.126  0.00  0.00    -0.060 A 
ATOM     50  H   LIG d   1       2.310  -0.318  -2.074  0.00  0.00     0.064 H 
ATOM     51  C   LIG d   1       5.208  -1.850  -2.907  0.00  0.00    -0.061 A 
ATOM     52  H   LIG d   1       4.157  -1.579  -1.063  0.00  0.00     0.062 H 
ATOM     53  H   LIG d   1       6.015  -2.400  -2.448  0.00  0.00     0.062 H 
ATOM     54  H   LIG d   1       6.045  -1.981  -4.855  0.00  0.00     0.062 H 
ENDBRANCH  37  40
ENDBRANCH  34  37
ENDBRANCH  29  32
ENDBRANCH  17  29
BRANCH  20  55
ATOM     55  C   LIG d   1      11.885   4.960  -5.705  0.00  0.00    -0.043 C 
ATOM     56  H   LIG d   1      12.881   4.731  -5.324  0.00  0.00     0.030 H 
BRANCH  55  57
ATOM     57  C   LIG d   1      11.945   5.126  -7.224  0.00  0.00    -0.062 C 
ATOM     58  H   LIG d   1      12.957   4.919  -7.573  0.00  0.00     0.023 H 
ATOM     59  H   LIG d   1      11.249   4.432  -7.693  0.00  0.00     0.023 H 
ATOM     60  H   LIG d   1      11.672   6.148  -7.489  0.00  0.00     0.023 H 
ENDBRANCH  55  57
BRANCH  55  61
ATOM     61  C   LIG d   1      11.384   6.259  -5.070  0.00  0.00    -0.062 C 
ATOM     62  H   LIG d   1      12.121   6.621  -4.353  0.00  0.00     0.023 H 
ATOM     63  H   LIG d   1      11.233   7.008  -5.846  0.00  0.00     0.023 H 
ATOM     64  H   LIG d   1      10.440   6.071  -4.557  0.00  0.00     0.023 H 
ENDBRANCH  55  61
ENDBRANCH  20  55
ENDBRANCH  10  13
ENDBRANCH   7  10
ENDBRANCH   4   7
ENDBRANCH   1   4
TORSDOF 12
ENDMDL
MODEL 9
REMARK VINA RESULT:      -5.6      4.358      7.463
REMARK  12 active torsions:
REMARK  status: ('A' for Active; 'I' for Inactive)
REMARK    1  A    between atoms: C_1  and  C_2 
REMARK    2  A    between atoms: C_4  and  C_31 
REMARK    3  A    between atoms: C_6  and  C_28 
REMARK    4  A    between atoms: C_9  and  C_11 
REMARK    5  A    between atoms: C_11  and  C_12 
REMARK    6  A    between atoms: C_15  and  C_17 
REMARK    7  A    between atoms: C_17  and  C_18 
REMARK    8  A    between atoms: C_28  and  C_29 
REMARK    9  A    between atoms: C_28  and  C_30 
REMARK   10  A    between atoms: C_31  and  N_32 
REMARK   11  A    between atoms: N_32  and  C_33 
REMARK   12  A    between atoms: C_33  and  C_34 
ROOT
ATOM      1  C   LIG d   1      10.783   5.707  -1.663  0.00  0.00    -0.056 C 
ATOM      2  C   LIG d   1      11.612   5.456  -0.871  0.00  0.00    -0.114 C 
ATOM      3  H   LIG d   1      12.353   5.231  -0.162  0.00  0.00     0.123 H 
ENDROOT
BRANCH   1   4
ATOM      4  C   LIG d   1       9.744   6.024  -2.657  0.00  0.00     0.029 C 
ATOM      5  H   LIG d   1       9.330   7.010  -2.447  0.00  0.00     0.096 H 
ATOM      6  H   LIG d   1       8.951   5.278  -2.602  0.00  0.00     0.096 H 
BRANCH   4   7
ATOM      7  N   LIG d   1      10.333   6.015  -4.002  0.00  0.00     0.236 N 
ATOM      8  H   LIG d   1      11.160   5.437  -4.003  0.00  0.00     0.202 HD
ATOM      9  H   LIG d   1      10.581   6.957  -4.266  0.00  0.00     0.202 HD
BRANCH   7  10
ATOM     10  C   LIG d   1       9.358   5.479  -4.960  0.00  0.00    -0.026 C 
ATOM     11  H   LIG d   1       9.223   6.187  -5.776  0.00  0.00     0.082 H 
ATOM     12  H   LIG d   1       8.404   5.319  -4.456  0.00  0.00     0.082 H 
BRANCH  10  13
ATOM     13  C   LIG d   1       9.869   4.149  -5.518  0.00  0.00     0.021 C 
ATOM     14  C   LIG d   1      10.225   4.322  -6.966  0.00  0.00    -0.076 C 
ATOM     15  C   LIG d   1       9.931   3.466  -7.891  0.00  0.00    -0.072 C 
ATOM     16  H   LIG d   1      10.760   5.215  -7.253  0.00  0.00     0.058 H 
ATOM     17  C   LIG d   1       9.180   2.190  -7.650  0.00  0.00    -0.011 C 
ATOM     18  C   LIG d   1       9.202   1.842  -6.158  0.00  0.00    -0.042 C 
ATOM     19  H   LIG d   1       9.646   1.383  -8.214  0.00  0.00     0.035 H 
ATOM     20  C   LIG d   1       8.779   3.086  -5.366  0.00  0.00    -0.027 C 
ATOM     21  H   LIG d   1      10.209   1.544  -5.863  0.00  0.00     0.027 H 
ATOM     22  H   LIG d   1       8.504   1.028  -5.962  0.00  0.00     0.027 H 
ATOM     23  H   LIG d   1       7.837   3.467  -5.759  0.00  0.00     0.031 H 
ATOM     24  H   LIG d   1      10.755   3.841  -4.963  0.00  0.00     0.040 H 
BRANCH  15  25
ATOM     25  C   LIG d   1      10.367   3.773  -9.301  0.00  0.00    -0.043 C 
ATOM     26  H   LIG d   1      11.352   4.240  -9.283  0.00  0.00     0.027 H 
ATOM     27  H   LIG d   1      10.413   2.850  -9.877  0.00  0.00     0.027 H 
ATOM     28  H   LIG d   1       9.651   4.454  -9.762  0.00  0.00     0.027 H 
ENDBRANCH  15  25
BRANCH  17  29
ATOM     29  C   LIG d   1       7.731   2.359  -8.113  0.00  0.00     0.032 C 
ATOM     30  H   LIG d   1       7.233   3.101  -7.488  0.00  0.00     0.037 H 
ATOM     31  H   LIG d   1       7.718   2.691  -9.151  0.00  0.00     0.037 H 
BRANCH  29  32
ATOM     32  C   LIG d   1       7.010   1.041  -7.999  0.00  0.00     0.218 A 
ATOM     33  O   LIG d   1       5.996   0.759  -7.163  0.00  0.00    -0.424 OA
ATOM     34  C   LIG d   1       5.658  -0.521  -7.397  0.00  0.00     0.222 A 
ATOM     35  N   LIG d   1       6.450  -0.971  -8.328  0.00  0.00    -0.112 NA
ATOM     36  N   LIG d   1       7.258  -0.036  -8.688  0.00  0.00    -0.112 NA
BRANCH  34  37
ATOM     37  C   LIG d   1       4.566  -1.294  -6.703  0.00  0.00     0.053 C 
ATOM     38  H   LIG d   1       3.612  -0.786  -6.847  0.00  0.00     0.041 H 
ATOM     39  H   LIG d   1       4.509  -2.298  -7.125  0.00  0.00     0.041 H 
BRANCH  37  40
ATOM     40  C   LIG d   1       4.871  -1.384  -5.231  0.00  0.00    -0.013 A 
ATOM     41  C   LIG d   1       4.464  -0.431  -4.196  0.00  0.00     0.003 A 
ATOM     42  C   LIG d   1       4.971  -0.932  -2.984  0.00  0.00     0.047 A 
ATOM     43  C   LIG d   1       3.735   0.760  -4.208  0.00  0.00    -0.052 A 
ATOM     44  N   LIG d   1       5.644  -2.098  -3.276  0.00  0.00    -0.360 N 
ATOM     45  C   LIG d   1       4.737  -0.231  -1.805  0.00  0.00    -0.038 A 
ATOM     46  C   LIG d   1       5.573  -2.352  -4.619  0.00  0.00     0.006 A 
ATOM     47  H   LIG d   1       6.099  -2.655  -2.626  0.00  0.00     0.165 HD
ATOM     48  H   LIG d   1       6.016  -3.203  -5.113  0.00  0.00     0.081 H 
ATOM     49  C   LIG d   1       4.023   0.947  -1.841  0.00  0.00    -0.060 A 
ATOM     50  H   LIG d   1       5.124  -0.602  -0.868  0.00  0.00     0.064 H 
ATOM     51  C   LIG d   1       3.519   1.434  -3.039  0.00  0.00    -0.061 A 
ATOM     52  H   LIG d   1       3.845   1.491  -0.924  0.00  0.00     0.062 H 
ATOM     53  H   LIG d   1       2.955   2.355  -3.047  0.00  0.00     0.062 H 
ATOM     54  H   LIG d   1       3.341   1.146  -5.136  0.00  0.00     0.062 H 
ENDBRANCH  37  40
ENDBRANCH  34  37
ENDBRANCH  29  32
ENDBRANCH  17  29
BRANCH  20  55
ATOM     55  C   LIG d   1       8.612   2.727  -3.888  0.00  0.00    -0.043 C 
ATOM     56  H   LIG d   1       8.206   3.584  -3.351  0.00  0.00     0.030 H 
BRANCH  55  57
ATOM     57  C   LIG d   1       7.657   1.540  -3.755  0.00  0.00    -0.062 C 
ATOM     58  H   LIG d   1       6.634   1.876  -3.928  0.00  0.00     0.023 H 
ATOM     59  H   LIG d   1       7.919   0.779  -4.489  0.00  0.00     0.023 H 
ATOM     60  H   LIG d   1       7.737   1.120  -2.752  0.00  0.00     0.023 H 
ENDBRANCH  55  57
BRANCH  55  61
ATOM     61  C   LIG d   1       9.974   2.354  -3.297  0.00  0.00    -0.062 C 
ATOM     62  H   LIG d   1      10.059   1.269  -3.238  0.00  0.00     0.023 H 
ATOM     63  H   LIG d   1      10.766   2.747  -3.934  0.00  0.00     0.023 H 
ATOM     64  H   LIG d   1      10.065   2.782  -2.298  0.00  0.00     0.023 H 
ENDBRANCH  55  61
ENDBRANCH  20  55
ENDBRANCH  10  13
ENDBRANCH   7  10
ENDBRANCH   4   7
ENDBRANCH   1   4
TORSDOF 12
ENDMDL
MODEL 10
REMARK VINA RESULT:      -5.6      2.325      7.455
REMARK  12 active torsions:
REMARK  status: ('A' for Active; 'I' for Inactive)
REMARK    1  A    between atoms: C_1  and  C_2 
REMARK    2  A    between atoms: C_4  and  C_31 
REMARK    3  A    between atoms: C_6  and  C_28 
REMARK    4  A    between atoms: C_9  and  C_11 
REMARK    5  A    between atoms: C_11  and  C_12 
REMARK    6  A    between atoms: C_15  and  C_17 
REMARK    7  A    between atoms: C_17  and  C_18 
REMARK    8  A    between atoms: C_28  and  C_29 
REMARK    9  A    between atoms: C_28  and  C_30 
REMARK   10  A    between atoms: C_31  and  N_32 
REMARK   11  A    between atoms: N_32  and  C_33 
REMARK   12  A    between atoms: C_33  and  C_34 
ROOT
ATOM      1  C   LIG d   1       8.299   0.628  -5.802  0.00  0.00    -0.056 C 
ATOM      2  C   LIG d   1       8.324  -0.121  -6.705  0.00  0.00    -0.114 C 
ATOM      3  H   LIG d   1       8.347  -0.793  -7.512  0.00  0.00     0.123 H 
ENDROOT
BRANCH   1   4
ATOM      4  C   LIG d   1       8.266   1.570  -4.671  0.00  0.00     0.029 C 
ATOM      5  H   LIG d   1       7.566   2.376  -4.890  0.00  0.00     0.096 H 
ATOM      6  H   LIG d   1       9.262   1.986  -4.517  0.00  0.00     0.096 H 
BRANCH   4   7
ATOM      7  N   LIG d   1       7.837   0.864  -3.457  0.00  0.00     0.236 N 
ATOM      8  H   LIG d   1       8.251   1.304  -2.649  0.00  0.00     0.202 HD
ATOM      9  H   LIG d   1       8.135  -0.099  -3.505  0.00  0.00     0.202 HD
BRANCH   7  10
ATOM     10  C   LIG d   1       6.373   0.919  -3.350  0.00  0.00    -0.026 C 
ATOM     11  H   LIG d   1       5.956   1.318  -4.273  0.00  0.00     0.082 H 
ATOM     12  H   LIG d   1       6.095   1.566  -2.517  0.00  0.00     0.082 H 
BRANCH  10  13
ATOM     13  C   LIG d   1       5.825  -0.489  -3.109  0.00  0.00     0.021 C 
ATOM     14  C   LIG d   1       6.919  -1.492  -3.331  0.00  0.00    -0.076 C 
ATOM     15  C   LIG d   1       6.759  -2.608  -3.968  0.00  0.00    -0.072 C 
ATOM     16  H   LIG d   1       7.898  -1.271  -2.935  0.00  0.00     0.058 H 
ATOM     17  C   LIG d   1       5.465  -3.046  -4.588  0.00  0.00    -0.011 C 
ATOM     18  C   LIG d   1       4.303  -2.239  -4.001  0.00  0.00    -0.042 C 
ATOM     19  H   LIG d   1       5.307  -4.104  -4.385  0.00  0.00     0.035 H 
ATOM     20  C   LIG d   1       4.665  -0.750  -4.072  0.00  0.00    -0.027 C 
ATOM     21  H   LIG d   1       4.139  -2.528  -2.963  0.00  0.00     0.027 H 
ATOM     22  H   LIG d   1       3.399  -2.424  -4.582  0.00  0.00     0.027 H 
ATOM     23  H   LIG d   1       4.967  -0.494  -5.087  0.00  0.00     0.031 H 
ATOM     24  H   LIG d   1       5.467  -0.566  -2.082  0.00  0.00     0.040 H 
BRANCH  15  25
ATOM     25  C   LIG d   1       7.951  -3.521  -4.101  0.00  0.00    -0.043 C 
ATOM     26  H   LIG d   1       8.507  -3.263  -5.004  0.00  0.00     0.027 H 
ATOM     27  H   LIG d   1       8.596  -3.405  -3.232  0.00  0.00     0.027 H 
ATOM     28  H   LIG d   1       7.611  -4.555  -4.168  0.00  0.00     0.027 H 
ENDBRANCH  15  25
BRANCH  17  29
ATOM     29  C   LIG d   1       5.527  -2.826  -6.101  0.00  0.00     0.032 C 
ATOM     30  H   LIG d   1       5.146  -1.834  -6.341  0.00  0.00     0.037 H 
ATOM     31  H   LIG d   1       6.560  -2.910  -6.438  0.00  0.00     0.037 H 
BRANCH  29  32
ATOM     32  C   LIG d   1       4.687  -3.868  -6.794  0.00  0.00     0.218 A 
ATOM     33  O   LIG d   1       4.452  -3.950  -8.115  0.00  0.00    -0.424 OA
ATOM     34  C   LIG d   1       3.661  -5.022  -8.293  0.00  0.00     0.222 A 
ATOM     35  N   LIG d   1       3.437  -5.541  -7.119  0.00  0.00    -0.112 NA
ATOM     36  N   LIG d   1       4.051  -4.851  -6.223  0.00  0.00    -0.112 NA
BRANCH  34  37
ATOM     37  C   LIG d   1       3.126  -5.527  -9.608  0.00  0.00     0.053 C 
ATOM     38  H   LIG d   1       3.948  -5.640 -10.315  0.00  0.00     0.041 H 
ATOM     39  H   LIG d   1       2.642  -6.492  -9.457  0.00  0.00     0.041 H 
BRANCH  37  40
ATOM     40  C   LIG d   1       2.125  -4.543 -10.155  0.00  0.00    -0.013 A 
ATOM     41  C   LIG d   1       2.421  -3.237 -10.747  0.00  0.00     0.003 A 
ATOM     42  C   LIG d   1       1.179  -2.685 -11.114  0.00  0.00     0.047 A 
ATOM     43  C   LIG d   1       3.598  -2.524 -10.987  0.00  0.00    -0.052 A 
ATOM     44  N   LIG d   1       0.210  -3.595 -10.755  0.00  0.00    -0.360 N 
ATOM     45  C   LIG d   1       1.142  -1.431 -11.715  0.00  0.00    -0.038 A 
ATOM     46  C   LIG d   1       0.791  -4.695 -10.186  0.00  0.00     0.006 A 
ATOM     47  H   LIG d   1      -0.743  -3.473 -10.887  0.00  0.00     0.165 HD
ATOM     48  H   LIG d   1       0.257  -5.557  -9.817  0.00  0.00     0.081 H 
ATOM     49  C   LIG d   1       2.314  -0.742 -11.933  0.00  0.00    -0.060 A 
ATOM     50  H   LIG d   1       0.195  -0.994 -11.997  0.00  0.00     0.064 H 
ATOM     51  C   LIG d   1       3.537  -1.292 -11.574  0.00  0.00    -0.061 A 
ATOM     52  H   LIG d   1       2.281   0.234 -12.396  0.00  0.00     0.062 H 
ATOM     53  H   LIG d   1       4.447  -0.741 -11.760  0.00  0.00     0.062 H 
ATOM     54  H   LIG d   1       4.553  -2.945 -10.710  0.00  0.00     0.062 H 
ENDBRANCH  37  40
ENDBRANCH  34  37
ENDBRANCH  29  32
ENDBRANCH  17  29
BRANCH  20  55
ATOM     55  C   LIG d   1       3.458   0.098  -3.666  0.00  0.00    -0.043 C 
ATOM     56  H   LIG d   1       3.803   1.012  -3.182  0.00  0.00     0.030 H 
BRANCH  55  57
ATOM     57  C   LIG d   1       2.642   0.454  -4.910  0.00  0.00    -0.062 C 
ATOM     58  H   LIG d   1       2.633  -0.394  -5.594  0.00  0.00     0.023 H 
ATOM     59  H   LIG d   1       1.621   0.698  -4.617  0.00  0.00     0.023 H 
ATOM     60  H   LIG d   1       3.093   1.315  -5.405  0.00  0.00     0.023 H 
ENDBRANCH  55  57
BRANCH  55  61
ATOM     61  C   LIG d   1       2.583  -0.696  -2.692  0.00  0.00    -0.062 C 
ATOM     62  H   LIG d   1       3.218  -1.224  -1.981  0.00  0.00     0.023 H 
ATOM     63  H   LIG d   1       1.926  -0.012  -2.155  0.00  0.00     0.023 H 
ATOM     64  H   LIG d   1       1.982  -1.416  -3.249  0.00  0.00     0.023 H 
ENDBRANCH  55  61
ENDBRANCH  20  55
ENDBRANCH  10  13
ENDBRANCH   7  10
ENDBRANCH   4   7
ENDBRANCH   1   4
TORSDOF 12
ENDMDL
