MODEL 1
REMARK VINA RESULT:      -6.5      0.000      0.000
REMARK  9 active torsions:
REMARK  status: ('A' for Active; 'I' for Inactive)
REMARK    1  A    between atoms: C_1  and  O_2 
REMARK    2  A    between atoms: O_2  and  C_3 
REMARK    3  A    between atoms: C_8  and  N_9 
REMARK    4  A    between atoms: C_10  and  O_33 
REMARK    5  A    between atoms: C_11  and  C_18 
REMARK    6  A    between atoms: C_23  and  O_31 
REMARK    7  A    between atoms: C_24  and  O_29 
REMARK    8  A    between atoms: O_29  and  C_30 
REMARK    9  A    between atoms: O_31  and  C_32 
ROOT
ATOM      1  N   LIG d   1       4.032  -0.904  -5.710  0.00  0.00    -0.257 N 
ATOM      2  C   LIG d   1       3.518  -0.186  -6.762  0.00  0.00     0.212 A 
ATOM      3  C   LIG d   1       3.343  -0.796  -7.968  0.00  0.00     0.121 A 
ATOM      4  C   LIG d   1       3.694  -2.152  -8.105  0.00  0.00     0.263 A 
ATOM      5  O   LIG d   1       3.545  -2.718  -9.174  0.00  0.00    -0.267 OA
ATOM      6  N   LIG d   1       4.194  -2.819  -7.048  0.00  0.00    -0.302 N 
ATOM      7  H   LIG d   1       4.440  -3.784  -7.141  0.00  0.00     0.171 HD
ATOM      8  C   LIG d   1       4.365  -2.198  -5.866  0.00  0.00     0.168 A 
ATOM      9  S   LIG d   1       5.008  -3.069  -4.540  0.00  0.00    -0.012 SA
ENDROOT
BRANCH   3  10
ATOM     10  C   LIG d   1       2.781  -0.030  -9.137  0.00  0.00     0.164 A 
ATOM     11  H   LIG d   1       2.661   1.021  -8.873  0.00  0.00     0.084 H 
ATOM     12  O   LIG d   1       1.501  -0.595  -9.536  0.00  0.00    -0.448 OA
ATOM     13  C   LIG d   1       1.589  -1.026 -10.805  0.00  0.00     0.344 A 
ATOM     14  C   LIG d   1       2.937  -0.776 -11.337  0.00  0.00     0.111 A 
ATOM     15  O   LIG d   1       0.683  -1.548 -11.425  0.00  0.00    -0.245 OA
ATOM     16  C   LIG d   1       3.693  -0.163 -10.331  0.00  0.00     0.015 A 
ATOM     17  C   LIG d   1       3.527  -1.034 -12.579  0.00  0.00     0.176 A 
ATOM     18  C   LIG d   1       5.003   0.183 -10.559  0.00  0.00    -0.050 A 
ATOM     19  C   LIG d   1       5.587  -0.072 -11.790  0.00  0.00    -0.016 A 
ATOM     20  H   LIG d   1       5.578   0.656  -9.777  0.00  0.00     0.062 H 
ATOM     21  C   LIG d   1       4.855  -0.677 -12.798  0.00  0.00     0.162 A 
ATOM     22  H   LIG d   1       6.617   0.202 -11.965  0.00  0.00     0.066 H 
BRANCH  21  23
ATOM     23  O   LIG d   1       5.435  -0.924 -14.003  0.00  0.00    -0.491 OA
BRANCH  23  24
ATOM     24  C   LIG d   1       6.505  -1.871 -14.026  0.00  0.00     0.079 C 
ATOM     25  H   LIG d   1       6.099  -2.880 -13.940  0.00  0.00     0.066 H 
ATOM     26  H   LIG d   1       7.052  -1.779 -14.965  0.00  0.00     0.066 H 
ATOM     27  H   LIG d   1       7.178  -1.678 -13.192  0.00  0.00     0.066 H 
ENDBRANCH  23  24
ENDBRANCH  21  23
BRANCH  17  28
ATOM     28  O   LIG d   1       2.810  -1.628 -13.567  0.00  0.00    -0.491 OA
BRANCH  28  29
ATOM     29  C   LIG d   1       2.876  -3.052 -13.651  0.00  0.00     0.079 C 
ATOM     30  H   LIG d   1       2.365  -3.388 -14.554  0.00  0.00     0.066 H 
ATOM     31  H   LIG d   1       3.919  -3.366 -13.685  0.00  0.00     0.066 H 
ATOM     32  H   LIG d   1       2.393  -3.491 -12.777  0.00  0.00     0.066 H 
ENDBRANCH  28  29
ENDBRANCH  17  28
ENDBRANCH   3  10
BRANCH   2  33
ATOM     33  O   LIG d   1       3.189   1.114  -6.603  0.00  0.00    -0.493 OA
ATOM     34  H   LIG d   1       3.116   1.605  -7.432  0.00  0.00     0.294 HD
ENDBRANCH   2  33
BRANCH   1  35
ATOM     35  C   LIG d   1       4.214  -0.282  -4.466  0.00  0.00     0.093 A 
ATOM     36  C   LIG d   1       5.428   0.329  -4.163  0.00  0.00     0.144 A 
ATOM     37  C   LIG d   1       5.605   0.941  -2.932  0.00  0.00    -0.018 A 
ATOM     38  C   LIG d   1       4.576   0.944  -2.009  0.00  0.00    -0.058 A 
ATOM     39  H   LIG d   1       6.543   1.420  -2.697  0.00  0.00     0.066 H 
ATOM     40  C   LIG d   1       3.370   0.336  -2.309  0.00  0.00    -0.060 A 
ATOM     41  H   LIG d   1       4.715   1.422  -1.050  0.00  0.00     0.062 H 
ATOM     42  C   LIG d   1       3.187  -0.276  -3.534  0.00  0.00    -0.034 A 
ATOM     43  H   LIG d   1       2.570   0.341  -1.583  0.00  0.00     0.062 H 
ATOM     44  H   LIG d   1       2.244  -0.750  -3.765  0.00  0.00     0.064 H 
BRANCH  36  45
ATOM     45  O   LIG d   1       6.439   0.326  -5.073  0.00  0.00    -0.493 OA
BRANCH  45  46
ATOM     46  C   LIG d   1       7.681  -0.249  -4.662  0.00  0.00     0.079 C 
ATOM     47  H   LIG d   1       7.835  -0.060  -3.599  0.00  0.00     0.066 H 
ATOM     48  H   LIG d   1       7.661  -1.324  -4.840  0.00  0.00     0.066 H 
ATOM     49  H   LIG d   1       8.495   0.198  -5.232  0.00  0.00     0.066 H 
ENDBRANCH  45  46
ENDBRANCH  36  45
ENDBRANCH   1  35
TORSDOF 9
ENDMDL
MODEL 2
REMARK VINA RESULT:      -6.4      4.647      7.239
REMARK  9 active torsions:
REMARK  status: ('A' for Active; 'I' for Inactive)
REMARK    1  A    between atoms: C_1  and  O_2 
REMARK    2  A    between atoms: O_2  and  C_3 
REMARK    3  A    between atoms: C_8  and  N_9 
REMARK    4  A    between atoms: C_10  and  O_33 
REMARK    5  A    between atoms: C_11  and  C_18 
REMARK    6  A    between atoms: C_23  and  O_31 
REMARK    7  A    between atoms: C_24  and  O_29 
REMARK    8  A    between atoms: O_29  and  C_30 
REMARK    9  A    between atoms: O_31  and  C_32 
ROOT
ATOM      1  N   LIG d   1       5.859  -2.095  -4.872  0.00  0.00    -0.257 N 
ATOM      2  C   LIG d   1       5.771  -3.268  -5.582  0.00  0.00     0.212 A 
ATOM      3  C   LIG d   1       6.895  -3.798  -6.142  0.00  0.00     0.121 A 
ATOM      4  C   LIG d   1       8.121  -3.128  -5.978  0.00  0.00     0.263 A 
ATOM      5  O   LIG d   1       9.139  -3.585  -6.470  0.00  0.00    -0.267 OA
ATOM      6  N   LIG d   1       8.163  -1.981  -5.274  0.00  0.00    -0.302 N 
ATOM      7  H   LIG d   1       9.034  -1.504  -5.153  0.00  0.00     0.171 HD
ATOM      8  C   LIG d   1       7.042  -1.469  -4.733  0.00  0.00     0.168 A 
ATOM      9  S   LIG d   1       7.122  -0.006  -3.849  0.00  0.00    -0.012 SA
ENDROOT
BRANCH   3  10
ATOM     10  C   LIG d   1       6.824  -5.083  -6.924  0.00  0.00     0.164 A 
ATOM     11  H   LIG d   1       7.620  -5.112  -7.670  0.00  0.00     0.084 H 
ATOM     12  O   LIG d   1       5.528  -5.204  -7.572  0.00  0.00    -0.448 OA
ATOM     13  C   LIG d   1       4.911  -6.308  -7.116  0.00  0.00     0.344 A 
ATOM     14  C   LIG d   1       5.760  -6.996  -6.131  0.00  0.00     0.111 A 
ATOM     15  O   LIG d   1       3.810  -6.683  -7.466  0.00  0.00    -0.245 OA
ATOM     16  C   LIG d   1       6.945  -6.264  -5.993  0.00  0.00     0.015 A 
ATOM     17  C   LIG d   1       5.581  -8.162  -5.378  0.00  0.00     0.176 A 
ATOM     18  C   LIG d   1       7.925  -6.685  -5.128  0.00  0.00    -0.050 A 
ATOM     19  C   LIG d   1       7.748  -7.841  -4.383  0.00  0.00    -0.016 A 
ATOM     20  H   LIG d   1       8.837  -6.114  -5.028  0.00  0.00     0.062 H 
ATOM     21  C   LIG d   1       6.583  -8.578  -4.506  0.00  0.00     0.162 A 
ATOM     22  H   LIG d   1       8.522  -8.168  -3.704  0.00  0.00     0.066 H 
BRANCH  21  23
ATOM     23  O   LIG d   1       6.416  -9.712  -3.772  0.00  0.00    -0.491 OA
BRANCH  23  24
ATOM     24  C   LIG d   1       7.127  -9.794  -2.535  0.00  0.00     0.079 C 
ATOM     25  H   LIG d   1       6.702  -9.085  -1.824  0.00  0.00     0.066 H 
ATOM     26  H   LIG d   1       7.044 -10.804  -2.134  0.00  0.00     0.066 H 
ATOM     27  H   LIG d   1       8.176  -9.555  -2.704  0.00  0.00     0.066 H 
ENDBRANCH  23  24
ENDBRANCH  21  23
BRANCH  17  28
ATOM     28  O   LIG d   1       4.438  -8.885  -5.499  0.00  0.00    -0.491 OA
BRANCH  28  29
ATOM     29  C   LIG d   1       4.469 -10.005  -6.385  0.00  0.00     0.079 C 
ATOM     30  H   LIG d   1       3.551 -10.583  -6.273  0.00  0.00     0.066 H 
ATOM     31  H   LIG d   1       4.554  -9.653  -7.413  0.00  0.00     0.066 H 
ATOM     32  H   LIG d   1       5.326 -10.635  -6.145  0.00  0.00     0.066 H 
ENDBRANCH  28  29
ENDBRANCH  17  28
ENDBRANCH   3  10
BRANCH   2  33
ATOM     33  O   LIG d   1       4.581  -3.890  -5.723  0.00  0.00    -0.493 OA
ATOM     34  H   LIG d   1       4.221  -3.851  -6.620  0.00  0.00     0.294 HD
ENDBRANCH   2  33
BRANCH   1  35
ATOM     35  C   LIG d   1       4.706  -1.543  -4.293  0.00  0.00     0.093 A 
ATOM     36  C   LIG d   1       3.992  -0.556  -4.966  0.00  0.00     0.144 A 
ATOM     37  C   LIG d   1       2.854  -0.013  -4.390  0.00  0.00    -0.018 A 
ATOM     38  C   LIG d   1       2.431  -0.453  -3.150  0.00  0.00    -0.058 A 
ATOM     39  H   LIG d   1       2.295   0.749  -4.911  0.00  0.00     0.066 H 
ATOM     40  C   LIG d   1       3.141  -1.434  -2.481  0.00  0.00    -0.060 A 
ATOM     41  H   LIG d   1       1.544  -0.030  -2.702  0.00  0.00     0.062 H 
ATOM     42  C   LIG d   1       4.276  -1.979  -3.049  0.00  0.00    -0.034 A 
ATOM     43  H   LIG d   1       2.806  -1.774  -1.512  0.00  0.00     0.062 H 
ATOM     44  H   LIG d   1       4.828  -2.746  -2.524  0.00  0.00     0.064 H 
BRANCH  36  45
ATOM     45  O   LIG d   1       4.409  -0.124  -6.187  0.00  0.00    -0.493 OA
BRANCH  45  46
ATOM     46  C   LIG d   1       3.412   0.012  -7.202  0.00  0.00     0.079 C 
ATOM     47  H   LIG d   1       3.811  -0.340  -8.153  0.00  0.00     0.066 H 
ATOM     48  H   LIG d   1       2.537  -0.579  -6.933  0.00  0.00     0.066 H 
ATOM     49  H   LIG d   1       3.128   1.060  -7.294  0.00  0.00     0.066 H 
ENDBRANCH  45  46
ENDBRANCH  36  45
ENDBRANCH   1  35
TORSDOF 9
ENDMDL
MODEL 3
REMARK VINA RESULT:      -6.2      3.034      7.226
REMARK  9 active torsions:
REMARK  status: ('A' for Active; 'I' for Inactive)
REMARK    1  A    between atoms: C_1  and  O_2 
REMARK    2  A    between atoms: O_2  and  C_3 
REMARK    3  A    between atoms: C_8  and  N_9 
REMARK    4  A    between atoms: C_10  and  O_33 
REMARK    5  A    between atoms: C_11  and  C_18 
REMARK    6  A    between atoms: C_23  and  O_31 
REMARK    7  A    between atoms: C_24  and  O_29 
REMARK    8  A    between atoms: O_29  and  C_30 
REMARK    9  A    between atoms: O_31  and  C_32 
ROOT
ATOM      1  N   LIG d   1       4.417  -2.841  -8.348  0.00  0.00    -0.257 N 
ATOM      2  C   LIG d   1       4.619  -2.726  -6.994  0.00  0.00     0.212 A 
ATOM      3  C   LIG d   1       5.472  -3.585  -6.368  0.00  0.00     0.121 A 
ATOM      4  C   LIG d   1       6.127  -4.572  -7.127  0.00  0.00     0.263 A 
ATOM      5  O   LIG d   1       6.895  -5.350  -6.588  0.00  0.00    -0.267 OA
ATOM      6  N   LIG d   1       5.901  -4.650  -8.453  0.00  0.00    -0.302 N 
ATOM      7  H   LIG d   1       6.369  -5.348  -8.996  0.00  0.00     0.171 HD
ATOM      8  C   LIG d   1       5.051  -3.796  -9.053  0.00  0.00     0.168 A 
ATOM      9  S   LIG d   1       4.777  -3.922 -10.737  0.00  0.00    -0.012 SA
ENDROOT
BRANCH   3  10
ATOM     10  C   LIG d   1       5.711  -3.479  -4.885  0.00  0.00     0.164 A 
ATOM     11  H   LIG d   1       6.342  -4.301  -4.547  0.00  0.00     0.084 H 
ATOM     12  O   LIG d   1       4.443  -3.497  -4.172  0.00  0.00    -0.448 OA
ATOM     13  C   LIG d   1       4.308  -2.348  -3.488  0.00  0.00     0.344 A 
ATOM     14  C   LIG d   1       5.482  -1.487  -3.701  0.00  0.00     0.111 A 
ATOM     15  O   LIG d   1       3.354  -2.062  -2.793  0.00  0.00    -0.245 OA
ATOM     16  C   LIG d   1       6.362  -2.158  -4.557  0.00  0.00     0.015 A 
ATOM     17  C   LIG d   1       5.822  -0.216  -3.225  0.00  0.00     0.176 A 
ATOM     18  C   LIG d   1       7.550  -1.577  -4.928  0.00  0.00    -0.050 A 
ATOM     19  C   LIG d   1       7.887  -0.318  -4.455  0.00  0.00    -0.016 A 
ATOM     20  H   LIG d   1       8.224  -2.102  -5.589  0.00  0.00     0.062 H 
ATOM     21  C   LIG d   1       7.030   0.362  -3.607  0.00  0.00     0.162 A 
ATOM     22  H   LIG d   1       8.822   0.135  -4.750  0.00  0.00     0.066 H 
BRANCH  21  23
ATOM     23  O   LIG d   1       7.367   1.597  -3.147  0.00  0.00    -0.491 OA
BRANCH  23  24
ATOM     24  C   LIG d   1       8.368   2.309  -3.877  0.00  0.00     0.079 C 
ATOM     25  H   LIG d   1       8.883   2.999  -3.208  0.00  0.00     0.066 H 
ATOM     26  H   LIG d   1       9.087   1.602  -4.292  0.00  0.00     0.066 H 
ATOM     27  H   LIG d   1       7.899   2.868  -4.685  0.00  0.00     0.066 H 
ENDBRANCH  23  24
ENDBRANCH  21  23
BRANCH  17  28
ATOM     28  O   LIG d   1       4.980   0.450  -2.394  0.00  0.00    -0.491 OA
BRANCH  28  29
ATOM     29  C   LIG d   1       4.013   1.308  -3.001  0.00  0.00     0.079 C 
ATOM     30  H   LIG d   1       3.445   1.822  -2.225  0.00  0.00     0.066 H 
ATOM     31  H   LIG d   1       4.520   2.042  -3.627  0.00  0.00     0.066 H 
ATOM     32  H   LIG d   1       3.335   0.714  -3.614  0.00  0.00     0.066 H 
ENDBRANCH  28  29
ENDBRANCH  17  28
ENDBRANCH   3  10
BRANCH   2  33
ATOM     33  O   LIG d   1       3.978  -1.770  -6.289  0.00  0.00    -0.493 OA
ATOM     34  H   LIG d   1       3.567  -2.091  -5.475  0.00  0.00     0.294 HD
ENDBRANCH   2  33
BRANCH   1  35
ATOM     35  C   LIG d   1       3.540  -1.961  -8.998  0.00  0.00     0.093 A 
ATOM     36  C   LIG d   1       3.934  -0.652  -9.262  0.00  0.00     0.144 A 
ATOM     37  C   LIG d   1       3.064   0.215  -9.904  0.00  0.00    -0.018 A 
ATOM     38  C   LIG d   1       1.808  -0.221 -10.281  0.00  0.00    -0.058 A 
ATOM     39  H   LIG d   1       3.369   1.229 -10.114  0.00  0.00     0.066 H 
ATOM     40  C   LIG d   1       1.415  -1.522 -10.019  0.00  0.00    -0.060 A 
ATOM     41  H   LIG d   1       1.131   0.455 -10.781  0.00  0.00     0.062 H 
ATOM     42  C   LIG d   1       2.278  -2.391  -9.379  0.00  0.00    -0.034 A 
ATOM     43  H   LIG d   1       0.433  -1.857 -10.315  0.00  0.00     0.062 H 
ATOM     44  H   LIG d   1       1.969  -3.407  -9.176  0.00  0.00     0.064 H 
BRANCH  36  45
ATOM     45  O   LIG d   1       5.171  -0.224  -8.891  0.00  0.00    -0.493 OA
BRANCH  45  46
ATOM     46  C   LIG d   1       5.476   1.154  -9.116  0.00  0.00     0.079 C 
ATOM     47  H   LIG d   1       5.210   1.734  -8.232  0.00  0.00     0.066 H 
ATOM     48  H   LIG d   1       6.542   1.262  -9.315  0.00  0.00     0.066 H 
ATOM     49  H   LIG d   1       4.909   1.516  -9.973  0.00  0.00     0.066 H 
ENDBRANCH  45  46
ENDBRANCH  36  45
ENDBRANCH   1  35
TORSDOF 9
ENDMDL
MODEL 4
REMARK VINA RESULT:      -6.2      3.693      5.838
REMARK  9 active torsions:
REMARK  status: ('A' for Active; 'I' for Inactive)
REMARK    1  A    between atoms: C_1  and  O_2 
REMARK    2  A    between atoms: O_2  and  C_3 
REMARK    3  A    between atoms: C_8  and  N_9 
REMARK    4  A    between atoms: C_10  and  O_33 
REMARK    5  A    between atoms: C_11  and  C_18 
REMARK    6  A    between atoms: C_23  and  O_31 
REMARK    7  A    between atoms: C_24  and  O_29 
REMARK    8  A    between atoms: O_29  and  C_30 
REMARK    9  A    between atoms: O_31  and  C_32 
ROOT
ATOM      1  N   LIG d   1       5.797  -1.700  -5.309  0.00  0.00    -0.257 N 
ATOM      2  C   LIG d   1       5.664  -2.659  -6.284  0.00  0.00     0.212 A 
ATOM      3  C   LIG d   1       6.746  -3.004  -7.038  0.00  0.00     0.121 A 
ATOM      4  C   LIG d   1       7.977  -2.367  -6.796  0.00  0.00     0.263 A 
ATOM      5  O   LIG d   1       8.959  -2.660  -7.457  0.00  0.00    -0.267 OA
ATOM      6  N   LIG d   1       8.065  -1.433  -5.830  0.00  0.00    -0.302 N 
ATOM      7  H   LIG d   1       8.940  -0.981  -5.653  0.00  0.00     0.171 HD
ATOM      8  C   LIG d   1       6.983  -1.101  -5.100  0.00  0.00     0.168 A 
ATOM      9  S   LIG d   1       7.121   0.094  -3.883  0.00  0.00    -0.012 SA
ENDROOT
BRANCH   3  10
ATOM     10  C   LIG d   1       6.626  -4.052  -8.112  0.00  0.00     0.164 A 
ATOM     11  H   LIG d   1       7.573  -4.155  -8.643  0.00  0.00     0.084 H 
ATOM     12  O   LIG d   1       5.567  -3.695  -9.043  0.00  0.00    -0.448 OA
ATOM     13  C   LIG d   1       4.628  -4.656  -9.028  0.00  0.00     0.344 A 
ATOM     14  C   LIG d   1       5.001  -5.720  -8.083  0.00  0.00     0.111 A 
ATOM     15  O   LIG d   1       3.615  -4.647  -9.699  0.00  0.00    -0.245 OA
ATOM     16  C   LIG d   1       6.228  -5.375  -7.504  0.00  0.00     0.015 A 
ATOM     17  C   LIG d   1       4.376  -6.914  -7.707  0.00  0.00     0.176 A 
ATOM     18  C   LIG d   1       6.815  -6.199  -6.576  0.00  0.00    -0.050 A 
ATOM     19  C   LIG d   1       6.196  -7.382  -6.204  0.00  0.00    -0.016 A 
ATOM     20  H   LIG d   1       7.762  -5.925  -6.135  0.00  0.00     0.062 H 
ATOM     21  C   LIG d   1       4.982  -7.741  -6.766  0.00  0.00     0.162 A 
ATOM     22  H   LIG d   1       6.661  -8.027  -5.473  0.00  0.00     0.066 H 
BRANCH  21  23
ATOM     23  O   LIG d   1       4.380  -8.903  -6.396  0.00  0.00    -0.491 OA
BRANCH  23  24
ATOM     24  C   LIG d   1       4.591  -9.344  -5.053  0.00  0.00     0.079 C 
ATOM     25  H   LIG d   1       3.661  -9.254  -4.491  0.00  0.00     0.066 H 
ATOM     26  H   LIG d   1       4.912 -10.386  -5.059  0.00  0.00     0.066 H 
ATOM     27  H   LIG d   1       5.359  -8.730  -4.586  0.00  0.00     0.066 H 
ENDBRANCH  23  24
ENDBRANCH  21  23
BRANCH  17  28
ATOM     28  O   LIG d   1       3.186  -7.265  -8.258  0.00  0.00    -0.491 OA
BRANCH  28  29
ATOM     29  C   LIG d   1       3.229  -8.088  -9.425  0.00  0.00     0.079 C 
ATOM     30  H   LIG d   1       2.456  -8.855  -9.357  0.00  0.00     0.066 H 
ATOM     31  H   LIG d   1       3.055  -7.475 -10.309  0.00  0.00     0.066 H 
ATOM     32  H   LIG d   1       4.207  -8.564  -9.499  0.00  0.00     0.066 H 
ENDBRANCH  28  29
ENDBRANCH  17  28
ENDBRANCH   3  10
BRANCH   2  33
ATOM     33  O   LIG d   1       4.471  -3.255  -6.494  0.00  0.00    -0.493 OA
ATOM     34  H   LIG d   1       4.297  -3.469  -7.421  0.00  0.00     0.294 HD
ENDBRANCH   2  33
BRANCH   1  35
ATOM     35  C   LIG d   1       4.687  -1.341  -4.531  0.00  0.00     0.093 A 
ATOM     36  C   LIG d   1       3.819  -0.346  -4.971  0.00  0.00     0.144 A 
ATOM     37  C   LIG d   1       2.724   0.007  -4.198  0.00  0.00    -0.018 A 
ATOM     38  C   LIG d   1       2.497  -0.629  -2.992  0.00  0.00    -0.058 A 
ATOM     39  H   LIG d   1       2.046   0.774  -4.540  0.00  0.00     0.066 H 
ATOM     40  C   LIG d   1       3.360  -1.617  -2.553  0.00  0.00    -0.060 A 
ATOM     41  H   LIG d   1       1.643  -0.353  -2.391  0.00  0.00     0.062 H 
ATOM     42  C   LIG d   1       4.453  -1.974  -3.319  0.00  0.00    -0.034 A 
ATOM     43  H   LIG d   1       3.177  -2.110  -1.610  0.00  0.00     0.062 H 
ATOM     44  H   LIG d   1       5.125  -2.746  -2.974  0.00  0.00     0.064 H 
BRANCH  36  45
ATOM     45  O   LIG d   1       4.043   0.279  -6.159  0.00  0.00    -0.493 OA
BRANCH  45  46
ATOM     46  C   LIG d   1       3.029   0.158  -7.158  0.00  0.00     0.079 C 
ATOM     47  H   LIG d   1       3.489   0.152  -8.145  0.00  0.00     0.066 H 
ATOM     48  H   LIG d   1       2.479  -0.772  -7.007  0.00  0.00     0.066 H 
ATOM     49  H   LIG d   1       2.342   1.001  -7.082  0.00  0.00     0.066 H 
ENDBRANCH  45  46
ENDBRANCH  36  45
ENDBRANCH   1  35
TORSDOF 9
ENDMDL
MODEL 5
REMARK VINA RESULT:      -6.1      4.918      8.223
REMARK  9 active torsions:
REMARK  status: ('A' for Active; 'I' for Inactive)
REMARK    1  A    between atoms: C_1  and  O_2 
REMARK    2  A    between atoms: O_2  and  C_3 
REMARK    3  A    between atoms: C_8  and  N_9 
REMARK    4  A    between atoms: C_10  and  O_33 
REMARK    5  A    between atoms: C_11  and  C_18 
REMARK    6  A    between atoms: C_23  and  O_31 
REMARK    7  A    between atoms: C_24  and  O_29 
REMARK    8  A    between atoms: O_29  and  C_30 
REMARK    9  A    between atoms: O_31  and  C_32 
ROOT
ATOM      1  N   LIG d   1       6.526   0.143  -5.130  0.00  0.00    -0.257 N 
ATOM      2  C   LIG d   1       7.825   0.580  -5.042  0.00  0.00     0.212 A 
ATOM      3  C   LIG d   1       8.538   0.801  -6.183  0.00  0.00     0.121 A 
ATOM      4  C   LIG d   1       7.922   0.574  -7.427  0.00  0.00     0.263 A 
ATOM      5  O   LIG d   1       8.540   0.765  -8.461  0.00  0.00    -0.267 OA
ATOM      6  N   LIG d   1       6.646   0.145  -7.469  0.00  0.00    -0.302 N 
ATOM      7  H   LIG d   1       6.204  -0.014  -8.352  0.00  0.00     0.171 HD
ATOM      8  C   LIG d   1       5.960  -0.073  -6.331  0.00  0.00     0.168 A 
ATOM      9  S   LIG d   1       4.342  -0.624  -6.413  0.00  0.00    -0.012 SA
ENDROOT
BRANCH   3  10
ATOM     10  C   LIG d   1       9.963   1.282  -6.113  0.00  0.00     0.164 A 
ATOM     11  H   LIG d   1      10.543   0.859  -6.934  0.00  0.00     0.084 H 
ATOM     12  O   LIG d   1      10.555   0.906  -4.838  0.00  0.00    -0.448 OA
ATOM     13  C   LIG d   1      10.922   2.019  -4.180  0.00  0.00     0.344 A 
ATOM     14  C   LIG d   1      10.598   3.212  -4.976  0.00  0.00     0.111 A 
ATOM     15  O   LIG d   1      11.447   2.036  -3.085  0.00  0.00    -0.245 OA
ATOM     16  C   LIG d   1      10.006   2.789  -6.172  0.00  0.00     0.015 A 
ATOM     17  C   LIG d   1      10.772   4.581  -4.743  0.00  0.00     0.176 A 
ATOM     18  C   LIG d   1       9.600   3.706  -7.110  0.00  0.00    -0.050 A 
ATOM     19  C   LIG d   1       9.773   5.062  -6.879  0.00  0.00    -0.016 A 
ATOM     20  H   LIG d   1       9.144   3.370  -8.030  0.00  0.00     0.062 H 
ATOM     21  C   LIG d   1      10.356   5.501  -5.703  0.00  0.00     0.162 A 
ATOM     22  H   LIG d   1       9.452   5.780  -7.619  0.00  0.00     0.066 H 
BRANCH  21  23
ATOM     23  O   LIG d   1      10.524   6.833  -5.483  0.00  0.00    -0.491 OA
BRANCH  23  24
ATOM     24  C   LIG d   1       9.343   7.638  -5.456  0.00  0.00     0.079 C 
ATOM     25  H   LIG d   1       9.411   8.408  -6.225  0.00  0.00     0.066 H 
ATOM     26  H   LIG d   1       8.471   7.011  -5.645  0.00  0.00     0.066 H 
ATOM     27  H   LIG d   1       9.248   8.109  -4.479  0.00  0.00     0.066 H 
ENDBRANCH  23  24
ENDBRANCH  21  23
BRANCH  17  28
ATOM     28  O   LIG d   1      11.344   5.011  -3.590  0.00  0.00    -0.491 OA
BRANCH  28  29
ATOM     29  C   LIG d   1      10.467   5.298  -2.499  0.00  0.00     0.079 C 
ATOM     30  H   LIG d   1       9.646   4.581  -2.493  0.00  0.00     0.066 H 
ATOM     31  H   LIG d   1      11.019   5.226  -1.561  0.00  0.00     0.066 H 
ATOM     32  H   LIG d   1      10.068   6.307  -2.609  0.00  0.00     0.066 H 
ENDBRANCH  28  29
ENDBRANCH  17  28
ENDBRANCH   3  10
BRANCH   2  33
ATOM     33  O   LIG d   1       8.392   0.791  -3.835  0.00  0.00    -0.493 OA
ATOM     34  H   LIG d   1       7.946   0.337  -3.107  0.00  0.00     0.294 HD
ENDBRANCH   2  33
BRANCH   1  35
ATOM     35  C   LIG d   1       5.788  -0.086  -3.960  0.00  0.00     0.093 A 
ATOM     36  C   LIG d   1       5.700  -1.371  -3.431  0.00  0.00     0.144 A 
ATOM     37  C   LIG d   1       4.968  -1.592  -2.275  0.00  0.00    -0.018 A 
ATOM     38  C   LIG d   1       4.328  -0.538  -1.650  0.00  0.00    -0.058 A 
ATOM     39  H   LIG d   1       4.902  -2.586  -1.859  0.00  0.00     0.066 H 
ATOM     40  C   LIG d   1       4.415   0.738  -2.176  0.00  0.00    -0.060 A 
ATOM     41  H   LIG d   1       3.758  -0.712  -0.749  0.00  0.00     0.062 H 
ATOM     42  C   LIG d   1       5.142   0.966  -3.328  0.00  0.00    -0.034 A 
ATOM     43  H   LIG d   1       3.913   1.558  -1.684  0.00  0.00     0.062 H 
ATOM     44  H   LIG d   1       5.209   1.965  -3.736  0.00  0.00     0.064 H 
BRANCH  36  45
ATOM     45  O   LIG d   1       6.331  -2.407  -4.046  0.00  0.00    -0.493 OA
BRANCH  45  46
ATOM     46  C   LIG d   1       7.623  -2.765  -3.553  0.00  0.00     0.079 C 
ATOM     47  H   LIG d   1       7.525  -3.570  -2.825  0.00  0.00     0.066 H 
ATOM     48  H   LIG d   1       8.248  -3.098  -4.381  0.00  0.00     0.066 H 
ATOM     49  H   LIG d   1       8.084  -1.899  -3.077  0.00  0.00     0.066 H 
ENDBRANCH  45  46
ENDBRANCH  36  45
ENDBRANCH   1  35
TORSDOF 9
ENDMDL
MODEL 6
REMARK VINA RESULT:      -6.1      2.173      2.928
REMARK  9 active torsions:
REMARK  status: ('A' for Active; 'I' for Inactive)
REMARK    1  A    between atoms: C_1  and  O_2 
REMARK    2  A    between atoms: O_2  and  C_3 
REMARK    3  A    between atoms: C_8  and  N_9 
REMARK    4  A    between atoms: C_10  and  O_33 
REMARK    5  A    between atoms: C_11  and  C_18 
REMARK    6  A    between atoms: C_23  and  O_31 
REMARK    7  A    between atoms: C_24  and  O_29 
REMARK    8  A    between atoms: O_29  and  C_30 
REMARK    9  A    between atoms: O_31  and  C_32 
ROOT
ATOM      1  N   LIG d   1       5.246  -0.245  -6.150  0.00  0.00    -0.257 N 
ATOM      2  C   LIG d   1       4.459  -0.178  -7.274  0.00  0.00     0.212 A 
ATOM      3  C   LIG d   1       4.905   0.507  -8.365  0.00  0.00     0.121 A 
ATOM      4  C   LIG d   1       6.165   1.130  -8.312  0.00  0.00     0.263 A 
ATOM      5  O   LIG d   1       6.584   1.747  -9.276  0.00  0.00    -0.267 OA
ATOM      6  N   LIG d   1       6.905   1.039  -7.190  0.00  0.00    -0.302 N 
ATOM      7  H   LIG d   1       7.803   1.478  -7.151  0.00  0.00     0.171 HD
ATOM      8  C   LIG d   1       6.446   0.364  -6.121  0.00  0.00     0.168 A 
ATOM      9  S   LIG d   1       7.404   0.270  -4.706  0.00  0.00    -0.012 SA
ENDROOT
BRANCH   3  10
ATOM     10  C   LIG d   1       4.061   0.595  -9.609  0.00  0.00     0.164 A 
ATOM     11  H   LIG d   1       4.284   1.515 -10.150  0.00  0.00     0.084 H 
ATOM     12  O   LIG d   1       2.650   0.550  -9.260  0.00  0.00    -0.448 OA
ATOM     13  C   LIG d   1       2.088  -0.523  -9.842  0.00  0.00     0.344 A 
ATOM     14  C   LIG d   1       3.092  -1.266 -10.620  0.00  0.00     0.111 A 
ATOM     15  O   LIG d   1       0.918  -0.835  -9.741  0.00  0.00    -0.245 OA
ATOM     16  C   LIG d   1       4.317  -0.600 -10.495  0.00  0.00     0.015 A 
ATOM     17  C   LIG d   1       3.018  -2.429 -11.393  0.00  0.00     0.176 A 
ATOM     18  C   LIG d   1       5.438  -1.083 -11.125  0.00  0.00    -0.050 A 
ATOM     19  C   LIG d   1       5.365  -2.235 -11.891  0.00  0.00    -0.016 A 
ATOM     20  H   LIG d   1       6.379  -0.562 -11.023  0.00  0.00     0.062 H 
ATOM     21  C   LIG d   1       4.162  -2.907 -12.027  0.00  0.00     0.162 A 
ATOM     22  H   LIG d   1       6.249  -2.611 -12.385  0.00  0.00     0.066 H 
BRANCH  21  23
ATOM     23  O   LIG d   1       4.097  -4.038 -12.782  0.00  0.00    -0.491 OA
BRANCH  23  24
ATOM     24  C   LIG d   1       4.715  -5.210 -12.246  0.00  0.00     0.079 C 
ATOM     25  H   LIG d   1       4.191  -6.095 -12.610  0.00  0.00     0.066 H 
ATOM     26  H   LIG d   1       5.757  -5.249 -12.563  0.00  0.00     0.066 H 
ATOM     27  H   LIG d   1       4.666  -5.181 -11.159  0.00  0.00     0.066 H 
ENDBRANCH  23  24
ENDBRANCH  21  23
BRANCH  17  28
ATOM     28  O   LIG d   1       1.839  -3.088 -11.526  0.00  0.00    -0.491 OA
BRANCH  28  29
ATOM     29  C   LIG d   1       1.550  -4.103 -10.562  0.00  0.00     0.079 C 
ATOM     30  H   LIG d   1       1.958  -5.055 -10.903  0.00  0.00     0.066 H 
ATOM     31  H   LIG d   1       2.002  -3.835  -9.607  0.00  0.00     0.066 H 
ATOM     32  H   LIG d   1       0.470  -4.192 -10.441  0.00  0.00     0.066 H 
ENDBRANCH  28  29
ENDBRANCH  17  28
ENDBRANCH   3  10
BRANCH   2  33
ATOM     33  O   LIG d   1       3.254  -0.786  -7.298  0.00  0.00    -0.493 OA
ATOM     34  H   LIG d   1       2.978  -1.145  -6.444  0.00  0.00     0.294 HD
ENDBRANCH   2  33
BRANCH   1  35
ATOM     35  C   LIG d   1       4.793  -0.948  -5.024  0.00  0.00     0.093 A 
ATOM     36  C   LIG d   1       4.021  -0.301  -4.062  0.00  0.00     0.144 A 
ATOM     37  C   LIG d   1       3.577  -1.000  -2.951  0.00  0.00    -0.018 A 
ATOM     38  C   LIG d   1       3.900  -2.335  -2.799  0.00  0.00    -0.058 A 
ATOM     39  H   LIG d   1       2.974  -0.503  -2.206  0.00  0.00     0.066 H 
ATOM     40  C   LIG d   1       4.668  -2.977  -3.754  0.00  0.00    -0.060 A 
ATOM     41  H   LIG d   1       3.553  -2.878  -1.933  0.00  0.00     0.062 H 
ATOM     42  C   LIG d   1       5.114  -2.288  -4.865  0.00  0.00    -0.034 A 
ATOM     43  H   LIG d   1       4.918  -4.021  -3.631  0.00  0.00     0.062 H 
ATOM     44  H   LIG d   1       5.714  -2.792  -5.609  0.00  0.00     0.064 H 
BRANCH  36  45
ATOM     45  O   LIG d   1       3.703   1.012  -4.213  0.00  0.00    -0.493 OA
BRANCH  45  46
ATOM     46  C   LIG d   1       3.543   1.782  -3.020  0.00  0.00     0.079 C 
ATOM     47  H   LIG d   1       4.245   2.616  -3.028  0.00  0.00     0.066 H 
ATOM     48  H   LIG d   1       2.524   2.166  -2.969  0.00  0.00     0.066 H 
ATOM     49  H   LIG d   1       3.737   1.153  -2.152  0.00  0.00     0.066 H 
ENDBRANCH  45  46
ENDBRANCH  36  45
ENDBRANCH   1  35
TORSDOF 9
ENDMDL
MODEL 7
REMARK VINA RESULT:      -5.9      4.514      7.771
REMARK  9 active torsions:
REMARK  status: ('A' for Active; 'I' for Inactive)
REMARK    1  A    between atoms: C_1  and  O_2 
REMARK    2  A    between atoms: O_2  and  C_3 
REMARK    3  A    between atoms: C_8  and  N_9 
REMARK    4  A    between atoms: C_10  and  O_33 
REMARK    5  A    between atoms: C_11  and  C_18 
REMARK    6  A    between atoms: C_23  and  O_31 
REMARK    7  A    between atoms: C_24  and  O_29 
REMARK    8  A    between atoms: O_29  and  C_30 
REMARK    9  A    between atoms: O_31  and  C_32 
ROOT
ATOM      1  N   LIG d   1       6.223  -1.330  -5.118  0.00  0.00    -0.257 N 
ATOM      2  C   LIG d   1       7.465  -1.915  -5.063  0.00  0.00     0.212 A 
ATOM      3  C   LIG d   1       8.021  -2.415  -6.203  0.00  0.00     0.121 A 
ATOM      4  C   LIG d   1       7.307  -2.318  -7.411  0.00  0.00     0.263 A 
ATOM      5  O   LIG d   1       7.785  -2.758  -8.442  0.00  0.00    -0.267 OA
ATOM      6  N   LIG d   1       6.092  -1.737  -7.421  0.00  0.00    -0.302 N 
ATOM      7  H   LIG d   1       5.583  -1.664  -8.279  0.00  0.00     0.171 HD
ATOM      8  C   LIG d   1       5.556  -1.254  -6.284  0.00  0.00     0.168 A 
ATOM      9  S   LIG d   1       4.008  -0.526  -6.323  0.00  0.00    -0.012 SA
ENDROOT
BRANCH   3  10
ATOM     10  C   LIG d   1       9.382  -3.060  -6.169  0.00  0.00     0.164 A 
ATOM     11  H   LIG d   1       9.490  -3.750  -7.006  0.00  0.00     0.084 H 
ATOM     12  O   LIG d   1       9.569  -3.766  -4.912  0.00  0.00    -0.448 OA
ATOM     13  C   LIG d   1      10.617  -3.234  -4.262  0.00  0.00     0.344 A 
ATOM     14  C   LIG d   1      11.199  -2.133  -5.046  0.00  0.00     0.111 A 
ATOM     15  O   LIG d   1      11.026  -3.607  -3.180  0.00  0.00    -0.245 OA
ATOM     16  C   LIG d   1      10.458  -2.004  -6.226  0.00  0.00     0.015 A 
ATOM     17  C   LIG d   1      12.279  -1.274  -4.815  0.00  0.00     0.176 A 
ATOM     18  C   LIG d   1      10.787  -1.043  -7.151  0.00  0.00    -0.050 A 
ATOM     19  C   LIG d   1      11.857  -0.192  -6.923  0.00  0.00    -0.016 A 
ATOM     20  H   LIG d   1      10.209  -0.951  -8.060  0.00  0.00     0.062 H 
ATOM     21  C   LIG d   1      12.602  -0.305  -5.761  0.00  0.00     0.162 A 
ATOM     22  H   LIG d   1      12.111   0.562  -7.652  0.00  0.00     0.066 H 
BRANCH  21  23
ATOM     23  O   LIG d   1      13.651   0.533  -5.543  0.00  0.00    -0.491 OA
BRANCH  23  24
ATOM     24  C   LIG d   1      13.341   1.860  -5.110  0.00  0.00     0.079 C 
ATOM     25  H   LIG d   1      14.156   2.240  -4.493  0.00  0.00     0.066 H 
ATOM     26  H   LIG d   1      13.213   2.505  -5.980  0.00  0.00     0.066 H 
ATOM     27  H   LIG d   1      12.420   1.846  -4.529  0.00  0.00     0.066 H 
ENDBRANCH  23  24
ENDBRANCH  21  23
BRANCH  17  28
ATOM     28  O   LIG d   1      13.009  -1.385  -3.676  0.00  0.00    -0.491 OA
BRANCH  28  29
ATOM     29  C   LIG d   1      14.162  -2.227  -3.723  0.00  0.00     0.079 C 
ATOM     30  H   LIG d   1      14.865  -1.926  -2.946  0.00  0.00     0.066 H 
ATOM     31  H   LIG d   1      13.862  -3.263  -3.560  0.00  0.00     0.066 H 
ATOM     32  H   LIG d   1      14.638  -2.137  -4.700  0.00  0.00     0.066 H 
ENDBRANCH  28  29
ENDBRANCH  17  28
ENDBRANCH   3  10
BRANCH   2  33
ATOM     33  O   LIG d   1       8.129  -1.993  -3.891  0.00  0.00    -0.493 OA
ATOM     34  H   LIG d   1       7.682  -1.552  -3.155  0.00  0.00     0.294 HD
ENDBRANCH   2  33
BRANCH   1  35
ATOM     35  C   LIG d   1       5.645  -0.814  -3.949  0.00  0.00     0.093 A 
ATOM     36  C   LIG d   1       5.851   0.517  -3.598  0.00  0.00     0.144 A 
ATOM     37  C   LIG d   1       5.278   1.022  -2.441  0.00  0.00    -0.018 A 
ATOM     38  C   LIG d   1       4.504   0.204  -1.639  0.00  0.00    -0.058 A 
ATOM     39  H   LIG d   1       5.432   2.056  -2.169  0.00  0.00     0.066 H 
ATOM     40  C   LIG d   1       4.300  -1.119  -1.988  0.00  0.00    -0.060 A 
ATOM     41  H   LIG d   1       4.059   0.600  -0.739  0.00  0.00     0.062 H 
ATOM     42  C   LIG d   1       4.868  -1.629  -3.139  0.00  0.00    -0.034 A 
ATOM     43  H   LIG d   1       3.695  -1.753  -1.357  0.00  0.00     0.062 H 
ATOM     44  H   LIG d   1       4.706  -2.663  -3.409  0.00  0.00     0.064 H 
BRANCH  36  45
ATOM     45  O   LIG d   1       6.612   1.321  -4.388  0.00  0.00    -0.493 OA
BRANCH  45  46
ATOM     46  C   LIG d   1       7.896   1.696  -3.886  0.00  0.00     0.079 C 
ATOM     47  H   LIG d   1       7.906   2.765  -3.674  0.00  0.00     0.066 H 
ATOM     48  H   LIG d   1       8.105   1.142  -2.971  0.00  0.00     0.066 H 
ATOM     49  H   LIG d   1       8.659   1.467  -4.630  0.00  0.00     0.066 H 
ENDBRANCH  45  46
ENDBRANCH  36  45
ENDBRANCH   1  35
TORSDOF 9
ENDMDL
MODEL 8
REMARK VINA RESULT:      -5.9      4.186      7.874
REMARK  9 active torsions:
REMARK  status: ('A' for Active; 'I' for Inactive)
REMARK    1  A    between atoms: C_1  and  O_2 
REMARK    2  A    between atoms: O_2  and  C_3 
REMARK    3  A    between atoms: C_8  and  N_9 
REMARK    4  A    between atoms: C_10  and  O_33 
REMARK    5  A    between atoms: C_11  and  C_18 
REMARK    6  A    between atoms: C_23  and  O_31 
REMARK    7  A    between atoms: C_24  and  O_29 
REMARK    8  A    between atoms: O_29  and  C_30 
REMARK    9  A    between atoms: O_31  and  C_32 
ROOT
ATOM      1  N   LIG d   1       5.641  -0.240  -5.756  0.00  0.00    -0.257 N 
ATOM      2  C   LIG d   1       7.001  -0.072  -5.839  0.00  0.00     0.212 A 
ATOM      3  C   LIG d   1       7.542   0.471  -6.967  0.00  0.00     0.121 A 
ATOM      4  C   LIG d   1       6.689   0.845  -8.021  0.00  0.00     0.263 A 
ATOM      5  O   LIG d   1       7.151   1.333  -9.039  0.00  0.00    -0.267 OA
ATOM      6  N   LIG d   1       5.361   0.663  -7.899  0.00  0.00    -0.302 N 
ATOM      7  H   LIG d   1       4.751   0.932  -8.645  0.00  0.00     0.171 HD
ATOM      8  C   LIG d   1       4.845   0.121  -6.780  0.00  0.00     0.168 A 
ATOM      9  S   LIG d   1       3.154  -0.106  -6.653  0.00  0.00    -0.012 SA
ENDROOT
BRANCH   3  10
ATOM     10  C   LIG d   1       9.031   0.667  -7.082  0.00  0.00     0.164 A 
ATOM     11  H   LIG d   1       9.301   0.891  -8.114  0.00  0.00     0.084 H 
ATOM     12  O   LIG d   1       9.729  -0.527  -6.631  0.00  0.00    -0.448 OA
ATOM     13  C   LIG d   1      10.510  -0.210  -5.585  0.00  0.00     0.344 A 
ATOM     14  C   LIG d   1      10.382   1.221  -5.269  0.00  0.00     0.111 A 
ATOM     15  O   LIG d   1      11.219  -0.993  -4.985  0.00  0.00    -0.245 OA
ATOM     16  C   LIG d   1       9.478   1.787  -6.175  0.00  0.00     0.015 A 
ATOM     17  C   LIG d   1      10.971   2.030  -4.291  0.00  0.00     0.176 A 
ATOM     18  C   LIG d   1       9.171   3.124  -6.108  0.00  0.00    -0.050 A 
ATOM     19  C   LIG d   1       9.754   3.925  -5.139  0.00  0.00    -0.016 A 
ATOM     20  H   LIG d   1       8.472   3.551  -6.812  0.00  0.00     0.062 H 
ATOM     21  C   LIG d   1      10.651   3.384  -4.234  0.00  0.00     0.162 A 
ATOM     22  H   LIG d   1       9.509   4.975  -5.089  0.00  0.00     0.066 H 
BRANCH  21  23
ATOM     23  O   LIG d   1      11.221   4.176  -3.286  0.00  0.00    -0.491 OA
BRANCH  23  24
ATOM     24  C   LIG d   1      10.339   4.816  -2.361  0.00  0.00     0.079 C 
ATOM     25  H   LIG d   1       9.330   4.830  -2.772  0.00  0.00     0.066 H 
ATOM     26  H   LIG d   1      10.340   4.267  -1.419  0.00  0.00     0.066 H 
ATOM     27  H   LIG d   1      10.675   5.838  -2.187  0.00  0.00     0.066 H 
ENDBRANCH  23  24
ENDBRANCH  21  23
BRANCH  17  28
ATOM     28  O   LIG d   1      11.851   1.499  -3.403  0.00  0.00    -0.491 OA
BRANCH  28  29
ATOM     29  C   LIG d   1      13.233   1.524  -3.765  0.00  0.00     0.079 C 
ATOM     30  H   LIG d   1      13.401   2.305  -4.507  0.00  0.00     0.066 H 
ATOM     31  H   LIG d   1      13.836   1.727  -2.880  0.00  0.00     0.066 H 
ATOM     32  H   LIG d   1      13.516   0.558  -4.184  0.00  0.00     0.066 H 
ENDBRANCH  28  29
ENDBRANCH  17  28
ENDBRANCH   3  10
BRANCH   2  33
ATOM     33  O   LIG d   1       7.797  -0.439  -4.812  0.00  0.00    -0.493 OA
ATOM     34  H   LIG d   1       8.519   0.179  -4.634  0.00  0.00     0.294 HD
ENDBRANCH   2  33
BRANCH   1  35
ATOM     35  C   LIG d   1       5.078  -0.798  -4.599  0.00  0.00     0.093 A 
ATOM     36  C   LIG d   1       4.980  -2.180  -4.467  0.00  0.00     0.144 A 
ATOM     37  C   LIG d   1       4.421  -2.726  -3.322  0.00  0.00    -0.018 A 
ATOM     38  C   LIG d   1       3.964  -1.898  -2.314  0.00  0.00    -0.058 A 
ATOM     39  H   LIG d   1       4.349  -3.798  -3.215  0.00  0.00     0.066 H 
ATOM     40  C   LIG d   1       4.061  -0.525  -2.445  0.00  0.00    -0.060 A 
ATOM     41  H   LIG d   1       3.530  -2.325  -1.422  0.00  0.00     0.062 H 
ATOM     42  C   LIG d   1       4.616   0.027  -3.584  0.00  0.00    -0.034 A 
ATOM     43  H   LIG d   1       3.701   0.118  -1.655  0.00  0.00     0.062 H 
ATOM     44  H   LIG d   1       4.690   1.100  -3.683  0.00  0.00     0.064 H 
BRANCH  36  45
ATOM     45  O   LIG d   1       5.431  -2.994  -5.459  0.00  0.00    -0.493 OA
BRANCH  45  46
ATOM     46  C   LIG d   1       4.481  -3.879  -6.055  0.00  0.00     0.079 C 
ATOM     47  H   LIG d   1       5.006  -4.661  -6.603  0.00  0.00     0.066 H 
ATOM     48  H   LIG d   1       3.867  -4.331  -5.276  0.00  0.00     0.066 H 
ATOM     49  H   LIG d   1       3.843  -3.321  -6.740  0.00  0.00     0.066 H 
ENDBRANCH  45  46
ENDBRANCH  36  45
ENDBRANCH   1  35
TORSDOF 9
ENDMDL
MODEL 9
REMARK VINA RESULT:      -5.8      4.178      7.475
REMARK  9 active torsions:
REMARK  status: ('A' for Active; 'I' for Inactive)
REMARK    1  A    between atoms: C_1  and  O_2 
REMARK    2  A    between atoms: O_2  and  C_3 
REMARK    3  A    between atoms: C_8  and  N_9 
REMARK    4  A    between atoms: C_10  and  O_33 
REMARK    5  A    between atoms: C_11  and  C_18 
REMARK    6  A    between atoms: C_23  and  O_31 
REMARK    7  A    between atoms: C_24  and  O_29 
REMARK    8  A    between atoms: O_29  and  C_30 
REMARK    9  A    between atoms: O_31  and  C_32 
ROOT
ATOM      1  N   LIG d   1       5.614  -1.568  -5.193  0.00  0.00    -0.257 N 
ATOM      2  C   LIG d   1       6.653  -2.467  -5.162  0.00  0.00     0.212 A 
ATOM      3  C   LIG d   1       7.003  -3.126  -6.303  0.00  0.00     0.121 A 
ATOM      4  C   LIG d   1       6.290  -2.867  -7.488  0.00  0.00     0.263 A 
ATOM      5  O   LIG d   1       6.587  -3.444  -8.520  0.00  0.00    -0.267 OA
ATOM      6  N   LIG d   1       5.279  -1.977  -7.475  0.00  0.00    -0.302 N 
ATOM      7  H   LIG d   1       4.773  -1.789  -8.316  0.00  0.00     0.171 HD
ATOM      8  C   LIG d   1       4.943  -1.341  -6.337  0.00  0.00     0.168 A 
ATOM      9  S   LIG d   1       3.650  -0.221  -6.347  0.00  0.00    -0.012 SA
ENDROOT
BRANCH   3  10
ATOM     10  C   LIG d   1       8.139  -4.115  -6.295  0.00  0.00     0.164 A 
ATOM     11  H   LIG d   1       8.163  -4.665  -7.237  0.00  0.00     0.084 H 
ATOM     12  O   LIG d   1       7.990  -5.039  -5.181  0.00  0.00    -0.448 OA
ATOM     13  C   LIG d   1       9.056  -4.925  -4.372  0.00  0.00     0.344 A 
ATOM     14  C   LIG d   1       9.988  -3.915  -4.895  0.00  0.00     0.111 A 
ATOM     15  O   LIG d   1       9.225  -5.564  -3.353  0.00  0.00    -0.245 OA
ATOM     16  C   LIG d   1       9.449  -3.399  -6.080  0.00  0.00     0.015 A 
ATOM     17  C   LIG d   1      11.218  -3.433  -4.434  0.00  0.00     0.176 A 
ATOM     18  C   LIG d   1      10.120  -2.430  -6.785  0.00  0.00    -0.050 A 
ATOM     19  C   LIG d   1      11.338  -1.953  -6.328  0.00  0.00    -0.016 A 
ATOM     20  H   LIG d   1       9.696  -2.038  -7.698  0.00  0.00     0.062 H 
ATOM     21  C   LIG d   1      11.888  -2.450  -5.158  0.00  0.00     0.162 A 
ATOM     22  H   LIG d   1      11.861  -1.190  -6.885  0.00  0.00     0.066 H 
BRANCH  21  23
ATOM     23  O   LIG d   1      13.084  -1.978  -4.715  0.00  0.00    -0.491 OA
BRANCH  23  24
ATOM     24  C   LIG d   1      13.075  -0.715  -4.046  0.00  0.00     0.079 C 
ATOM     25  H   LIG d   1      13.111  -0.875  -2.968  0.00  0.00     0.066 H 
ATOM     26  H   LIG d   1      13.942  -0.133  -4.356  0.00  0.00     0.066 H 
ATOM     27  H   LIG d   1      12.164  -0.176  -4.302  0.00  0.00     0.066 H 
ENDBRANCH  23  24
ENDBRANCH  21  23
BRANCH  17  28
ATOM     28  O   LIG d   1      11.757  -3.920  -3.287  0.00  0.00    -0.491 OA
BRANCH  28  29
ATOM     29  C   LIG d   1      12.667  -5.015  -3.412  0.00  0.00     0.079 C 
ATOM     30  H   LIG d   1      12.111  -5.927  -3.633  0.00  0.00     0.066 H 
ATOM     31  H   LIG d   1      13.370  -4.813  -4.220  0.00  0.00     0.066 H 
ATOM     32  H   LIG d   1      13.214  -5.141  -2.477  0.00  0.00     0.066 H 
ENDBRANCH  28  29
ENDBRANCH  17  28
ENDBRANCH   3  10
BRANCH   2  33
ATOM     33  O   LIG d   1       7.321  -2.696  -4.012  0.00  0.00    -0.493 OA
ATOM     34  H   LIG d   1       6.823  -3.216  -3.365  0.00  0.00     0.294 HD
ENDBRANCH   2  33
BRANCH   1  35
ATOM     35  C   LIG d   1       5.248  -0.888  -4.023  0.00  0.00     0.093 A 
ATOM     36  C   LIG d   1       5.788   0.365  -3.747  0.00  0.00     0.144 A 
ATOM     37  C   LIG d   1       5.424   1.034  -2.588  0.00  0.00    -0.018 A 
ATOM     38  C   LIG d   1       4.526   0.456  -1.711  0.00  0.00    -0.058 A 
ATOM     39  H   LIG d   1       5.837   2.008  -2.374  0.00  0.00     0.066 H 
ATOM     40  C   LIG d   1       3.990  -0.790  -1.984  0.00  0.00    -0.060 A 
ATOM     41  H   LIG d   1       4.243   0.978  -0.808  0.00  0.00     0.062 H 
ATOM     42  C   LIG d   1       4.348  -1.462  -3.137  0.00  0.00    -0.034 A 
ATOM     43  H   LIG d   1       3.289  -1.237  -1.295  0.00  0.00     0.062 H 
ATOM     44  H   LIG d   1       3.928  -2.435  -3.348  0.00  0.00     0.064 H 
BRANCH  36  45
ATOM     45  O   LIG d   1       6.671   0.933  -4.612  0.00  0.00    -0.493 OA
BRANCH  45  46
ATOM     46  C   LIG d   1       7.766   1.653  -4.042  0.00  0.00     0.079 C 
ATOM     47  H   LIG d   1       8.266   2.230  -4.820  0.00  0.00     0.066 H 
ATOM     48  H   LIG d   1       7.395   2.328  -3.271  0.00  0.00     0.066 H 
ATOM     49  H   LIG d   1       8.472   0.951  -3.600  0.00  0.00     0.066 H 
ENDBRANCH  45  46
ENDBRANCH  36  45
ENDBRANCH   1  35
TORSDOF 9
ENDMDL
