MODEL 1
REMARK VINA RESULT:      -6.9      0.000      0.000
REMARK  7 active torsions:
REMARK  status: ('A' for Active; 'I' for Inactive)
REMARK    1  A    between atoms: C_1  and  C_2 
REMARK    2  A    between atoms: C_4  and  C_28 
REMARK    3  A    between atoms: C_8  and  C_13 
REMARK    4  A    between atoms: C_13  and  N_14 
REMARK    5  A    between atoms: N_17  and  C_20 
REMARK    6  A    between atoms: C_20  and  C_21 
REMARK    7  A    between atoms: C_21  and  C_22 
ROOT
ATOM      1  N   LIG d   1       5.907  -6.711  -5.452  0.00  0.00    -0.296 N 
ATOM      2  C   LIG d   1       7.021  -5.769  -5.623  0.00  0.00     0.012 C 
ATOM      3  C   LIG d   1       6.611  -4.394  -5.088  0.00  0.00     0.012 C 
ATOM      4  N   LIG d   1       5.415  -3.930  -5.807  0.00  0.00    -0.300 N 
ATOM      5  C   LIG d   1       4.301  -4.873  -5.636  0.00  0.00     0.012 C 
ATOM      6  C   LIG d   1       4.713  -6.247  -6.171  0.00  0.00     0.012 C 
ATOM      7  H   LIG d   1       7.890  -6.128  -5.072  0.00  0.00     0.044 H 
ATOM      8  H   LIG d   1       7.270  -5.688  -6.681  0.00  0.00     0.044 H 
ATOM      9  H   LIG d   1       6.388  -4.471  -4.024  0.00  0.00     0.044 H 
ATOM     10  H   LIG d   1       7.425  -3.687  -5.241  0.00  0.00     0.044 H 
ATOM     11  H   LIG d   1       4.053  -4.954  -4.578  0.00  0.00     0.044 H 
ATOM     12  H   LIG d   1       3.433  -4.513  -6.188  0.00  0.00     0.044 H 
ATOM     13  H   LIG d   1       4.936  -6.171  -7.236  0.00  0.00     0.044 H 
ATOM     14  H   LIG d   1       3.898  -6.955  -6.019  0.00  0.00     0.044 H 
ENDROOT
BRANCH   1  15
ATOM     15  C   LIG d   1       6.290  -8.062  -5.885  0.00  0.00     0.025 C 
ATOM     16  H   LIG d   1       7.376  -8.133  -5.935  0.00  0.00     0.048 H 
ATOM     17  H   LIG d   1       5.868  -8.261  -6.871  0.00  0.00     0.048 H 
BRANCH  15  18
ATOM     18  C   LIG d   1       5.764  -9.074  -4.901  0.00  0.00    -0.016 A 
ATOM     19  C   LIG d   1       6.497  -9.376  -3.667  0.00  0.00     0.022 A 
ATOM     20  C   LIG d   1       5.969 -10.326  -2.775  0.00  0.00     0.142 A 
ATOM     21  C   LIG d   1       7.700  -8.731  -3.367  0.00  0.00    -0.048 A 
ATOM     22  C   LIG d   1       6.657 -10.617  -1.605  0.00  0.00    -0.007 A 
ATOM     23  O   LIG d   1       4.804 -10.944  -3.064  0.00  0.00    -0.422 OA
ATOM     24  C   LIG d   1       7.846  -9.974  -1.330  0.00  0.00    -0.052 A 
ATOM     25  C   LIG d   1       8.364  -9.037  -2.212  0.00  0.00    -0.049 A 
ATOM     26  H   LIG d   1       8.380 -10.203  -0.420  0.00  0.00     0.062 H 
ATOM     27  C   LIG d   1       4.128 -10.674  -4.191  0.00  0.00     0.338 A 
ATOM     28  C   LIG d   1       4.599  -9.730  -5.130  0.00  0.00     0.028 A 
ATOM     29  O   LIG d   1       3.081 -11.255  -4.409  0.00  0.00    -0.245 OA
ATOM     30  H   LIG d   1       4.033  -9.532  -6.028  0.00  0.00     0.069 H 
ATOM     31  H   LIG d   1       8.107  -7.997  -4.048  0.00  0.00     0.063 H 
BRANCH  22  32
ATOM     32  C   LIG d   1       6.108 -11.634  -0.638  0.00  0.00    -0.036 C 
ATOM     33  H   LIG d   1       6.931 -12.127  -0.121  0.00  0.00     0.028 H 
ATOM     34  H   LIG d   1       5.469 -11.134   0.091  0.00  0.00     0.028 H 
ATOM     35  H   LIG d   1       5.525 -12.376  -1.183  0.00  0.00     0.028 H 
ENDBRANCH  22  32
BRANCH  25  36
ATOM     36  C   LIG d   1       9.665  -8.346  -1.891  0.00  0.00    -0.040 C 
ATOM     37  H   LIG d   1       9.928  -8.534  -0.851  0.00  0.00     0.028 H 
ATOM     38  H   LIG d   1      10.451  -8.730  -2.541  0.00  0.00     0.028 H 
ATOM     39  H   LIG d   1       9.554  -7.273  -2.050  0.00  0.00     0.028 H 
ENDBRANCH  25  36
ENDBRANCH  15  18
ENDBRANCH   1  15
BRANCH   4  40
ATOM     40  C   LIG d   1       5.033  -2.580  -5.373  0.00  0.00     0.003 C 
ATOM     41  H   LIG d   1       5.851  -1.888  -5.577  0.00  0.00     0.043 H 
ATOM     42  H   LIG d   1       4.144  -2.262  -5.916  0.00  0.00     0.043 H 
BRANCH  40  43
ATOM     43  C   LIG d   1       4.738  -2.591  -3.872  0.00  0.00    -0.015 C 
ATOM     44  H   LIG d   1       3.697  -2.870  -3.708  0.00  0.00     0.033 H 
ATOM     45  H   LIG d   1       5.390  -3.311  -3.378  0.00  0.00     0.033 H 
BRANCH  43  46
ATOM     46  C   LIG d   1       4.984  -1.217  -3.301  0.00  0.00    -0.043 A 
ATOM     47  C   LIG d   1       5.985  -0.406  -3.810  0.00  0.00    -0.040 A 
ATOM     48  C   LIG d   1       6.177   0.850  -3.265  0.00  0.00     0.028 A 
ATOM     49  H   LIG d   1       6.606  -0.748  -4.626  0.00  0.00     0.064 H 
ATOM     50  N   LIG d   1       5.428   1.272  -2.267  0.00  0.00    -0.263 NA
ATOM     51  H   LIG d   1       6.952   1.490  -3.660  0.00  0.00     0.083 H 
ATOM     52  C   LIG d   1       4.470   0.526  -1.752  0.00  0.00     0.028 A 
ATOM     53  C   LIG d   1       4.216  -0.738  -2.250  0.00  0.00    -0.040 A 
ATOM     54  H   LIG d   1       3.877   0.906  -0.934  0.00  0.00     0.083 H 
ATOM     55  H   LIG d   1       3.430  -1.345  -1.826  0.00  0.00     0.064 H 
ENDBRANCH  43  46
ENDBRANCH  40  43
ENDBRANCH   4  40
TORSDOF 7
ENDMDL
MODEL 2
REMARK VINA RESULT:      -6.5      1.698      2.556
REMARK  7 active torsions:
REMARK  status: ('A' for Active; 'I' for Inactive)
REMARK    1  A    between atoms: C_1  and  C_2 
REMARK    2  A    between atoms: C_4  and  C_28 
REMARK    3  A    between atoms: C_8  and  C_13 
REMARK    4  A    between atoms: C_13  and  N_14 
REMARK    5  A    between atoms: N_17  and  C_20 
REMARK    6  A    between atoms: C_20  and  C_21 
REMARK    7  A    between atoms: C_21  and  C_22 
ROOT
ATOM      1  N   LIG d   1       7.482  -5.445  -5.247  0.00  0.00    -0.296 N 
ATOM      2  C   LIG d   1       8.589  -4.817  -4.514  0.00  0.00     0.012 C 
ATOM      3  C   LIG d   1       8.145  -3.445  -4.000  0.00  0.00     0.012 C 
ATOM      4  N   LIG d   1       7.728  -2.611  -5.137  0.00  0.00    -0.300 N 
ATOM      5  C   LIG d   1       6.621  -3.240  -5.871  0.00  0.00     0.012 C 
ATOM      6  C   LIG d   1       7.067  -4.612  -6.384  0.00  0.00     0.012 C 
ATOM      7  H   LIG d   1       8.871  -5.447  -3.670  0.00  0.00     0.044 H 
ATOM      8  H   LIG d   1       9.445  -4.697  -5.179  0.00  0.00     0.044 H 
ATOM      9  H   LIG d   1       7.307  -3.568  -3.314  0.00  0.00     0.044 H 
ATOM     10  H   LIG d   1       8.973  -2.965  -3.482  0.00  0.00     0.044 H 
ATOM     11  H   LIG d   1       5.767  -3.361  -5.206  0.00  0.00     0.044 H 
ATOM     12  H   LIG d   1       6.341  -2.610  -6.715  0.00  0.00     0.044 H 
ATOM     13  H   LIG d   1       7.905  -4.489  -7.070  0.00  0.00     0.044 H 
ATOM     14  H   LIG d   1       6.237  -5.092  -6.904  0.00  0.00     0.044 H 
ENDROOT
BRANCH   1  15
ATOM     15  C   LIG d   1       7.846  -6.797  -5.692  0.00  0.00     0.025 C 
ATOM     16  H   LIG d   1       8.576  -7.222  -5.002  0.00  0.00     0.048 H 
ATOM     17  H   LIG d   1       8.278  -6.747  -6.692  0.00  0.00     0.048 H 
BRANCH  15  18
ATOM     18  C   LIG d   1       6.616  -7.666  -5.718  0.00  0.00    -0.016 A 
ATOM     19  C   LIG d   1       6.340  -8.616  -4.636  0.00  0.00     0.022 A 
ATOM     20  C   LIG d   1       5.179  -9.406  -4.701  0.00  0.00     0.142 A 
ATOM     21  C   LIG d   1       7.208  -8.739  -3.547  0.00  0.00    -0.048 A 
ATOM     22  C   LIG d   1       4.912 -10.309  -3.680  0.00  0.00    -0.007 A 
ATOM     23  O   LIG d   1       4.340  -9.282  -5.751  0.00  0.00    -0.422 OA
ATOM     24  C   LIG d   1       5.784 -10.419  -2.617  0.00  0.00    -0.052 A 
ATOM     25  C   LIG d   1       6.928  -9.638  -2.556  0.00  0.00    -0.049 A 
ATOM     26  H   LIG d   1       5.573 -11.122  -1.824  0.00  0.00     0.062 H 
ATOM     27  C   LIG d   1       4.585  -8.415  -6.746  0.00  0.00     0.338 A 
ATOM     28  C   LIG d   1       5.730  -7.591  -6.744  0.00  0.00     0.028 A 
ATOM     29  O   LIG d   1       3.799  -8.338  -7.672  0.00  0.00    -0.245 OA
ATOM     30  H   LIG d   1       5.903  -6.901  -7.558  0.00  0.00     0.069 H 
ATOM     31  H   LIG d   1       8.099  -8.131  -3.492  0.00  0.00     0.063 H 
BRANCH  22  32
ATOM     32  C   LIG d   1       3.673 -11.165  -3.733  0.00  0.00    -0.036 C 
ATOM     33  H   LIG d   1       3.104 -11.039  -2.812  0.00  0.00     0.028 H 
ATOM     34  H   LIG d   1       3.060 -10.864  -4.583  0.00  0.00     0.028 H 
ATOM     35  H   LIG d   1       3.958 -12.211  -3.843  0.00  0.00     0.028 H 
ENDBRANCH  22  32
BRANCH  25  36
ATOM     36  C   LIG d   1       7.866  -9.775  -1.384  0.00  0.00    -0.040 C 
ATOM     37  H   LIG d   1       7.491  -9.187  -0.547  0.00  0.00     0.028 H 
ATOM     38  H   LIG d   1       7.931 -10.823  -1.091  0.00  0.00     0.028 H 
ATOM     39  H   LIG d   1       8.856  -9.415  -1.667  0.00  0.00     0.028 H 
ENDBRANCH  25  36
ENDBRANCH  15  18
ENDBRANCH   1  15
BRANCH   4  40
ATOM     40  C   LIG d   1       7.365  -1.260  -4.692  0.00  0.00     0.003 C 
ATOM     41  H   LIG d   1       8.200  -0.582  -4.867  0.00  0.00     0.043 H 
ATOM     42  H   LIG d   1       6.494  -0.915  -5.250  0.00  0.00     0.043 H 
BRANCH  40  43
ATOM     43  C   LIG d   1       7.034  -1.287  -3.198  0.00  0.00    -0.015 C 
ATOM     44  H   LIG d   1       7.141  -2.304  -2.820  0.00  0.00     0.033 H 
ATOM     45  H   LIG d   1       7.716  -0.627  -2.663  0.00  0.00     0.033 H 
BRANCH  43  46
ATOM     46  C   LIG d   1       5.616  -0.821  -2.989  0.00  0.00    -0.043 A 
ATOM     47  C   LIG d   1       4.551  -1.694  -3.145  0.00  0.00    -0.040 A 
ATOM     48  C   LIG d   1       3.265  -1.232  -2.939  0.00  0.00     0.028 A 
ATOM     49  H   LIG d   1       4.724  -2.724  -3.419  0.00  0.00     0.064 H 
ATOM     50  N   LIG d   1       3.045   0.025  -2.609  0.00  0.00    -0.263 NA
ATOM     51  H   LIG d   1       2.430  -1.907  -3.053  0.00  0.00     0.083 H 
ATOM     52  C   LIG d   1       4.033   0.887  -2.458  0.00  0.00     0.028 A 
ATOM     53  C   LIG d   1       5.345   0.494  -2.642  0.00  0.00    -0.040 A 
ATOM     54  H   LIG d   1       3.814   1.909  -2.188  0.00  0.00     0.083 H 
ATOM     55  H   LIG d   1       6.150   1.204  -2.516  0.00  0.00     0.064 H 
ENDBRANCH  43  46
ENDBRANCH  40  43
ENDBRANCH   4  40
TORSDOF 7
ENDMDL
MODEL 3
REMARK VINA RESULT:      -6.4      8.103     13.084
REMARK  7 active torsions:
REMARK  status: ('A' for Active; 'I' for Inactive)
REMARK    1  A    between atoms: C_1  and  C_2 
REMARK    2  A    between atoms: C_4  and  C_28 
REMARK    3  A    between atoms: C_8  and  C_13 
REMARK    4  A    between atoms: C_13  and  N_14 
REMARK    5  A    between atoms: N_17  and  C_20 
REMARK    6  A    between atoms: C_20  and  C_21 
REMARK    7  A    between atoms: C_21  and  C_22 
ROOT
ATOM      1  N   LIG d   1       9.611   3.348  -4.628  0.00  0.00    -0.296 N 
ATOM      2  C   LIG d   1       9.855   2.515  -5.813  0.00  0.00     0.012 C 
ATOM      3  C   LIG d   1       8.584   1.730  -6.152  0.00  0.00     0.012 C 
ATOM      4  N   LIG d   1       8.201   0.903  -4.999  0.00  0.00    -0.300 N 
ATOM      5  C   LIG d   1       7.958   1.737  -3.814  0.00  0.00     0.012 C 
ATOM      6  C   LIG d   1       9.228   2.521  -3.476  0.00  0.00     0.012 C 
ATOM      7  H   LIG d   1      10.124   3.151  -6.656  0.00  0.00     0.044 H 
ATOM      8  H   LIG d   1      10.668   1.819  -5.608  0.00  0.00     0.044 H 
ATOM      9  H   LIG d   1       7.779   2.426  -6.384  0.00  0.00     0.044 H 
ATOM     10  H   LIG d   1       8.772   1.090  -7.013  0.00  0.00     0.044 H 
ATOM     11  H   LIG d   1       7.145   2.433  -4.019  0.00  0.00     0.044 H 
ATOM     12  H   LIG d   1       7.689   1.100  -2.971  0.00  0.00     0.044 H 
ATOM     13  H   LIG d   1      10.035   1.825  -3.244  0.00  0.00     0.044 H 
ATOM     14  H   LIG d   1       9.041   3.162  -2.614  0.00  0.00     0.044 H 
ENDROOT
BRANCH   1  15
ATOM     15  C   LIG d   1      10.785   4.175  -4.316  0.00  0.00     0.025 C 
ATOM     16  H   LIG d   1      11.521   4.074  -5.112  0.00  0.00     0.048 H 
ATOM     17  H   LIG d   1      11.222   3.844  -3.373  0.00  0.00     0.048 H 
BRANCH  15  18
ATOM     18  C   LIG d   1      10.367   5.617  -4.197  0.00  0.00    -0.016 A 
ATOM     19  C   LIG d   1      10.361   6.296  -2.897  0.00  0.00     0.022 A 
ATOM     20  C   LIG d   1       9.966   7.643  -2.832  0.00  0.00     0.142 A 
ATOM     21  C   LIG d   1      10.747   5.624  -1.733  0.00  0.00    -0.048 A 
ATOM     22  C   LIG d   1       9.957   8.292  -1.604  0.00  0.00    -0.007 A 
ATOM     23  O   LIG d   1       9.598   8.290  -3.958  0.00  0.00    -0.422 OA
ATOM     24  C   LIG d   1      10.336   7.611  -0.466  0.00  0.00    -0.052 A 
ATOM     25  C   LIG d   1      10.726   6.281  -0.534  0.00  0.00    -0.049 A 
ATOM     26  H   LIG d   1      10.328   8.118   0.487  0.00  0.00     0.062 H 
ATOM     27  C   LIG d   1       9.601   7.677  -5.152  0.00  0.00     0.338 A 
ATOM     28  C   LIG d   1       9.987   6.326  -5.290  0.00  0.00     0.028 A 
ATOM     29  O   LIG d   1       9.262   8.301  -6.140  0.00  0.00    -0.245 OA
ATOM     30  H   LIG d   1       9.980   5.857  -6.263  0.00  0.00     0.069 H 
ATOM     31  H   LIG d   1      11.056   4.591  -1.779  0.00  0.00     0.063 H 
BRANCH  22  32
ATOM     32  C   LIG d   1       9.535   9.736  -1.515  0.00  0.00    -0.036 C 
ATOM     33  H   LIG d   1      10.403  10.354  -1.285  0.00  0.00     0.028 H 
ATOM     34  H   LIG d   1       9.108  10.049  -2.468  0.00  0.00     0.028 H 
ATOM     35  H   LIG d   1       8.790   9.849  -0.728  0.00  0.00     0.028 H 
ENDBRANCH  22  32
BRANCH  25  36
ATOM     36  C   LIG d   1      11.137   5.557   0.723  0.00  0.00    -0.040 C 
ATOM     37  H   LIG d   1      12.211   5.378   0.704  0.00  0.00     0.028 H 
ATOM     38  H   LIG d   1      10.885   6.166   1.591  0.00  0.00     0.028 H 
ATOM     39  H   LIG d   1      10.610   4.604   0.781  0.00  0.00     0.028 H 
ENDBRANCH  25  36
ENDBRANCH  15  18
ENDBRANCH   1  15
BRANCH   4  40
ATOM     40  C   LIG d   1       7.028   0.077  -5.312  0.00  0.00     0.003 C 
ATOM     41  H   LIG d   1       6.142   0.709  -5.366  0.00  0.00     0.043 H 
ATOM     42  H   LIG d   1       7.179  -0.421  -6.269  0.00  0.00     0.043 H 
BRANCH  40  43
ATOM     43  C   LIG d   1       6.837  -0.974  -4.216  0.00  0.00    -0.015 C 
ATOM     44  H   LIG d   1       7.122  -1.954  -4.598  0.00  0.00     0.033 H 
ATOM     45  H   LIG d   1       7.462  -0.723  -3.359  0.00  0.00     0.033 H 
BRANCH  43  46
ATOM     46  C   LIG d   1       5.391  -1.002  -3.792  0.00  0.00    -0.043 A 
ATOM     47  C   LIG d   1       4.962  -1.854  -2.788  0.00  0.00    -0.040 A 
ATOM     48  C   LIG d   1       3.629  -1.848  -2.422  0.00  0.00     0.028 A 
ATOM     49  H   LIG d   1       5.661  -2.513  -2.293  0.00  0.00     0.064 H 
ATOM     50  N   LIG d   1       2.769  -1.051  -3.025  0.00  0.00    -0.263 NA
ATOM     51  H   LIG d   1       3.287  -2.505  -1.637  0.00  0.00     0.083 H 
ATOM     52  C   LIG d   1       3.139  -0.231  -3.989  0.00  0.00     0.028 A 
ATOM     53  C   LIG d   1       4.457  -0.179  -4.403  0.00  0.00    -0.040 A 
ATOM     54  H   LIG d   1       2.406   0.406  -4.460  0.00  0.00     0.083 H 
ATOM     55  H   LIG d   1       4.755   0.496  -5.193  0.00  0.00     0.064 H 
ENDBRANCH  43  46
ENDBRANCH  40  43
ENDBRANCH   4  40
TORSDOF 7
ENDMDL
MODEL 4
REMARK VINA RESULT:      -6.2      7.953     13.773
REMARK  7 active torsions:
REMARK  status: ('A' for Active; 'I' for Inactive)
REMARK    1  A    between atoms: C_1  and  C_2 
REMARK    2  A    between atoms: C_4  and  C_28 
REMARK    3  A    between atoms: C_8  and  C_13 
REMARK    4  A    between atoms: C_13  and  N_14 
REMARK    5  A    between atoms: N_17  and  C_20 
REMARK    6  A    between atoms: C_20  and  C_21 
REMARK    7  A    between atoms: C_21  and  C_22 
ROOT
ATOM      1  N   LIG d   1       9.928   3.642  -4.905  0.00  0.00    -0.296 N 
ATOM      2  C   LIG d   1       9.733   2.811  -6.100  0.00  0.00     0.012 C 
ATOM      3  C   LIG d   1       8.419   2.035  -5.971  0.00  0.00     0.012 C 
ATOM      4  N   LIG d   1       8.461   1.207  -4.757  0.00  0.00    -0.300 N 
ATOM      5  C   LIG d   1       8.658   2.038  -3.562  0.00  0.00     0.012 C 
ATOM      6  C   LIG d   1       9.971   2.813  -3.693  0.00  0.00     0.012 C 
ATOM      7  H   LIG d   1       9.692   3.448  -6.985  0.00  0.00     0.044 H 
ATOM      8  H   LIG d   1      10.561   2.110  -6.197  0.00  0.00     0.044 H 
ATOM      9  H   LIG d   1       7.588   2.737  -5.903  0.00  0.00     0.044 H 
ATOM     10  H   LIG d   1       8.286   1.396  -6.843  0.00  0.00     0.044 H 
ATOM     11  H   LIG d   1       7.830   2.740  -3.466  0.00  0.00     0.044 H 
ATOM     12  H   LIG d   1       8.699   1.401  -2.679  0.00  0.00     0.044 H 
ATOM     13  H   LIG d   1      10.803   2.112  -3.761  0.00  0.00     0.044 H 
ATOM     14  H   LIG d   1      10.104   3.453  -2.819  0.00  0.00     0.044 H 
ENDROOT
BRANCH   1  15
ATOM     15  C   LIG d   1      11.142   4.460  -5.027  0.00  0.00     0.025 C 
ATOM     16  H   LIG d   1      11.435   4.523  -6.075  0.00  0.00     0.048 H 
ATOM     17  H   LIG d   1      11.948   4.002  -4.452  0.00  0.00     0.048 H 
BRANCH  15  18
ATOM     18  C   LIG d   1      10.872   5.844  -4.497  0.00  0.00    -0.016 A 
ATOM     19  C   LIG d   1      10.317   6.888  -5.364  0.00  0.00     0.022 A 
ATOM     20  C   LIG d   1      10.079   8.165  -4.828  0.00  0.00     0.142 A 
ATOM     21  C   LIG d   1      10.021   6.628  -6.706  0.00  0.00    -0.048 A 
ATOM     22  C   LIG d   1       9.554   9.160  -5.644  0.00  0.00    -0.007 A 
ATOM     23  O   LIG d   1      10.361   8.413  -3.531  0.00  0.00    -0.422 OA
ATOM     24  C   LIG d   1       9.274   8.884  -6.966  0.00  0.00    -0.052 A 
ATOM     25  C   LIG d   1       9.510   7.623  -7.492  0.00  0.00    -0.049 A 
ATOM     26  H   LIG d   1       8.866   9.660  -7.598  0.00  0.00     0.062 H 
ATOM     27  C   LIG d   1      10.869   7.463  -2.731  0.00  0.00     0.338 A 
ATOM     28  C   LIG d   1      11.132   6.159  -3.203  0.00  0.00     0.028 A 
ATOM     29  O   LIG d   1      11.107   7.733  -1.568  0.00  0.00    -0.245 OA
ATOM     30  H   LIG d   1      11.540   5.414  -2.536  0.00  0.00     0.069 H 
ATOM     31  H   LIG d   1      10.199   5.647  -7.120  0.00  0.00     0.063 H 
BRANCH  22  32
ATOM     32  C   LIG d   1       9.293  10.535  -5.086  0.00  0.00    -0.036 C 
ATOM     33  H   LIG d   1       8.764  10.448  -4.138  0.00  0.00     0.028 H 
ATOM     34  H   LIG d   1      10.241  11.049  -4.928  0.00  0.00     0.028 H 
ATOM     35  H   LIG d   1       8.685  11.103  -5.791  0.00  0.00     0.028 H 
ENDBRANCH  22  32
BRANCH  25  36
ATOM     36  C   LIG d   1       9.195   7.345  -8.940  0.00  0.00    -0.040 C 
ATOM     37  H   LIG d   1       8.364   7.974  -9.258  0.00  0.00     0.028 H 
ATOM     38  H   LIG d   1      10.071   7.562  -9.550  0.00  0.00     0.028 H 
ATOM     39  H   LIG d   1       8.922   6.296  -9.056  0.00  0.00     0.028 H 
ENDBRANCH  25  36
ENDBRANCH  15  18
ENDBRANCH   1  15
BRANCH   4  40
ATOM     40  C   LIG d   1       7.247   0.389  -4.636  0.00  0.00     0.003 C 
ATOM     41  H   LIG d   1       6.639   0.507  -5.533  0.00  0.00     0.043 H 
ATOM     42  H   LIG d   1       7.525  -0.658  -4.520  0.00  0.00     0.043 H 
BRANCH  40  43
ATOM     43  C   LIG d   1       6.447   0.843  -3.414  0.00  0.00    -0.015 C 
ATOM     44  H   LIG d   1       7.085   0.813  -2.529  0.00  0.00     0.033 H 
ATOM     45  H   LIG d   1       6.090   1.860  -3.569  0.00  0.00     0.033 H 
BRANCH  43  46
ATOM     46  C   LIG d   1       5.270  -0.078  -3.214  0.00  0.00    -0.043 A 
ATOM     47  C   LIG d   1       5.427  -1.453  -3.272  0.00  0.00    -0.040 A 
ATOM     48  C   LIG d   1       4.325  -2.265  -3.078  0.00  0.00     0.028 A 
ATOM     49  H   LIG d   1       6.398  -1.886  -3.461  0.00  0.00     0.064 H 
ATOM     50  N   LIG d   1       3.136  -1.745  -2.851  0.00  0.00    -0.263 NA
ATOM     51  H   LIG d   1       4.440  -3.339  -3.115  0.00  0.00     0.083 H 
ATOM     52  C   LIG d   1       2.947  -0.441  -2.796  0.00  0.00     0.028 A 
ATOM     53  C   LIG d   1       4.003   0.433  -2.975  0.00  0.00    -0.040 A 
ATOM     54  H   LIG d   1       1.958  -0.052  -2.609  0.00  0.00     0.083 H 
ATOM     55  H   LIG d   1       3.843   1.500  -2.928  0.00  0.00     0.064 H 
ENDBRANCH  43  46
ENDBRANCH  40  43
ENDBRANCH   4  40
TORSDOF 7
ENDMDL
MODEL 5
REMARK VINA RESULT:      -6.2      8.191     14.071
REMARK  7 active torsions:
REMARK  status: ('A' for Active; 'I' for Inactive)
REMARK    1  A    between atoms: C_1  and  C_2 
REMARK    2  A    between atoms: C_4  and  C_28 
REMARK    3  A    between atoms: C_8  and  C_13 
REMARK    4  A    between atoms: C_13  and  N_14 
REMARK    5  A    between atoms: N_17  and  C_20 
REMARK    6  A    between atoms: C_20  and  C_21 
REMARK    7  A    between atoms: C_21  and  C_22 
ROOT
ATOM      1  N   LIG d   1      10.457   4.318  -3.329  0.00  0.00    -0.296 N 
ATOM      2  C   LIG d   1      10.040   4.537  -4.720  0.00  0.00     0.012 C 
ATOM      3  C   LIG d   1       8.769   3.731  -5.002  0.00  0.00     0.012 C 
ATOM      4  N   LIG d   1       9.030   2.307  -4.751  0.00  0.00    -0.300 N 
ATOM      5  C   LIG d   1       9.448   2.088  -3.360  0.00  0.00     0.012 C 
ATOM      6  C   LIG d   1      10.719   2.894  -3.079  0.00  0.00     0.012 C 
ATOM      7  H   LIG d   1       9.840   5.597  -4.878  0.00  0.00     0.044 H 
ATOM      8  H   LIG d   1      10.833   4.213  -5.394  0.00  0.00     0.044 H 
ATOM      9  H   LIG d   1       7.969   4.075  -4.347  0.00  0.00     0.044 H 
ATOM     10  H   LIG d   1       8.474   3.869  -6.042  0.00  0.00     0.044 H 
ATOM     11  H   LIG d   1       8.655   2.413  -2.686  0.00  0.00     0.044 H 
ATOM     12  H   LIG d   1       9.648   1.028  -3.203  0.00  0.00     0.044 H 
ATOM     13  H   LIG d   1      11.520   2.551  -3.734  0.00  0.00     0.044 H 
ATOM     14  H   LIG d   1      11.014   2.756  -2.038  0.00  0.00     0.044 H 
ENDROOT
BRANCH   1  15
ATOM     15  C   LIG d   1      11.632   5.135  -2.998  0.00  0.00     0.025 C 
ATOM     16  H   LIG d   1      11.893   5.759  -3.852  0.00  0.00     0.048 H 
ATOM     17  H   LIG d   1      12.472   4.483  -2.755  0.00  0.00     0.048 H 
BRANCH  15  18
ATOM     18  C   LIG d   1      11.318   6.011  -1.813  0.00  0.00    -0.016 A 
ATOM     19  C   LIG d   1      10.838   7.384  -1.997  0.00  0.00     0.022 A 
ATOM     20  C   LIG d   1      10.555   8.166  -0.864  0.00  0.00     0.142 A 
ATOM     21  C   LIG d   1      10.654   7.918  -3.277  0.00  0.00    -0.048 A 
ATOM     22  C   LIG d   1      10.101   9.468  -1.031  0.00  0.00    -0.007 A 
ATOM     23  O   LIG d   1      10.729   7.647   0.370  0.00  0.00    -0.422 OA
ATOM     24  C   LIG d   1       9.931   9.977  -2.301  0.00  0.00    -0.052 A 
ATOM     25  C   LIG d   1      10.211   9.203  -3.418  0.00  0.00    -0.049 A 
ATOM     26  H   LIG d   1       9.578  10.990  -2.428  0.00  0.00     0.062 H 
ATOM     27  C   LIG d   1      11.168   6.392   0.548  0.00  0.00     0.338 A 
ATOM     28  C   LIG d   1      11.470   5.551  -0.545  0.00  0.00     0.028 A 
ATOM     29  O   LIG d   1      11.309   5.967   1.680  0.00  0.00    -0.245 OA
ATOM     30  H   LIG d   1      11.821   4.544  -0.374  0.00  0.00     0.069 H 
ATOM     31  H   LIG d   1      10.866   7.319  -4.150  0.00  0.00     0.063 H 
BRANCH  22  32
ATOM     32  C   LIG d   1       9.794  10.321   0.173  0.00  0.00    -0.036 C 
ATOM     33  H   LIG d   1       9.770   9.696   1.065  0.00  0.00     0.028 H 
ATOM     34  H   LIG d   1      10.565  11.084   0.284  0.00  0.00     0.028 H 
ATOM     35  H   LIG d   1       8.824  10.802   0.040  0.00  0.00     0.028 H 
ENDBRANCH  22  32
BRANCH  25  36
ATOM     36  C   LIG d   1      10.017   9.781  -4.796  0.00  0.00    -0.040 C 
ATOM     37  H   LIG d   1      10.744   9.343  -5.479  0.00  0.00     0.028 H 
ATOM     38  H   LIG d   1       9.009   9.558  -5.145  0.00  0.00     0.028 H 
ATOM     39  H   LIG d   1      10.158  10.862  -4.759  0.00  0.00     0.028 H 
ENDBRANCH  25  36
ENDBRANCH  15  18
ENDBRANCH   1  15
BRANCH   4  40
ATOM     40  C   LIG d   1       7.855   1.491  -5.082  0.00  0.00     0.003 C 
ATOM     41  H   LIG d   1       6.948   2.047  -4.847  0.00  0.00     0.043 H 
ATOM     42  H   LIG d   1       7.869   1.249  -6.145  0.00  0.00     0.043 H 
BRANCH  40  43
ATOM     43  C   LIG d   1       7.886   0.197  -4.265  0.00  0.00    -0.015 C 
ATOM     44  H   LIG d   1       7.995  -0.655  -4.937  0.00  0.00     0.033 H 
ATOM     45  H   LIG d   1       8.727   0.224  -3.573  0.00  0.00     0.033 H 
BRANCH  43  46
ATOM     46  C   LIG d   1       6.601   0.063  -3.488  0.00  0.00    -0.043 A 
ATOM     47  C   LIG d   1       5.922   1.185  -3.041  0.00  0.00    -0.040 A 
ATOM     48  C   LIG d   1       4.743   1.022  -2.337  0.00  0.00     0.028 A 
ATOM     49  H   LIG d   1       6.305   2.174  -3.244  0.00  0.00     0.064 H 
ATOM     50  N   LIG d   1       4.272  -0.182  -2.081  0.00  0.00    -0.263 NA
ATOM     51  H   LIG d   1       4.204   1.891  -1.990  0.00  0.00     0.083 H 
ATOM     52  C   LIG d   1       4.895  -1.272  -2.485  0.00  0.00     0.028 A 
ATOM     53  C   LIG d   1       6.075  -1.187  -3.199  0.00  0.00    -0.040 A 
ATOM     54  H   LIG d   1       4.478  -2.241  -2.255  0.00  0.00     0.083 H 
ATOM     55  H   LIG d   1       6.580  -2.083  -3.528  0.00  0.00     0.064 H 
ENDBRANCH  43  46
ENDBRANCH  40  43
ENDBRANCH   4  40
TORSDOF 7
ENDMDL
MODEL 6
REMARK VINA RESULT:      -6.1      6.587     10.797
REMARK  7 active torsions:
REMARK  status: ('A' for Active; 'I' for Inactive)
REMARK    1  A    between atoms: C_1  and  C_2 
REMARK    2  A    between atoms: C_4  and  C_28 
REMARK    3  A    between atoms: C_8  and  C_13 
REMARK    4  A    between atoms: C_13  and  N_14 
REMARK    5  A    between atoms: N_17  and  C_20 
REMARK    6  A    between atoms: C_20  and  C_21 
REMARK    7  A    between atoms: C_21  and  C_22 
ROOT
ATOM      1  N   LIG d   1       9.704   3.565  -4.420  0.00  0.00    -0.296 N 
ATOM      2  C   LIG d   1       9.798   5.007  -4.678  0.00  0.00     0.012 C 
ATOM      3  C   LIG d   1      11.249   5.463  -4.495  0.00  0.00     0.012 C 
ATOM      4  N   LIG d   1      11.689   5.145  -3.130  0.00  0.00    -0.300 N 
ATOM      5  C   LIG d   1      11.595   3.702  -2.871  0.00  0.00     0.012 C 
ATOM      6  C   LIG d   1      10.145   3.248  -3.054  0.00  0.00     0.012 C 
ATOM      7  H   LIG d   1       9.479   5.216  -5.700  0.00  0.00     0.044 H 
ATOM      8  H   LIG d   1       9.157   5.545  -3.980  0.00  0.00     0.044 H 
ATOM      9  H   LIG d   1      11.885   4.945  -5.212  0.00  0.00     0.044 H 
ATOM     10  H   LIG d   1      11.315   6.538  -4.658  0.00  0.00     0.044 H 
ATOM     11  H   LIG d   1      12.235   3.164  -3.569  0.00  0.00     0.044 H 
ATOM     12  H   LIG d   1      11.914   3.494  -1.849  0.00  0.00     0.044 H 
ATOM     13  H   LIG d   1       9.507   3.765  -2.337  0.00  0.00     0.044 H 
ATOM     14  H   LIG d   1      10.078   2.171  -2.891  0.00  0.00     0.044 H 
ENDROOT
BRANCH   1  15
ATOM     15  C   LIG d   1       8.340   3.075  -4.660  0.00  0.00     0.025 C 
ATOM     16  H   LIG d   1       7.912   3.599  -5.514  0.00  0.00     0.048 H 
ATOM     17  H   LIG d   1       7.728   3.259  -3.776  0.00  0.00     0.048 H 
BRANCH  15  18
ATOM     18  C   LIG d   1       8.379   1.597  -4.945  0.00  0.00    -0.016 A 
ATOM     19  C   LIG d   1       7.446   0.677  -4.287  0.00  0.00     0.022 A 
ATOM     20  C   LIG d   1       7.516  -0.695  -4.584  0.00  0.00     0.142 A 
ATOM     21  C   LIG d   1       6.492   1.146  -3.379  0.00  0.00    -0.048 A 
ATOM     22  C   LIG d   1       6.636  -1.572  -3.964  0.00  0.00    -0.007 A 
ATOM     23  O   LIG d   1       8.436  -1.145  -5.465  0.00  0.00    -0.422 OA
ATOM     24  C   LIG d   1       5.706  -1.090  -3.067  0.00  0.00    -0.052 A 
ATOM     25  C   LIG d   1       5.639   0.265  -2.776  0.00  0.00    -0.049 A 
ATOM     26  H   LIG d   1       5.023  -1.775  -2.586  0.00  0.00     0.062 H 
ATOM     27  C   LIG d   1       9.293  -0.311  -6.072  0.00  0.00     0.338 A 
ATOM     28  C   LIG d   1       9.277   1.078  -5.821  0.00  0.00     0.028 A 
ATOM     29  O   LIG d   1      10.104  -0.763  -6.859  0.00  0.00    -0.245 OA
ATOM     30  H   LIG d   1       9.979   1.728  -6.324  0.00  0.00     0.069 H 
ATOM     31  H   LIG d   1       6.432   2.200  -3.152  0.00  0.00     0.063 H 
BRANCH  22  32
ATOM     32  C   LIG d   1       6.698  -3.047  -4.270  0.00  0.00    -0.036 C 
ATOM     33  H   LIG d   1       7.570  -3.483  -3.782  0.00  0.00     0.028 H 
ATOM     34  H   LIG d   1       5.794  -3.532  -3.900  0.00  0.00     0.028 H 
ATOM     35  H   LIG d   1       6.774  -3.192  -5.347  0.00  0.00     0.028 H 
ENDBRANCH  22  32
BRANCH  25  36
ATOM     36  C   LIG d   1       4.613   0.769  -1.794  0.00  0.00    -0.040 C 
ATOM     37  H   LIG d   1       5.117   1.249  -0.957  0.00  0.00     0.028 H 
ATOM     38  H   LIG d   1       3.960   1.488  -2.287  0.00  0.00     0.028 H 
ATOM     39  H   LIG d   1       4.019  -0.070  -1.428  0.00  0.00     0.028 H 
ENDBRANCH  25  36
ENDBRANCH  15  18
ENDBRANCH   1  15
BRANCH   4  40
ATOM     40  C   LIG d   1      13.053   5.635  -2.890  0.00  0.00     0.003 C 
ATOM     41  H   LIG d   1      13.737   5.170  -3.601  0.00  0.00     0.043 H 
ATOM     42  H   LIG d   1      13.078   6.717  -3.016  0.00  0.00     0.043 H 
BRANCH  40  43
ATOM     43  C   LIG d   1      13.480   5.278  -1.465  0.00  0.00    -0.015 C 
ATOM     44  H   LIG d   1      13.240   4.233  -1.264  0.00  0.00     0.033 H 
ATOM     45  H   LIG d   1      14.553   5.431  -1.357  0.00  0.00     0.033 H 
BRANCH  43  46
ATOM     46  C   LIG d   1      12.746   6.158  -0.485  0.00  0.00    -0.043 A 
ATOM     47  C   LIG d   1      11.769   5.634   0.345  0.00  0.00    -0.040 A 
ATOM     48  C   LIG d   1      11.122   6.471   1.235  0.00  0.00     0.028 A 
ATOM     49  H   LIG d   1      11.518   4.585   0.302  0.00  0.00     0.064 H 
ATOM     50  N   LIG d   1      11.418   7.755   1.290  0.00  0.00    -0.263 NA
ATOM     51  H   LIG d   1      10.362   6.071   1.890  0.00  0.00     0.083 H 
ATOM     52  C   LIG d   1      12.338   8.290   0.511  0.00  0.00     0.028 A 
ATOM     53  C   LIG d   1      13.030   7.513  -0.399  0.00  0.00    -0.040 A 
ATOM     54  H   LIG d   1      12.553   9.345   0.585  0.00  0.00     0.083 H 
ATOM     55  H   LIG d   1      13.783   7.956  -1.034  0.00  0.00     0.064 H 
ENDBRANCH  43  46
ENDBRANCH  40  43
ENDBRANCH   4  40
TORSDOF 7
ENDMDL
MODEL 7
REMARK VINA RESULT:      -5.9      8.218     13.959
REMARK  7 active torsions:
REMARK  status: ('A' for Active; 'I' for Inactive)
REMARK    1  A    between atoms: C_1  and  C_2 
REMARK    2  A    between atoms: C_4  and  C_28 
REMARK    3  A    between atoms: C_8  and  C_13 
REMARK    4  A    between atoms: C_13  and  N_14 
REMARK    5  A    between atoms: N_17  and  C_20 
REMARK    6  A    between atoms: C_20  and  C_21 
REMARK    7  A    between atoms: C_21  and  C_22 
ROOT
ATOM      1  N   LIG d   1       9.677   4.125  -5.502  0.00  0.00    -0.296 N 
ATOM      2  C   LIG d   1       9.781   3.064  -6.513  0.00  0.00     0.012 C 
ATOM      3  C   LIG d   1       8.566   2.138  -6.404  0.00  0.00     0.012 C 
ATOM      4  N   LIG d   1       8.509   1.569  -5.050  0.00  0.00    -0.300 N 
ATOM      5  C   LIG d   1       8.407   2.630  -4.039  0.00  0.00     0.012 C 
ATOM      6  C   LIG d   1       9.621   3.555  -4.149  0.00  0.00     0.012 C 
ATOM      7  H   LIG d   1       9.808   3.510  -7.508  0.00  0.00     0.044 H 
ATOM      8  H   LIG d   1      10.692   2.490  -6.347  0.00  0.00     0.044 H 
ATOM      9  H   LIG d   1       7.657   2.707  -6.597  0.00  0.00     0.044 H 
ATOM     10  H   LIG d   1       8.655   1.334  -7.133  0.00  0.00     0.044 H 
ATOM     11  H   LIG d   1       7.496   3.205  -4.206  0.00  0.00     0.044 H 
ATOM     12  H   LIG d   1       8.379   2.184  -3.045  0.00  0.00     0.044 H 
ATOM     13  H   LIG d   1      10.531   2.986  -3.956  0.00  0.00     0.044 H 
ATOM     14  H   LIG d   1       9.532   4.360  -3.419  0.00  0.00     0.044 H 
ENDROOT
BRANCH   1  15
ATOM     15  C   LIG d   1      10.788   5.079  -5.626  0.00  0.00     0.025 C 
ATOM     16  H   LIG d   1      11.433   4.780  -6.453  0.00  0.00     0.048 H 
ATOM     17  H   LIG d   1      11.365   5.087  -4.701  0.00  0.00     0.048 H 
BRANCH  15  18
ATOM     18  C   LIG d   1      10.240   6.457  -5.889  0.00  0.00    -0.016 A 
ATOM     19  C   LIG d   1      10.244   7.483  -4.841  0.00  0.00     0.022 A 
ATOM     20  C   LIG d   1       9.725   8.756  -5.130  0.00  0.00     0.142 A 
ATOM     21  C   LIG d   1      10.759   7.211  -3.570  0.00  0.00    -0.048 A 
ATOM     22  C   LIG d   1       9.724   9.732  -4.142  0.00  0.00    -0.007 A 
ATOM     23  O   LIG d   1       9.232   9.017  -6.360  0.00  0.00    -0.422 OA
ATOM     24  C   LIG d   1      10.232   9.443  -2.892  0.00  0.00    -0.052 A 
ATOM     25  C   LIG d   1      10.744   8.185  -2.610  0.00  0.00    -0.049 A 
ATOM     26  H   LIG d   1      10.230  10.203  -2.126  0.00  0.00     0.062 H 
ATOM     27  C   LIG d   1       9.225   8.085  -7.325  0.00  0.00     0.338 A 
ATOM     28  C   LIG d   1       9.732   6.786  -7.104  0.00  0.00     0.028 A 
ATOM     29  O   LIG d   1       8.772   8.367  -8.419  0.00  0.00    -0.245 OA
ATOM     30  H   LIG d   1       9.714   6.055  -7.899  0.00  0.00     0.069 H 
ATOM     31  H   LIG d   1      11.163   6.235  -3.345  0.00  0.00     0.063 H 
BRANCH  22  32
ATOM     32  C   LIG d   1       9.170  11.103  -4.434  0.00  0.00    -0.036 C 
ATOM     33  H   LIG d   1       9.991  11.791  -4.636  0.00  0.00     0.028 H 
ATOM     34  H   LIG d   1       8.515  11.052  -5.303  0.00  0.00     0.028 H 
ATOM     35  H   LIG d   1       8.605  11.457  -3.572  0.00  0.00     0.028 H 
ENDBRANCH  22  32
BRANCH  25  36
ATOM     36  C   LIG d   1      11.294   7.892  -1.238  0.00  0.00    -0.040 C 
ATOM     37  H   LIG d   1      12.296   7.474  -1.330  0.00  0.00     0.028 H 
ATOM     38  H   LIG d   1      11.337   8.814  -0.659  0.00  0.00     0.028 H 
ATOM     39  H   LIG d   1      10.646   7.175  -0.733  0.00  0.00     0.028 H 
ENDBRANCH  25  36
ENDBRANCH  15  18
ENDBRANCH   1  15
BRANCH   4  40
ATOM     40  C   LIG d   1       7.398   0.616  -4.927  0.00  0.00     0.003 C 
ATOM     41  H   LIG d   1       6.595   0.904  -5.604  0.00  0.00     0.043 H 
ATOM     42  H   LIG d   1       7.748  -0.384  -5.182  0.00  0.00     0.043 H 
BRANCH  40  43
ATOM     43  C   LIG d   1       6.879   0.622  -3.488  0.00  0.00    -0.015 C 
ATOM     44  H   LIG d   1       7.710   0.464  -2.800  0.00  0.00     0.033 H 
ATOM     45  H   LIG d   1       6.408   1.581  -3.275  0.00  0.00     0.033 H 
BRANCH  43  46
ATOM     46  C   LIG d   1       5.868  -0.483  -3.314  0.00  0.00    -0.043 A 
ATOM     47  C   LIG d   1       5.877  -1.591  -4.147  0.00  0.00    -0.040 A 
ATOM     48  C   LIG d   1       4.939  -2.587  -3.953  0.00  0.00     0.028 A 
ATOM     49  H   LIG d   1       6.612  -1.678  -4.934  0.00  0.00     0.064 H 
ATOM     50  N   LIG d   1       4.036  -2.486  -2.998  0.00  0.00    -0.263 NA
ATOM     51  H   LIG d   1       4.942  -3.456  -4.594  0.00  0.00     0.083 H 
ATOM     52  C   LIG d   1       3.992  -1.443  -2.191  0.00  0.00     0.028 A 
ATOM     53  C   LIG d   1       4.903  -0.412  -2.321  0.00  0.00    -0.040 A 
ATOM     54  H   LIG d   1       3.237  -1.395  -1.421  0.00  0.00     0.083 H 
ATOM     55  H   LIG d   1       4.863   0.439  -1.657  0.00  0.00     0.064 H 
ENDBRANCH  43  46
ENDBRANCH  40  43
ENDBRANCH   4  40
TORSDOF 7
ENDMDL
MODEL 8
REMARK VINA RESULT:      -5.9      6.477      9.657
REMARK  7 active torsions:
REMARK  status: ('A' for Active; 'I' for Inactive)
REMARK    1  A    between atoms: C_1  and  C_2 
REMARK    2  A    between atoms: C_4  and  C_28 
REMARK    3  A    between atoms: C_8  and  C_13 
REMARK    4  A    between atoms: C_13  and  N_14 
REMARK    5  A    between atoms: N_17  and  C_20 
REMARK    6  A    between atoms: C_20  and  C_21 
REMARK    7  A    between atoms: C_21  and  C_22 
ROOT
ATOM      1  N   LIG d   1       2.928  -1.529  -9.295  0.00  0.00    -0.296 N 
ATOM      2  C   LIG d   1       2.650  -0.754 -10.511  0.00  0.00     0.012 C 
ATOM      3  C   LIG d   1       1.335  -1.236 -11.131  0.00  0.00     0.012 C 
ATOM      4  N   LIG d   1       1.438  -2.671 -11.434  0.00  0.00    -0.300 N 
ATOM      5  C   LIG d   1       1.717  -3.445 -10.217  0.00  0.00     0.012 C 
ATOM      6  C   LIG d   1       3.031  -2.963  -9.599  0.00  0.00     0.012 C 
ATOM      7  H   LIG d   1       2.566   0.303 -10.259  0.00  0.00     0.044 H 
ATOM      8  H   LIG d   1       3.461  -0.894 -11.226  0.00  0.00     0.044 H 
ATOM      9  H   LIG d   1       0.520  -1.071 -10.427  0.00  0.00     0.044 H 
ATOM     10  H   LIG d   1       1.142  -0.683 -12.049  0.00  0.00     0.044 H 
ATOM     11  H   LIG d   1       0.906  -3.305  -9.503  0.00  0.00     0.044 H 
ATOM     12  H   LIG d   1       1.801  -4.502 -10.471  0.00  0.00     0.044 H 
ATOM     13  H   LIG d   1       3.847  -3.128 -10.303  0.00  0.00     0.044 H 
ATOM     14  H   LIG d   1       3.225  -3.516  -8.680  0.00  0.00     0.044 H 
ENDROOT
BRANCH   1  15
ATOM     15  C   LIG d   1       4.145  -1.043  -8.629  0.00  0.00     0.025 C 
ATOM     16  H   LIG d   1       4.488  -0.133  -9.120  0.00  0.00     0.048 H 
ATOM     17  H   LIG d   1       4.923  -1.805  -8.693  0.00  0.00     0.048 H 
BRANCH  15  18
ATOM     18  C   LIG d   1       3.845  -0.752  -7.182  0.00  0.00    -0.016 A 
ATOM     19  C   LIG d   1       4.266  -1.676  -6.124  0.00  0.00     0.022 A 
ATOM     20  C   LIG d   1       3.967  -1.364  -4.787  0.00  0.00     0.142 A 
ATOM     21  C   LIG d   1       4.962  -2.850  -6.428  0.00  0.00    -0.048 A 
ATOM     22  C   LIG d   1       4.362  -2.235  -3.780  0.00  0.00    -0.007 A 
ATOM     23  O   LIG d   1       3.299  -0.227  -4.495  0.00  0.00    -0.422 OA
ATOM     24  C   LIG d   1       5.043  -3.391  -4.101  0.00  0.00    -0.052 A 
ATOM     25  C   LIG d   1       5.337  -3.696  -5.422  0.00  0.00    -0.049 A 
ATOM     26  H   LIG d   1       5.348  -4.066  -3.315  0.00  0.00     0.062 H 
ATOM     27  C   LIG d   1       2.910   0.623  -5.457  0.00  0.00     0.338 A 
ATOM     28  C   LIG d   1       3.178   0.373  -6.820  0.00  0.00     0.028 A 
ATOM     29  O   LIG d   1       2.311   1.637  -5.146  0.00  0.00    -0.245 OA
ATOM     30  H   LIG d   1       2.854   1.076  -7.574  0.00  0.00     0.069 H 
ATOM     31  H   LIG d   1       5.198  -3.091  -7.454  0.00  0.00     0.063 H 
BRANCH  22  32
ATOM     32  C   LIG d   1       4.049  -1.917  -2.340  0.00  0.00    -0.036 C 
ATOM     33  H   LIG d   1       4.956  -1.585  -1.835  0.00  0.00     0.028 H 
ATOM     34  H   LIG d   1       3.298  -1.128  -2.297  0.00  0.00     0.028 H 
ATOM     35  H   LIG d   1       3.665  -2.810  -1.846  0.00  0.00     0.028 H 
ENDBRANCH  22  32
BRANCH  25  36
ATOM     36  C   LIG d   1       6.082  -4.964  -5.748  0.00  0.00    -0.040 C 
ATOM     37  H   LIG d   1       5.467  -5.824  -5.488  0.00  0.00     0.028 H 
ATOM     38  H   LIG d   1       6.309  -4.988  -6.814  0.00  0.00     0.028 H 
ATOM     39  H   LIG d   1       7.011  -4.996  -5.178  0.00  0.00     0.028 H 
ENDBRANCH  25  36
ENDBRANCH  15  18
ENDBRANCH   1  15
BRANCH   4  40
ATOM     40  C   LIG d   1       0.221  -3.155 -12.100  0.00  0.00     0.003 C 
ATOM     41  H   LIG d   1      -0.617  -2.510 -11.839  0.00  0.00     0.043 H 
ATOM     42  H   LIG d   1       0.368  -3.143 -13.179  0.00  0.00     0.043 H 
BRANCH  40  43
ATOM     43  C   LIG d   1      -0.074  -4.585 -11.642  0.00  0.00    -0.015 C 
ATOM     44  H   LIG d   1       0.136  -5.279 -12.457  0.00  0.00     0.033 H 
ATOM     45  H   LIG d   1       0.552  -4.830 -10.785  0.00  0.00     0.033 H 
BRANCH  43  46
ATOM     46  C   LIG d   1      -1.526  -4.698 -11.251  0.00  0.00    -0.043 A 
ATOM     47  C   LIG d   1      -1.892  -5.244 -10.032  0.00  0.00    -0.040 A 
ATOM     48  C   LIG d   1      -3.233  -5.325  -9.705  0.00  0.00     0.028 A 
ATOM     49  H   LIG d   1      -1.140  -5.598  -9.342  0.00  0.00     0.064 H 
ATOM     50  N   LIG d   1      -4.158  -4.900 -10.543  0.00  0.00    -0.263 NA
ATOM     51  H   LIG d   1      -3.527  -5.745  -8.755  0.00  0.00     0.083 H 
ATOM     52  C   LIG d   1      -3.847  -4.380 -11.715  0.00  0.00     0.028 A 
ATOM     53  C   LIG d   1      -2.527  -4.262 -12.106  0.00  0.00    -0.040 A 
ATOM     54  H   LIG d   1      -4.632  -4.043 -12.375  0.00  0.00     0.083 H 
ATOM     55  H   LIG d   1      -2.278  -3.834 -13.067  0.00  0.00     0.064 H 
ENDBRANCH  43  46
ENDBRANCH  40  43
ENDBRANCH   4  40
TORSDOF 7
ENDMDL
MODEL 9
REMARK VINA RESULT:      -5.7      8.709     14.872
REMARK  7 active torsions:
REMARK  status: ('A' for Active; 'I' for Inactive)
REMARK    1  A    between atoms: C_1  and  C_2 
REMARK    2  A    between atoms: C_4  and  C_28 
REMARK    3  A    between atoms: C_8  and  C_13 
REMARK    4  A    between atoms: C_13  and  N_14 
REMARK    5  A    between atoms: N_17  and  C_20 
REMARK    6  A    between atoms: C_20  and  C_21 
REMARK    7  A    between atoms: C_21  and  C_22 
ROOT
ATOM      1  N   LIG d   1      10.673   4.922  -3.663  0.00  0.00    -0.296 N 
ATOM      2  C   LIG d   1       9.561   4.761  -4.610  0.00  0.00     0.012 C 
ATOM      3  C   LIG d   1       8.674   3.597  -4.160  0.00  0.00     0.012 C 
ATOM      4  N   LIG d   1       9.482   2.371  -4.086  0.00  0.00    -0.300 N 
ATOM      5  C   LIG d   1      10.594   2.532  -3.140  0.00  0.00     0.012 C 
ATOM      6  C   LIG d   1      11.480   3.696  -3.591  0.00  0.00     0.012 C 
ATOM      7  H   LIG d   1       8.970   5.678  -4.637  0.00  0.00     0.044 H 
ATOM      8  H   LIG d   1       9.955   4.554  -5.604  0.00  0.00     0.044 H 
ATOM      9  H   LIG d   1       8.258   3.817  -3.177  0.00  0.00     0.044 H 
ATOM     10  H   LIG d   1       7.866   3.458  -4.876  0.00  0.00     0.044 H 
ATOM     11  H   LIG d   1      10.199   2.740  -2.146  0.00  0.00     0.044 H 
ATOM     12  H   LIG d   1      11.184   1.616  -3.114  0.00  0.00     0.044 H 
ATOM     13  H   LIG d   1      11.897   3.477  -4.574  0.00  0.00     0.044 H 
ATOM     14  H   LIG d   1      12.290   3.836  -2.874  0.00  0.00     0.044 H 
ENDROOT
BRANCH   1  15
ATOM     15  C   LIG d   1      11.504   6.079  -4.020  0.00  0.00     0.025 C 
ATOM     16  H   LIG d   1      11.441   6.254  -5.094  0.00  0.00     0.048 H 
ATOM     17  H   LIG d   1      12.540   5.881  -3.745  0.00  0.00     0.048 H 
BRANCH  15  18
ATOM     18  C   LIG d   1      11.013   7.298  -3.283  0.00  0.00    -0.016 A 
ATOM     19  C   LIG d   1      10.454   8.443  -4.007  0.00  0.00     0.022 A 
ATOM     20  C   LIG d   1      10.007   9.559  -3.279  0.00  0.00     0.142 A 
ATOM     21  C   LIG d   1      10.358   8.436  -5.402  0.00  0.00    -0.048 A 
ATOM     22  C   LIG d   1       9.478  10.648  -3.959  0.00  0.00    -0.007 A 
ATOM     23  O   LIG d   1      10.098   9.562  -1.932  0.00  0.00    -0.422 OA
ATOM     24  C   LIG d   1       9.396  10.624  -5.335  0.00  0.00    -0.052 A 
ATOM     25  C   LIG d   1       9.838   9.521  -6.051  0.00  0.00    -0.049 A 
ATOM     26  H   LIG d   1       8.984  11.472  -5.861  0.00  0.00     0.062 H 
ATOM     27  C   LIG d   1      10.607   8.518  -1.261  0.00  0.00     0.338 A 
ATOM     28  C   LIG d   1      11.074   7.365  -1.929  0.00  0.00     0.028 A 
ATOM     29  O   LIG d   1      10.668   8.566  -0.046  0.00  0.00    -0.245 OA
ATOM     30  H   LIG d   1      11.479   6.538  -1.364  0.00  0.00     0.069 H 
ATOM     31  H   LIG d   1      10.697   7.579  -5.965  0.00  0.00     0.063 H 
BRANCH  22  32
ATOM     32  C   LIG d   1       8.994  11.854  -3.195  0.00  0.00    -0.036 C 
ATOM     33  H   LIG d   1       8.127  12.280  -3.698  0.00  0.00     0.028 H 
ATOM     34  H   LIG d   1       8.717  11.556  -2.183  0.00  0.00     0.028 H 
ATOM     35  H   LIG d   1       9.789  12.598  -3.149  0.00  0.00     0.028 H 
ENDBRANCH  22  32
BRANCH  25  36
ATOM     36  C   LIG d   1       9.738   9.516  -7.555  0.00  0.00    -0.040 C 
ATOM     37  H   LIG d   1      10.528   8.892  -7.970  0.00  0.00     0.028 H 
ATOM     38  H   LIG d   1       8.767   9.120  -7.853  0.00  0.00     0.028 H 
ATOM     39  H   LIG d   1       9.845  10.535  -7.929  0.00  0.00     0.028 H 
ENDBRANCH  25  36
ENDBRANCH  15  18
ENDBRANCH   1  15
BRANCH   4  40
ATOM     40  C   LIG d   1       8.650   1.214  -3.729  0.00  0.00     0.003 C 
ATOM     41  H   LIG d   1       9.084   0.310  -4.155  0.00  0.00     0.043 H 
ATOM     42  H   LIG d   1       8.603   1.121  -2.645  0.00  0.00     0.043 H 
BRANCH  40  43
ATOM     43  C   LIG d   1       7.238   1.412  -4.285  0.00  0.00    -0.015 C 
ATOM     44  H   LIG d   1       6.981   2.472  -4.257  0.00  0.00     0.033 H 
ATOM     45  H   LIG d   1       7.198   1.055  -5.313  0.00  0.00     0.033 H 
BRANCH  43  46
ATOM     46  C   LIG d   1       6.255   0.636  -3.445  0.00  0.00    -0.043 A 
ATOM     47  C   LIG d   1       5.364   1.290  -2.609  0.00  0.00    -0.040 A 
ATOM     48  C   LIG d   1       4.474   0.545  -1.859  0.00  0.00     0.028 A 
ATOM     49  H   LIG d   1       5.363   2.368  -2.546  0.00  0.00     0.064 H 
ATOM     50  N   LIG d   1       4.473  -0.771  -1.925  0.00  0.00    -0.263 NA
ATOM     51  H   LIG d   1       3.773   1.047  -1.208  0.00  0.00     0.083 H 
ATOM     52  C   LIG d   1       5.310  -1.428  -2.705  0.00  0.00     0.028 A 
ATOM     53  C   LIG d   1       6.224  -0.750  -3.488  0.00  0.00    -0.040 A 
ATOM     54  H   LIG d   1       5.280  -2.507  -2.732  0.00  0.00     0.083 H 
ATOM     55  H   LIG d   1       6.907  -1.293  -4.126  0.00  0.00     0.064 H 
ENDBRANCH  43  46
ENDBRANCH  40  43
ENDBRANCH   4  40
TORSDOF 7
ENDMDL
