MODEL 1
REMARK VINA RESULT:      -5.1      0.000      0.000
REMARK  6 active torsions:
REMARK  status: ('A' for Active; 'I' for Inactive)
REMARK    1  A    between atoms: C_1  and  C_2 
REMARK    2  A    between atoms: C_6  and  C_10 
REMARK    3  A    between atoms: C_6  and  C_11 
REMARK    4  A    between atoms: C_7  and  C_8 
REMARK    5  A    between atoms: C_7  and  C_9 
REMARK    6  A    between atoms: C_11  and  C_13 
ROOT
ATOM      1  C   LIG d   1       4.696   0.354  -2.346  0.00  0.00    -0.038 C 
ATOM      2  H   LIG d   1       4.919  -0.093  -1.376  0.00  0.00     0.030 H 
ATOM      3  C   LIG d   1       5.975   0.964  -2.969  0.00  0.00    -0.049 C 
ATOM      4  C   LIG d   1       6.683  -0.272  -3.577  0.00  0.00    -0.040 C 
ATOM      5  C   LIG d   1       5.529  -1.130  -4.136  0.00  0.00     0.034 C 
ATOM      6  C   LIG d   1       4.265  -0.734  -3.353  0.00  0.00    -0.020 C 
ATOM      7  H   LIG d   1       6.597   1.425  -2.201  0.00  0.00     0.027 H 
ATOM      8  H   LIG d   1       5.723   1.687  -3.744  0.00  0.00     0.027 H 
ATOM      9  H   LIG d   1       7.226  -0.818  -2.807  0.00  0.00     0.028 H 
ATOM     10  H   LIG d   1       7.357   0.028  -4.380  0.00  0.00     0.028 H 
ENDROOT
BRANCH   5  11
ATOM     11  C   LIG d   1       5.831  -2.615  -3.927  0.00  0.00    -0.052 C 
ATOM     12  H   LIG d   1       6.384  -2.746  -2.997  0.00  0.00     0.024 H 
ATOM     13  H   LIG d   1       4.895  -3.172  -3.873  0.00  0.00     0.024 H 
ATOM     14  H   LIG d   1       6.426  -2.987  -4.761  0.00  0.00     0.024 H 
ENDBRANCH   5  11
BRANCH   5  15
ATOM     15  C   LIG d   1       5.338  -0.846  -5.604  0.00  0.00     0.164 C 
ATOM     16  O   LIG d   1       5.503   0.273  -6.028  0.00  0.00    -0.295 OA
BRANCH  15  17
ATOM     17  C   LIG d   1       4.945  -1.958  -6.542  0.00  0.00     0.128 C 
ATOM     18 BR   LIG d   1       3.672  -1.273  -7.875  0.00  0.00    -0.068 Br
ATOM     19 BR   LIG d   1       6.546  -2.641  -7.456  0.00  0.00    -0.068 Br
ATOM     20  H   LIG d   1       4.517  -2.697  -6.022  0.00  0.00     0.062 H 
ENDBRANCH  15  17
ENDBRANCH   5  15
BRANCH   6  21
ATOM     21  C   LIG d   1       3.210  -0.175  -4.309  0.00  0.00    -0.059 C 
ATOM     22  H   LIG d   1       2.275  -0.722  -4.179  0.00  0.00     0.024 H 
ATOM     23  H   LIG d   1       3.045   0.880  -4.091  0.00  0.00     0.024 H 
ATOM     24  H   LIG d   1       3.555  -0.285  -5.337  0.00  0.00     0.024 H 
ENDBRANCH   6  21
BRANCH   6  25
ATOM     25  C   LIG d   1       3.707  -1.949  -2.608  0.00  0.00    -0.059 C 
ATOM     26  H   LIG d   1       2.624  -1.979  -2.723  0.00  0.00     0.024 H 
ATOM     27  H   LIG d   1       4.142  -2.859  -3.019  0.00  0.00     0.024 H 
ATOM     28  H   LIG d   1       3.958  -1.872  -1.549  0.00  0.00     0.024 H 
ENDBRANCH   6  25
BRANCH   1  29
ATOM     29  C   LIG d   1       3.607   1.419  -2.205  0.00  0.00    -0.062 C 
ATOM     30  H   LIG d   1       2.860   1.280  -2.986  0.00  0.00     0.023 H 
ATOM     31  H   LIG d   1       3.132   1.327  -1.228  0.00  0.00     0.023 H 
ATOM     32  H   LIG d   1       4.052   2.409  -2.302  0.00  0.00     0.023 H 
ENDBRANCH   1  29
TORSDOF 6
ENDMDL
MODEL 2
REMARK VINA RESULT:      -4.7      2.004      3.024
REMARK  6 active torsions:
REMARK  status: ('A' for Active; 'I' for Inactive)
REMARK    1  A    between atoms: C_1  and  C_2 
REMARK    2  A    between atoms: C_6  and  C_10 
REMARK    3  A    between atoms: C_6  and  C_11 
REMARK    4  A    between atoms: C_7  and  C_8 
REMARK    5  A    between atoms: C_7  and  C_9 
REMARK    6  A    between atoms: C_11  and  C_13 
ROOT
ATOM      1  C   LIG d   1       3.308   0.073  -3.659  0.00  0.00    -0.038 C 
ATOM      2  H   LIG d   1       3.070   1.137  -3.624  0.00  0.00     0.030 H 
ATOM      3  C   LIG d   1       3.677  -0.354  -5.101  0.00  0.00    -0.049 C 
ATOM      4  C   LIG d   1       5.155   0.092  -5.222  0.00  0.00    -0.040 C 
ATOM      5  C   LIG d   1       5.756  -0.210  -3.834  0.00  0.00     0.034 C 
ATOM      6  C   LIG d   1       4.582  -0.221  -2.839  0.00  0.00    -0.020 C 
ATOM      7  H   LIG d   1       3.055   0.168  -5.829  0.00  0.00     0.027 H 
ATOM      8  H   LIG d   1       3.587  -1.433  -5.223  0.00  0.00     0.027 H 
ATOM      9  H   LIG d   1       5.215   1.158  -5.440  0.00  0.00     0.028 H 
ATOM     10  H   LIG d   1       5.668  -0.484  -5.993  0.00  0.00     0.028 H 
ENDROOT
BRANCH   5  11
ATOM     11  C   LIG d   1       6.759   0.879  -3.448  0.00  0.00    -0.052 C 
ATOM     12  H   LIG d   1       7.577   0.435  -2.882  0.00  0.00     0.024 H 
ATOM     13  H   LIG d   1       7.153   1.345  -4.352  0.00  0.00     0.024 H 
ATOM     14  H   LIG d   1       6.261   1.632  -2.838  0.00  0.00     0.024 H 
ENDBRANCH   5  11
BRANCH   5  15
ATOM     15  C   LIG d   1       6.435  -1.555  -3.847  0.00  0.00     0.164 C 
ATOM     16  O   LIG d   1       6.988  -1.962  -2.853  0.00  0.00    -0.295 OA
BRANCH  15  17
ATOM     17  C   LIG d   1       6.422  -2.394  -5.099  0.00  0.00     0.128 C 
ATOM     18 BR   LIG d   1       8.200  -3.185  -5.378  0.00  0.00    -0.068 Br
ATOM     19 BR   LIG d   1       5.089  -3.828  -4.912  0.00  0.00    -0.068 Br
ATOM     20  H   LIG d   1       6.186  -1.819  -5.883  0.00  0.00     0.062 H 
ENDBRANCH  15  17
ENDBRANCH   5  15
BRANCH   6  21
ATOM     21  C   LIG d   1       4.471  -1.595  -2.174  0.00  0.00    -0.059 C 
ATOM     22  H   LIG d   1       5.250  -1.696  -1.417  0.00  0.00     0.024 H 
ATOM     23  H   LIG d   1       3.494  -1.693  -1.703  0.00  0.00     0.024 H 
ATOM     24  H   LIG d   1       4.593  -2.374  -2.927  0.00  0.00     0.024 H 
ENDBRANCH   6  21
BRANCH   6  25
ATOM     25  C   LIG d   1       4.784   0.861  -1.776  0.00  0.00    -0.059 C 
ATOM     26  H   LIG d   1       5.844   0.937  -1.532  0.00  0.00     0.024 H 
ATOM     27  H   LIG d   1       4.430   1.818  -2.159  0.00  0.00     0.024 H 
ATOM     28  H   LIG d   1       4.223   0.598  -0.879  0.00  0.00     0.024 H 
ENDBRANCH   6  25
BRANCH   1  29
ATOM     29  C   LIG d   1       2.130  -0.754  -3.140  0.00  0.00    -0.062 C 
ATOM     30  H   LIG d   1       1.710  -1.341  -3.957  0.00  0.00     0.023 H 
ATOM     31  H   LIG d   1       2.476  -1.424  -2.352  0.00  0.00     0.023 H 
ATOM     32  H   LIG d   1       1.365  -0.088  -2.741  0.00  0.00     0.023 H 
ENDBRANCH   1  29
TORSDOF 6
ENDMDL
MODEL 3
REMARK VINA RESULT:      -4.6      2.304      2.972
REMARK  6 active torsions:
REMARK  status: ('A' for Active; 'I' for Inactive)
REMARK    1  A    between atoms: C_1  and  C_2 
REMARK    2  A    between atoms: C_6  and  C_10 
REMARK    3  A    between atoms: C_6  and  C_11 
REMARK    4  A    between atoms: C_7  and  C_8 
REMARK    5  A    between atoms: C_7  and  C_9 
REMARK    6  A    between atoms: C_11  and  C_13 
ROOT
ATOM      1  C   LIG d   1       3.812  -0.294  -2.818  0.00  0.00    -0.038 C 
ATOM      2  H   LIG d   1       2.758  -0.317  -3.097  0.00  0.00     0.030 H 
ATOM      3  C   LIG d   1       4.160  -1.500  -1.912  0.00  0.00    -0.049 C 
ATOM      4  C   LIG d   1       4.342  -2.652  -2.931  0.00  0.00    -0.040 C 
ATOM      5  C   LIG d   1       5.041  -1.985  -4.134  0.00  0.00     0.034 C 
ATOM      6  C   LIG d   1       4.703  -0.486  -4.064  0.00  0.00    -0.020 C 
ATOM      7  H   LIG d   1       3.341  -1.717  -1.226  0.00  0.00     0.027 H 
ATOM      8  H   LIG d   1       5.084  -1.321  -1.362  0.00  0.00     0.027 H 
ATOM      9  H   LIG d   1       3.375  -3.056  -3.227  0.00  0.00     0.028 H 
ATOM     10  H   LIG d   1       4.971  -3.439  -2.513  0.00  0.00     0.028 H 
ENDROOT
BRANCH   5  11
ATOM     11  C   LIG d   1       4.514  -2.580  -5.442  0.00  0.00    -0.052 C 
ATOM     12  H   LIG d   1       4.705  -3.652  -5.456  0.00  0.00     0.024 H 
ATOM     13  H   LIG d   1       3.441  -2.401  -5.515  0.00  0.00     0.024 H 
ATOM     14  H   LIG d   1       5.019  -2.109  -6.285  0.00  0.00     0.024 H 
ENDBRANCH   5  11
BRANCH   5  15
ATOM     15  C   LIG d   1       6.532  -2.185  -4.041  0.00  0.00     0.164 C 
ATOM     16  O   LIG d   1       7.099  -2.019  -2.988  0.00  0.00    -0.295 OA
BRANCH  15  17
ATOM     17  C   LIG d   1       7.315  -2.595  -5.262  0.00  0.00     0.128 C 
ATOM     18 BR   LIG d   1       8.942  -1.501  -5.396  0.00  0.00    -0.068 Br
ATOM     19 BR   LIG d   1       7.810  -4.492  -5.115  0.00  0.00    -0.068 Br
ATOM     20  H   LIG d   1       6.753  -2.459  -6.079  0.00  0.00     0.062 H 
ENDBRANCH  15  17
ENDBRANCH   5  15
BRANCH   6  21
ATOM     21  C   LIG d   1       5.987   0.334  -3.921  0.00  0.00    -0.059 C 
ATOM     22  H   LIG d   1       6.368   0.589  -4.911  0.00  0.00     0.024 H 
ATOM     23  H   LIG d   1       5.775   1.249  -3.369  0.00  0.00     0.024 H 
ATOM     24  H   LIG d   1       6.734  -0.250  -3.384  0.00  0.00     0.024 H 
ENDBRANCH   6  21
BRANCH   6  25
ATOM     25  C   LIG d   1       3.945  -0.059  -5.323  0.00  0.00    -0.059 C 
ATOM     26  H   LIG d   1       4.360  -0.573  -6.189  0.00  0.00     0.024 H 
ATOM     27  H   LIG d   1       2.891  -0.316  -5.217  0.00  0.00     0.024 H 
ATOM     28  H   LIG d   1       4.045   1.019  -5.458  0.00  0.00     0.024 H 
ENDBRANCH   6  25
BRANCH   1  29
ATOM     29  C   LIG d   1       4.149   1.021  -2.112  0.00  0.00    -0.062 C 
ATOM     30  H   LIG d   1       3.226   1.526  -1.825  0.00  0.00     0.023 H 
ATOM     31  H   LIG d   1       4.742   0.814  -1.221  0.00  0.00     0.023 H 
ATOM     32  H   LIG d   1       4.718   1.661  -2.787  0.00  0.00     0.023 H 
ENDBRANCH   1  29
TORSDOF 6
ENDMDL
MODEL 4
REMARK VINA RESULT:      -4.5      2.037      2.989
REMARK  6 active torsions:
REMARK  status: ('A' for Active; 'I' for Inactive)
REMARK    1  A    between atoms: C_1  and  C_2 
REMARK    2  A    between atoms: C_6  and  C_10 
REMARK    3  A    between atoms: C_6  and  C_11 
REMARK    4  A    between atoms: C_7  and  C_8 
REMARK    5  A    between atoms: C_7  and  C_9 
REMARK    6  A    between atoms: C_11  and  C_13 
ROOT
ATOM      1  C   LIG d   1       4.470   0.823  -3.136  0.00  0.00    -0.038 C 
ATOM      2  H   LIG d   1       4.662   1.839  -3.485  0.00  0.00     0.030 H 
ATOM      3  C   LIG d   1       3.099   0.322  -3.654  0.00  0.00    -0.049 C 
ATOM      4  C   LIG d   1       3.421  -0.119  -5.103  0.00  0.00    -0.040 C 
ATOM      5  C   LIG d   1       4.822  -0.759  -5.000  0.00  0.00     0.034 C 
ATOM      6  C   LIG d   1       5.490  -0.159  -3.751  0.00  0.00    -0.020 C 
ATOM      7  H   LIG d   1       2.366   1.129  -3.650  0.00  0.00     0.027 H 
ATOM      8  H   LIG d   1       2.745  -0.522  -3.062  0.00  0.00     0.027 H 
ATOM      9  H   LIG d   1       3.443   0.743  -5.768  0.00  0.00     0.028 H 
ATOM     10  H   LIG d   1       2.693  -0.851  -5.452  0.00  0.00     0.028 H 
ENDROOT
BRANCH   5  11
ATOM     11  C   LIG d   1       5.644  -0.423  -6.246  0.00  0.00    -0.052 C 
ATOM     12  H   LIG d   1       5.056   0.211  -6.910  0.00  0.00     0.024 H 
ATOM     13  H   LIG d   1       6.551   0.104  -5.950  0.00  0.00     0.024 H 
ATOM     14  H   LIG d   1       5.912  -1.343  -6.765  0.00  0.00     0.024 H 
ENDBRANCH   5  11
BRANCH   5  15
ATOM     15  C   LIG d   1       4.697  -2.254  -4.854  0.00  0.00     0.164 C 
ATOM     16  O   LIG d   1       3.988  -2.719  -3.993  0.00  0.00    -0.295 OA
BRANCH  15  17
ATOM     17  C   LIG d   1       5.454  -3.168  -5.783  0.00  0.00     0.128 C 
ATOM     18 BR   LIG d   1       7.112  -3.763  -4.911  0.00  0.00    -0.068 Br
ATOM     19 BR   LIG d   1       4.341  -4.731  -6.212  0.00  0.00    -0.068 Br
ATOM     20  H   LIG d   1       5.677  -2.676  -6.625  0.00  0.00     0.062 H 
ENDBRANCH  15  17
ENDBRANCH   5  15
BRANCH   6  21
ATOM     21  C   LIG d   1       5.818  -1.268  -2.749  0.00  0.00    -0.059 C 
ATOM     22  H   LIG d   1       6.878  -1.226  -2.496  0.00  0.00     0.024 H 
ATOM     23  H   LIG d   1       5.225  -1.130  -1.847  0.00  0.00     0.024 H 
ATOM     24  H   LIG d   1       5.588  -2.237  -3.192  0.00  0.00     0.024 H 
ENDBRANCH   6  21
BRANCH   6  25
ATOM     25  C   LIG d   1       6.766   0.587  -4.145  0.00  0.00    -0.059 C 
ATOM     26  H   LIG d   1       7.156   0.174  -5.075  0.00  0.00     0.024 H 
ATOM     27  H   LIG d   1       6.541   1.644  -4.283  0.00  0.00     0.024 H 
ATOM     28  H   LIG d   1       7.511   0.474  -3.356  0.00  0.00     0.024 H 
ENDBRANCH   6  25
BRANCH   1  29
ATOM     29  C   LIG d   1       4.520   0.765  -1.608  0.00  0.00    -0.062 C 
ATOM     30  H   LIG d   1       4.263  -0.240  -1.274  0.00  0.00     0.023 H 
ATOM     31  H   LIG d   1       5.525   1.016  -1.268  0.00  0.00     0.023 H 
ATOM     32  H   LIG d   1       3.807   1.478  -1.194  0.00  0.00     0.023 H 
ENDBRANCH   1  29
TORSDOF 6
ENDMDL
MODEL 5
REMARK VINA RESULT:      -4.3      1.477      2.402
REMARK  6 active torsions:
REMARK  status: ('A' for Active; 'I' for Inactive)
REMARK    1  A    between atoms: C_1  and  C_2 
REMARK    2  A    between atoms: C_6  and  C_10 
REMARK    3  A    between atoms: C_6  and  C_11 
REMARK    4  A    between atoms: C_7  and  C_8 
REMARK    5  A    between atoms: C_7  and  C_9 
REMARK    6  A    between atoms: C_11  and  C_13 
ROOT
ATOM      1  C   LIG d   1       4.888  -1.239  -2.362  0.00  0.00    -0.038 C 
ATOM      2  H   LIG d   1       5.497  -1.204  -1.458  0.00  0.00     0.030 H 
ATOM      3  C   LIG d   1       4.290   0.157  -2.667  0.00  0.00    -0.049 C 
ATOM      4  C   LIG d   1       5.467   0.890  -3.357  0.00  0.00    -0.040 C 
ATOM      5  C   LIG d   1       6.133  -0.198  -4.225  0.00  0.00     0.034 C 
ATOM      6  C   LIG d   1       5.766  -1.552  -3.592  0.00  0.00    -0.020 C 
ATOM      7  H   LIG d   1       4.006   0.665  -1.746  0.00  0.00     0.027 H 
ATOM      8  H   LIG d   1       3.436   0.076  -3.340  0.00  0.00     0.027 H 
ATOM      9  H   LIG d   1       6.168   1.268  -2.614  0.00  0.00     0.028 H 
ATOM     10  H   LIG d   1       5.099   1.703  -3.982  0.00  0.00     0.028 H 
ENDROOT
BRANCH   5  11
ATOM     11  C   LIG d   1       7.652  -0.014  -4.223  0.00  0.00    -0.052 C 
ATOM     12  H   LIG d   1       7.932   0.698  -4.999  0.00  0.00     0.024 H 
ATOM     13  H   LIG d   1       7.970   0.365  -3.251  0.00  0.00     0.024 H 
ATOM     14  H   LIG d   1       8.135  -0.972  -4.414  0.00  0.00     0.024 H 
ENDBRANCH   5  11
BRANCH   5  15
ATOM     15  C   LIG d   1       5.607  -0.127  -5.635  0.00  0.00     0.164 C 
ATOM     16  O   LIG d   1       4.477   0.246  -5.840  0.00  0.00    -0.295 OA
BRANCH  15  17
ATOM     17  C   LIG d   1       6.493  -0.519  -6.790  0.00  0.00     0.128 C 
ATOM     18 BR   LIG d   1       5.443  -1.530  -8.109  0.00  0.00    -0.068 Br
ATOM     19 BR   LIG d   1       7.221   1.101  -7.635  0.00  0.00    -0.068 Br
ATOM     20  H   LIG d   1       7.245  -1.087  -6.456  0.00  0.00     0.062 H 
ENDBRANCH  15  17
ENDBRANCH   5  15
BRANCH   6  21
ATOM     21  C   LIG d   1       4.982  -2.403  -4.593  0.00  0.00    -0.059 C 
ATOM     22  H   LIG d   1       4.062  -1.885  -4.867  0.00  0.00     0.024 H 
ATOM     23  H   LIG d   1       5.586  -2.566  -5.484  0.00  0.00     0.024 H 
ATOM     24  H   LIG d   1       4.737  -3.364  -4.139  0.00  0.00     0.024 H 
ENDBRANCH   6  21
BRANCH   6  25
ATOM     25  C   LIG d   1       7.035  -2.289  -3.157  0.00  0.00    -0.059 C 
ATOM     26  H   LIG d   1       7.617  -2.561  -4.038  0.00  0.00     0.024 H 
ATOM     27  H   LIG d   1       7.629  -1.641  -2.514  0.00  0.00     0.024 H 
ATOM     28  H   LIG d   1       6.760  -3.192  -2.610  0.00  0.00     0.024 H 
ENDBRANCH   6  25
BRANCH   1  29
ATOM     29  C   LIG d   1       3.775  -2.278  -2.216  0.00  0.00    -0.062 C 
ATOM     30  H   LIG d   1       4.056  -3.008  -1.456  0.00  0.00     0.023 H 
ATOM     31  H   LIG d   1       2.851  -1.782  -1.917  0.00  0.00     0.023 H 
ATOM     32  H   LIG d   1       3.623  -2.786  -3.168  0.00  0.00     0.023 H 
ENDBRANCH   1  29
TORSDOF 6
ENDMDL
MODEL 6
REMARK VINA RESULT:      -4.2      1.628      2.918
REMARK  6 active torsions:
REMARK  status: ('A' for Active; 'I' for Inactive)
REMARK    1  A    between atoms: C_1  and  C_2 
REMARK    2  A    between atoms: C_6  and  C_10 
REMARK    3  A    between atoms: C_6  and  C_11 
REMARK    4  A    between atoms: C_7  and  C_8 
REMARK    5  A    between atoms: C_7  and  C_9 
REMARK    6  A    between atoms: C_11  and  C_13 
ROOT
ATOM      1  C   LIG d   1       3.892  -1.766  -3.389  0.00  0.00    -0.038 C 
ATOM      2  H   LIG d   1       2.833  -2.024  -3.422  0.00  0.00     0.030 H 
ATOM      3  C   LIG d   1       4.740  -2.870  -4.067  0.00  0.00    -0.049 C 
ATOM      4  C   LIG d   1       4.593  -2.539  -5.573  0.00  0.00    -0.040 C 
ATOM      5  C   LIG d   1       4.613  -0.997  -5.624  0.00  0.00     0.034 C 
ATOM      6  C   LIG d   1       4.166  -0.505  -4.236  0.00  0.00    -0.020 C 
ATOM      7  H   LIG d   1       4.334  -3.858  -3.848  0.00  0.00     0.027 H 
ATOM      8  H   LIG d   1       5.783  -2.806  -3.756  0.00  0.00     0.027 H 
ATOM      9  H   LIG d   1       3.649  -2.922  -5.957  0.00  0.00     0.028 H 
ATOM     10  H   LIG d   1       5.430  -2.950  -6.139  0.00  0.00     0.028 H 
ENDROOT
BRANCH   5  11
ATOM     11  C   LIG d   1       3.642  -0.496  -6.695  0.00  0.00    -0.052 C 
ATOM     12  H   LIG d   1       2.821  -1.204  -6.802  0.00  0.00     0.024 H 
ATOM     13  H   LIG d   1       3.247   0.477  -6.400  0.00  0.00     0.024 H 
ATOM     14  H   LIG d   1       4.167  -0.401  -7.646  0.00  0.00     0.024 H 
ENDBRANCH   5  11
BRANCH   5  15
ATOM     15  C   LIG d   1       6.006  -0.508  -5.922  0.00  0.00     0.164 C 
ATOM     16  O   LIG d   1       6.193   0.654  -6.195  0.00  0.00    -0.295 OA
BRANCH  15  17
ATOM     17  C   LIG d   1       7.168  -1.467  -5.875  0.00  0.00     0.128 C 
ATOM     18 BR   LIG d   1       7.607  -2.055  -7.699  0.00  0.00    -0.068 Br
ATOM     19 BR   LIG d   1       8.727  -0.569  -5.083  0.00  0.00    -0.068 Br
ATOM     20  H   LIG d   1       6.922  -2.261  -5.319  0.00  0.00     0.062 H 
ENDBRANCH  15  17
ENDBRANCH   5  15
BRANCH   6  21
ATOM     21  C   LIG d   1       5.277   0.328  -3.592  0.00  0.00    -0.059 C 
ATOM     22  H   LIG d   1       6.210  -0.236  -3.611  0.00  0.00     0.024 H 
ATOM     23  H   LIG d   1       5.403   1.256  -4.147  0.00  0.00     0.024 H 
ATOM     24  H   LIG d   1       5.009   0.554  -2.560  0.00  0.00     0.024 H 
ENDBRANCH   6  21
BRANCH   6  25
ATOM     25  C   LIG d   1       2.890   0.331  -4.362  0.00  0.00    -0.059 C 
ATOM     26  H   LIG d   1       2.031  -0.270  -4.059  0.00  0.00     0.024 H 
ATOM     27  H   LIG d   1       2.965   1.208  -3.719  0.00  0.00     0.024 H 
ATOM     28  H   LIG d   1       2.764   0.648  -5.397  0.00  0.00     0.024 H 
ENDBRANCH   6  25
BRANCH   1  29
ATOM     29  C   LIG d   1       4.346  -1.554  -1.944  0.00  0.00    -0.062 C 
ATOM     30  H   LIG d   1       4.144  -2.454  -1.364  0.00  0.00     0.023 H 
ATOM     31  H   LIG d   1       5.415  -1.342  -1.926  0.00  0.00     0.023 H 
ATOM     32  H   LIG d   1       3.802  -0.714  -1.511  0.00  0.00     0.023 H 
ENDBRANCH   1  29
TORSDOF 6
ENDMDL
MODEL 7
REMARK VINA RESULT:      -4.2      2.707      4.317
REMARK  6 active torsions:
REMARK  status: ('A' for Active; 'I' for Inactive)
REMARK    1  A    between atoms: C_1  and  C_2 
REMARK    2  A    between atoms: C_6  and  C_10 
REMARK    3  A    between atoms: C_6  and  C_11 
REMARK    4  A    between atoms: C_7  and  C_8 
REMARK    5  A    between atoms: C_7  and  C_9 
REMARK    6  A    between atoms: C_11  and  C_13 
ROOT
ATOM      1  C   LIG d   1       7.142  -3.136  -5.362  0.00  0.00    -0.038 C 
ATOM      2  H   LIG d   1       8.083  -3.196  -5.911  0.00  0.00     0.030 H 
ATOM      3  C   LIG d   1       7.402  -2.784  -3.877  0.00  0.00    -0.049 C 
ATOM      4  C   LIG d   1       7.601  -1.249  -3.918  0.00  0.00    -0.040 C 
ATOM      5  C   LIG d   1       6.579  -0.764  -4.966  0.00  0.00     0.034 C 
ATOM      6  C   LIG d   1       6.287  -1.962  -5.886  0.00  0.00    -0.020 C 
ATOM      7  H   LIG d   1       8.302  -3.280  -3.514  0.00  0.00     0.027 H 
ATOM      8  H   LIG d   1       6.543  -3.046  -3.259  0.00  0.00     0.027 H 
ATOM      9  H   LIG d   1       8.615  -1.005  -4.233  0.00  0.00     0.028 H 
ATOM     10  H   LIG d   1       7.388  -0.808  -2.944  0.00  0.00     0.028 H 
ENDROOT
BRANCH   5  11
ATOM     11  C   LIG d   1       7.169   0.389  -5.781  0.00  0.00    -0.052 C 
ATOM     12  H   LIG d   1       6.362   0.989  -6.199  0.00  0.00     0.024 H 
ATOM     13  H   LIG d   1       7.786   1.012  -5.132  0.00  0.00     0.024 H 
ATOM     14  H   LIG d   1       7.781  -0.012  -6.588  0.00  0.00     0.024 H 
ENDBRANCH   5  11
BRANCH   5  15
ATOM     15  C   LIG d   1       5.312  -0.316  -4.283  0.00  0.00     0.164 C 
ATOM     16  O   LIG d   1       4.434   0.211  -4.925  0.00  0.00    -0.295 OA
BRANCH  15  17
ATOM     17  C   LIG d   1       5.139  -0.528  -2.801  0.00  0.00     0.128 C 
ATOM     18 BR   LIG d   1       4.394   1.098  -1.988  0.00  0.00    -0.068 Br
ATOM     19 BR   LIG d   1       3.915  -2.036  -2.494  0.00  0.00    -0.068 Br
ATOM     20  H   LIG d   1       6.028  -0.731  -2.388  0.00  0.00     0.062 H 
ENDBRANCH  15  17
ENDBRANCH   5  15
BRANCH   6  21
ATOM     21  C   LIG d   1       4.802  -2.326  -5.819  0.00  0.00    -0.059 C 
ATOM     22  H   LIG d   1       4.518  -2.862  -6.725  0.00  0.00     0.024 H 
ATOM     23  H   LIG d   1       4.622  -2.959  -4.951  0.00  0.00     0.024 H 
ATOM     24  H   LIG d   1       4.209  -1.416  -5.734  0.00  0.00     0.024 H 
ENDBRANCH   6  21
BRANCH   6  25
ATOM     25  C   LIG d   1       6.681  -1.627  -7.326  0.00  0.00    -0.059 C 
ATOM     26  H   LIG d   1       6.900  -2.549  -7.866  0.00  0.00     0.024 H 
ATOM     27  H   LIG d   1       5.859  -1.105  -7.816  0.00  0.00     0.024 H 
ATOM     28  H   LIG d   1       7.565  -0.990  -7.322  0.00  0.00     0.024 H 
ENDBRANCH   6  25
BRANCH   1  29
ATOM     29  C   LIG d   1       6.375  -4.455  -5.474  0.00  0.00    -0.062 C 
ATOM     30  H   LIG d   1       5.340  -4.299  -5.170  0.00  0.00     0.023 H 
ATOM     31  H   LIG d   1       6.401  -4.803  -6.507  0.00  0.00     0.023 H 
ATOM     32  H   LIG d   1       6.836  -5.200  -4.827  0.00  0.00     0.023 H 
ENDBRANCH   1  29
TORSDOF 6
ENDMDL
MODEL 8
REMARK VINA RESULT:      -4.1      2.657      4.067
REMARK  6 active torsions:
REMARK  status: ('A' for Active; 'I' for Inactive)
REMARK    1  A    between atoms: C_1  and  C_2 
REMARK    2  A    between atoms: C_6  and  C_10 
REMARK    3  A    between atoms: C_6  and  C_11 
REMARK    4  A    between atoms: C_7  and  C_8 
REMARK    5  A    between atoms: C_7  and  C_9 
REMARK    6  A    between atoms: C_11  and  C_13 
ROOT
ATOM      1  C   LIG d   1       7.488  -1.514  -5.747  0.00  0.00    -0.038 C 
ATOM      2  H   LIG d   1       7.875  -2.129  -6.560  0.00  0.00     0.030 H 
ATOM      3  C   LIG d   1       6.435  -0.512  -6.280  0.00  0.00    -0.049 C 
ATOM      4  C   LIG d   1       5.156  -1.379  -6.378  0.00  0.00    -0.040 C 
ATOM      5  C   LIG d   1       5.225  -2.295  -5.138  0.00  0.00     0.034 C 
ATOM      6  C   LIG d   1       6.708  -2.383  -4.737  0.00  0.00    -0.020 C 
ATOM      7  H   LIG d   1       6.722  -0.135  -7.262  0.00  0.00     0.027 H 
ATOM      8  H   LIG d   1       6.292   0.312  -5.580  0.00  0.00     0.027 H 
ATOM      9  H   LIG d   1       5.166  -1.972  -7.292  0.00  0.00     0.028 H 
ATOM     10  H   LIG d   1       4.263  -0.753  -6.340  0.00  0.00     0.028 H 
ENDROOT
BRANCH   5  11
ATOM     11  C   LIG d   1       4.694  -3.688  -5.485  0.00  0.00    -0.052 C 
ATOM     12  H   LIG d   1       4.381  -4.195  -4.573  0.00  0.00     0.024 H 
ATOM     13  H   LIG d   1       3.841  -3.593  -6.158  0.00  0.00     0.024 H 
ATOM     14  H   LIG d   1       5.479  -4.266  -5.972  0.00  0.00     0.024 H 
ENDBRANCH   5  11
BRANCH   5  15
ATOM     15  C   LIG d   1       4.419  -1.702  -4.012  0.00  0.00     0.164 C 
ATOM     16  O   LIG d   1       3.907  -2.425  -3.190  0.00  0.00    -0.295 OA
BRANCH  15  17
ATOM     17  C   LIG d   1       4.255  -0.207  -3.908  0.00  0.00     0.128 C 
ATOM     18 BR   LIG d   1       2.506   0.313  -4.640  0.00  0.00    -0.068 Br
ATOM     19 BR   LIG d   1       4.363   0.334  -2.021  0.00  0.00    -0.068 Br
ATOM     20  H   LIG d   1       4.981   0.244  -4.427  0.00  0.00     0.062 H 
ENDBRANCH  15  17
ENDBRANCH   5  15
BRANCH   6  21
ATOM     21  C   LIG d   1       6.901  -1.839  -3.320  0.00  0.00    -0.059 C 
ATOM     22  H   LIG d   1       7.065  -2.669  -2.632  0.00  0.00     0.024 H 
ATOM     23  H   LIG d   1       7.764  -1.175  -3.300  0.00  0.00     0.024 H 
ATOM     24  H   LIG d   1       6.010  -1.287  -3.018  0.00  0.00     0.024 H 
ENDBRANCH   6  21
BRANCH   6  25
ATOM     25  C   LIG d   1       7.188  -3.834  -4.812  0.00  0.00    -0.059 C 
ATOM     26  H   LIG d   1       6.358  -4.476  -5.106  0.00  0.00     0.024 H 
ATOM     27  H   LIG d   1       7.988  -3.914  -5.548  0.00  0.00     0.024 H 
ATOM     28  H   LIG d   1       7.560  -4.144  -3.835  0.00  0.00     0.024 H 
ENDBRANCH   6  25
BRANCH   1  29
ATOM     29  C   LIG d   1       8.630  -0.771  -5.050  0.00  0.00    -0.062 C 
ATOM     30  H   LIG d   1       8.446  -0.749  -3.976  0.00  0.00     0.023 H 
ATOM     31  H   LIG d   1       9.571  -1.285  -5.247  0.00  0.00     0.023 H 
ATOM     32  H   LIG d   1       8.686   0.249  -5.430  0.00  0.00     0.023 H 
ENDBRANCH   1  29
TORSDOF 6
ENDMDL
MODEL 9
REMARK VINA RESULT:      -3.7      2.950      4.517
REMARK  6 active torsions:
REMARK  status: ('A' for Active; 'I' for Inactive)
REMARK    1  A    between atoms: C_1  and  C_2 
REMARK    2  A    between atoms: C_6  and  C_10 
REMARK    3  A    between atoms: C_6  and  C_11 
REMARK    4  A    between atoms: C_7  and  C_8 
REMARK    5  A    between atoms: C_7  and  C_9 
REMARK    6  A    between atoms: C_11  and  C_13 
ROOT
ATOM      1  C   LIG d   1       7.710  -2.092  -6.464  0.00  0.00    -0.038 C 
ATOM      2  H   LIG d   1       7.545  -2.121  -7.542  0.00  0.00     0.030 H 
ATOM      3  C   LIG d   1       8.243  -0.704  -6.034  0.00  0.00    -0.049 C 
ATOM      4  C   LIG d   1       6.955   0.153  -5.970  0.00  0.00    -0.040 C 
ATOM      5  C   LIG d   1       5.892  -0.805  -5.395  0.00  0.00     0.034 C 
ATOM      6  C   LIG d   1       6.370  -2.233  -5.710  0.00  0.00    -0.020 C 
ATOM      7  H   LIG d   1       8.934  -0.308  -6.779  0.00  0.00     0.027 H 
ATOM      8  H   LIG d   1       8.722  -0.756  -5.056  0.00  0.00     0.027 H 
ATOM      9  H   LIG d   1       6.669   0.487  -6.967  0.00  0.00     0.028 H 
ATOM     10  H   LIG d   1       7.096   1.008  -5.308  0.00  0.00     0.028 H 
ENDROOT
BRANCH   5  11
ATOM     11  C   LIG d   1       4.539  -0.547  -6.061  0.00  0.00    -0.052 C 
ATOM     12  H   LIG d   1       4.418  -1.219  -6.910  0.00  0.00     0.024 H 
ATOM     13  H   LIG d   1       3.740  -0.726  -5.340  0.00  0.00     0.024 H 
ATOM     14  H   LIG d   1       4.493   0.486  -6.404  0.00  0.00     0.024 H 
ENDBRANCH   5  11
BRANCH   5  15
ATOM     15  C   LIG d   1       5.777  -0.615  -3.905  0.00  0.00     0.164 C 
ATOM     16  O   LIG d   1       6.770  -0.621  -3.217  0.00  0.00    -0.295 OA
BRANCH  15  17
ATOM     17  C   LIG d   1       4.423  -0.414  -3.272  0.00  0.00     0.128 C 
ATOM     18 BR   LIG d   1       3.829  -2.096  -2.447  0.00  0.00    -0.068 Br
ATOM     19 BR   LIG d   1       4.545   0.985  -1.896  0.00  0.00    -0.068 Br
ATOM     20  H   LIG d   1       3.766  -0.137  -3.974  0.00  0.00     0.062 H 
ENDBRANCH  15  17
ENDBRANCH   5  15
BRANCH   6  21
ATOM     21  C   LIG d   1       6.580  -3.014  -4.411  0.00  0.00    -0.059 C 
ATOM     22  H   LIG d   1       5.877  -2.660  -3.656  0.00  0.00     0.024 H 
ATOM     23  H   LIG d   1       6.412  -4.075  -4.593  0.00  0.00     0.024 H 
ATOM     24  H   LIG d   1       7.600  -2.863  -4.057  0.00  0.00     0.024 H 
ENDBRANCH   6  21
BRANCH   6  25
ATOM     25  C   LIG d   1       5.344  -2.948  -6.592  0.00  0.00    -0.059 C 
ATOM     26  H   LIG d   1       4.394  -2.415  -6.550  0.00  0.00     0.024 H 
ATOM     27  H   LIG d   1       5.703  -2.973  -7.620  0.00  0.00     0.024 H 
ATOM     28  H   LIG d   1       5.204  -3.968  -6.232  0.00  0.00     0.024 H 
ENDBRANCH   6  25
BRANCH   1  29
ATOM     29  C   LIG d   1       8.683  -3.195  -6.044  0.00  0.00    -0.062 C 
ATOM     30  H   LIG d   1       9.688  -2.779  -5.959  0.00  0.00     0.023 H 
ATOM     31  H   LIG d   1       8.377  -3.602  -5.080  0.00  0.00     0.023 H 
ATOM     32  H   LIG d   1       8.680  -3.988  -6.791  0.00  0.00     0.023 H 
ENDBRANCH   1  29
TORSDOF 6
ENDMDL
