MODEL 1
REMARK VINA RESULT:      -6.2      0.000      0.000
REMARK  20 active torsions:
REMARK  status: ('A' for Active; 'I' for Inactive)
REMARK    1  A    between atoms: C_1  and  O_2 
REMARK    2  A    between atoms: O_2  and  C_3 
REMARK    3  A    between atoms: C_5  and  C_10 
REMARK    4  A    between atoms: C_8  and  O_9 
REMARK    5  A    between atoms: C_10  and  C_11 
REMARK    6  A    between atoms: C_11  and  C_13 
REMARK    7  A    between atoms: C_11  and  C_31 
REMARK    8  A    between atoms: C_13  and  O_14 
REMARK    9  A    between atoms: O_14  and  C_15 
REMARK   10  A    between atoms: C_17  and  O_30 
REMARK   11  A    between atoms: C_19  and  O_29 
REMARK   12  A    between atoms: C_21  and  O_28 
REMARK   13  A    between atoms: C_23  and  C_26 
REMARK   14  A    between atoms: C_26  and  O_27 
REMARK   15  A    between atoms: C_33  and  C_40 
REMARK   16  A    between atoms: C_35  and  O_38 
REMARK   17  A    between atoms: C_36  and  O_37 
REMARK   18  A    between atoms: O_38  and  C_39 
REMARK   19  A    between atoms: C_41  and  C_42 
REMARK   20  A    between atoms: C_42  and  O_43 
ROOT
ATOM      1  C   LIG d   1       5.225  -3.502  -5.334  0.00  0.00     0.015 C 
ATOM      2  H   LIG d   1       4.193  -3.383  -5.008  0.00  0.00     0.037 H 
ENDROOT
BRANCH   1   3
ATOM      3  C   LIG d   1       6.169  -3.072  -4.208  0.00  0.00    -0.018 C 
ATOM      4  H   LIG d   1       7.143  -2.821  -4.627  0.00  0.00     0.032 H 
ATOM      5  H   LIG d   1       6.278  -3.888  -3.494  0.00  0.00     0.032 H 
BRANCH   3   6
ATOM      6  C   LIG d   1       5.598  -1.866  -3.508  0.00  0.00    -0.043 A 
ATOM      7  C   LIG d   1       6.228  -0.640  -3.622  0.00  0.00    -0.013 A 
ATOM      8  C   LIG d   1       5.704   0.471  -2.980  0.00  0.00     0.162 A 
ATOM      9  H   LIG d   1       7.128  -0.548  -4.212  0.00  0.00     0.066 H 
ATOM     10  C   LIG d   1       4.547   0.348  -2.217  0.00  0.00     0.159 A 
ATOM     11  C   LIG d   1       3.917  -0.882  -2.111  0.00  0.00    -0.016 A 
ATOM     12  C   LIG d   1       4.445  -1.986  -2.754  0.00  0.00    -0.055 A 
ATOM     13  H   LIG d   1       3.016  -0.979  -1.524  0.00  0.00     0.066 H 
ATOM     14  H   LIG d   1       3.956  -2.944  -2.668  0.00  0.00     0.062 H 
BRANCH   8  15
ATOM     15  O   LIG d   1       6.323   1.677  -3.091  0.00  0.00    -0.491 OA
BRANCH  15  16
ATOM     16  C   LIG d   1       7.546   1.713  -3.830  0.00  0.00     0.079 C 
ATOM     17  H   LIG d   1       7.771   2.741  -4.110  0.00  0.00     0.066 H 
ATOM     18  H   LIG d   1       8.354   1.319  -3.214  0.00  0.00     0.066 H 
ATOM     19  H   LIG d   1       7.444   1.105  -4.729  0.00  0.00     0.066 H 
ENDBRANCH  15  16
ENDBRANCH   8  15
BRANCH  10  20
ATOM     20  O   LIG d   1       4.032   1.434  -1.581  0.00  0.00    -0.503 OA
ATOM     21  H   LIG d   1       4.639   2.185  -1.529  0.00  0.00     0.292 HD
ENDBRANCH  10  20
ENDBRANCH   3   6
ENDBRANCH   1   3
BRANCH   1  22
ATOM     22  C   LIG d   1       5.475  -2.633  -6.569  0.00  0.00     0.058 C 
ATOM     23  H   LIG d   1       6.103  -1.785  -6.295  0.00  0.00     0.057 H 
ATOM     24  H   LIG d   1       5.975  -3.224  -7.334  0.00  0.00     0.057 H 
BRANCH  22  25
ATOM     25  O   LIG d   1       4.226  -2.157  -7.074  0.00  0.00    -0.348 OA
BRANCH  25  26
ATOM     26  C   LIG d   1       4.050  -2.364  -8.478  0.00  0.00     0.188 C 
ATOM     27  H   LIG d   1       5.014  -2.588  -8.936  0.00  0.00     0.094 H 
ATOM     28  O   LIG d   1       3.156  -3.458  -8.688  0.00  0.00    -0.341 OA
ATOM     29  C   LIG d   1       2.929  -3.769 -10.065  0.00  0.00     0.113 C 
ATOM     30  C   LIG d   1       2.299  -2.561 -10.763  0.00  0.00     0.112 C 
ATOM     31  H   LIG d   1       3.878  -4.012 -10.544  0.00  0.00     0.065 H 
ATOM     32  C   LIG d   1       3.224  -1.349 -10.603  0.00  0.00     0.114 C 
ATOM     33  H   LIG d   1       2.167  -2.780 -11.822  0.00  0.00     0.065 H 
ATOM     34  C   LIG d   1       3.465  -1.099  -9.112  0.00  0.00     0.134 C 
ATOM     35  H   LIG d   1       4.174  -1.550 -11.098  0.00  0.00     0.065 H 
ATOM     36  H   LIG d   1       4.166  -0.273  -8.989  0.00  0.00     0.067 H 
BRANCH  29  37
ATOM     37  C   LIG d   1       1.984  -4.968 -10.169  0.00  0.00     0.073 C 
ATOM     38  H   LIG d   1       0.956  -4.614 -10.240  0.00  0.00     0.058 H 
ATOM     39  H   LIG d   1       2.230  -5.549 -11.057  0.00  0.00     0.058 H 
BRANCH  37  40
ATOM     40  O   LIG d   1       2.126  -5.788  -9.008  0.00  0.00    -0.392 OA
ATOM     41  H   LIG d   1       2.815  -6.462  -9.084  0.00  0.00     0.209 HD
ENDBRANCH  37  40
ENDBRANCH  29  37
BRANCH  30  42
ATOM     42  O   LIG d   1       1.031  -2.275 -10.171  0.00  0.00    -0.387 OA
ATOM     43  H   LIG d   1       0.477  -3.056 -10.028  0.00  0.00     0.210 HD
ENDBRANCH  30  42
BRANCH  32  44
ATOM     44  O   LIG d   1       2.611  -0.198 -11.189  0.00  0.00    -0.386 OA
ATOM     45  H   LIG d   1       1.821   0.106 -10.721  0.00  0.00     0.210 HD
ENDBRANCH  32  44
BRANCH  34  46
ATOM     46  O   LIG d   1       2.228  -0.773  -8.473  0.00  0.00    -0.384 OA
ATOM     47  H   LIG d   1       1.601  -1.507  -8.435  0.00  0.00     0.210 HD
ENDBRANCH  34  46
ENDBRANCH  25  26
ENDBRANCH  22  25
ENDBRANCH   1  22
BRANCH   1  48
ATOM     48  C   LIG d   1       5.481  -4.948  -5.677  0.00  0.00     0.004 A 
ATOM     49  C   LIG d   1       4.471  -5.713  -6.238  0.00  0.00     0.162 A 
ATOM     50  C   LIG d   1       4.703  -7.048  -6.563  0.00  0.00     0.162 A 
ATOM     51  C   LIG d   1       5.939  -7.614  -6.316  0.00  0.00    -0.009 A 
ATOM     52  C   LIG d   1       6.955  -6.844  -5.746  0.00  0.00    -0.021 A 
ATOM     53  H   LIG d   1       6.121  -8.649  -6.564  0.00  0.00     0.066 H 
ATOM     54  C   LIG d   1       6.717  -5.507  -5.428  0.00  0.00    -0.047 A 
ATOM     55  H   LIG d   1       7.501  -4.909  -4.987  0.00  0.00     0.063 H 
BRANCH  49  56
ATOM     56  O   LIG d   1       3.252  -5.159  -6.477  0.00  0.00    -0.503 OA
ATOM     57  H   LIG d   1       2.509  -5.737  -6.257  0.00  0.00     0.292 HD
ENDBRANCH  49  56
BRANCH  50  58
ATOM     58  O   LIG d   1       3.712  -7.796  -7.118  0.00  0.00    -0.491 OA
BRANCH  58  59
ATOM     59  C   LIG d   1       4.059  -8.594  -8.252  0.00  0.00     0.079 C 
ATOM     60  H   LIG d   1       3.280  -9.336  -8.426  0.00  0.00     0.066 H 
ATOM     61  H   LIG d   1       4.155  -7.955  -9.130  0.00  0.00     0.066 H 
ATOM     62  H   LIG d   1       5.007  -9.099  -8.064  0.00  0.00     0.066 H 
ENDBRANCH  58  59
ENDBRANCH  50  58
BRANCH  52  63
ATOM     63  C   LIG d   1       8.279  -7.444  -5.480  0.00  0.00    -0.056 C 
ATOM     64  C   LIG d   1       9.344  -6.666  -5.344  0.00  0.00    -0.058 C 
ATOM     65  H   LIG d   1       9.244  -5.593  -5.430  0.00  0.00     0.059 H 
ATOM     66  H   LIG d   1       8.379  -8.515  -5.395  0.00  0.00     0.062 H 
BRANCH  64  67
ATOM     67  C   LIG d   1      10.695  -7.277  -5.073  0.00  0.00     0.063 C 
ATOM     68  H   LIG d   1      11.012  -7.858  -5.939  0.00  0.00     0.060 H 
ATOM     69  H   LIG d   1      11.419  -6.485  -4.881  0.00  0.00     0.060 H 
BRANCH  67  70
ATOM     70  O   LIG d   1      10.610  -8.132  -3.931  0.00  0.00    -0.391 OA
ATOM     71  H   LIG d   1      10.164  -7.732  -3.172  0.00  0.00     0.210 HD
ENDBRANCH  67  70
ENDBRANCH  64  67
ENDBRANCH  52  63
ENDBRANCH   1  48
TORSDOF 20
ENDMDL
MODEL 2
REMARK VINA RESULT:      -6.2      1.268      1.881
REMARK  20 active torsions:
REMARK  status: ('A' for Active; 'I' for Inactive)
REMARK    1  A    between atoms: C_1  and  O_2 
REMARK    2  A    between atoms: O_2  and  C_3 
REMARK    3  A    between atoms: C_5  and  C_10 
REMARK    4  A    between atoms: C_8  and  O_9 
REMARK    5  A    between atoms: C_10  and  C_11 
REMARK    6  A    between atoms: C_11  and  C_13 
REMARK    7  A    between atoms: C_11  and  C_31 
REMARK    8  A    between atoms: C_13  and  O_14 
REMARK    9  A    between atoms: O_14  and  C_15 
REMARK   10  A    between atoms: C_17  and  O_30 
REMARK   11  A    between atoms: C_19  and  O_29 
REMARK   12  A    between atoms: C_21  and  O_28 
REMARK   13  A    between atoms: C_23  and  C_26 
REMARK   14  A    between atoms: C_26  and  O_27 
REMARK   15  A    between atoms: C_33  and  C_40 
REMARK   16  A    between atoms: C_35  and  O_38 
REMARK   17  A    between atoms: C_36  and  O_37 
REMARK   18  A    between atoms: O_38  and  C_39 
REMARK   19  A    between atoms: C_41  and  C_42 
REMARK   20  A    between atoms: C_42  and  O_43 
ROOT
ATOM      1  C   LIG d   1       5.258  -3.499  -5.320  0.00  0.00     0.015 C 
ATOM      2  H   LIG d   1       4.224  -3.368  -5.004  0.00  0.00     0.037 H 
ENDROOT
BRANCH   1   3
ATOM      3  C   LIG d   1       6.196  -3.058  -4.194  0.00  0.00    -0.018 C 
ATOM      4  H   LIG d   1       7.170  -2.804  -4.611  0.00  0.00     0.032 H 
ATOM      5  H   LIG d   1       6.306  -3.869  -3.475  0.00  0.00     0.032 H 
BRANCH   3   6
ATOM      6  C   LIG d   1       5.617  -1.850  -3.503  0.00  0.00    -0.043 A 
ATOM      7  C   LIG d   1       6.236  -0.620  -3.630  0.00  0.00    -0.013 A 
ATOM      8  C   LIG d   1       5.705   0.492  -2.996  0.00  0.00     0.162 A 
ATOM      9  H   LIG d   1       7.133  -0.526  -4.223  0.00  0.00     0.066 H 
ATOM     10  C   LIG d   1       4.551   0.366  -2.228  0.00  0.00     0.159 A 
ATOM     11  C   LIG d   1       3.932  -0.868  -2.109  0.00  0.00    -0.016 A 
ATOM     12  C   LIG d   1       4.468  -1.973  -2.744  0.00  0.00    -0.055 A 
ATOM     13  H   LIG d   1       3.034  -0.968  -1.518  0.00  0.00     0.066 H 
ATOM     14  H   LIG d   1       3.987  -2.935  -2.647  0.00  0.00     0.062 H 
BRANCH   8  15
ATOM     15  O   LIG d   1       6.313   1.702  -3.119  0.00  0.00    -0.491 OA
BRANCH  15  16
ATOM     16  C   LIG d   1       7.564   1.732  -3.809  0.00  0.00     0.079 C 
ATOM     17  H   LIG d   1       7.952   2.750  -3.815  0.00  0.00     0.066 H 
ATOM     18  H   LIG d   1       8.273   1.076  -3.304  0.00  0.00     0.066 H 
ATOM     19  H   LIG d   1       7.421   1.392  -4.835  0.00  0.00     0.066 H 
ENDBRANCH  15  16
ENDBRANCH   8  15
BRANCH  10  20
ATOM     20  O   LIG d   1       4.029   1.453  -1.599  0.00  0.00    -0.503 OA
ATOM     21  H   LIG d   1       4.099   1.422  -0.635  0.00  0.00     0.292 HD
ENDBRANCH  10  20
ENDBRANCH   3   6
ENDBRANCH   1   3
BRANCH   1  22
ATOM     22  C   LIG d   1       5.522  -2.650  -6.566  0.00  0.00     0.058 C 
ATOM     23  H   LIG d   1       6.077  -1.754  -6.284  0.00  0.00     0.057 H 
ATOM     24  H   LIG d   1       6.104  -3.227  -7.283  0.00  0.00     0.057 H 
BRANCH  22  25
ATOM     25  O   LIG d   1       4.277  -2.272  -7.157  0.00  0.00    -0.348 OA
BRANCH  25  26
ATOM     26  C   LIG d   1       4.411  -1.457  -8.324  0.00  0.00     0.188 C 
ATOM     27  H   LIG d   1       5.209  -1.852  -8.953  0.00  0.00     0.094 H 
ATOM     28  O   LIG d   1       3.182  -1.462  -9.051  0.00  0.00    -0.341 OA
ATOM     29  C   LIG d   1       3.213  -0.694 -10.256  0.00  0.00     0.113 C 
ATOM     30  C   LIG d   1       3.505   0.770  -9.919  0.00  0.00     0.112 C 
ATOM     31  H   LIG d   1       3.994  -1.079 -10.912  0.00  0.00     0.065 H 
ATOM     32  C   LIG d   1       4.833   0.856  -9.159  0.00  0.00     0.114 C 
ATOM     33  H   LIG d   1       3.574   1.350 -10.839  0.00  0.00     0.065 H 
ATOM     34  C   LIG d   1       4.751  -0.023  -7.908  0.00  0.00     0.134 C 
ATOM     35  H   LIG d   1       5.641   0.505  -9.800  0.00  0.00     0.065 H 
ATOM     36  H   LIG d   1       5.710  -0.011  -7.391  0.00  0.00     0.067 H 
BRANCH  29  37
ATOM     37  C   LIG d   1       1.859  -0.795 -10.962  0.00  0.00     0.073 C 
ATOM     38  H   LIG d   1       1.674   0.122 -11.522  0.00  0.00     0.058 H 
ATOM     39  H   LIG d   1       1.869  -1.642 -11.646  0.00  0.00     0.058 H 
BRANCH  37  40
ATOM     40  O   LIG d   1       0.828  -0.978  -9.991  0.00  0.00    -0.392 OA
ATOM     41  H   LIG d   1       1.076  -1.559  -9.259  0.00  0.00     0.209 HD
ENDBRANCH  37  40
ENDBRANCH  29  37
BRANCH  30  42
ATOM     42  O   LIG d   1       2.454   1.292  -9.103  0.00  0.00    -0.387 OA
ATOM     43  H   LIG d   1       1.761   0.649  -8.895  0.00  0.00     0.210 HD
ENDBRANCH  30  42
BRANCH  32  44
ATOM     44  O   LIG d   1       5.079   2.212  -8.777  0.00  0.00    -0.386 OA
ATOM     45  H   LIG d   1       4.392   2.590  -8.211  0.00  0.00     0.210 HD
ENDBRANCH  32  44
BRANCH  34  46
ATOM     46  O   LIG d   1       3.733   0.476  -7.037  0.00  0.00    -0.384 OA
ATOM     47  H   LIG d   1       3.652   1.439  -7.038  0.00  0.00     0.210 HD
ENDBRANCH  34  46
ENDBRANCH  25  26
ENDBRANCH  22  25
ENDBRANCH   1  22
BRANCH   1  48
ATOM     48  C   LIG d   1       5.507  -4.950  -5.640  0.00  0.00     0.004 A 
ATOM     49  C   LIG d   1       4.496  -5.718  -6.199  0.00  0.00     0.162 A 
ATOM     50  C   LIG d   1       4.722  -7.059  -6.502  0.00  0.00     0.162 A 
ATOM     51  C   LIG d   1       5.953  -7.629  -6.235  0.00  0.00    -0.009 A 
ATOM     52  C   LIG d   1       6.969  -6.857  -5.668  0.00  0.00    -0.021 A 
ATOM     53  H   LIG d   1       6.129  -8.669  -6.466  0.00  0.00     0.066 H 
ATOM     54  C   LIG d   1       6.737  -5.514  -5.372  0.00  0.00    -0.047 A 
ATOM     55  H   LIG d   1       7.521  -4.915  -4.933  0.00  0.00     0.063 H 
BRANCH  49  56
ATOM     56  O   LIG d   1       3.284  -5.159  -6.455  0.00  0.00    -0.503 OA
ATOM     57  H   LIG d   1       2.911  -4.671  -5.709  0.00  0.00     0.292 HD
ENDBRANCH  49  56
BRANCH  50  58
ATOM     58  O   LIG d   1       3.731  -7.808  -7.054  0.00  0.00    -0.491 OA
BRANCH  58  59
ATOM     59  C   LIG d   1       3.866  -8.145  -8.436  0.00  0.00     0.079 C 
ATOM     60  H   LIG d   1       3.242  -7.482  -9.035  0.00  0.00     0.066 H 
ATOM     61  H   LIG d   1       4.908  -8.033  -8.737  0.00  0.00     0.066 H 
ATOM     62  H   LIG d   1       3.551  -9.177  -8.590  0.00  0.00     0.066 H 
ENDBRANCH  58  59
ENDBRANCH  50  58
BRANCH  52  63
ATOM     63  C   LIG d   1       8.286  -7.462  -5.382  0.00  0.00    -0.056 C 
ATOM     64  C   LIG d   1       8.968  -7.088  -4.307  0.00  0.00    -0.058 C 
ATOM     65  H   LIG d   1       8.560  -6.341  -3.642  0.00  0.00     0.059 H 
ATOM     66  H   LIG d   1       8.694  -8.208  -6.046  0.00  0.00     0.062 H 
BRANCH  64  67
ATOM     67  C   LIG d   1      10.311  -7.704  -4.014  0.00  0.00     0.063 C 
ATOM     68  H   LIG d   1      10.213  -8.419  -3.197  0.00  0.00     0.060 H 
ATOM     69  H   LIG d   1      10.677  -8.217  -4.903  0.00  0.00     0.060 H 
BRANCH  67  70
ATOM     70  O   LIG d   1      11.234  -6.679  -3.640  0.00  0.00    -0.391 OA
ATOM     71  H   LIG d   1      10.970  -6.179  -2.856  0.00  0.00     0.210 HD
ENDBRANCH  67  70
ENDBRANCH  64  67
ENDBRANCH  52  63
ENDBRANCH   1  48
TORSDOF 20
ENDMDL
MODEL 3
REMARK VINA RESULT:      -6.0      1.248      2.365
REMARK  20 active torsions:
REMARK  status: ('A' for Active; 'I' for Inactive)
REMARK    1  A    between atoms: C_1  and  O_2 
REMARK    2  A    between atoms: O_2  and  C_3 
REMARK    3  A    between atoms: C_5  and  C_10 
REMARK    4  A    between atoms: C_8  and  O_9 
REMARK    5  A    between atoms: C_10  and  C_11 
REMARK    6  A    between atoms: C_11  and  C_13 
REMARK    7  A    between atoms: C_11  and  C_31 
REMARK    8  A    between atoms: C_13  and  O_14 
REMARK    9  A    between atoms: O_14  and  C_15 
REMARK   10  A    between atoms: C_17  and  O_30 
REMARK   11  A    between atoms: C_19  and  O_29 
REMARK   12  A    between atoms: C_21  and  O_28 
REMARK   13  A    between atoms: C_23  and  C_26 
REMARK   14  A    between atoms: C_26  and  O_27 
REMARK   15  A    between atoms: C_33  and  C_40 
REMARK   16  A    between atoms: C_35  and  O_38 
REMARK   17  A    between atoms: C_36  and  O_37 
REMARK   18  A    between atoms: O_38  and  C_39 
REMARK   19  A    between atoms: C_41  and  C_42 
REMARK   20  A    between atoms: C_42  and  O_43 
ROOT
ATOM      1  C   LIG d   1       5.145  -3.465  -5.519  0.00  0.00     0.015 C 
ATOM      2  H   LIG d   1       4.076  -3.297  -5.400  0.00  0.00     0.037 H 
ENDROOT
BRANCH   1   3
ATOM      3  C   LIG d   1       5.866  -3.117  -4.215  0.00  0.00    -0.018 C 
ATOM      4  H   LIG d   1       6.918  -2.923  -4.422  0.00  0.00     0.032 H 
ATOM      5  H   LIG d   1       5.779  -3.950  -3.518  0.00  0.00     0.032 H 
BRANCH   3   6
ATOM      6  C   LIG d   1       5.239  -1.888  -3.608  0.00  0.00    -0.043 A 
ATOM      7  C   LIG d   1       5.938  -0.694  -3.593  0.00  0.00    -0.013 A 
ATOM      8  C   LIG d   1       5.363   0.438  -3.036  0.00  0.00     0.162 A 
ATOM      9  H   LIG d   1       6.930  -0.643  -4.014  0.00  0.00     0.066 H 
ATOM     10  C   LIG d   1       4.085   0.368  -2.489  0.00  0.00     0.159 A 
ATOM     11  C   LIG d   1       3.388  -0.830  -2.513  0.00  0.00    -0.016 A 
ATOM     12  C   LIG d   1       3.968  -1.955  -3.070  0.00  0.00    -0.055 A 
ATOM     13  H   LIG d   1       2.395  -0.886  -2.094  0.00  0.00     0.066 H 
ATOM     14  H   LIG d   1       3.425  -2.888  -3.084  0.00  0.00     0.062 H 
BRANCH   8  15
ATOM     15  O   LIG d   1       6.048   1.612  -3.019  0.00  0.00    -0.491 OA
BRANCH  15  16
ATOM     16  C   LIG d   1       7.292   1.647  -3.722  0.00  0.00     0.079 C 
ATOM     17  H   LIG d   1       8.083   1.258  -3.081  0.00  0.00     0.066 H 
ATOM     18  H   LIG d   1       7.219   1.034  -4.621  0.00  0.00     0.066 H 
ATOM     19  H   LIG d   1       7.523   2.675  -4.000  0.00  0.00     0.066 H 
ENDBRANCH  15  16
ENDBRANCH   8  15
BRANCH  10  20
ATOM     20  O   LIG d   1       3.519   1.474  -1.937  0.00  0.00    -0.503 OA
ATOM     21  H   LIG d   1       3.095   1.315  -1.083  0.00  0.00     0.292 HD
ENDBRANCH  10  20
ENDBRANCH   3   6
ENDBRANCH   1   3
BRANCH   1  22
ATOM     22  C   LIG d   1       5.678  -2.580  -6.648  0.00  0.00     0.058 C 
ATOM     23  H   LIG d   1       5.740  -1.547  -6.302  0.00  0.00     0.057 H 
ATOM     24  H   LIG d   1       6.668  -2.924  -6.943  0.00  0.00     0.057 H 
BRANCH  22  25
ATOM     25  O   LIG d   1       4.794  -2.655  -7.768  0.00  0.00    -0.348 OA
BRANCH  25  26
ATOM     26  C   LIG d   1       3.958  -1.506  -7.927  0.00  0.00     0.188 C 
ATOM     27  H   LIG d   1       3.534  -1.229  -6.961  0.00  0.00     0.094 H 
ATOM     28  O   LIG d   1       4.735  -0.420  -8.436  0.00  0.00    -0.341 OA
ATOM     29  C   LIG d   1       3.999   0.793  -8.609  0.00  0.00     0.113 C 
ATOM     30  C   LIG d   1       2.870   0.564  -9.617  0.00  0.00     0.112 C 
ATOM     31  H   LIG d   1       3.575   1.101  -7.653  0.00  0.00     0.065 H 
ATOM     32  C   LIG d   1       1.973  -0.574  -9.118  0.00  0.00     0.114 C 
ATOM     33  H   LIG d   1       2.279   1.475  -9.717  0.00  0.00     0.065 H 
ATOM     34  C   LIG d   1       2.828  -1.827  -8.908  0.00  0.00     0.134 C 
ATOM     35  H   LIG d   1       1.510  -0.286  -8.175  0.00  0.00     0.065 H 
ATOM     36  H   LIG d   1       2.209  -2.626  -8.501  0.00  0.00     0.067 H 
BRANCH  29  37
ATOM     37  C   LIG d   1       4.933   1.889  -9.129  0.00  0.00     0.073 C 
ATOM     38  H   LIG d   1       4.366   2.583  -9.749  0.00  0.00     0.058 H 
ATOM     39  H   LIG d   1       5.367   2.425  -8.286  0.00  0.00     0.058 H 
BRANCH  37  40
ATOM     40  O   LIG d   1       5.975   1.296  -9.906  0.00  0.00    -0.392 OA
ATOM     41  H   LIG d   1       6.290   0.450  -9.561  0.00  0.00     0.209 HD
ENDBRANCH  37  40
ENDBRANCH  29  37
BRANCH  30  42
ATOM     42  O   LIG d   1       3.426   0.213 -10.886  0.00  0.00    -0.387 OA
ATOM     43  H   LIG d   1       2.768   0.108 -11.589  0.00  0.00     0.210 HD
ENDBRANCH  30  42
BRANCH  32  44
ATOM     44  O   LIG d   1       0.958  -0.845 -10.088  0.00  0.00    -0.386 OA
ATOM     45  H   LIG d   1       0.330  -0.120 -10.211  0.00  0.00     0.210 HD
ENDBRANCH  32  44
BRANCH  34  46
ATOM     46  O   LIG d   1       3.384  -2.244 -10.157  0.00  0.00    -0.384 OA
ATOM     47  H   LIG d   1       2.727  -2.537 -10.802  0.00  0.00     0.210 HD
ENDBRANCH  34  46
ENDBRANCH  25  26
ENDBRANCH  22  25
ENDBRANCH   1  22
BRANCH   1  48
ATOM     48  C   LIG d   1       5.393  -4.913  -5.857  0.00  0.00     0.004 A 
ATOM     49  C   LIG d   1       4.401  -5.657  -6.478  0.00  0.00     0.162 A 
ATOM     50  C   LIG d   1       4.626  -6.994  -6.798  0.00  0.00     0.162 A 
ATOM     51  C   LIG d   1       5.836  -7.584  -6.486  0.00  0.00    -0.009 A 
ATOM     52  C   LIG d   1       6.834  -6.837  -5.857  0.00  0.00    -0.021 A 
ATOM     53  H   LIG d   1       6.012  -8.622  -6.731  0.00  0.00     0.066 H 
ATOM     54  C   LIG d   1       6.603  -5.497  -5.544  0.00  0.00    -0.047 A 
ATOM     55  H   LIG d   1       7.372  -4.916  -5.057  0.00  0.00     0.063 H 
BRANCH  49  56
ATOM     56  O   LIG d   1       3.208  -5.079  -6.779  0.00  0.00    -0.503 OA
ATOM     57  H   LIG d   1       3.173  -4.131  -6.594  0.00  0.00     0.292 HD
ENDBRANCH  49  56
BRANCH  50  58
ATOM     58  O   LIG d   1       3.654  -7.720  -7.411  0.00  0.00    -0.491 OA
BRANCH  58  59
ATOM     59  C   LIG d   1       3.812  -7.965  -8.810  0.00  0.00     0.079 C 
ATOM     60  H   LIG d   1       2.921  -7.630  -9.341  0.00  0.00     0.066 H 
ATOM     61  H   LIG d   1       4.681  -7.419  -9.178  0.00  0.00     0.066 H 
ATOM     62  H   LIG d   1       3.955  -9.032  -8.978  0.00  0.00     0.066 H 
ENDBRANCH  58  59
ENDBRANCH  50  58
BRANCH  52  63
ATOM     63  C   LIG d   1       8.129  -7.463  -5.522  0.00  0.00    -0.056 C 
ATOM     64  C   LIG d   1       8.908  -6.920  -4.595  0.00  0.00    -0.058 C 
ATOM     65  H   LIG d   1       8.594  -6.020  -4.086  0.00  0.00     0.059 H 
ATOM     66  H   LIG d   1       8.443  -8.361  -6.031  0.00  0.00     0.062 H 
BRANCH  64  67
ATOM     67  C   LIG d   1      10.229  -7.558  -4.253  0.00  0.00     0.063 C 
ATOM     68  H   LIG d   1      10.353  -8.472  -4.833  0.00  0.00     0.060 H 
ATOM     69  H   LIG d   1      11.038  -6.866  -4.489  0.00  0.00     0.060 H 
BRANCH  67  70
ATOM     70  O   LIG d   1      10.261  -7.871  -2.859  0.00  0.00    -0.391 OA
ATOM     71  H   LIG d   1       9.396  -8.088  -2.485  0.00  0.00     0.210 HD
ENDBRANCH  67  70
ENDBRANCH  64  67
ENDBRANCH  52  63
ENDBRANCH   1  48
TORSDOF 20
ENDMDL
MODEL 4
REMARK VINA RESULT:      -5.9      5.910     12.345
REMARK  20 active torsions:
REMARK  status: ('A' for Active; 'I' for Inactive)
REMARK    1  A    between atoms: C_1  and  O_2 
REMARK    2  A    between atoms: O_2  and  C_3 
REMARK    3  A    between atoms: C_5  and  C_10 
REMARK    4  A    between atoms: C_8  and  O_9 
REMARK    5  A    between atoms: C_10  and  C_11 
REMARK    6  A    between atoms: C_11  and  C_13 
REMARK    7  A    between atoms: C_11  and  C_31 
REMARK    8  A    between atoms: C_13  and  O_14 
REMARK    9  A    between atoms: O_14  and  C_15 
REMARK   10  A    between atoms: C_17  and  O_30 
REMARK   11  A    between atoms: C_19  and  O_29 
REMARK   12  A    between atoms: C_21  and  O_28 
REMARK   13  A    between atoms: C_23  and  C_26 
REMARK   14  A    between atoms: C_26  and  O_27 
REMARK   15  A    between atoms: C_33  and  C_40 
REMARK   16  A    between atoms: C_35  and  O_38 
REMARK   17  A    between atoms: C_36  and  O_37 
REMARK   18  A    between atoms: O_38  and  C_39 
REMARK   19  A    between atoms: C_41  and  C_42 
REMARK   20  A    between atoms: C_42  and  O_43 
ROOT
ATOM      1  C   LIG d   1       9.804   2.496  -4.252  0.00  0.00     0.015 C 
ATOM      2  H   LIG d   1       9.747   1.907  -3.337  0.00  0.00     0.037 H 
ENDROOT
BRANCH   1   3
ATOM      3  C   LIG d   1       8.574   2.213  -5.118  0.00  0.00    -0.018 C 
ATOM      4  H   LIG d   1       8.894   1.844  -6.093  0.00  0.00     0.032 H 
ATOM      5  H   LIG d   1       8.001   3.131  -5.246  0.00  0.00     0.032 H 
BRANCH   3   6
ATOM      6  C   LIG d   1       7.715   1.173  -4.446  0.00  0.00    -0.043 A 
ATOM      7  C   LIG d   1       6.782   1.557  -3.499  0.00  0.00    -0.013 A 
ATOM      8  C   LIG d   1       5.991   0.603  -2.880  0.00  0.00     0.162 A 
ATOM      9  H   LIG d   1       6.671   2.600  -3.243  0.00  0.00     0.066 H 
ATOM     10  C   LIG d   1       6.141  -0.741  -3.209  0.00  0.00     0.159 A 
ATOM     11  C   LIG d   1       7.073  -1.118  -4.162  0.00  0.00    -0.016 A 
ATOM     12  C   LIG d   1       7.859  -0.161  -4.776  0.00  0.00    -0.055 A 
ATOM     13  H   LIG d   1       7.188  -2.160  -4.423  0.00  0.00     0.066 H 
ATOM     14  H   LIG d   1       8.588  -0.457  -5.516  0.00  0.00     0.062 H 
BRANCH   8  15
ATOM     15  O   LIG d   1       5.074   0.979  -1.948  0.00  0.00    -0.491 OA
BRANCH  15  16
ATOM     16  C   LIG d   1       3.791   1.385  -2.428  0.00  0.00     0.079 C 
ATOM     17  H   LIG d   1       3.749   2.472  -2.480  0.00  0.00     0.066 H 
ATOM     18  H   LIG d   1       3.626   0.968  -3.422  0.00  0.00     0.066 H 
ATOM     19  H   LIG d   1       3.018   1.023  -1.749  0.00  0.00     0.066 H 
ENDBRANCH  15  16
ENDBRANCH   8  15
BRANCH  10  20
ATOM     20  O   LIG d   1       5.370  -1.681  -2.600  0.00  0.00    -0.503 OA
ATOM     21  H   LIG d   1       4.858  -2.227  -3.212  0.00  0.00     0.292 HD
ENDBRANCH  10  20
ENDBRANCH   3   6
ENDBRANCH   1   3
BRANCH   1  22
ATOM     22  C   LIG d   1      11.070   2.117  -5.024  0.00  0.00     0.058 C 
ATOM     23  H   LIG d   1      10.832   1.344  -5.756  0.00  0.00     0.057 H 
ATOM     24  H   LIG d   1      11.459   2.996  -5.537  0.00  0.00     0.057 H 
BRANCH  22  25
ATOM     25  O   LIG d   1      12.053   1.623  -4.112  0.00  0.00    -0.348 OA
BRANCH  25  26
ATOM     26  C   LIG d   1      13.305   2.309  -4.179  0.00  0.00     0.188 C 
ATOM     27  H   LIG d   1      13.432   2.737  -5.174  0.00  0.00     0.094 H 
ATOM     28  O   LIG d   1      13.327   3.354  -3.205  0.00  0.00    -0.341 OA
ATOM     29  C   LIG d   1      14.531   4.124  -3.202  0.00  0.00     0.113 C 
ATOM     30  C   LIG d   1      15.718   3.213  -2.881  0.00  0.00     0.112 C 
ATOM     31  H   LIG d   1      14.675   4.577  -4.184  0.00  0.00     0.065 H 
ATOM     32  C   LIG d   1      15.775   2.080  -3.911  0.00  0.00     0.114 C 
ATOM     33  H   LIG d   1      16.642   3.790  -2.924  0.00  0.00     0.065 H 
ATOM     34  C   LIG d   1      14.443   1.325  -3.897  0.00  0.00     0.134 C 
ATOM     35  H   LIG d   1      15.948   2.498  -4.903  0.00  0.00     0.065 H 
ATOM     36  H   LIG d   1      14.454   0.552  -4.665  0.00  0.00     0.067 H 
BRANCH  29  37
ATOM     37  C   LIG d   1      14.432   5.225  -2.144  0.00  0.00     0.073 C 
ATOM     38  H   LIG d   1      15.417   5.403  -1.713  0.00  0.00     0.058 H 
ATOM     39  H   LIG d   1      14.067   6.142  -2.607  0.00  0.00     0.058 H 
BRANCH  37  40
ATOM     40  O   LIG d   1      13.528   4.817  -1.116  0.00  0.00    -0.392 OA
ATOM     41  H   LIG d   1      13.300   5.519  -0.492  0.00  0.00     0.209 HD
ENDBRANCH  37  40
ENDBRANCH  29  37
BRANCH  30  42
ATOM     42  O   LIG d   1      15.558   2.662  -1.573  0.00  0.00    -0.387 OA
ATOM     43  H   LIG d   1      16.371   2.294  -1.198  0.00  0.00     0.210 HD
ENDBRANCH  30  42
BRANCH  32  44
ATOM     44  O   LIG d   1      16.837   1.182  -3.578  0.00  0.00    -0.386 OA
ATOM     45  H   LIG d   1      17.044   1.154  -2.634  0.00  0.00     0.210 HD
ENDBRANCH  32  44
BRANCH  34  46
ATOM     46  O   LIG d   1      14.246   0.723  -2.616  0.00  0.00    -0.384 OA
ATOM     47  H   LIG d   1      14.895   0.991  -1.951  0.00  0.00     0.210 HD
ENDBRANCH  34  46
ENDBRANCH  25  26
ENDBRANCH  22  25
ENDBRANCH   1  22
BRANCH   1  48
ATOM     48  C   LIG d   1       9.846   3.962  -3.905  0.00  0.00     0.004 A 
ATOM     49  C   LIG d   1      10.352   4.368  -2.680  0.00  0.00     0.162 A 
ATOM     50  C   LIG d   1      10.399   5.722  -2.357  0.00  0.00     0.162 A 
ATOM     51  C   LIG d   1       9.931   6.663  -3.254  0.00  0.00    -0.009 A 
ATOM     52  C   LIG d   1       9.417   6.254  -4.486  0.00  0.00    -0.021 A 
ATOM     53  H   LIG d   1       9.964   7.713  -3.004  0.00  0.00     0.066 H 
ATOM     54  C   LIG d   1       9.377   4.896  -4.805  0.00  0.00    -0.047 A 
ATOM     55  H   LIG d   1       8.980   4.577  -5.758  0.00  0.00     0.063 H 
BRANCH  49  56
ATOM     56  O   LIG d   1      10.808   3.442  -1.794  0.00  0.00    -0.503 OA
ATOM     57  H   LIG d   1      10.199   2.705  -1.650  0.00  0.00     0.292 HD
ENDBRANCH  49  56
BRANCH  50  58
ATOM     58  O   LIG d   1      10.901   6.118  -1.156  0.00  0.00    -0.491 OA
BRANCH  58  59
ATOM     59  C   LIG d   1      10.317   7.279  -0.561  0.00  0.00     0.079 C 
ATOM     60  H   LIG d   1       9.562   7.690  -1.229  0.00  0.00     0.066 H 
ATOM     61  H   LIG d   1       9.853   7.006   0.387  0.00  0.00     0.066 H 
ATOM     62  H   LIG d   1      11.093   8.025  -0.385  0.00  0.00     0.066 H 
ENDBRANCH  58  59
ENDBRANCH  50  58
BRANCH  52  63
ATOM     63  C   LIG d   1       8.915   7.256  -5.449  0.00  0.00    -0.056 C 
ATOM     64  C   LIG d   1       9.677   7.637  -6.466  0.00  0.00    -0.058 C 
ATOM     65  H   LIG d   1      10.664   7.216  -6.589  0.00  0.00     0.059 H 
ATOM     66  H   LIG d   1       7.929   7.677  -5.326  0.00  0.00     0.062 H 
BRANCH  64  67
ATOM     67  C   LIG d   1       9.166   8.659  -7.449  0.00  0.00     0.063 C 
ATOM     68  H   LIG d   1       8.408   9.278  -6.968  0.00  0.00     0.060 H 
ATOM     69  H   LIG d   1       9.991   9.288  -7.781  0.00  0.00     0.060 H 
BRANCH  67  70
ATOM     70  O   LIG d   1       8.591   7.992  -8.574  0.00  0.00    -0.391 OA
ATOM     71  H   LIG d   1       8.274   8.589  -9.265  0.00  0.00     0.210 HD
ENDBRANCH  67  70
ENDBRANCH  64  67
ENDBRANCH  52  63
ENDBRANCH   1  48
TORSDOF 20
ENDMDL
MODEL 5
REMARK VINA RESULT:      -5.9      5.649     11.756
REMARK  20 active torsions:
REMARK  status: ('A' for Active; 'I' for Inactive)
REMARK    1  A    between atoms: C_1  and  O_2 
REMARK    2  A    between atoms: O_2  and  C_3 
REMARK    3  A    between atoms: C_5  and  C_10 
REMARK    4  A    between atoms: C_8  and  O_9 
REMARK    5  A    between atoms: C_10  and  C_11 
REMARK    6  A    between atoms: C_11  and  C_13 
REMARK    7  A    between atoms: C_11  and  C_31 
REMARK    8  A    between atoms: C_13  and  O_14 
REMARK    9  A    between atoms: O_14  and  C_15 
REMARK   10  A    between atoms: C_17  and  O_30 
REMARK   11  A    between atoms: C_19  and  O_29 
REMARK   12  A    between atoms: C_21  and  O_28 
REMARK   13  A    between atoms: C_23  and  C_26 
REMARK   14  A    between atoms: C_26  and  O_27 
REMARK   15  A    between atoms: C_33  and  C_40 
REMARK   16  A    between atoms: C_35  and  O_38 
REMARK   17  A    between atoms: C_36  and  O_37 
REMARK   18  A    between atoms: O_38  and  C_39 
REMARK   19  A    between atoms: C_41  and  C_42 
REMARK   20  A    between atoms: C_42  and  O_43 
ROOT
ATOM      1  C   LIG d   1       9.546   4.834  -4.086  0.00  0.00     0.015 C 
ATOM      2  H   LIG d   1       8.632   5.205  -4.548  0.00  0.00     0.037 H 
ENDROOT
BRANCH   1   3
ATOM      3  C   LIG d   1      10.698   4.922  -5.090  0.00  0.00    -0.018 C 
ATOM      4  H   LIG d   1      11.139   3.934  -5.224  0.00  0.00     0.032 H 
ATOM      5  H   LIG d   1      11.453   5.612  -4.716  0.00  0.00     0.032 H 
BRANCH   3   6
ATOM      6  C   LIG d   1      10.174   5.420  -6.413  0.00  0.00    -0.043 A 
ATOM      7  C   LIG d   1       9.747   4.517  -7.369  0.00  0.00    -0.013 A 
ATOM      8  C   LIG d   1       9.265   4.972  -8.586  0.00  0.00     0.162 A 
ATOM      9  H   LIG d   1       9.789   3.457  -7.168  0.00  0.00     0.066 H 
ATOM     10  C   LIG d   1       9.216   6.339  -8.844  0.00  0.00     0.159 A 
ATOM     11  C   LIG d   1       9.640   7.239  -7.879  0.00  0.00    -0.016 A 
ATOM     12  C   LIG d   1      10.120   6.777  -6.667  0.00  0.00    -0.055 A 
ATOM     13  H   LIG d   1       9.598   8.300  -8.074  0.00  0.00     0.066 H 
ATOM     14  H   LIG d   1      10.454   7.480  -5.918  0.00  0.00     0.062 H 
BRANCH   8  15
ATOM     15  O   LIG d   1       8.845   4.086  -9.528  0.00  0.00    -0.491 OA
BRANCH  15  16
ATOM     16  C   LIG d   1       9.854   3.335 -10.208  0.00  0.00     0.079 C 
ATOM     17  H   LIG d   1       9.398   2.481 -10.706  0.00  0.00     0.066 H 
ATOM     18  H   LIG d   1      10.341   3.970 -10.948  0.00  0.00     0.066 H 
ATOM     19  H   LIG d   1      10.593   2.984  -9.487  0.00  0.00     0.066 H 
ENDBRANCH  15  16
ENDBRANCH   8  15
BRANCH  10  20
ATOM     20  O   LIG d   1       8.748   6.791 -10.038  0.00  0.00    -0.503 OA
ATOM     21  H   LIG d   1       8.330   6.108 -10.581  0.00  0.00     0.292 HD
ENDBRANCH  10  20
ENDBRANCH   3   6
ENDBRANCH   1   3
BRANCH   1  22
ATOM     22  C   LIG d   1       9.347   3.377  -3.663  0.00  0.00     0.058 C 
ATOM     23  H   LIG d   1      10.280   2.828  -3.801  0.00  0.00     0.057 H 
ATOM     24  H   LIG d   1       9.056   3.340  -2.614  0.00  0.00     0.057 H 
BRANCH  22  25
ATOM     25  O   LIG d   1       8.324   2.784  -4.464  0.00  0.00    -0.348 OA
BRANCH  25  26
ATOM     26  C   LIG d   1       7.761   1.596  -3.901  0.00  0.00     0.188 C 
ATOM     27  H   LIG d   1       8.375   1.264  -3.064  0.00  0.00     0.094 H 
ATOM     28  O   LIG d   1       6.436   1.870  -3.441  0.00  0.00    -0.341 OA
ATOM     29  C   LIG d   1       5.786   0.750  -2.835  0.00  0.00     0.113 C 
ATOM     30  C   LIG d   1       5.659  -0.381  -3.858  0.00  0.00     0.112 C 
ATOM     31  H   LIG d   1       6.374   0.407  -1.983  0.00  0.00     0.065 H 
ATOM     32  C   LIG d   1       7.054  -0.750  -4.375  0.00  0.00     0.114 C 
ATOM     33  H   LIG d   1       5.205  -1.252  -3.385  0.00  0.00     0.065 H 
ATOM     34  C   LIG d   1       7.713   0.499  -4.968  0.00  0.00     0.134 C 
ATOM     35  H   LIG d   1       7.660  -1.126  -3.551  0.00  0.00     0.065 H 
ATOM     36  H   LIG d   1       8.727   0.259  -5.288  0.00  0.00     0.067 H 
BRANCH  29  37
ATOM     37  C   LIG d   1       4.392   1.165  -2.357  0.00  0.00     0.073 C 
ATOM     38  H   LIG d   1       3.749   0.286  -2.311  0.00  0.00     0.058 H 
ATOM     39  H   LIG d   1       4.466   1.614  -1.368  0.00  0.00     0.058 H 
BRANCH  37  40
ATOM     40  O   LIG d   1       3.839   2.113  -3.271  0.00  0.00    -0.392 OA
ATOM     41  H   LIG d   1       4.418   2.864  -3.458  0.00  0.00     0.209 HD
ENDBRANCH  37  40
ENDBRANCH  29  37
BRANCH  30  42
ATOM     42  O   LIG d   1       4.845   0.050  -4.949  0.00  0.00    -0.387 OA
ATOM     43  H   LIG d   1       4.390  -0.670  -5.410  0.00  0.00     0.210 HD
ENDBRANCH  30  42
BRANCH  32  44
ATOM     44  O   LIG d   1       6.940  -1.756  -5.385  0.00  0.00    -0.386 OA
ATOM     45  H   LIG d   1       6.904  -2.657  -5.037  0.00  0.00     0.210 HD
ENDBRANCH  32  44
BRANCH  34  46
ATOM     46  O   LIG d   1       6.954   0.956  -6.089  0.00  0.00    -0.384 OA
ATOM     47  H   LIG d   1       7.120   0.463  -6.904  0.00  0.00     0.210 HD
ENDBRANCH  34  46
ENDBRANCH  25  26
ENDBRANCH  22  25
ENDBRANCH   1  22
BRANCH   1  48
ATOM     48  C   LIG d   1       9.872   5.670  -2.875  0.00  0.00     0.004 A 
ATOM     49  C   LIG d   1      10.532   5.097  -1.799  0.00  0.00     0.162 A 
ATOM     50  C   LIG d   1      10.842   5.866  -0.678  0.00  0.00     0.162 A 
ATOM     51  C   LIG d   1      10.480   7.199  -0.635  0.00  0.00    -0.009 A 
ATOM     52  C   LIG d   1       9.811   7.775  -1.717  0.00  0.00    -0.021 A 
ATOM     53  H   LIG d   1      10.717   7.796   0.234  0.00  0.00     0.066 H 
ATOM     54  C   LIG d   1       9.509   7.000  -2.837  0.00  0.00    -0.047 A 
ATOM     55  H   LIG d   1       8.992   7.442  -3.676  0.00  0.00     0.063 H 
BRANCH  49  56
ATOM     56  O   LIG d   1      10.882   3.784  -1.838  0.00  0.00    -0.503 OA
ATOM     57  H   LIG d   1      11.823   3.633  -2.005  0.00  0.00     0.292 HD
ENDBRANCH  49  56
BRANCH  50  58
ATOM     58  O   LIG d   1      11.493   5.303   0.374  0.00  0.00    -0.491 OA
BRANCH  58  59
ATOM     59  C   LIG d   1      11.047   5.666   1.682  0.00  0.00     0.079 C 
ATOM     60  H   LIG d   1      10.068   6.139   1.614  0.00  0.00     0.066 H 
ATOM     61  H   LIG d   1      10.977   4.773   2.303  0.00  0.00     0.066 H 
ATOM     62  H   LIG d   1      11.758   6.364   2.127  0.00  0.00     0.066 H 
ENDBRANCH  58  59
ENDBRANCH  50  58
BRANCH  52  63
ATOM     63  C   LIG d   1       9.423   9.200  -1.676  0.00  0.00    -0.056 C 
ATOM     64  C   LIG d   1       9.496   9.938  -2.775  0.00  0.00    -0.058 C 
ATOM     65  H   LIG d   1       9.839   9.498  -3.700  0.00  0.00     0.059 H 
ATOM     66  H   LIG d   1       9.081   9.640  -0.751  0.00  0.00     0.062 H 
BRANCH  64  67
ATOM     67  C   LIG d   1       9.100  11.392  -2.734  0.00  0.00     0.063 C 
ATOM     68  H   LIG d   1       9.299  11.795  -1.740  0.00  0.00     0.060 H 
ATOM     69  H   LIG d   1       9.678  11.947  -3.473  0.00  0.00     0.060 H 
BRANCH  67  70
ATOM     70  O   LIG d   1       7.707  11.515  -3.027  0.00  0.00    -0.391 OA
ATOM     71  H   LIG d   1       7.328  12.370  -2.782  0.00  0.00     0.210 HD
ENDBRANCH  67  70
ENDBRANCH  64  67
ENDBRANCH  52  63
ENDBRANCH   1  48
TORSDOF 20
ENDMDL
MODEL 6
REMARK VINA RESULT:      -5.8      3.860      7.894
REMARK  20 active torsions:
REMARK  status: ('A' for Active; 'I' for Inactive)
REMARK    1  A    between atoms: C_1  and  O_2 
REMARK    2  A    between atoms: O_2  and  C_3 
REMARK    3  A    between atoms: C_5  and  C_10 
REMARK    4  A    between atoms: C_8  and  O_9 
REMARK    5  A    between atoms: C_10  and  C_11 
REMARK    6  A    between atoms: C_11  and  C_13 
REMARK    7  A    between atoms: C_11  and  C_31 
REMARK    8  A    between atoms: C_13  and  O_14 
REMARK    9  A    between atoms: O_14  and  C_15 
REMARK   10  A    between atoms: C_17  and  O_30 
REMARK   11  A    between atoms: C_19  and  O_29 
REMARK   12  A    between atoms: C_21  and  O_28 
REMARK   13  A    between atoms: C_23  and  C_26 
REMARK   14  A    between atoms: C_26  and  O_27 
REMARK   15  A    between atoms: C_33  and  C_40 
REMARK   16  A    between atoms: C_35  and  O_38 
REMARK   17  A    between atoms: C_36  and  O_37 
REMARK   18  A    between atoms: O_38  and  C_39 
REMARK   19  A    between atoms: C_41  and  C_42 
REMARK   20  A    between atoms: C_42  and  O_43 
ROOT
ATOM      1  C   LIG d   1       7.986   1.034  -4.547  0.00  0.00     0.015 C 
ATOM      2  H   LIG d   1       8.051  -0.053  -4.557  0.00  0.00     0.037 H 
ENDROOT
BRANCH   1   3
ATOM      3  C   LIG d   1       6.965   1.476  -3.496  0.00  0.00    -0.018 C 
ATOM      4  H   LIG d   1       6.375   2.304  -3.889  0.00  0.00     0.032 H 
ATOM      5  H   LIG d   1       7.487   1.795  -2.595  0.00  0.00     0.032 H 
BRANCH   3   6
ATOM      6  C   LIG d   1       6.053   0.322  -3.167  0.00  0.00    -0.043 A 
ATOM      7  C   LIG d   1       6.242  -0.903  -3.780  0.00  0.00    -0.013 A 
ATOM      8  C   LIG d   1       5.404  -1.965  -3.478  0.00  0.00     0.162 A 
ATOM      9  H   LIG d   1       7.042  -1.032  -4.493  0.00  0.00     0.066 H 
ATOM     10  C   LIG d   1       4.371  -1.793  -2.562  0.00  0.00     0.159 A 
ATOM     11  C   LIG d   1       4.190  -0.565  -1.947  0.00  0.00    -0.016 A 
ATOM     12  C   LIG d   1       5.029   0.490  -2.253  0.00  0.00    -0.055 A 
ATOM     13  H   LIG d   1       3.392  -0.431  -1.232  0.00  0.00     0.066 H 
ATOM     14  H   LIG d   1       4.885   1.448  -1.776  0.00  0.00     0.062 H 
BRANCH   8  15
ATOM     15  O   LIG d   1       5.589  -3.170  -4.080  0.00  0.00    -0.491 OA
BRANCH  15  16
ATOM     16  C   LIG d   1       5.005  -3.346  -5.373  0.00  0.00     0.079 C 
ATOM     17  H   LIG d   1       4.133  -3.995  -5.293  0.00  0.00     0.066 H 
ATOM     18  H   LIG d   1       4.701  -2.377  -5.769  0.00  0.00     0.066 H 
ATOM     19  H   LIG d   1       5.736  -3.800  -6.043  0.00  0.00     0.066 H 
ENDBRANCH  15  16
ENDBRANCH   8  15
BRANCH  10  20
ATOM     20  O   LIG d   1       3.543  -2.831  -2.267  0.00  0.00    -0.503 OA
ATOM     21  H   LIG d   1       3.534  -3.074  -1.331  0.00  0.00     0.292 HD
ENDBRANCH  10  20
ENDBRANCH   3   6
ENDBRANCH   1   3
BRANCH   1  22
ATOM     22  C   LIG d   1       7.546   1.531  -5.927  0.00  0.00     0.058 C 
ATOM     23  H   LIG d   1       6.472   1.722  -5.918  0.00  0.00     0.057 H 
ATOM     24  H   LIG d   1       8.077   2.450  -6.168  0.00  0.00     0.057 H 
BRANCH  22  25
ATOM     25  O   LIG d   1       7.845   0.536  -6.908  0.00  0.00    -0.348 OA
BRANCH  25  26
ATOM     26  C   LIG d   1       6.697   0.044  -7.605  0.00  0.00     0.188 C 
ATOM     27  H   LIG d   1       6.854  -1.001  -7.872  0.00  0.00     0.094 H 
ATOM     28  O   LIG d   1       5.547   0.155  -6.765  0.00  0.00    -0.341 OA
ATOM     29  C   LIG d   1       4.342  -0.333  -7.359  0.00  0.00     0.113 C 
ATOM     30  C   LIG d   1       4.031   0.475  -8.620  0.00  0.00     0.112 C 
ATOM     31  H   LIG d   1       4.467  -1.385  -7.622  0.00  0.00     0.065 H 
ATOM     32  C   LIG d   1       5.217   0.376  -9.586  0.00  0.00     0.114 C 
ATOM     33  H   LIG d   1       3.138   0.075  -9.099  0.00  0.00     0.065 H 
ATOM     34  C   LIG d   1       6.481   0.869  -8.877  0.00  0.00     0.134 C 
ATOM     35  H   LIG d   1       5.351  -0.661  -9.892  0.00  0.00     0.065 H 
ATOM     36  H   LIG d   1       7.339   0.751  -9.538  0.00  0.00     0.067 H 
BRANCH  29  37
ATOM     37  C   LIG d   1       3.188  -0.192  -6.364  0.00  0.00     0.073 C 
ATOM     38  H   LIG d   1       2.290   0.126  -6.894  0.00  0.00     0.058 H 
ATOM     39  H   LIG d   1       3.005  -1.151  -5.881  0.00  0.00     0.058 H 
BRANCH  37  40
ATOM     40  O   LIG d   1       3.528   0.782  -5.376  0.00  0.00    -0.392 OA
ATOM     41  H   LIG d   1       2.765   1.230  -4.986  0.00  0.00     0.209 HD
ENDBRANCH  37  40
ENDBRANCH  29  37
BRANCH  30  42
ATOM     42  O   LIG d   1       3.814   1.843  -8.270  0.00  0.00    -0.387 OA
ATOM     43  H   LIG d   1       4.502   2.218  -7.702  0.00  0.00     0.210 HD
ENDBRANCH  30  42
BRANCH  32  44
ATOM     44  O   LIG d   1       4.966   1.187 -10.737  0.00  0.00    -0.386 OA
ATOM     45  H   LIG d   1       4.900   2.132 -10.544  0.00  0.00     0.210 HD
ENDBRANCH  32  44
BRANCH  34  46
ATOM     46  O   LIG d   1       6.331   2.248  -8.532  0.00  0.00    -0.384 OA
ATOM     47  H   LIG d   1       6.839   2.851  -9.091  0.00  0.00     0.210 HD
ENDBRANCH  34  46
ENDBRANCH  25  26
ENDBRANCH  22  25
ENDBRANCH   1  22
BRANCH   1  48
ATOM     48  C   LIG d   1       9.335   1.616  -4.211  0.00  0.00     0.004 A 
ATOM     49  C   LIG d   1      10.487   1.014  -4.694  0.00  0.00     0.162 A 
ATOM     50  C   LIG d   1      11.737   1.550  -4.391  0.00  0.00     0.162 A 
ATOM     51  C   LIG d   1      11.830   2.679  -3.599  0.00  0.00    -0.009 A 
ATOM     52  C   LIG d   1      10.670   3.283  -3.110  0.00  0.00    -0.021 A 
ATOM     53  H   LIG d   1      12.798   3.095  -3.361  0.00  0.00     0.066 H 
ATOM     54  C   LIG d   1       9.422   2.743  -3.421  0.00  0.00    -0.047 A 
ATOM     55  H   LIG d   1       8.523   3.208  -3.043  0.00  0.00     0.063 H 
BRANCH  49  56
ATOM     56  O   LIG d   1      10.396  -0.101  -5.468  0.00  0.00    -0.503 OA
ATOM     57  H   LIG d   1       9.876   0.022  -6.273  0.00  0.00     0.292 HD
ENDBRANCH  49  56
BRANCH  50  58
ATOM     58  O   LIG d   1      12.864   0.960  -4.870  0.00  0.00    -0.491 OA
BRANCH  58  59
ATOM     59  C   LIG d   1      14.066   1.732  -4.831  0.00  0.00     0.079 C 
ATOM     60  H   LIG d   1      14.272   2.135  -5.821  0.00  0.00     0.066 H 
ATOM     61  H   LIG d   1      13.949   2.552  -4.122  0.00  0.00     0.066 H 
ATOM     62  H   LIG d   1      14.895   1.096  -4.517  0.00  0.00     0.066 H 
ENDBRANCH  58  59
ENDBRANCH  50  58
BRANCH  52  63
ATOM     63  C   LIG d   1      10.764   4.490  -2.263  0.00  0.00    -0.056 C 
ATOM     64  C   LIG d   1       9.873   5.463  -2.395  0.00  0.00    -0.058 C 
ATOM     65  H   LIG d   1       9.078   5.373  -3.121  0.00  0.00     0.059 H 
ATOM     66  H   LIG d   1      11.558   4.580  -1.537  0.00  0.00     0.062 H 
BRANCH  64  67
ATOM     67  C   LIG d   1       9.968   6.694  -1.532  0.00  0.00     0.063 C 
ATOM     68  H   LIG d   1      10.255   6.408  -0.519  0.00  0.00     0.060 H 
ATOM     69  H   LIG d   1      10.717   7.370  -1.944  0.00  0.00     0.060 H 
BRANCH  67  70
ATOM     70  O   LIG d   1       8.700   7.352  -1.498  0.00  0.00    -0.391 OA
ATOM     71  H   LIG d   1       8.127   7.065  -0.773  0.00  0.00     0.210 HD
ENDBRANCH  67  70
ENDBRANCH  64  67
ENDBRANCH  52  63
ENDBRANCH   1  48
TORSDOF 20
ENDMDL
MODEL 7
REMARK VINA RESULT:      -5.8      1.885      6.489
REMARK  20 active torsions:
REMARK  status: ('A' for Active; 'I' for Inactive)
REMARK    1  A    between atoms: C_1  and  O_2 
REMARK    2  A    between atoms: O_2  and  C_3 
REMARK    3  A    between atoms: C_5  and  C_10 
REMARK    4  A    between atoms: C_8  and  O_9 
REMARK    5  A    between atoms: C_10  and  C_11 
REMARK    6  A    between atoms: C_11  and  C_13 
REMARK    7  A    between atoms: C_11  and  C_31 
REMARK    8  A    between atoms: C_13  and  O_14 
REMARK    9  A    between atoms: O_14  and  C_15 
REMARK   10  A    between atoms: C_17  and  O_30 
REMARK   11  A    between atoms: C_19  and  O_29 
REMARK   12  A    between atoms: C_21  and  O_28 
REMARK   13  A    between atoms: C_23  and  C_26 
REMARK   14  A    between atoms: C_26  and  O_27 
REMARK   15  A    between atoms: C_33  and  C_40 
REMARK   16  A    between atoms: C_35  and  O_38 
REMARK   17  A    between atoms: C_36  and  O_37 
REMARK   18  A    between atoms: O_38  and  C_39 
REMARK   19  A    between atoms: C_41  and  C_42 
REMARK   20  A    between atoms: C_42  and  O_43 
ROOT
ATOM      1  C   LIG d   1       5.636  -2.272  -6.204  0.00  0.00     0.015 C 
ATOM      2  H   LIG d   1       6.285  -1.452  -5.901  0.00  0.00     0.037 H 
ENDROOT
BRANCH   1   3
ATOM      3  C   LIG d   1       4.720  -2.656  -5.039  0.00  0.00    -0.018 C 
ATOM      4  H   LIG d   1       5.069  -3.588  -4.595  0.00  0.00     0.032 H 
ATOM      5  H   LIG d   1       3.702  -2.785  -5.405  0.00  0.00     0.032 H 
BRANCH   3   6
ATOM      6  C   LIG d   1       4.746  -1.565  -4.000  0.00  0.00    -0.043 A 
ATOM      7  C   LIG d   1       5.729  -0.593  -4.046  0.00  0.00    -0.013 A 
ATOM      8  C   LIG d   1       5.755   0.412  -3.091  0.00  0.00     0.162 A 
ATOM      9  H   LIG d   1       6.476  -0.616  -4.825  0.00  0.00     0.066 H 
ATOM     10  C   LIG d   1       4.793   0.436  -2.085  0.00  0.00     0.159 A 
ATOM     11  C   LIG d   1       3.808  -0.538  -2.048  0.00  0.00    -0.016 A 
ATOM     12  C   LIG d   1       3.788  -1.537  -3.003  0.00  0.00    -0.055 A 
ATOM     13  H   LIG d   1       3.057  -0.518  -1.272  0.00  0.00     0.066 H 
ATOM     14  H   LIG d   1       3.022  -2.297  -2.971  0.00  0.00     0.062 H 
BRANCH   8  15
ATOM     15  O   LIG d   1       6.720   1.368  -3.134  0.00  0.00    -0.491 OA
BRANCH  15  16
ATOM     16  C   LIG d   1       7.693   1.261  -4.176  0.00  0.00     0.079 C 
ATOM     17  H   LIG d   1       7.564   2.083  -4.880  0.00  0.00     0.066 H 
ATOM     18  H   LIG d   1       8.693   1.306  -3.745  0.00  0.00     0.066 H 
ATOM     19  H   LIG d   1       7.563   0.312  -4.697  0.00  0.00     0.066 H 
ENDBRANCH  15  16
ENDBRANCH   8  15
BRANCH  10  20
ATOM     20  O   LIG d   1       4.817   1.417  -1.143  0.00  0.00    -0.503 OA
ATOM     21  H   LIG d   1       5.707   1.688  -0.880  0.00  0.00     0.292 HD
ENDBRANCH  10  20
ENDBRANCH   3   6
ENDBRANCH   1   3
BRANCH   1  22
ATOM     22  C   LIG d   1       6.489  -3.479  -6.601  0.00  0.00     0.058 C 
ATOM     23  H   LIG d   1       6.187  -3.829  -7.589  0.00  0.00     0.057 H 
ATOM     24  H   LIG d   1       7.539  -3.190  -6.623  0.00  0.00     0.057 H 
BRANCH  22  25
ATOM     25  O   LIG d   1       6.304  -4.527  -5.648  0.00  0.00    -0.348 OA
BRANCH  25  26
ATOM     26  C   LIG d   1       6.287  -5.837  -6.220  0.00  0.00     0.188 C 
ATOM     27  H   LIG d   1       7.034  -5.898  -7.012  0.00  0.00     0.094 H 
ATOM     28  O   LIG d   1       6.584  -6.802  -5.209  0.00  0.00    -0.341 OA
ATOM     29  C   LIG d   1       6.617  -8.150  -5.681  0.00  0.00     0.113 C 
ATOM     30  C   LIG d   1       5.245  -8.528  -6.243  0.00  0.00     0.112 C 
ATOM     31  H   LIG d   1       7.370  -8.242  -6.465  0.00  0.00     0.065 H 
ATOM     32  C   LIG d   1       4.872  -7.547  -7.361  0.00  0.00     0.114 C 
ATOM     33  H   LIG d   1       5.281  -9.540  -6.645  0.00  0.00     0.065 H 
ATOM     34  C   LIG d   1       4.900  -6.121  -6.804  0.00  0.00     0.134 C 
ATOM     35  H   LIG d   1       5.590  -7.635  -8.176  0.00  0.00     0.065 H 
ATOM     36  H   LIG d   1       4.691  -5.413  -7.605  0.00  0.00     0.067 H 
BRANCH  29  37
ATOM     37  C   LIG d   1       6.971  -9.088  -4.524  0.00  0.00     0.073 C 
ATOM     38  H   LIG d   1       8.054  -9.145  -4.423  0.00  0.00     0.058 H 
ATOM     39  H   LIG d   1       6.539  -8.705  -3.601  0.00  0.00     0.058 H 
BRANCH  37  40
ATOM     40  O   LIG d   1       6.448 -10.391  -4.791  0.00  0.00    -0.392 OA
ATOM     41  H   LIG d   1       6.470 -10.987  -4.030  0.00  0.00     0.209 HD
ENDBRANCH  37  40
ENDBRANCH  29  37
BRANCH  30  42
ATOM     42  O   LIG d   1       4.267  -8.460  -5.204  0.00  0.00    -0.387 OA
ATOM     43  H   LIG d   1       3.495  -9.026  -5.351  0.00  0.00     0.210 HD
ENDBRANCH  30  42
BRANCH  32  44
ATOM     44  O   LIG d   1       3.561  -7.847  -7.844  0.00  0.00    -0.386 OA
ATOM     45  H   LIG d   1       3.428  -8.779  -8.066  0.00  0.00     0.210 HD
ENDBRANCH  32  44
BRANCH  34  46
ATOM     46  O   LIG d   1       3.914  -5.987  -5.778  0.00  0.00    -0.384 OA
ATOM     47  H   LIG d   1       3.890  -6.727  -5.156  0.00  0.00     0.210 HD
ENDBRANCH  34  46
ENDBRANCH  25  26
ENDBRANCH  22  25
ENDBRANCH   1  22
BRANCH   1  48
ATOM     48  C   LIG d   1       4.797  -1.842  -7.380  0.00  0.00     0.004 A 
ATOM     49  C   LIG d   1       4.833  -0.524  -7.809  0.00  0.00     0.162 A 
ATOM     50  C   LIG d   1       4.065  -0.121  -8.899  0.00  0.00     0.162 A 
ATOM     51  C   LIG d   1       3.256  -1.035  -9.548  0.00  0.00    -0.009 A 
ATOM     52  C   LIG d   1       3.216  -2.361  -9.114  0.00  0.00    -0.021 A 
ATOM     53  H   LIG d   1       2.657  -0.724 -10.391  0.00  0.00     0.066 H 
ATOM     54  C   LIG d   1       3.992  -2.758  -8.024  0.00  0.00    -0.047 A 
ATOM     55  H   LIG d   1       3.963  -3.783  -7.686  0.00  0.00     0.063 H 
BRANCH  49  56
ATOM     56  O   LIG d   1       5.624   0.377  -7.167  0.00  0.00    -0.503 OA
ATOM     57  H   LIG d   1       5.183   1.214  -6.967  0.00  0.00     0.292 HD
ENDBRANCH  49  56
BRANCH  50  58
ATOM     58  O   LIG d   1       4.106   1.171  -9.320  0.00  0.00    -0.491 OA
BRANCH  58  59
ATOM     59  C   LIG d   1       3.928   1.403 -10.719  0.00  0.00     0.079 C 
ATOM     60  H   LIG d   1       3.011   1.967 -10.881  0.00  0.00     0.066 H 
ATOM     61  H   LIG d   1       4.776   1.970 -11.103  0.00  0.00     0.066 H 
ATOM     62  H   LIG d   1       3.864   0.447 -11.240  0.00  0.00     0.066 H 
ENDBRANCH  58  59
ENDBRANCH  50  58
BRANCH  52  63
ATOM     63  C   LIG d   1       2.353  -3.342  -9.804  0.00  0.00    -0.056 C 
ATOM     64  C   LIG d   1       1.195  -2.956 -10.323  0.00  0.00    -0.058 C 
ATOM     65  H   LIG d   1       0.882  -1.925 -10.239  0.00  0.00     0.059 H 
ATOM     66  H   LIG d   1       2.665  -4.372  -9.887  0.00  0.00     0.062 H 
BRANCH  64  67
ATOM     67  C   LIG d   1       0.314  -3.955 -11.027  0.00  0.00     0.063 C 
ATOM     68  H   LIG d   1      -0.110  -3.499 -11.922  0.00  0.00     0.060 H 
ATOM     69  H   LIG d   1       0.907  -4.826 -11.310  0.00  0.00     0.060 H 
BRANCH  67  70
ATOM     70  O   LIG d   1      -0.741  -4.361 -10.154  0.00  0.00    -0.391 OA
ATOM     71  H   LIG d   1      -0.848  -5.320 -10.085  0.00  0.00     0.210 HD
ENDBRANCH  67  70
ENDBRANCH  64  67
ENDBRANCH  52  63
ENDBRANCH   1  48
TORSDOF 20
ENDMDL
MODEL 8
REMARK VINA RESULT:      -5.7      6.275     11.746
REMARK  20 active torsions:
REMARK  status: ('A' for Active; 'I' for Inactive)
REMARK    1  A    between atoms: C_1  and  O_2 
REMARK    2  A    between atoms: O_2  and  C_3 
REMARK    3  A    between atoms: C_5  and  C_10 
REMARK    4  A    between atoms: C_8  and  O_9 
REMARK    5  A    between atoms: C_10  and  C_11 
REMARK    6  A    between atoms: C_11  and  C_13 
REMARK    7  A    between atoms: C_11  and  C_31 
REMARK    8  A    between atoms: C_13  and  O_14 
REMARK    9  A    between atoms: O_14  and  C_15 
REMARK   10  A    between atoms: C_17  and  O_30 
REMARK   11  A    between atoms: C_19  and  O_29 
REMARK   12  A    between atoms: C_21  and  O_28 
REMARK   13  A    between atoms: C_23  and  C_26 
REMARK   14  A    between atoms: C_26  and  O_27 
REMARK   15  A    between atoms: C_33  and  C_40 
REMARK   16  A    between atoms: C_35  and  O_38 
REMARK   17  A    between atoms: C_36  and  O_37 
REMARK   18  A    between atoms: O_38  and  C_39 
REMARK   19  A    between atoms: C_41  and  C_42 
REMARK   20  A    between atoms: C_42  and  O_43 
ROOT
ATOM      1  C   LIG d   1       9.849   5.074  -3.823  0.00  0.00     0.015 C 
ATOM      2  H   LIG d   1       8.893   5.560  -4.014  0.00  0.00     0.037 H 
ENDROOT
BRANCH   1   3
ATOM      3  C   LIG d   1      10.752   5.221  -5.050  0.00  0.00    -0.018 C 
ATOM      4  H   LIG d   1      10.816   4.265  -5.570  0.00  0.00     0.032 H 
ATOM      5  H   LIG d   1      11.748   5.530  -4.733  0.00  0.00     0.032 H 
BRANCH   3   6
ATOM      6  C   LIG d   1      10.174   6.259  -5.977  0.00  0.00    -0.043 A 
ATOM      7  C   LIG d   1       9.969   7.549  -5.524  0.00  0.00    -0.013 A 
ATOM      8  C   LIG d   1       9.438   8.506  -6.375  0.00  0.00     0.162 A 
ATOM      9  H   LIG d   1      10.224   7.812  -4.508  0.00  0.00     0.066 H 
ATOM     10  C   LIG d   1       9.107   8.162  -7.682  0.00  0.00     0.159 A 
ATOM     11  C   LIG d   1       9.320   6.869  -8.131  0.00  0.00    -0.016 A 
ATOM     12  C   LIG d   1       9.850   5.920  -7.277  0.00  0.00    -0.055 A 
ATOM     13  H   LIG d   1       9.068   6.601  -9.147  0.00  0.00     0.066 H 
ATOM     14  H   LIG d   1      10.011   4.911  -7.627  0.00  0.00     0.062 H 
BRANCH   8  15
ATOM     15  O   LIG d   1       9.236   9.775  -5.931  0.00  0.00    -0.491 OA
BRANCH  15  16
ATOM     16  C   LIG d   1      10.387  10.615  -5.819  0.00  0.00     0.079 C 
ATOM     17  H   LIG d   1      10.086  11.658  -5.909  0.00  0.00     0.066 H 
ATOM     18  H   LIG d   1      10.860  10.455  -4.850  0.00  0.00     0.066 H 
ATOM     19  H   LIG d   1      11.093  10.370  -6.613  0.00  0.00     0.066 H 
ENDBRANCH  15  16
ENDBRANCH   8  15
BRANCH  10  20
ATOM     20  O   LIG d   1       8.580   9.096  -8.519  0.00  0.00    -0.503 OA
ATOM     21  H   LIG d   1       9.058   9.190  -9.355  0.00  0.00     0.292 HD
ENDBRANCH  10  20
ENDBRANCH   3   6
ENDBRANCH   1   3
BRANCH   1  22
ATOM     22  C   LIG d   1       9.617   3.588  -3.535  0.00  0.00     0.058 C 
ATOM     23  H   LIG d   1      10.527   3.029  -3.756  0.00  0.00     0.057 H 
ATOM     24  H   LIG d   1       9.356   3.458  -2.485  0.00  0.00     0.057 H 
BRANCH  22  25
ATOM     25  O   LIG d   1       8.551   3.106  -4.354  0.00  0.00    -0.348 OA
BRANCH  25  26
ATOM     26  C   LIG d   1       8.056   1.822  -3.968  0.00  0.00     0.188 C 
ATOM     27  H   LIG d   1       8.687   1.412  -3.179  0.00  0.00     0.094 H 
ATOM     28  O   LIG d   1       6.717   1.954  -3.487  0.00  0.00    -0.341 OA
ATOM     29  C   LIG d   1       6.131   0.726  -3.048  0.00  0.00     0.113 C 
ATOM     30  C   LIG d   1       6.071  -0.257  -4.219  0.00  0.00     0.112 C 
ATOM     31  H   LIG d   1       6.736   0.301  -2.247  0.00  0.00     0.065 H 
ATOM     32  C   LIG d   1       7.486  -0.472  -4.769  0.00  0.00     0.114 C 
ATOM     33  H   LIG d   1       5.667  -1.210  -3.876  0.00  0.00     0.065 H 
ATOM     34  C   LIG d   1       8.073   0.882  -5.176  0.00  0.00     0.134 C 
ATOM     35  H   LIG d   1       8.110  -0.924  -3.999  0.00  0.00     0.065 H 
ATOM     36  H   LIG d   1       9.099   0.747  -5.517  0.00  0.00     0.067 H 
BRANCH  29  37
ATOM     37  C   LIG d   1       4.715   0.991  -2.531  0.00  0.00     0.073 C 
ATOM     38  H   LIG d   1       4.106   0.098  -2.672  0.00  0.00     0.058 H 
ATOM     39  H   LIG d   1       4.756   1.240  -1.472  0.00  0.00     0.058 H 
BRANCH  37  40
ATOM     40  O   LIG d   1       4.140   2.080  -3.256  0.00  0.00    -0.392 OA
ATOM     41  H   LIG d   1       4.605   2.296  -4.076  0.00  0.00     0.209 HD
ENDBRANCH  37  40
ENDBRANCH  29  37
BRANCH  30  42
ATOM     42  O   LIG d   1       5.235   0.274  -5.248  0.00  0.00    -0.387 OA
ATOM     43  H   LIG d   1       4.981   1.199  -5.111  0.00  0.00     0.210 HD
ENDBRANCH  30  42
BRANCH  32  44
ATOM     44  O   LIG d   1       7.431  -1.332  -5.909  0.00  0.00    -0.386 OA
ATOM     45  H   LIG d   1       8.300  -1.591  -6.247  0.00  0.00     0.210 HD
ENDBRANCH  32  44
BRANCH  34  46
ATOM     46  O   LIG d   1       7.291   1.447  -6.231  0.00  0.00    -0.384 OA
ATOM     47  H   LIG d   1       6.392   1.095  -6.286  0.00  0.00     0.210 HD
ENDBRANCH  34  46
ENDBRANCH  25  26
ENDBRANCH  22  25
ENDBRANCH   1  22
BRANCH   1  48
ATOM     48  C   LIG d   1      10.512   5.719  -2.633  0.00  0.00     0.004 A 
ATOM     49  C   LIG d   1       9.841   6.695  -1.914  0.00  0.00     0.162 A 
ATOM     50  C   LIG d   1      10.447   7.291  -0.809  0.00  0.00     0.162 A 
ATOM     51  C   LIG d   1      11.723   6.915  -0.435  0.00  0.00    -0.009 A 
ATOM     52  C   LIG d   1      12.401   5.934  -1.162  0.00  0.00    -0.021 A 
ATOM     53  H   LIG d   1      12.196   7.377   0.419  0.00  0.00     0.066 H 
ATOM     54  C   LIG d   1      11.786   5.339  -2.264  0.00  0.00    -0.047 A 
ATOM     55  H   LIG d   1      12.308   4.580  -2.829  0.00  0.00     0.063 H 
BRANCH  49  56
ATOM     56  O   LIG d   1       8.588   7.071  -2.284  0.00  0.00    -0.503 OA
ATOM     57  H   LIG d   1       7.973   6.332  -2.392  0.00  0.00     0.292 HD
ENDBRANCH  49  56
BRANCH  50  58
ATOM     58  O   LIG d   1       9.785   8.246  -0.103  0.00  0.00    -0.491 OA
BRANCH  58  59
ATOM     59  C   LIG d   1      10.369   9.550  -0.071  0.00  0.00     0.079 C 
ATOM     60  H   LIG d   1      10.883   9.695   0.879  0.00  0.00     0.066 H 
ATOM     61  H   LIG d   1      11.082   9.649  -0.889  0.00  0.00     0.066 H 
ATOM     62  H   LIG d   1       9.585  10.301  -0.178  0.00  0.00     0.066 H 
ENDBRANCH  58  59
ENDBRANCH  50  58
BRANCH  52  63
ATOM     63  C   LIG d   1      13.765   5.528  -0.767  0.00  0.00    -0.056 C 
ATOM     64  C   LIG d   1      14.767   6.392  -0.860  0.00  0.00    -0.058 C 
ATOM     65  H   LIG d   1      14.585   7.393  -1.225  0.00  0.00     0.059 H 
ATOM     66  H   LIG d   1      13.947   4.529  -0.402  0.00  0.00     0.062 H 
BRANCH  64  67
ATOM     67  C   LIG d   1      16.159   5.979  -0.456  0.00  0.00     0.063 C 
ATOM     68  H   LIG d   1      16.194   4.897  -0.328  0.00  0.00     0.060 H 
ATOM     69  H   LIG d   1      16.865   6.276  -1.232  0.00  0.00     0.060 H 
BRANCH  67  70
ATOM     70  O   LIG d   1      16.507   6.615   0.774  0.00  0.00    -0.391 OA
ATOM     71  H   LIG d   1      15.753   6.794   1.352  0.00  0.00     0.210 HD
ENDBRANCH  67  70
ENDBRANCH  64  67
ENDBRANCH  52  63
ENDBRANCH   1  48
TORSDOF 20
ENDMDL
MODEL 9
REMARK VINA RESULT:      -5.7      3.213      6.328
REMARK  20 active torsions:
REMARK  status: ('A' for Active; 'I' for Inactive)
REMARK    1  A    between atoms: C_1  and  O_2 
REMARK    2  A    between atoms: O_2  and  C_3 
REMARK    3  A    between atoms: C_5  and  C_10 
REMARK    4  A    between atoms: C_8  and  O_9 
REMARK    5  A    between atoms: C_10  and  C_11 
REMARK    6  A    between atoms: C_11  and  C_13 
REMARK    7  A    between atoms: C_11  and  C_31 
REMARK    8  A    between atoms: C_13  and  O_14 
REMARK    9  A    between atoms: O_14  and  C_15 
REMARK   10  A    between atoms: C_17  and  O_30 
REMARK   11  A    between atoms: C_19  and  O_29 
REMARK   12  A    between atoms: C_21  and  O_28 
REMARK   13  A    between atoms: C_23  and  C_26 
REMARK   14  A    between atoms: C_26  and  O_27 
REMARK   15  A    between atoms: C_33  and  C_40 
REMARK   16  A    between atoms: C_35  and  O_38 
REMARK   17  A    between atoms: C_36  and  O_37 
REMARK   18  A    between atoms: O_38  and  C_39 
REMARK   19  A    between atoms: C_41  and  C_42 
REMARK   20  A    between atoms: C_42  and  O_43 
ROOT
ATOM      1  C   LIG d   1       8.180   0.837  -5.574  0.00  0.00     0.015 C 
ATOM      2  H   LIG d   1       8.587   1.650  -4.974  0.00  0.00     0.037 H 
ENDROOT
BRANCH   1   3
ATOM      3  C   LIG d   1       9.317  -0.077  -6.036  0.00  0.00    -0.018 C 
ATOM      4  H   LIG d   1       9.531   0.113  -7.088  0.00  0.00     0.032 H 
ATOM      5  H   LIG d   1       9.021  -1.117  -5.906  0.00  0.00     0.032 H 
BRANCH   3   6
ATOM      6  C   LIG d   1      10.550   0.202  -5.215  0.00  0.00    -0.043 A 
ATOM      7  C   LIG d   1      10.689   1.418  -4.572  0.00  0.00    -0.013 A 
ATOM      8  C   LIG d   1      11.822   1.676  -3.817  0.00  0.00     0.162 A 
ATOM      9  H   LIG d   1       9.916   2.167  -4.658  0.00  0.00     0.066 H 
ATOM     10  C   LIG d   1      12.819   0.711  -3.712  0.00  0.00     0.159 A 
ATOM     11  C   LIG d   1      12.670  -0.508  -4.354  0.00  0.00    -0.016 A 
ATOM     12  C   LIG d   1      11.538  -0.759  -5.106  0.00  0.00    -0.055 A 
ATOM     13  H   LIG d   1      13.440  -1.261  -4.270  0.00  0.00     0.066 H 
ATOM     14  H   LIG d   1      11.425  -1.707  -5.609  0.00  0.00     0.062 H 
BRANCH   8  15
ATOM     15  O   LIG d   1      11.961   2.872  -3.184  0.00  0.00    -0.491 OA
BRANCH  15  16
ATOM     16  C   LIG d   1      10.782   3.447  -2.617  0.00  0.00     0.079 C 
ATOM     17  H   LIG d   1      10.999   3.799  -1.609  0.00  0.00     0.066 H 
ATOM     18  H   LIG d   1      10.455   4.285  -3.232  0.00  0.00     0.066 H 
ATOM     19  H   LIG d   1       9.995   2.694  -2.577  0.00  0.00     0.066 H 
ENDBRANCH  15  16
ENDBRANCH   8  15
BRANCH  10  20
ATOM     20  O   LIG d   1      13.935   0.961  -2.976  0.00  0.00    -0.503 OA
ATOM     21  H   LIG d   1      14.215   1.887  -2.987  0.00  0.00     0.292 HD
ENDBRANCH  10  20
ENDBRANCH   3   6
ENDBRANCH   1   3
BRANCH   1  22
ATOM     22  C   LIG d   1       7.461   1.416  -6.795  0.00  0.00     0.058 C 
ATOM     23  H   LIG d   1       6.407   1.565  -6.560  0.00  0.00     0.057 H 
ATOM     24  H   LIG d   1       7.912   2.370  -7.063  0.00  0.00     0.057 H 
BRANCH  22  25
ATOM     25  O   LIG d   1       7.580   0.507  -7.891  0.00  0.00    -0.348 OA
BRANCH  25  26
ATOM     26  C   LIG d   1       6.327   0.082  -8.433  0.00  0.00     0.188 C 
ATOM     27  H   LIG d   1       6.362  -0.989  -8.631  0.00  0.00     0.094 H 
ATOM     28  O   LIG d   1       5.286   0.360  -7.494  0.00  0.00    -0.341 OA
ATOM     29  C   LIG d   1       3.987  -0.051  -7.927  0.00  0.00     0.113 C 
ATOM     30  C   LIG d   1       3.617   0.696  -9.211  0.00  0.00     0.112 C 
ATOM     31  H   LIG d   1       3.990  -1.124  -8.119  0.00  0.00     0.065 H 
ATOM     32  C   LIG d   1       4.682   0.418 -10.278  0.00  0.00     0.114 C 
ATOM     33  H   LIG d   1       2.647   0.352  -9.567  0.00  0.00     0.065 H 
ATOM     34  C   LIG d   1       6.052   0.835  -9.737  0.00  0.00     0.134 C 
ATOM     35  H   LIG d   1       4.690  -0.645 -10.514  0.00  0.00     0.065 H 
ATOM     36  H   LIG d   1       6.822   0.590 -10.467  0.00  0.00     0.067 H 
BRANCH  29  37
ATOM     37  C   LIG d   1       2.960   0.268  -6.837  0.00  0.00     0.073 C 
ATOM     38  H   LIG d   1       2.384   1.146  -7.129  0.00  0.00     0.058 H 
ATOM     39  H   LIG d   1       2.290  -0.581  -6.709  0.00  0.00     0.058 H 
BRANCH  37  40
ATOM     40  O   LIG d   1       3.638   0.531  -5.607  0.00  0.00    -0.392 OA
ATOM     41  H   LIG d   1       3.747   1.471  -5.412  0.00  0.00     0.209 HD
ENDBRANCH  37  40
ENDBRANCH  29  37
BRANCH  30  42
ATOM     42  O   LIG d   1       3.560   2.099  -8.948  0.00  0.00    -0.387 OA
ATOM     43  H   LIG d   1       2.887   2.569  -9.462  0.00  0.00     0.210 HD
ENDBRANCH  30  42
BRANCH  32  44
ATOM     44  O   LIG d   1       4.384   1.169 -11.458  0.00  0.00    -0.386 OA
ATOM     45  H   LIG d   1       3.626   1.762 -11.365  0.00  0.00     0.210 HD
ENDBRANCH  32  44
BRANCH  34  46
ATOM     46  O   LIG d   1       6.061   2.242  -9.487  0.00  0.00    -0.384 OA
ATOM     47  H   LIG d   1       6.099   2.475  -8.549  0.00  0.00     0.210 HD
ENDBRANCH  34  46
ENDBRANCH  25  26
ENDBRANCH  22  25
ENDBRANCH   1  22
BRANCH   1  48
ATOM     48  C   LIG d   1       7.203   0.043  -4.746  0.00  0.00     0.004 A 
ATOM     49  C   LIG d   1       6.566   0.638  -3.668  0.00  0.00     0.162 A 
ATOM     50  C   LIG d   1       5.658  -0.090  -2.902  0.00  0.00     0.162 A 
ATOM     51  C   LIG d   1       5.398  -1.412  -3.211  0.00  0.00    -0.009 A 
ATOM     52  C   LIG d   1       6.042  -2.013  -4.295  0.00  0.00    -0.021 A 
ATOM     53  H   LIG d   1       4.696  -1.979  -2.618  0.00  0.00     0.066 H 
ATOM     54  C   LIG d   1       6.947  -1.276  -5.060  0.00  0.00    -0.047 A 
ATOM     55  H   LIG d   1       7.447  -1.738  -5.898  0.00  0.00     0.063 H 
BRANCH  49  56
ATOM     56  O   LIG d   1       6.826   1.936  -3.359  0.00  0.00    -0.503 OA
ATOM     57  H   LIG d   1       7.261   2.056  -2.503  0.00  0.00     0.292 HD
ENDBRANCH  49  56
BRANCH  50  58
ATOM     58  O   LIG d   1       5.032   0.497  -1.848  0.00  0.00    -0.491 OA
BRANCH  58  59
ATOM     59  C   LIG d   1       3.766   1.109  -2.104  0.00  0.00     0.079 C 
ATOM     60  H   LIG d   1       3.611   1.930  -1.406  0.00  0.00     0.066 H 
ATOM     61  H   LIG d   1       3.748   1.493  -3.125  0.00  0.00     0.066 H 
ATOM     62  H   LIG d   1       2.974   0.370  -1.979  0.00  0.00     0.066 H 
ENDBRANCH  58  59
ENDBRANCH  50  58
BRANCH  52  63
ATOM     63  C   LIG d   1       5.767  -3.425  -4.630  0.00  0.00    -0.056 C 
ATOM     64  C   LIG d   1       4.719  -3.737  -5.380  0.00  0.00    -0.058 C 
ATOM     65  H   LIG d   1       4.065  -2.958  -5.745  0.00  0.00     0.059 H 
ATOM     66  H   LIG d   1       6.420  -4.204  -4.265  0.00  0.00     0.062 H 
BRANCH  64  67
ATOM     67  C   LIG d   1       4.438  -5.177  -5.722  0.00  0.00     0.063 C 
ATOM     68  H   LIG d   1       5.195  -5.540  -6.417  0.00  0.00     0.060 H 
ATOM     69  H   LIG d   1       4.462  -5.778  -4.813  0.00  0.00     0.060 H 
BRANCH  67  70
ATOM     70  O   LIG d   1       3.148  -5.281  -6.328  0.00  0.00    -0.391 OA
ATOM     71  H   LIG d   1       3.173  -5.417  -7.285  0.00  0.00     0.210 HD
ENDBRANCH  67  70
ENDBRANCH  64  67
ENDBRANCH  52  63
ENDBRANCH   1  48
TORSDOF 20
ENDMDL
