MODEL 1
REMARK VINA RESULT:      -5.8      0.000      0.000
REMARK  7 active torsions:
REMARK  status: ('A' for Active; 'I' for Inactive)
REMARK    1  A    between atoms: C_1  and  C_2 
REMARK    2  A    between atoms: C_2  and  O_3 
REMARK    3  A    between atoms: O_3  and  C_4 
REMARK    4  A    between atoms: C_4  and  C_6 
REMARK    5  A    between atoms: C_7  and  C_23 
REMARK    6  A    between atoms: C_11  and  N_15 
REMARK       I    between atoms: N_15  and  C_16 
REMARK    7  A    between atoms: C_16  and  C_18 
ROOT
ATOM      1  C   LIG d   1       2.080  -3.118 -10.772  0.00  0.00     0.215 A 
ATOM      2  C   LIG d   1       1.678  -1.828 -10.914  0.00  0.00     0.010 A 
ATOM      3  C   LIG d   1       2.179  -1.115  -9.796  0.00  0.00     0.024 A 
ATOM      4  C   LIG d   1       2.099   0.222  -9.387  0.00  0.00    -0.049 A 
ATOM      5  C   LIG d   1       2.703   0.616  -8.230  0.00  0.00    -0.040 A 
ATOM      6  C   LIG d   1       3.402  -0.306  -7.448  0.00  0.00     0.037 A 
ATOM      7  C   LIG d   1       3.496  -1.632  -7.841  0.00  0.00     0.003 A 
ATOM      8  C   LIG d   1       2.882  -2.050  -9.013  0.00  0.00     0.138 A 
ATOM      9  O   LIG d   1       2.799  -3.244  -9.635  0.00  0.00    -0.448 OA
ATOM     10  H   LIG d   1       1.559   0.940  -9.987  0.00  0.00     0.062 H 
ATOM     11  H   LIG d   1       2.640   1.647  -7.916  0.00  0.00     0.064 H 
ATOM     12  H   LIG d   1       4.043  -2.339  -7.233  0.00  0.00     0.067 H 
ENDROOT
BRANCH   6  13
ATOM     13  N   LIG d   1       4.015   0.112  -6.267  0.00  0.00    -0.279 N 
ATOM     14  C   LIG d   1       3.292   0.219  -5.134  0.00  0.00     0.283 C 
ATOM     15  O   LIG d   1       2.088   0.043  -5.162  0.00  0.00    -0.267 OA
ATOM     16  H   LIG d   1       4.961   0.325  -6.260  0.00  0.00     0.155 HD
BRANCH  14  17
ATOM     17  C   LIG d   1       3.957   0.545  -3.869  0.00  0.00     0.189 A 
ATOM     18  O   LIG d   1       5.214   1.016  -3.731  0.00  0.00    -0.458 OA
ATOM     19  C   LIG d   1       5.482   1.193  -2.432  0.00  0.00     0.093 A 
ATOM     20  C   LIG d   1       4.397   0.837  -1.710  0.00  0.00    -0.023 A 
ATOM     21  H   LIG d   1       6.414   1.560  -2.026  0.00  0.00     0.103 H 
ATOM     22  C   LIG d   1       3.413   0.420  -2.622  0.00  0.00    -0.011 A 
ATOM     23  H   LIG d   1       4.302   0.868  -0.634  0.00  0.00     0.065 H 
ATOM     24  H   LIG d   1       2.421   0.070  -2.383  0.00  0.00     0.066 H 
ENDBRANCH  14  17
ENDBRANCH   6  13
BRANCH   2  25
ATOM     25  C   LIG d   1       0.854  -1.264 -12.043  0.00  0.00    -0.035 C 
ATOM     26  H   LIG d   1       1.481  -0.624 -12.665  0.00  0.00     0.028 H 
ATOM     27  H   LIG d   1       0.457  -2.080 -12.646  0.00  0.00     0.028 H 
ATOM     28  H   LIG d   1       0.030  -0.679 -11.635  0.00  0.00     0.028 H 
ENDBRANCH   2  25
BRANCH   1  29
ATOM     29  C   LIG d   1       1.779  -4.206 -11.709  0.00  0.00     0.375 C 
ATOM     30  O   LIG d   1       2.396  -4.297 -12.753  0.00  0.00    -0.241 OA
BRANCH  29  31
ATOM     31  O   LIG d   1       0.818  -5.105 -11.411  0.00  0.00    -0.459 OA
BRANCH  31  32
ATOM     32  C   LIG d   1      -0.558  -4.652 -11.506  0.00  0.00     0.090 C 
ATOM     33  H   LIG d   1      -0.577  -3.570 -11.640  0.00  0.00     0.070 H 
ATOM     34  H   LIG d   1      -1.042  -5.132 -12.357  0.00  0.00     0.070 H 
BRANCH  32  35
ATOM     35  C   LIG d   1      -1.305  -5.018 -10.222  0.00  0.00    -0.031 C 
ATOM     36  H   LIG d   1      -0.647  -4.870  -9.364  0.00  0.00     0.026 H 
ATOM     37  H   LIG d   1      -2.185  -4.383 -10.119  0.00  0.00     0.026 H 
ATOM     38  H   LIG d   1      -1.612  -6.063 -10.266  0.00  0.00     0.026 H 
ENDBRANCH  32  35
ENDBRANCH  31  32
ENDBRANCH  29  31
ENDBRANCH   1  29
TORSDOF 7
ENDMDL
MODEL 2
REMARK VINA RESULT:      -5.8      5.697      6.611
REMARK  7 active torsions:
REMARK  status: ('A' for Active; 'I' for Inactive)
REMARK    1  A    between atoms: C_1  and  C_2 
REMARK    2  A    between atoms: C_2  and  O_3 
REMARK    3  A    between atoms: O_3  and  C_4 
REMARK    4  A    between atoms: C_4  and  C_6 
REMARK    5  A    between atoms: C_7  and  C_23 
REMARK    6  A    between atoms: C_11  and  N_15 
REMARK       I    between atoms: N_15  and  C_16 
REMARK    7  A    between atoms: C_16  and  C_18 
ROOT
ATOM      1  C   LIG d   1       5.151  -7.964  -6.186  0.00  0.00     0.215 A 
ATOM      2  C   LIG d   1       6.431  -7.570  -5.958  0.00  0.00     0.010 A 
ATOM      3  C   LIG d   1       6.381  -6.203  -5.584  0.00  0.00     0.024 A 
ATOM      4  C   LIG d   1       7.355  -5.260  -5.233  0.00  0.00    -0.049 A 
ATOM      5  C   LIG d   1       6.985  -3.987  -4.915  0.00  0.00    -0.040 A 
ATOM      6  C   LIG d   1       5.640  -3.616  -4.938  0.00  0.00     0.037 A 
ATOM      7  C   LIG d   1       4.662  -4.537  -5.277  0.00  0.00     0.003 A 
ATOM      8  C   LIG d   1       5.022  -5.836  -5.609  0.00  0.00     0.138 A 
ATOM      9  O   LIG d   1       4.314  -6.923  -5.976  0.00  0.00    -0.448 OA
ATOM     10  H   LIG d   1       8.398  -5.541  -5.215  0.00  0.00     0.062 H 
ATOM     11  H   LIG d   1       7.737  -3.262  -4.644  0.00  0.00     0.064 H 
ATOM     12  H   LIG d   1       3.622  -4.244  -5.288  0.00  0.00     0.067 H 
ENDROOT
BRANCH   6  13
ATOM     13  N   LIG d   1       5.276  -2.310  -4.610  0.00  0.00    -0.279 N 
ATOM     14  C   LIG d   1       4.499  -2.077  -3.533  0.00  0.00     0.283 C 
ATOM     15  O   LIG d   1       4.036  -3.009  -2.903  0.00  0.00    -0.267 OA
ATOM     16  H   LIG d   1       5.582  -1.569  -5.156  0.00  0.00     0.155 HD
BRANCH  14  17
ATOM     17  C   LIG d   1       4.212  -0.699  -3.121  0.00  0.00     0.189 A 
ATOM     18  O   LIG d   1       3.648   0.257  -3.887  0.00  0.00    -0.458 OA
ATOM     19  C   LIG d   1       3.546   1.390  -3.181  0.00  0.00     0.093 A 
ATOM     20  C   LIG d   1       4.046   1.178  -1.943  0.00  0.00    -0.023 A 
ATOM     21  H   LIG d   1       3.132   2.321  -3.540  0.00  0.00     0.103 H 
ATOM     22  C   LIG d   1       4.476  -0.158  -1.895  0.00  0.00    -0.011 A 
ATOM     23  H   LIG d   1       4.104   1.900  -1.142  0.00  0.00     0.065 H 
ATOM     24  H   LIG d   1       4.926  -0.659  -1.052  0.00  0.00     0.066 H 
ENDBRANCH  14  17
ENDBRANCH   6  13
BRANCH   2  25
ATOM     25  C   LIG d   1       7.668  -8.422  -6.081  0.00  0.00    -0.035 C 
ATOM     26  H   LIG d   1       7.430  -9.329  -6.637  0.00  0.00     0.028 H 
ATOM     27  H   LIG d   1       8.442  -7.865  -6.608  0.00  0.00     0.028 H 
ATOM     28  H   LIG d   1       8.026  -8.689  -5.087  0.00  0.00     0.028 H 
ENDBRANCH   2  25
BRANCH   1  29
ATOM     29  C   LIG d   1       4.741  -9.311  -6.597  0.00  0.00     0.375 C 
ATOM     30  O   LIG d   1       5.042  -9.728  -7.699  0.00  0.00    -0.241 OA
BRANCH  29  31
ATOM     31  O   LIG d   1       4.028 -10.085  -5.753  0.00  0.00    -0.459 OA
BRANCH  31  32
ATOM     32  C   LIG d   1       4.726 -10.605  -4.590  0.00  0.00     0.090 C 
ATOM     33  H   LIG d   1       4.712 -11.695  -4.615  0.00  0.00     0.070 H 
ATOM     34  H   LIG d   1       5.758 -10.254  -4.597  0.00  0.00     0.070 H 
BRANCH  32  35
ATOM     35  C   LIG d   1       4.029 -10.117  -3.318  0.00  0.00    -0.031 C 
ATOM     36  H   LIG d   1       3.083 -10.646  -3.196  0.00  0.00     0.026 H 
ATOM     37  H   LIG d   1       4.668 -10.312  -2.456  0.00  0.00     0.026 H 
ATOM     38  H   LIG d   1       3.840  -9.047  -3.396  0.00  0.00     0.026 H 
ENDBRANCH  32  35
ENDBRANCH  31  32
ENDBRANCH  29  31
ENDBRANCH   1  29
TORSDOF 7
ENDMDL
MODEL 3
REMARK VINA RESULT:      -5.7      2.843      8.207
REMARK  7 active torsions:
REMARK  status: ('A' for Active; 'I' for Inactive)
REMARK    1  A    between atoms: C_1  and  C_2 
REMARK    2  A    between atoms: C_2  and  O_3 
REMARK    3  A    between atoms: O_3  and  C_4 
REMARK    4  A    between atoms: C_4  and  C_6 
REMARK    5  A    between atoms: C_7  and  C_23 
REMARK    6  A    between atoms: C_11  and  N_15 
REMARK       I    between atoms: N_15  and  C_16 
REMARK    7  A    between atoms: C_16  and  C_18 
ROOT
ATOM      1  C   LIG d   1       4.121  -1.104  -5.417  0.00  0.00     0.215 A 
ATOM      2  C   LIG d   1       3.297  -0.072  -5.735  0.00  0.00     0.010 A 
ATOM      3  C   LIG d   1       3.351   0.080  -7.144  0.00  0.00     0.024 A 
ATOM      4  C   LIG d   1       2.734   0.955  -8.047  0.00  0.00    -0.049 A 
ATOM      5  C   LIG d   1       2.995   0.849  -9.381  0.00  0.00    -0.040 A 
ATOM      6  C   LIG d   1       3.874  -0.127  -9.854  0.00  0.00     0.037 A 
ATOM      7  C   LIG d   1       4.489  -1.004  -8.976  0.00  0.00     0.003 A 
ATOM      8  C   LIG d   1       4.239  -0.907  -7.614  0.00  0.00     0.138 A 
ATOM      9  O   LIG d   1       4.680  -1.598  -6.544  0.00  0.00    -0.448 OA
ATOM     10  H   LIG d   1       2.054   1.712  -7.687  0.00  0.00     0.062 H 
ATOM     11  H   LIG d   1       2.518   1.524 -10.075  0.00  0.00     0.064 H 
ATOM     12  H   LIG d   1       5.165  -1.760  -9.350  0.00  0.00     0.067 H 
ENDROOT
BRANCH   6  13
ATOM     13  N   LIG d   1       4.131  -0.223 -11.222  0.00  0.00    -0.279 N 
ATOM     14  C   LIG d   1       3.374  -1.029 -11.994  0.00  0.00     0.283 C 
ATOM     15  O   LIG d   1       2.531  -1.743 -11.485  0.00  0.00    -0.267 OA
ATOM     16  H   LIG d   1       4.853   0.290 -11.618  0.00  0.00     0.155 HD
BRANCH  14  17
ATOM     17  C   LIG d   1       3.568  -1.042 -13.448  0.00  0.00     0.189 A 
ATOM     18  O   LIG d   1       4.441  -0.281 -14.139  0.00  0.00    -0.458 OA
ATOM     19  C   LIG d   1       4.336  -0.559 -15.445  0.00  0.00     0.093 A 
ATOM     20  C   LIG d   1       3.389  -1.508 -15.613  0.00  0.00    -0.023 A 
ATOM     21  H   LIG d   1       4.914  -0.101 -16.234  0.00  0.00     0.103 H 
ATOM     22  C   LIG d   1       2.890  -1.825 -14.339  0.00  0.00    -0.011 A 
ATOM     23  H   LIG d   1       3.075  -1.943 -16.551  0.00  0.00     0.065 H 
ATOM     24  H   LIG d   1       2.121  -2.546 -14.110  0.00  0.00     0.066 H 
ENDBRANCH  14  17
ENDBRANCH   6  13
BRANCH   2  25
ATOM     25  C   LIG d   1       2.482   0.755  -4.774  0.00  0.00    -0.035 C 
ATOM     26  H   LIG d   1       1.993   0.098  -4.054  0.00  0.00     0.028 H 
ATOM     27  H   LIG d   1       3.136   1.448  -4.247  0.00  0.00     0.028 H 
ATOM     28  H   LIG d   1       1.727   1.315  -5.326  0.00  0.00     0.028 H 
ENDBRANCH   2  25
BRANCH   1  29
ATOM     29  C   LIG d   1       4.366  -1.604  -4.060  0.00  0.00     0.375 C 
ATOM     30  O   LIG d   1       3.902  -2.674  -3.714  0.00  0.00    -0.241 OA
BRANCH  29  31
ATOM     31  O   LIG d   1       5.105  -0.877  -3.197  0.00  0.00    -0.459 OA
BRANCH  31  32
ATOM     32  C   LIG d   1       4.500  -0.566  -1.914  0.00  0.00     0.090 C 
ATOM     33  H   LIG d   1       3.471  -0.922  -1.901  0.00  0.00     0.070 H 
ATOM     34  H   LIG d   1       5.064  -1.054  -1.118  0.00  0.00     0.070 H 
BRANCH  32  35
ATOM     35  C   LIG d   1       4.518   0.948  -1.696  0.00  0.00    -0.031 C 
ATOM     36  H   LIG d   1       5.048   1.177  -0.771  0.00  0.00     0.026 H 
ATOM     37  H   LIG d   1       5.024   1.430  -2.533  0.00  0.00     0.026 H 
ATOM     38  H   LIG d   1       3.494   1.317  -1.629  0.00  0.00     0.026 H 
ENDBRANCH  32  35
ENDBRANCH  31  32
ENDBRANCH  29  31
ENDBRANCH   1  29
TORSDOF 7
ENDMDL
MODEL 4
REMARK VINA RESULT:      -5.5      6.435     11.068
REMARK  7 active torsions:
REMARK  status: ('A' for Active; 'I' for Inactive)
REMARK    1  A    between atoms: C_1  and  C_2 
REMARK    2  A    between atoms: C_2  and  O_3 
REMARK    3  A    between atoms: O_3  and  C_4 
REMARK    4  A    between atoms: C_4  and  C_6 
REMARK    5  A    between atoms: C_7  and  C_23 
REMARK    6  A    between atoms: C_11  and  N_15 
REMARK       I    between atoms: N_15  and  C_16 
REMARK    7  A    between atoms: C_16  and  C_18 
ROOT
ATOM      1  C   LIG d   1      10.783   5.244  -3.965  0.00  0.00     0.215 A 
ATOM      2  C   LIG d   1      10.452   4.943  -5.247  0.00  0.00     0.010 A 
ATOM      3  C   LIG d   1       9.646   3.779  -5.204  0.00  0.00     0.024 A 
ATOM      4  C   LIG d   1       9.012   3.003  -6.182  0.00  0.00    -0.049 A 
ATOM      5  C   LIG d   1       8.286   1.909  -5.817  0.00  0.00    -0.040 A 
ATOM      6  C   LIG d   1       8.169   1.555  -4.472  0.00  0.00     0.037 A 
ATOM      7  C   LIG d   1       8.784   2.314  -3.489  0.00  0.00     0.003 A 
ATOM      8  C   LIG d   1       9.532   3.428  -3.845  0.00  0.00     0.138 A 
ATOM      9  O   LIG d   1      10.230   4.334  -3.132  0.00  0.00    -0.448 OA
ATOM     10  H   LIG d   1       9.100   3.271  -7.225  0.00  0.00     0.062 H 
ATOM     11  H   LIG d   1       7.798   1.312  -6.573  0.00  0.00     0.064 H 
ATOM     12  H   LIG d   1       8.685   2.037  -2.450  0.00  0.00     0.067 H 
ENDROOT
BRANCH   6  13
ATOM     13  N   LIG d   1       7.422   0.432  -4.114  0.00  0.00    -0.279 N 
ATOM     14  C   LIG d   1       6.242   0.583  -3.478  0.00  0.00     0.283 C 
ATOM     15  O   LIG d   1       5.874   1.690  -3.132  0.00  0.00    -0.267 OA
ATOM     16  H   LIG d   1       7.751  -0.456  -4.322  0.00  0.00     0.155 HD
BRANCH  14  17
ATOM     17  C   LIG d   1       5.403  -0.588  -3.205  0.00  0.00     0.189 A 
ATOM     18  O   LIG d   1       5.300  -1.689  -3.979  0.00  0.00    -0.458 OA
ATOM     19  C   LIG d   1       4.439  -2.547  -3.418  0.00  0.00     0.093 A 
ATOM     20  C   LIG d   1       3.972  -2.008  -2.270  0.00  0.00    -0.023 A 
ATOM     21  H   LIG d   1       4.162  -3.512  -3.818  0.00  0.00     0.103 H 
ATOM     22  C   LIG d   1       4.584  -0.753  -2.124  0.00  0.00    -0.011 A 
ATOM     23  H   LIG d   1       3.262  -2.458  -1.592  0.00  0.00     0.065 H 
ATOM     24  H   LIG d   1       4.436  -0.055  -1.315  0.00  0.00     0.066 H 
ENDBRANCH  14  17
ENDBRANCH   6  13
BRANCH   2  25
ATOM     25  C   LIG d   1      10.864   5.703  -6.482  0.00  0.00    -0.035 C 
ATOM     26  H   LIG d   1      10.083   6.416  -6.748  0.00  0.00     0.028 H 
ATOM     27  H   LIG d   1      11.793   6.239  -6.286  0.00  0.00     0.028 H 
ATOM     28  H   LIG d   1      11.014   5.006  -7.306  0.00  0.00     0.028 H 
ENDBRANCH   2  25
BRANCH   1  29
ATOM     29  C   LIG d   1      11.614   6.379  -3.548  0.00  0.00     0.375 C 
ATOM     30  O   LIG d   1      12.819   6.248  -3.454  0.00  0.00    -0.241 OA
BRANCH  29  31
ATOM     31  O   LIG d   1      11.039   7.567  -3.269  0.00  0.00    -0.459 OA
BRANCH  31  32
ATOM     32  C   LIG d   1      10.867   7.901  -1.866  0.00  0.00     0.090 C 
ATOM     33  H   LIG d   1      11.596   7.353  -1.269  0.00  0.00     0.070 H 
ATOM     34  H   LIG d   1      11.015   8.972  -1.726  0.00  0.00     0.070 H 
BRANCH  32  35
ATOM     35  C   LIG d   1       9.454   7.519  -1.421  0.00  0.00    -0.031 C 
ATOM     36  H   LIG d   1       9.394   6.437  -1.293  0.00  0.00     0.026 H 
ATOM     37  H   LIG d   1       9.226   8.009  -0.475  0.00  0.00     0.026 H 
ATOM     38  H   LIG d   1       8.737   7.835  -2.178  0.00  0.00     0.026 H 
ENDBRANCH  32  35
ENDBRANCH  31  32
ENDBRANCH  29  31
ENDBRANCH   1  29
TORSDOF 7
ENDMDL
MODEL 5
REMARK VINA RESULT:      -5.5      1.835      2.360
REMARK  7 active torsions:
REMARK  status: ('A' for Active; 'I' for Inactive)
REMARK    1  A    between atoms: C_1  and  C_2 
REMARK    2  A    between atoms: C_2  and  O_3 
REMARK    3  A    between atoms: O_3  and  C_4 
REMARK    4  A    between atoms: C_4  and  C_6 
REMARK    5  A    between atoms: C_7  and  C_23 
REMARK    6  A    between atoms: C_11  and  N_15 
REMARK       I    between atoms: N_15  and  C_16 
REMARK    7  A    between atoms: C_16  and  C_18 
ROOT
ATOM      1  C   LIG d   1       2.002  -1.514 -11.726  0.00  0.00     0.215 A 
ATOM      2  C   LIG d   1       3.126  -0.753 -11.785  0.00  0.00     0.010 A 
ATOM      3  C   LIG d   1       3.370  -0.274 -10.473  0.00  0.00     0.024 A 
ATOM      4  C   LIG d   1       4.359   0.541  -9.908  0.00  0.00    -0.049 A 
ATOM      5  C   LIG d   1       4.322   0.830  -8.577  0.00  0.00    -0.040 A 
ATOM      6  C   LIG d   1       3.302   0.321  -7.771  0.00  0.00     0.037 A 
ATOM      7  C   LIG d   1       2.318  -0.492  -8.311  0.00  0.00     0.003 A 
ATOM      8  C   LIG d   1       2.339  -0.793  -9.666  0.00  0.00     0.138 A 
ATOM      9  O   LIG d   1       1.537  -1.533 -10.457  0.00  0.00    -0.448 OA
ATOM     10  H   LIG d   1       5.149   0.939 -10.527  0.00  0.00     0.062 H 
ATOM     11  H   LIG d   1       5.085   1.459  -8.143  0.00  0.00     0.064 H 
ATOM     12  H   LIG d   1       1.535  -0.887  -7.680  0.00  0.00     0.067 H 
ENDROOT
BRANCH   6  13
ATOM     13  N   LIG d   1       3.278   0.627  -6.410  0.00  0.00    -0.279 N 
ATOM     14  C   LIG d   1       3.824  -0.225  -5.518  0.00  0.00     0.283 C 
ATOM     15  O   LIG d   1       4.253  -1.301  -5.888  0.00  0.00    -0.267 OA
ATOM     16  H   LIG d   1       2.868   1.451  -6.105  0.00  0.00     0.155 HD
BRANCH  14  17
ATOM     17  C   LIG d   1       3.901   0.149  -4.102  0.00  0.00     0.189 A 
ATOM     18  O   LIG d   1       3.605   1.358  -3.583  0.00  0.00    -0.458 OA
ATOM     19  C   LIG d   1       3.797   1.332  -2.258  0.00  0.00     0.093 A 
ATOM     20  C   LIG d   1       4.222   0.100  -1.904  0.00  0.00    -0.023 A 
ATOM     21  H   LIG d   1       3.638   2.161  -1.583  0.00  0.00     0.103 H 
ATOM     22  C   LIG d   1       4.293  -0.667  -3.078  0.00  0.00    -0.011 A 
ATOM     23  H   LIG d   1       4.463  -0.235  -0.905  0.00  0.00     0.065 H 
ATOM     24  H   LIG d   1       4.597  -1.699  -3.156  0.00  0.00     0.066 H 
ENDBRANCH  14  17
ENDBRANCH   6  13
BRANCH   2  25
ATOM     25  C   LIG d   1       3.956  -0.471 -13.011  0.00  0.00    -0.035 C 
ATOM     26  H   LIG d   1       3.883   0.588 -13.263  0.00  0.00     0.028 H 
ATOM     27  H   LIG d   1       4.997  -0.725 -12.811  0.00  0.00     0.028 H 
ATOM     28  H   LIG d   1       3.589  -1.068 -13.845  0.00  0.00     0.028 H 
ENDBRANCH   2  25
BRANCH   1  29
ATOM     29  C   LIG d   1       1.388  -2.206 -12.864  0.00  0.00     0.375 C 
ATOM     30  O   LIG d   1       0.300  -1.852 -13.276  0.00  0.00    -0.241 OA
BRANCH  29  31
ATOM     31  O   LIG d   1       2.031  -3.236 -13.453  0.00  0.00    -0.459 OA
BRANCH  31  32
ATOM     32  C   LIG d   1       2.487  -4.309 -12.586  0.00  0.00     0.090 C 
ATOM     33  H   LIG d   1       2.250  -4.065 -11.551  0.00  0.00     0.070 H 
ATOM     34  H   LIG d   1       1.989  -5.238 -12.865  0.00  0.00     0.070 H 
BRANCH  32  35
ATOM     35  C   LIG d   1       4.000  -4.476 -12.737  0.00  0.00    -0.031 C 
ATOM     36  H   LIG d   1       4.320  -4.047 -13.687  0.00  0.00     0.026 H 
ATOM     37  H   LIG d   1       4.506  -3.963 -11.918  0.00  0.00     0.026 H 
ATOM     38  H   LIG d   1       4.252  -5.536 -12.713  0.00  0.00     0.026 H 
ENDBRANCH  32  35
ENDBRANCH  31  32
ENDBRANCH  29  31
ENDBRANCH   1  29
TORSDOF 7
ENDMDL
MODEL 6
REMARK VINA RESULT:      -5.4      6.523      9.994
REMARK  7 active torsions:
REMARK  status: ('A' for Active; 'I' for Inactive)
REMARK    1  A    between atoms: C_1  and  C_2 
REMARK    2  A    between atoms: C_2  and  O_3 
REMARK    3  A    between atoms: O_3  and  C_4 
REMARK    4  A    between atoms: C_4  and  C_6 
REMARK    5  A    between atoms: C_7  and  C_23 
REMARK    6  A    between atoms: C_11  and  N_15 
REMARK       I    between atoms: N_15  and  C_16 
REMARK    7  A    between atoms: C_16  and  C_18 
ROOT
ATOM      1  C   LIG d   1      10.117   4.741  -7.091  0.00  0.00     0.215 A 
ATOM      2  C   LIG d   1      10.447   4.839  -5.777  0.00  0.00     0.010 A 
ATOM      3  C   LIG d   1       9.784   3.782  -5.104  0.00  0.00     0.024 A 
ATOM      4  C   LIG d   1       9.732   3.367  -3.768  0.00  0.00    -0.049 A 
ATOM      5  C   LIG d   1       8.984   2.282  -3.422  0.00  0.00    -0.040 A 
ATOM      6  C   LIG d   1       8.266   1.580  -4.392  0.00  0.00     0.037 A 
ATOM      7  C   LIG d   1       8.309   1.973  -5.720  0.00  0.00     0.003 A 
ATOM      8  C   LIG d   1       9.063   3.079  -6.088  0.00  0.00     0.138 A 
ATOM      9  O   LIG d   1       9.290   3.687  -7.270  0.00  0.00    -0.448 OA
ATOM     10  H   LIG d   1      10.285   3.907  -3.013  0.00  0.00     0.062 H 
ATOM     11  H   LIG d   1       8.945   1.963  -2.391  0.00  0.00     0.064 H 
ATOM     12  H   LIG d   1       7.755   1.422  -6.466  0.00  0.00     0.067 H 
ENDROOT
BRANCH   6  13
ATOM     13  N   LIG d   1       7.504   0.471  -4.022  0.00  0.00    -0.279 N 
ATOM     14  C   LIG d   1       6.302   0.645  -3.437  0.00  0.00     0.283 C 
ATOM     15  O   LIG d   1       5.923   1.763  -3.144  0.00  0.00    -0.267 OA
ATOM     16  H   LIG d   1       7.839  -0.424  -4.186  0.00  0.00     0.155 HD
BRANCH  14  17
ATOM     17  C   LIG d   1       5.451  -0.516  -3.154  0.00  0.00     0.189 A 
ATOM     18  O   LIG d   1       5.392  -1.652  -3.879  0.00  0.00    -0.458 OA
ATOM     19  C   LIG d   1       4.503  -2.486  -3.326  0.00  0.00     0.093 A 
ATOM     20  C   LIG d   1       3.974  -1.896  -2.232  0.00  0.00    -0.023 A 
ATOM     21  H   LIG d   1       4.250  -3.470  -3.694  0.00  0.00     0.103 H 
ATOM     22  C   LIG d   1       4.575  -0.633  -2.113  0.00  0.00    -0.011 A 
ATOM     23  H   LIG d   1       3.229  -2.317  -1.572  0.00  0.00     0.065 H 
ATOM     24  H   LIG d   1       4.382   0.103  -1.347  0.00  0.00     0.066 H 
ENDBRANCH  14  17
ENDBRANCH   6  13
BRANCH   2  25
ATOM     25  C   LIG d   1      11.347   5.875  -5.152  0.00  0.00    -0.035 C 
ATOM     26  H   LIG d   1      10.752   6.542  -4.527  0.00  0.00     0.028 H 
ATOM     27  H   LIG d   1      12.100   5.380  -4.540  0.00  0.00     0.028 H 
ATOM     28  H   LIG d   1      11.836   6.453  -5.936  0.00  0.00     0.028 H 
ENDBRANCH   2  25
BRANCH   1  29
ATOM     29  C   LIG d   1      10.585   5.639  -8.151  0.00  0.00     0.375 C 
ATOM     30  O   LIG d   1      11.695   5.493  -8.626  0.00  0.00    -0.241 OA
BRANCH  29  31
ATOM     31  O   LIG d   1       9.785   6.630  -8.597  0.00  0.00    -0.459 OA
BRANCH  31  32
ATOM     32  C   LIG d   1      10.118   7.982  -8.183  0.00  0.00     0.090 C 
ATOM     33  H   LIG d   1      11.162   8.021  -7.875  0.00  0.00     0.070 H 
ATOM     34  H   LIG d   1       9.958   8.667  -9.016  0.00  0.00     0.070 H 
BRANCH  32  35
ATOM     35  C   LIG d   1       9.225   8.389  -7.009  0.00  0.00    -0.031 C 
ATOM     36  H   LIG d   1       9.636   9.279  -6.532  0.00  0.00     0.026 H 
ATOM     37  H   LIG d   1       8.220   8.603  -7.374  0.00  0.00     0.026 H 
ATOM     38  H   LIG d   1       9.184   7.575  -6.285  0.00  0.00     0.026 H 
ENDBRANCH  32  35
ENDBRANCH  31  32
ENDBRANCH  29  31
ENDBRANCH   1  29
TORSDOF 7
ENDMDL
MODEL 7
REMARK VINA RESULT:      -5.3      2.980      3.927
REMARK  7 active torsions:
REMARK  status: ('A' for Active; 'I' for Inactive)
REMARK    1  A    between atoms: C_1  and  C_2 
REMARK    2  A    between atoms: C_2  and  O_3 
REMARK    3  A    between atoms: O_3  and  C_4 
REMARK    4  A    between atoms: C_4  and  C_6 
REMARK    5  A    between atoms: C_7  and  C_23 
REMARK    6  A    between atoms: C_11  and  N_15 
REMARK       I    between atoms: N_15  and  C_16 
REMARK    7  A    between atoms: C_16  and  C_18 
ROOT
ATOM      1  C   LIG d   1       4.372  -0.528 -12.352  0.00  0.00     0.215 A 
ATOM      2  C   LIG d   1       3.131  -0.950 -11.996  0.00  0.00     0.010 A 
ATOM      3  C   LIG d   1       2.970  -0.645 -10.620  0.00  0.00     0.024 A 
ATOM      4  C   LIG d   1       1.929  -0.832  -9.703  0.00  0.00    -0.049 A 
ATOM      5  C   LIG d   1       2.078  -0.420  -8.412  0.00  0.00    -0.040 A 
ATOM      6  C   LIG d   1       3.264   0.187  -7.997  0.00  0.00     0.037 A 
ATOM      7  C   LIG d   1       4.303   0.386  -8.892  0.00  0.00     0.003 A 
ATOM      8  C   LIG d   1       4.169  -0.033 -10.209  0.00  0.00     0.138 A 
ATOM      9  O   LIG d   1       4.987   0.019 -11.280  0.00  0.00    -0.448 OA
ATOM     10  H   LIG d   1       1.009  -1.303 -10.018  0.00  0.00     0.062 H 
ATOM     11  H   LIG d   1       1.274  -0.565  -7.707  0.00  0.00     0.064 H 
ATOM     12  H   LIG d   1       5.217   0.861  -8.565  0.00  0.00     0.067 H 
ENDROOT
BRANCH   6  13
ATOM     13  N   LIG d   1       3.402   0.603  -6.673  0.00  0.00    -0.279 N 
ATOM     14  C   LIG d   1       3.907  -0.241  -5.750  0.00  0.00     0.283 C 
ATOM     15  O   LIG d   1       4.152  -1.394  -6.051  0.00  0.00    -0.267 OA
ATOM     16  H   LIG d   1       3.136   1.500  -6.415  0.00  0.00     0.155 HD
BRANCH  14  17
ATOM     17  C   LIG d   1       4.160   0.232  -4.386  0.00  0.00     0.189 A 
ATOM     18  O   LIG d   1       5.363   0.561  -3.870  0.00  0.00    -0.458 OA
ATOM     19  C   LIG d   1       5.210   0.943  -2.596  0.00  0.00     0.093 A 
ATOM     20  C   LIG d   1       3.901   0.866  -2.272  0.00  0.00    -0.023 A 
ATOM     21  H   LIG d   1       6.004   1.262  -1.936  0.00  0.00     0.103 H 
ATOM     22  C   LIG d   1       3.219   0.411  -3.412  0.00  0.00    -0.011 A 
ATOM     23  H   LIG d   1       3.461   1.110  -1.316  0.00  0.00     0.065 H 
ATOM     24  H   LIG d   1       2.158   0.237  -3.501  0.00  0.00     0.066 H 
ENDBRANCH  14  17
ENDBRANCH   6  13
BRANCH   2  25
ATOM     25  C   LIG d   1       2.118  -1.617 -12.891  0.00  0.00    -0.035 C 
ATOM     26  H   LIG d   1       1.484  -2.274 -12.294  0.00  0.00     0.028 H 
ATOM     27  H   LIG d   1       1.502  -0.857 -13.372  0.00  0.00     0.028 H 
ATOM     28  H   LIG d   1       2.634  -2.203 -13.651  0.00  0.00     0.028 H 
ENDBRANCH   2  25
BRANCH   1  29
ATOM     29  C   LIG d   1       4.954  -0.648 -13.693  0.00  0.00     0.375 C 
ATOM     30  O   LIG d   1       5.974  -1.288 -13.857  0.00  0.00    -0.241 OA
BRANCH  29  31
ATOM     31  O   LIG d   1       4.358  -0.046 -14.743  0.00  0.00    -0.459 OA
BRANCH  31  32
ATOM     32  C   LIG d   1       5.083  -0.046 -16.001  0.00  0.00     0.090 C 
ATOM     33  H   LIG d   1       6.128   0.204 -15.818  0.00  0.00     0.070 H 
ATOM     34  H   LIG d   1       5.020  -1.035 -16.457  0.00  0.00     0.070 H 
BRANCH  32  35
ATOM     35  C   LIG d   1       4.469   0.990 -16.943  0.00  0.00    -0.031 C 
ATOM     36  H   LIG d   1       5.250   1.412 -17.578  0.00  0.00     0.026 H 
ATOM     37  H   LIG d   1       3.714   0.512 -17.567  0.00  0.00     0.026 H 
ATOM     38  H   LIG d   1       4.008   1.786 -16.357  0.00  0.00     0.026 H 
ENDBRANCH  32  35
ENDBRANCH  31  32
ENDBRANCH  29  31
ENDBRANCH   1  29
TORSDOF 7
ENDMDL
MODEL 8
REMARK VINA RESULT:      -5.1      5.625      7.141
REMARK  7 active torsions:
REMARK  status: ('A' for Active; 'I' for Inactive)
REMARK    1  A    between atoms: C_1  and  C_2 
REMARK    2  A    between atoms: C_2  and  O_3 
REMARK    3  A    between atoms: O_3  and  C_4 
REMARK    4  A    between atoms: C_4  and  C_6 
REMARK    5  A    between atoms: C_7  and  C_23 
REMARK    6  A    between atoms: C_11  and  N_15 
REMARK       I    between atoms: N_15  and  C_16 
REMARK    7  A    between atoms: C_16  and  C_18 
ROOT
ATOM      1  C   LIG d   1       4.847  -8.317  -6.205  0.00  0.00     0.215 A 
ATOM      2  C   LIG d   1       5.865  -7.650  -5.601  0.00  0.00     0.010 A 
ATOM      3  C   LIG d   1       5.610  -6.266  -5.769  0.00  0.00     0.024 A 
ATOM      4  C   LIG d   1       6.283  -5.103  -5.377  0.00  0.00    -0.049 A 
ATOM      5  C   LIG d   1       5.772  -3.881  -5.697  0.00  0.00    -0.040 A 
ATOM      6  C   LIG d   1       4.579  -3.780  -6.416  0.00  0.00     0.037 A 
ATOM      7  C   LIG d   1       3.896  -4.920  -6.807  0.00  0.00     0.003 A 
ATOM      8  C   LIG d   1       4.406  -6.173  -6.494  0.00  0.00     0.138 A 
ATOM      9  O   LIG d   1       3.979  -7.428  -6.736  0.00  0.00    -0.448 OA
ATOM     10  H   LIG d   1       7.207  -5.175  -4.822  0.00  0.00     0.062 H 
ATOM     11  H   LIG d   1       6.293  -2.985  -5.394  0.00  0.00     0.064 H 
ATOM     12  H   LIG d   1       2.971  -4.834  -7.359  0.00  0.00     0.067 H 
ENDROOT
BRANCH   6  13
ATOM     13  N   LIG d   1       4.068  -2.522  -6.736  0.00  0.00    -0.279 N 
ATOM     14  C   LIG d   1       4.416  -1.929  -7.896  0.00  0.00     0.283 C 
ATOM     15  O   LIG d   1       5.248  -2.446  -8.619  0.00  0.00    -0.267 OA
ATOM     16  H   LIG d   1       3.463  -2.074  -6.125  0.00  0.00     0.155 HD
BRANCH  14  17
ATOM     17  C   LIG d   1       3.791  -0.662  -8.287  0.00  0.00     0.189 A 
ATOM     18  O   LIG d   1       3.610  -0.223  -9.550  0.00  0.00    -0.458 OA
ATOM     19  C   LIG d   1       3.012   0.975  -9.522  0.00  0.00     0.093 A 
ATOM     20  C   LIG d   1       2.799   1.326  -8.235  0.00  0.00    -0.023 A 
ATOM     21  H   LIG d   1       2.744   1.565 -10.387  0.00  0.00     0.103 H 
ATOM     22  C   LIG d   1       3.295   0.284  -7.435  0.00  0.00    -0.011 A 
ATOM     23  H   LIG d   1       2.335   2.237  -7.886  0.00  0.00     0.065 H 
ATOM     24  H   LIG d   1       3.285   0.239  -6.357  0.00  0.00     0.066 H 
ENDBRANCH  14  17
ENDBRANCH   6  13
BRANCH   2  25
ATOM     25  C   LIG d   1       7.043  -8.265  -4.888  0.00  0.00    -0.035 C 
ATOM     26  H   LIG d   1       6.707  -8.713  -3.952  0.00  0.00     0.028 H 
ATOM     27  H   LIG d   1       7.488  -9.034  -5.519  0.00  0.00     0.028 H 
ATOM     28  H   LIG d   1       7.783  -7.494  -4.676  0.00  0.00     0.028 H 
ENDBRANCH   2  25
BRANCH   1  29
ATOM     29  C   LIG d   1       4.712  -9.776  -6.271  0.00  0.00     0.375 C 
ATOM     30  O   LIG d   1       5.380 -10.414  -7.063  0.00  0.00    -0.241 OA
BRANCH  29  31
ATOM     31  O   LIG d   1       3.847 -10.410  -5.453  0.00  0.00    -0.459 OA
BRANCH  31  32
ATOM     32  C   LIG d   1       4.309 -10.709  -4.109  0.00  0.00     0.090 C 
ATOM     33  H   LIG d   1       4.398 -11.788  -3.986  0.00  0.00     0.070 H 
ATOM     34  H   LIG d   1       5.282 -10.244  -3.947  0.00  0.00     0.070 H 
BRANCH  32  35
ATOM     35  C   LIG d   1       3.307 -10.161  -3.092  0.00  0.00    -0.031 C 
ATOM     36  H   LIG d   1       2.297 -10.451  -3.385  0.00  0.00     0.026 H 
ATOM     37  H   LIG d   1       3.529 -10.570  -2.106  0.00  0.00     0.026 H 
ATOM     38  H   LIG d   1       3.378  -9.074  -3.060  0.00  0.00     0.026 H 
ENDBRANCH  32  35
ENDBRANCH  31  32
ENDBRANCH  29  31
ENDBRANCH   1  29
TORSDOF 7
ENDMDL
MODEL 9
REMARK VINA RESULT:      -5.1      6.276     12.367
REMARK  7 active torsions:
REMARK  status: ('A' for Active; 'I' for Inactive)
REMARK    1  A    between atoms: C_1  and  C_2 
REMARK    2  A    between atoms: C_2  and  O_3 
REMARK    3  A    between atoms: O_3  and  C_4 
REMARK    4  A    between atoms: C_4  and  C_6 
REMARK    5  A    between atoms: C_7  and  C_23 
REMARK    6  A    between atoms: C_11  and  N_15 
REMARK       I    between atoms: N_15  and  C_16 
REMARK    7  A    between atoms: C_16  and  C_18 
ROOT
ATOM      1  C   LIG d   1      10.911   6.123  -2.100  0.00  0.00     0.215 A 
ATOM      2  C   LIG d   1      10.467   6.315  -3.369  0.00  0.00     0.010 A 
ATOM      3  C   LIG d   1       9.967   5.069  -3.825  0.00  0.00     0.024 A 
ATOM      4  C   LIG d   1       9.389   4.640  -5.026  0.00  0.00    -0.049 A 
ATOM      5  C   LIG d   1       8.998   3.342  -5.166  0.00  0.00    -0.040 A 
ATOM      6  C   LIG d   1       9.173   2.435  -4.119  0.00  0.00     0.037 A 
ATOM      7  C   LIG d   1       9.738   2.843  -2.922  0.00  0.00     0.003 A 
ATOM      8  C   LIG d   1      10.146   4.161  -2.765  0.00  0.00     0.138 A 
ATOM      9  O   LIG d   1      10.716   4.833  -1.745  0.00  0.00    -0.448 OA
ATOM     10  H   LIG d   1       9.252   5.337  -5.840  0.00  0.00     0.062 H 
ATOM     11  H   LIG d   1       8.553   3.012  -6.092  0.00  0.00     0.064 H 
ATOM     12  H   LIG d   1       9.866   2.136  -2.114  0.00  0.00     0.067 H 
ENDROOT
BRANCH   6  13
ATOM     13  N   LIG d   1       8.769   1.109  -4.277  0.00  0.00    -0.279 N 
ATOM     14  C   LIG d   1       7.499   0.753  -3.994  0.00  0.00     0.283 C 
ATOM     15  O   LIG d   1       6.733   1.565  -3.511  0.00  0.00    -0.267 OA
ATOM     16  H   LIG d   1       9.400   0.443  -4.591  0.00  0.00     0.155 HD
BRANCH  14  17
ATOM     17  C   LIG d   1       7.043  -0.613  -4.269  0.00  0.00     0.189 A 
ATOM     18  O   LIG d   1       6.629  -1.086  -5.463  0.00  0.00    -0.458 OA
ATOM     19  C   LIG d   1       6.283  -2.373  -5.336  0.00  0.00     0.093 A 
ATOM     20  C   LIG d   1       6.470  -2.749  -4.052  0.00  0.00    -0.023 A 
ATOM     21  H   LIG d   1       5.915  -3.007  -6.129  0.00  0.00     0.103 H 
ATOM     22  C   LIG d   1       6.957  -1.629  -3.360  0.00  0.00    -0.011 A 
ATOM     23  H   LIG d   1       6.282  -3.728  -3.635  0.00  0.00     0.065 H 
ATOM     24  H   LIG d   1       7.213  -1.580  -2.312  0.00  0.00     0.066 H 
ENDBRANCH  14  17
ENDBRANCH   6  13
BRANCH   2  25
ATOM     25  C   LIG d   1      10.500   7.607  -4.145  0.00  0.00    -0.035 C 
ATOM     26  H   LIG d   1      11.512   7.787  -4.508  0.00  0.00     0.028 H 
ATOM     27  H   LIG d   1       9.817   7.539  -4.992  0.00  0.00     0.028 H 
ATOM     28  H   LIG d   1      10.195   8.429  -3.498  0.00  0.00     0.028 H 
ENDBRANCH   2  25
BRANCH   1  29
ATOM     29  C   LIG d   1      11.510   7.154  -1.247  0.00  0.00     0.375 C 
ATOM     30  O   LIG d   1      12.638   7.549  -1.471  0.00  0.00    -0.241 OA
BRANCH  29  31
ATOM     31  O   LIG d   1      10.810   7.664  -0.213  0.00  0.00    -0.459 OA
BRANCH  31  32
ATOM     32  C   LIG d   1      11.327   7.412   1.121  0.00  0.00     0.090 C 
ATOM     33  H   LIG d   1      12.405   7.571   1.129  0.00  0.00     0.070 H 
ATOM     34  H   LIG d   1      10.853   8.091   1.830  0.00  0.00     0.070 H 
BRANCH  32  35
ATOM     35  C   LIG d   1      11.023   5.966   1.519  0.00  0.00    -0.031 C 
ATOM     36  H   LIG d   1      11.317   5.297   0.710  0.00  0.00     0.026 H 
ATOM     37  H   LIG d   1      11.582   5.713   2.421  0.00  0.00     0.026 H 
ATOM     38  H   LIG d   1       9.955   5.859   1.710  0.00  0.00     0.026 H 
ENDBRANCH  32  35
ENDBRANCH  31  32
ENDBRANCH  29  31
ENDBRANCH   1  29
TORSDOF 7
ENDMDL
