MODEL 1
REMARK VINA RESULT:      -8.9      0.000      0.000
REMARK  4 active torsions:
REMARK  status: ('A' for Active; 'I' for Inactive)
REMARK    1  A    between atoms: C_4  and  S_7 
REMARK    2  A    between atoms: S_7  and  N_10 
REMARK    3  A    between atoms: N_10  and  C_11 
REMARK       I    between atoms: N_25  and  C_27 
REMARK       I    between atoms: C_27  and  N_29 
REMARK    4  A    between atoms: N_29  and  C_30 
ROOT
ATOM      1  C   LIG d   1       7.591   1.017  -4.890  0.00  0.00     0.112 A 
ATOM      2  C   LIG d   1       7.205   1.899  -3.918  0.00  0.00    -0.032 A 
ATOM      3  C   LIG d   1       6.241   1.498  -2.986  0.00  0.00    -0.040 A 
ATOM      4  C   LIG d   1       5.699   0.253  -3.041  0.00  0.00     0.027 A 
ATOM      5  N   LIG d   1       6.133  -0.647  -3.957  0.00  0.00    -0.310 N 
ATOM      6  C   LIG d   1       7.016  -0.268  -4.913  0.00  0.00     0.274 A 
ATOM      7  O   LIG d   1       7.321  -1.051  -5.799  0.00  0.00    -0.266 OA
ATOM      8  C   LIG d   1       5.722  -2.052  -3.955  0.00  0.00     0.031 C 
ATOM      9  C   LIG d   1       4.442  -2.280  -3.172  0.00  0.00    -0.006 C 
ATOM     10  H   LIG d   1       4.347  -3.350  -2.984  0.00  0.00     0.033 H 
ATOM     11  C   LIG d   1       4.524  -1.569  -1.821  0.00  0.00    -0.037 C 
ATOM     12  C   LIG d   1       4.582  -0.060  -2.072  0.00  0.00     0.016 C 
ATOM     13  H   LIG d   1       4.726   0.473  -1.133  0.00  0.00     0.038 H 
ATOM     14  C   LIG d   1       3.259   0.372  -2.729  0.00  0.00     0.024 C 
ATOM     15  N   LIG d   1       3.132  -0.375  -3.991  0.00  0.00    -0.285 N 
ATOM     16  C   LIG d   1       3.209  -1.839  -3.949  0.00  0.00     0.021 C 
ATOM     17  C   LIG d   1       2.947   0.273  -5.158  0.00  0.00     0.302 C 
ATOM     18  O   LIG d   1       2.793   1.479  -5.167  0.00  0.00    -0.253 OA
ATOM     19  N   LIG d   1       2.932  -0.417  -6.316  0.00  0.00    -0.296 N 
ATOM     20  H   LIG d   1       7.641   2.886  -3.868  0.00  0.00     0.064 H 
ATOM     21  H   LIG d   1       5.924   2.185  -2.216  0.00  0.00     0.064 H 
ATOM     22  H   LIG d   1       5.568  -2.377  -4.984  0.00  0.00     0.050 H 
ATOM     23  H   LIG d   1       6.518  -2.651  -3.512  0.00  0.00     0.050 H 
ATOM     24  H   LIG d   1       3.643  -1.808  -1.226  0.00  0.00     0.028 H 
ATOM     25  H   LIG d   1       5.423  -1.887  -1.293  0.00  0.00     0.028 H 
ATOM     26  H   LIG d   1       2.424   0.133  -2.070  0.00  0.00     0.047 H 
ATOM     27  H   LIG d   1       3.278   1.443  -2.932  0.00  0.00     0.047 H 
ATOM     28  H   LIG d   1       3.267  -2.227  -4.967  0.00  0.00     0.047 H 
ATOM     29  H   LIG d   1       2.316  -2.235  -3.464  0.00  0.00     0.047 H 
ATOM     30  H   LIG d   1       2.980  -1.385  -6.305  0.00  0.00     0.150 HD
ENDROOT
BRANCH  19  31
ATOM     31  C   LIG d   1       2.843   0.296  -7.593  0.00  0.00     0.025 C 
ATOM     32  C   LIG d   1       4.244   0.710  -8.045  0.00  0.00    -0.035 C 
ATOM     33  C   LIG d   1       4.150   1.454  -9.379  0.00  0.00    -0.051 C 
ATOM     34  H   LIG d   1       4.691   1.362  -7.296  0.00  0.00     0.028 H 
ATOM     35  H   LIG d   1       4.862  -0.179  -8.169  0.00  0.00     0.028 H 
ATOM     36  C   LIG d   1       3.522   0.539 -10.432  0.00  0.00    -0.053 C 
ATOM     37  H   LIG d   1       3.531   2.343  -9.255  0.00  0.00     0.027 H 
ATOM     38  H   LIG d   1       5.148   1.750  -9.701  0.00  0.00     0.027 H 
ATOM     39  C   LIG d   1       2.121   0.125  -9.978  0.00  0.00    -0.051 C 
ATOM     40  H   LIG d   1       3.456   1.070 -11.381  0.00  0.00     0.026 H 
ATOM     41  H   LIG d   1       4.142  -0.350 -10.556  0.00  0.00     0.026 H 
ATOM     42  C   LIG d   1       2.215  -0.620  -8.646  0.00  0.00    -0.035 C 
ATOM     43  H   LIG d   1       1.503   1.014  -9.855  0.00  0.00     0.027 H 
ATOM     44  H   LIG d   1       1.674  -0.527 -10.729  0.00  0.00     0.027 H 
ATOM     45  H   LIG d   1       2.834  -1.508  -8.769  0.00  0.00     0.028 H 
ATOM     46  H   LIG d   1       1.217  -0.914  -8.323  0.00  0.00     0.028 H 
ATOM     47  H   LIG d   1       2.223   1.185  -7.469  0.00  0.00     0.050 H 
ENDBRANCH  19  31
BRANCH   1  48
ATOM     48  N   LIG d   1       8.539   1.389  -5.852  0.00  0.00    -0.211 N 
ATOM     49  H   LIG d   1       8.293   1.420  -6.789  0.00  0.00     0.174 HD
BRANCH  48  50
ATOM     50  S   LIG d   1      10.081   1.776  -5.388  0.00  0.00     0.072 S 
ATOM     51  O   LIG d   1      10.490   0.777  -4.464  0.00  0.00    -0.150 OA
ATOM     52  O   LIG d   1      10.806   2.054  -6.579  0.00  0.00    -0.150 OA
BRANCH  50  53
ATOM     53  C   LIG d   1       9.992   3.288  -4.489  0.00  0.00     0.108 A 
ATOM     54  C   LIG d   1      10.336   3.318  -3.150  0.00  0.00    -0.035 A 
ATOM     55  C   LIG d   1      10.266   4.505  -2.445  0.00  0.00    -0.060 A 
ATOM     56  H   LIG d   1      10.661   2.415  -2.656  0.00  0.00     0.064 H 
ATOM     57  C   LIG d   1       9.850   5.662  -3.078  0.00  0.00    -0.062 A 
ATOM     58  H   LIG d   1      10.536   4.528  -1.400  0.00  0.00     0.062 H 
ATOM     59  C   LIG d   1       9.505   5.632  -4.416  0.00  0.00    -0.060 A 
ATOM     60  H   LIG d   1       9.795   6.589  -2.527  0.00  0.00     0.062 H 
ATOM     61  C   LIG d   1       9.580   4.446  -5.123  0.00  0.00    -0.035 A 
ATOM     62  H   LIG d   1       9.180   6.535  -4.910  0.00  0.00     0.062 H 
ATOM     63  H   LIG d   1       9.315   4.424  -6.170  0.00  0.00     0.064 H 
ENDBRANCH  50  53
ENDBRANCH  48  50
ENDBRANCH   1  48
TORSDOF 4
ENDMDL
MODEL 2
REMARK VINA RESULT:      -8.4      1.492      2.060
REMARK  4 active torsions:
REMARK  status: ('A' for Active; 'I' for Inactive)
REMARK    1  A    between atoms: C_4  and  S_7 
REMARK    2  A    between atoms: S_7  and  N_10 
REMARK    3  A    between atoms: N_10  and  C_11 
REMARK       I    between atoms: N_25  and  C_27 
REMARK       I    between atoms: C_27  and  N_29 
REMARK    4  A    between atoms: N_29  and  C_30 
ROOT
ATOM      1  C   LIG d   1       7.882   0.776  -4.665  0.00  0.00     0.112 A 
ATOM      2  C   LIG d   1       7.388   1.777  -3.875  0.00  0.00    -0.032 A 
ATOM      3  C   LIG d   1       6.303   1.502  -3.035  0.00  0.00    -0.040 A 
ATOM      4  C   LIG d   1       5.752   0.260  -3.000  0.00  0.00     0.027 A 
ATOM      5  N   LIG d   1       6.286  -0.752  -3.726  0.00  0.00    -0.310 N 
ATOM      6  C   LIG d   1       7.294  -0.502  -4.597  0.00  0.00     0.274 A 
ATOM      7  O   LIG d   1       7.698  -1.393  -5.326  0.00  0.00    -0.266 OA
ATOM      8  C   LIG d   1       5.854  -2.145  -3.596  0.00  0.00     0.031 C 
ATOM      9  C   LIG d   1       4.479  -2.269  -2.966  0.00  0.00    -0.006 C 
ATOM     10  H   LIG d   1       4.341  -3.305  -2.656  0.00  0.00     0.033 H 
ATOM     11  C   LIG d   1       4.396  -1.387  -1.720  0.00  0.00    -0.037 C 
ATOM     12  C   LIG d   1       4.512   0.076  -2.154  0.00  0.00     0.016 C 
ATOM     13  H   LIG d   1       4.541   0.727  -1.281  0.00  0.00     0.038 H 
ATOM     14  C   LIG d   1       3.294   0.419  -3.030  0.00  0.00     0.024 C 
ATOM     15  N   LIG d   1       3.321  -0.486  -4.190  0.00  0.00    -0.285 N 
ATOM     16  C   LIG d   1       3.366  -1.933  -3.950  0.00  0.00     0.021 C 
ATOM     17  C   LIG d   1       3.301   0.003  -5.446  0.00  0.00     0.302 C 
ATOM     18  O   LIG d   1       3.171   1.198  -5.631  0.00  0.00    -0.253 OA
ATOM     19  N   LIG d   1       3.427  -0.832  -6.496  0.00  0.00    -0.296 N 
ATOM     20  H   LIG d   1       7.830   2.762  -3.896  0.00  0.00     0.064 H 
ATOM     21  H   LIG d   1       5.900   2.283  -2.409  0.00  0.00     0.064 H 
ATOM     22  H   LIG d   1       5.831  -2.601  -4.585  0.00  0.00     0.050 H 
ATOM     23  H   LIG d   1       6.575  -2.681  -2.978  0.00  0.00     0.050 H 
ATOM     24  H   LIG d   1       3.441  -1.547  -1.220  0.00  0.00     0.028 H 
ATOM     25  H   LIG d   1       5.212  -1.634  -1.041  0.00  0.00     0.028 H 
ATOM     26  H   LIG d   1       2.376   0.268  -2.462  0.00  0.00     0.047 H 
ATOM     27  H   LIG d   1       3.359   1.454  -3.366  0.00  0.00     0.047 H 
ATOM     28  H   LIG d   1       3.550  -2.450  -4.892  0.00  0.00     0.047 H 
ATOM     29  H   LIG d   1       2.411  -2.262  -3.540  0.00  0.00     0.047 H 
ATOM     30  H   LIG d   1       3.456  -1.791  -6.353  0.00  0.00     0.150 HD
ENDROOT
BRANCH  19  31
ATOM     31  C   LIG d   1       3.517  -0.292  -7.855  0.00  0.00     0.025 C 
ATOM     32  C   LIG d   1       4.706  -0.928  -8.579  0.00  0.00    -0.035 C 
ATOM     33  C   LIG d   1       4.800  -0.364  -9.998  0.00  0.00    -0.051 C 
ATOM     34  H   LIG d   1       5.624  -0.703  -8.037  0.00  0.00     0.028 H 
ATOM     35  H   LIG d   1       4.566  -2.008  -8.626  0.00  0.00     0.028 H 
ATOM     36  C   LIG d   1       3.511  -0.678 -10.759  0.00  0.00    -0.053 C 
ATOM     37  H   LIG d   1       4.939   0.717  -9.950  0.00  0.00     0.027 H 
ATOM     38  H   LIG d   1       5.647  -0.816 -10.513  0.00  0.00     0.027 H 
ATOM     39  C   LIG d   1       2.323  -0.042 -10.035  0.00  0.00    -0.051 C 
ATOM     40  H   LIG d   1       3.579  -0.276 -11.770  0.00  0.00     0.026 H 
ATOM     41  H   LIG d   1       3.372  -1.759 -10.807  0.00  0.00     0.026 H 
ATOM     42  C   LIG d   1       2.228  -0.606  -8.617  0.00  0.00    -0.035 C 
ATOM     43  H   LIG d   1       2.463   1.038  -9.988  0.00  0.00     0.027 H 
ATOM     44  H   LIG d   1       1.404  -0.266 -10.578  0.00  0.00     0.027 H 
ATOM     45  H   LIG d   1       2.089  -1.687  -8.664  0.00  0.00     0.028 H 
ATOM     46  H   LIG d   1       1.382  -0.153  -8.101  0.00  0.00     0.028 H 
ATOM     47  H   LIG d   1       3.656   0.788  -7.808  0.00  0.00     0.050 H 
ENDBRANCH  19  31
BRANCH   1  48
ATOM     48  N   LIG d   1       8.954   1.019  -5.534  0.00  0.00    -0.211 N 
ATOM     49  H   LIG d   1       9.865   0.877  -5.233  0.00  0.00     0.174 HD
BRANCH  48  50
ATOM     50  S   LIG d   1       8.666   1.549  -7.077  0.00  0.00     0.072 S 
ATOM     51  O   LIG d   1       9.519   0.798  -7.930  0.00  0.00    -0.150 OA
ATOM     52  O   LIG d   1       7.255   1.574  -7.241  0.00  0.00    -0.150 OA
BRANCH  50  53
ATOM     53  C   LIG d   1       9.212   3.222  -7.164  0.00  0.00     0.108 A 
ATOM     54  C   LIG d   1       9.205   3.889  -8.375  0.00  0.00    -0.035 A 
ATOM     55  C   LIG d   1       9.633   5.201  -8.443  0.00  0.00    -0.060 A 
ATOM     56  H   LIG d   1       8.865   3.385  -9.267  0.00  0.00     0.064 H 
ATOM     57  C   LIG d   1      10.069   5.847  -7.301  0.00  0.00    -0.062 A 
ATOM     58  H   LIG d   1       9.627   5.723  -9.388  0.00  0.00     0.062 H 
ATOM     59  C   LIG d   1      10.077   5.180  -6.090  0.00  0.00    -0.060 A 
ATOM     60  H   LIG d   1      10.404   6.873  -7.354  0.00  0.00     0.062 H 
ATOM     61  C   LIG d   1       9.643   3.868  -6.021  0.00  0.00    -0.035 A 
ATOM     62  H   LIG d   1      10.417   5.683  -5.198  0.00  0.00     0.062 H 
ATOM     63  H   LIG d   1       9.645   3.349  -5.074  0.00  0.00     0.064 H 
ENDBRANCH  50  53
ENDBRANCH  48  50
ENDBRANCH   1  48
TORSDOF 4
ENDMDL
MODEL 3
REMARK VINA RESULT:      -8.2      2.266      5.300
REMARK  4 active torsions:
REMARK  status: ('A' for Active; 'I' for Inactive)
REMARK    1  A    between atoms: C_4  and  S_7 
REMARK    2  A    between atoms: S_7  and  N_10 
REMARK    3  A    between atoms: N_10  and  C_11 
REMARK       I    between atoms: N_25  and  C_27 
REMARK       I    between atoms: C_27  and  N_29 
REMARK    4  A    between atoms: N_29  and  C_30 
ROOT
ATOM      1  C   LIG d   1       8.180   0.142  -8.496  0.00  0.00     0.112 A 
ATOM      2  C   LIG d   1       7.951  -0.895  -9.358  0.00  0.00    -0.032 A 
ATOM      3  C   LIG d   1       6.750  -0.924 -10.076  0.00  0.00    -0.040 A 
ATOM      4  C   LIG d   1       5.828   0.064  -9.925  0.00  0.00     0.027 A 
ATOM      5  N   LIG d   1       6.085   1.130  -9.129  0.00  0.00    -0.310 N 
ATOM      6  C   LIG d   1       7.208   1.154  -8.370  0.00  0.00     0.274 A 
ATOM      7  O   LIG d   1       7.381   2.063  -7.575  0.00  0.00    -0.266 OA
ATOM      8  C   LIG d   1       5.216   2.307  -9.063  0.00  0.00     0.031 C 
ATOM      9  C   LIG d   1       3.814   2.022  -9.569  0.00  0.00    -0.006 C 
ATOM     10  H   LIG d   1       3.318   2.976  -9.745  0.00  0.00     0.033 H 
ATOM     11  C   LIG d   1       3.884   1.271 -10.899  0.00  0.00    -0.037 C 
ATOM     12  C   LIG d   1       4.511  -0.102 -10.648  0.00  0.00     0.016 C 
ATOM     13  H   LIG d   1       4.652  -0.630 -11.591  0.00  0.00     0.038 H 
ATOM     14  C   LIG d   1       3.571  -0.902  -9.729  0.00  0.00     0.024 C 
ATOM     15  N   LIG d   1       3.432  -0.141  -8.476  0.00  0.00    -0.285 N 
ATOM     16  C   LIG d   1       2.983   1.254  -8.550  0.00  0.00     0.021 C 
ATOM     17  C   LIG d   1       3.708  -0.715  -7.288  0.00  0.00     0.302 C 
ATOM     18  O   LIG d   1       3.989  -1.896  -7.234  0.00  0.00    -0.253 OA
ATOM     19  N   LIG d   1       3.672   0.022  -6.160  0.00  0.00    -0.296 N 
ATOM     20  H   LIG d   1       8.686  -1.676  -9.484  0.00  0.00     0.064 H 
ATOM     21  H   LIG d   1       6.554  -1.738 -10.757  0.00  0.00     0.064 H 
ATOM     22  H   LIG d   1       5.156   2.644  -8.029  0.00  0.00     0.050 H 
ATOM     23  H   LIG d   1       5.655   3.102  -9.666  0.00  0.00     0.050 H 
ATOM     24  H   LIG d   1       2.879   1.148 -11.304  0.00  0.00     0.028 H 
ATOM     25  H   LIG d   1       4.498   1.831 -11.605  0.00  0.00     0.028 H 
ATOM     26  H   LIG d   1       2.597  -1.016 -10.204  0.00  0.00     0.047 H 
ATOM     27  H   LIG d   1       4.001  -1.882  -9.522  0.00  0.00     0.047 H 
ATOM     28  H   LIG d   1       3.092   1.721  -7.570  0.00  0.00     0.047 H 
ATOM     29  H   LIG d   1       1.934   1.282  -8.846  0.00  0.00     0.047 H 
ATOM     30  H   LIG d   1       3.376   0.945  -6.193  0.00  0.00     0.150 HD
ENDROOT
BRANCH  19  31
ATOM     31  C   LIG d   1       4.079  -0.571  -4.884  0.00  0.00     0.025 C 
ATOM     32  C   LIG d   1       5.265   0.209  -4.314  0.00  0.00    -0.035 C 
ATOM     33  C   LIG d   1       5.691  -0.411  -2.982  0.00  0.00    -0.051 C 
ATOM     34  H   LIG d   1       6.098   0.169  -5.016  0.00  0.00     0.028 H 
ATOM     35  H   LIG d   1       4.974   1.247  -4.155  0.00  0.00     0.028 H 
ATOM     36  C   LIG d   1       4.521  -0.355  -1.996  0.00  0.00    -0.053 C 
ATOM     37  H   LIG d   1       5.981  -1.449  -3.141  0.00  0.00     0.027 H 
ATOM     38  H   LIG d   1       6.536   0.145  -2.576  0.00  0.00     0.027 H 
ATOM     39  C   LIG d   1       3.336  -1.135  -2.567  0.00  0.00    -0.051 C 
ATOM     40  H   LIG d   1       4.825  -0.796  -1.047  0.00  0.00     0.026 H 
ATOM     41  H   LIG d   1       4.230   0.684  -1.837  0.00  0.00     0.026 H 
ATOM     42  C   LIG d   1       2.910  -0.515  -3.899  0.00  0.00    -0.035 C 
ATOM     43  H   LIG d   1       3.627  -2.173  -2.726  0.00  0.00     0.027 H 
ATOM     44  H   LIG d   1       2.503  -1.095  -1.864  0.00  0.00     0.027 H 
ATOM     45  H   LIG d   1       2.619   0.524  -3.740  0.00  0.00     0.028 H 
ATOM     46  H   LIG d   1       2.066  -1.071  -4.305  0.00  0.00     0.028 H 
ATOM     47  H   LIG d   1       4.370  -1.610  -5.044  0.00  0.00     0.050 H 
ENDBRANCH  19  31
BRANCH   1  48
ATOM     48  N   LIG d   1       9.361   0.195  -7.745  0.00  0.00    -0.211 N 
ATOM     49  H   LIG d   1      10.131   0.676  -8.084  0.00  0.00     0.174 HD
BRANCH  48  50
ATOM     50  S   LIG d   1       9.442  -0.565  -6.275  0.00  0.00     0.072 S 
ATOM     51  O   LIG d   1       8.133  -1.040  -5.991  0.00  0.00    -0.150 OA
ATOM     52  O   LIG d   1      10.571  -1.427  -6.325  0.00  0.00    -0.150 OA
BRANCH  50  53
ATOM     53  C   LIG d   1       9.803   0.668  -5.069  0.00  0.00     0.108 A 
ATOM     54  C   LIG d   1      11.113   0.902  -4.692  0.00  0.00    -0.035 A 
ATOM     55  C   LIG d   1      11.396   1.870  -3.746  0.00  0.00    -0.060 A 
ATOM     56  H   LIG d   1      11.914   0.331  -5.136  0.00  0.00     0.064 H 
ATOM     57  C   LIG d   1      10.371   2.603  -3.177  0.00  0.00    -0.062 A 
ATOM     58  H   LIG d   1      12.418   2.054  -3.452  0.00  0.00     0.062 H 
ATOM     59  C   LIG d   1       9.062   2.367  -3.554  0.00  0.00    -0.060 A 
ATOM     60  H   LIG d   1      10.591   3.359  -2.438  0.00  0.00     0.062 H 
ATOM     61  C   LIG d   1       8.778   1.403  -4.504  0.00  0.00    -0.035 A 
ATOM     62  H   LIG d   1       8.261   2.939  -3.110  0.00  0.00     0.062 H 
ATOM     63  H   LIG d   1       7.756   1.223  -4.802  0.00  0.00     0.064 H 
ENDBRANCH  50  53
ENDBRANCH  48  50
ENDBRANCH   1  48
TORSDOF 4
ENDMDL
MODEL 4
REMARK VINA RESULT:      -8.1      3.096      5.887
REMARK  4 active torsions:
REMARK  status: ('A' for Active; 'I' for Inactive)
REMARK    1  A    between atoms: C_4  and  S_7 
REMARK    2  A    between atoms: S_7  and  N_10 
REMARK    3  A    between atoms: N_10  and  C_11 
REMARK       I    between atoms: N_25  and  C_27 
REMARK       I    between atoms: C_27  and  N_29 
REMARK    4  A    between atoms: N_29  and  C_30 
ROOT
ATOM      1  C   LIG d   1       6.310  -1.077  -6.642  0.00  0.00     0.112 A 
ATOM      2  C   LIG d   1       7.184  -0.420  -7.464  0.00  0.00    -0.032 A 
ATOM      3  C   LIG d   1       6.680   0.510  -8.381  0.00  0.00    -0.040 A 
ATOM      4  C   LIG d   1       5.346   0.760  -8.452  0.00  0.00     0.027 A 
ATOM      5  N   LIG d   1       4.487   0.165  -7.589  0.00  0.00    -0.310 N 
ATOM      6  C   LIG d   1       4.935  -0.787  -6.735  0.00  0.00     0.274 A 
ATOM      7  O   LIG d   1       4.141  -1.396  -6.037  0.00  0.00    -0.266 OA
ATOM      8  C   LIG d   1       3.071   0.525  -7.494  0.00  0.00     0.031 C 
ATOM      9  C   LIG d   1       2.570   1.240  -8.735  0.00  0.00    -0.006 C 
ATOM     10  H   LIG d   1       1.616   1.709  -8.494  0.00  0.00     0.033 H 
ATOM     11  C   LIG d   1       3.552   2.343  -9.132  0.00  0.00    -0.037 C 
ATOM     12  C   LIG d   1       4.873   1.689  -9.546  0.00  0.00     0.016 C 
ATOM     13  H   LIG d   1       5.621   2.453  -9.754  0.00  0.00     0.038 H 
ATOM     14  C   LIG d   1       4.619   0.840 -10.803  0.00  0.00     0.024 C 
ATOM     15  N   LIG d   1       3.609  -0.172 -10.452  0.00  0.00    -0.285 N 
ATOM     16  C   LIG d   1       2.330   0.279  -9.892  0.00  0.00     0.021 C 
ATOM     17  C   LIG d   1       3.854  -1.484 -10.641  0.00  0.00     0.302 C 
ATOM     18  O   LIG d   1       4.879  -1.837 -11.190  0.00  0.00    -0.253 OA
ATOM     19  N   LIG d   1       2.961  -2.403 -10.223  0.00  0.00    -0.296 N 
ATOM     20  H   LIG d   1       8.245  -0.612  -7.404  0.00  0.00     0.064 H 
ATOM     21  H   LIG d   1       7.357   1.033  -9.039  0.00  0.00     0.064 H 
ATOM     22  H   LIG d   1       2.485  -0.382  -7.350  0.00  0.00     0.050 H 
ATOM     23  H   LIG d   1       2.930   1.176  -6.631  0.00  0.00     0.050 H 
ATOM     24  H   LIG d   1       3.146   2.913  -9.968  0.00  0.00     0.028 H 
ATOM     25  H   LIG d   1       3.721   3.006  -8.284  0.00  0.00     0.028 H 
ATOM     26  H   LIG d   1       4.245   1.473 -11.608  0.00  0.00     0.047 H 
ATOM     27  H   LIG d   1       5.542   0.351 -11.113  0.00  0.00     0.047 H 
ATOM     28  H   LIG d   1       1.768  -0.584  -9.533  0.00  0.00     0.047 H 
ATOM     29  H   LIG d   1       1.754   0.785 -10.667  0.00  0.00     0.047 H 
ATOM     30  H   LIG d   1       2.111  -2.120  -9.853  0.00  0.00     0.150 HD
ENDROOT
BRANCH  19  31
ATOM     31  C   LIG d   1       3.275  -3.830 -10.328  0.00  0.00     0.025 C 
ATOM     32  C   LIG d   1       3.390  -4.431  -8.926  0.00  0.00    -0.035 C 
ATOM     33  C   LIG d   1       3.718  -5.922  -9.036  0.00  0.00    -0.051 C 
ATOM     34  H   LIG d   1       4.183  -3.925  -8.376  0.00  0.00     0.028 H 
ATOM     35  H   LIG d   1       2.444  -4.306  -8.399  0.00  0.00     0.028 H 
ATOM     36  C   LIG d   1       2.605  -6.634  -9.808  0.00  0.00    -0.053 C 
ATOM     37  H   LIG d   1       4.664  -6.047  -9.564  0.00  0.00     0.027 H 
ATOM     38  H   LIG d   1       3.800  -6.350  -8.037  0.00  0.00     0.027 H 
ATOM     39  C   LIG d   1       2.491  -6.032 -11.210  0.00  0.00    -0.051 C 
ATOM     40  H   LIG d   1       2.840  -7.696  -9.886  0.00  0.00     0.026 H 
ATOM     41  H   LIG d   1       1.659  -6.509  -9.280  0.00  0.00     0.026 H 
ATOM     42  C   LIG d   1       2.163  -4.542 -11.100  0.00  0.00    -0.035 C 
ATOM     43  H   LIG d   1       3.437  -6.157 -11.737  0.00  0.00     0.027 H 
ATOM     44  H   LIG d   1       1.698  -6.540 -11.760  0.00  0.00     0.027 H 
ATOM     45  H   LIG d   1       1.217  -4.416 -10.572  0.00  0.00     0.028 H 
ATOM     46  H   LIG d   1       2.082  -4.113 -12.098  0.00  0.00     0.028 H 
ATOM     47  H   LIG d   1       4.221  -3.955 -10.856  0.00  0.00     0.050 H 
ENDBRANCH  19  31
BRANCH   1  48
ATOM     48  N   LIG d   1       6.775  -2.030  -5.726  0.00  0.00    -0.211 N 
ATOM     49  H   LIG d   1       6.693  -2.975  -5.924  0.00  0.00     0.174 HD
BRANCH  48  50
ATOM     50  S   LIG d   1       7.466  -1.540  -4.302  0.00  0.00     0.072 S 
ATOM     51  O   LIG d   1       7.810  -2.720  -3.590  0.00  0.00    -0.150 OA
ATOM     52  O   LIG d   1       8.425  -0.546  -4.637  0.00  0.00    -0.150 OA
BRANCH  50  53
ATOM     53  C   LIG d   1       6.212  -0.733  -3.364  0.00  0.00     0.108 A 
ATOM     54  C   LIG d   1       5.282  -1.481  -2.667  0.00  0.00    -0.035 A 
ATOM     55  C   LIG d   1       4.298  -0.847  -1.931  0.00  0.00    -0.060 A 
ATOM     56  H   LIG d   1       5.324  -2.559  -2.696  0.00  0.00     0.064 H 
ATOM     57  C   LIG d   1       4.244   0.534  -1.892  0.00  0.00    -0.062 A 
ATOM     58  H   LIG d   1       3.572  -1.431  -1.385  0.00  0.00     0.062 H 
ATOM     59  C   LIG d   1       5.174   1.282  -2.590  0.00  0.00    -0.060 A 
ATOM     60  H   LIG d   1       3.475   1.029  -1.317  0.00  0.00     0.062 H 
ATOM     61  C   LIG d   1       6.161   0.648  -3.323  0.00  0.00    -0.035 A 
ATOM     62  H   LIG d   1       5.132   2.360  -2.561  0.00  0.00     0.062 H 
ATOM     63  H   LIG d   1       6.890   1.233  -3.864  0.00  0.00     0.064 H 
ENDBRANCH  50  53
ENDBRANCH  48  50
ENDBRANCH   1  48
TORSDOF 4
ENDMDL
MODEL 5
REMARK VINA RESULT:      -8.0      2.910      7.424
REMARK  4 active torsions:
REMARK  status: ('A' for Active; 'I' for Inactive)
REMARK    1  A    between atoms: C_4  and  S_7 
REMARK    2  A    between atoms: S_7  and  N_10 
REMARK    3  A    between atoms: N_10  and  C_11 
REMARK       I    between atoms: N_25  and  C_27 
REMARK       I    between atoms: C_27  and  N_29 
REMARK    4  A    between atoms: N_29  and  C_30 
ROOT
ATOM      1  C   LIG d   1       4.179  -1.387  -7.402  0.00  0.00     0.112 A 
ATOM      2  C   LIG d   1       4.534  -2.625  -6.942  0.00  0.00    -0.032 A 
ATOM      3  C   LIG d   1       4.622  -2.833  -5.561  0.00  0.00    -0.040 A 
ATOM      4  C   LIG d   1       4.355  -1.824  -4.690  0.00  0.00     0.027 A 
ATOM      5  N   LIG d   1       3.932  -0.618  -5.141  0.00  0.00    -0.310 N 
ATOM      6  C   LIG d   1       3.900  -0.366  -6.472  0.00  0.00     0.274 A 
ATOM      7  O   LIG d   1       3.622   0.754  -6.869  0.00  0.00    -0.266 OA
ATOM      8  C   LIG d   1       3.458   0.446  -4.254  0.00  0.00     0.031 C 
ATOM      9  C   LIG d   1       3.932   0.262  -2.824  0.00  0.00    -0.006 C 
ATOM     10  H   LIG d   1       3.336   0.914  -2.184  0.00  0.00     0.033 H 
ATOM     11  C   LIG d   1       3.696  -1.181  -2.379  0.00  0.00    -0.037 C 
ATOM     12  C   LIG d   1       4.586  -2.099  -3.221  0.00  0.00     0.016 C 
ATOM     13  H   LIG d   1       4.380  -3.142  -2.986  0.00  0.00     0.038 H 
ATOM     14  C   LIG d   1       6.056  -1.766  -2.909  0.00  0.00     0.024 C 
ATOM     15  N   LIG d   1       6.267  -0.351  -3.256  0.00  0.00    -0.285 N 
ATOM     16  C   LIG d   1       5.392   0.658  -2.649  0.00  0.00     0.021 C 
ATOM     17  C   LIG d   1       7.246   0.010  -4.110  0.00  0.00     0.302 C 
ATOM     18  O   LIG d   1       8.021  -0.825  -4.533  0.00  0.00    -0.253 OA
ATOM     19  N   LIG d   1       7.363   1.296  -4.494  0.00  0.00    -0.296 N 
ATOM     20  H   LIG d   1       4.738  -3.429  -7.633  0.00  0.00     0.064 H 
ATOM     21  H   LIG d   1       4.905  -3.804  -5.184  0.00  0.00     0.064 H 
ATOM     22  H   LIG d   1       3.823   1.403  -4.625  0.00  0.00     0.050 H 
ATOM     23  H   LIG d   1       2.368   0.456  -4.266  0.00  0.00     0.050 H 
ATOM     24  H   LIG d   1       3.953  -1.287  -1.325  0.00  0.00     0.028 H 
ATOM     25  H   LIG d   1       2.650  -1.446  -2.530  0.00  0.00     0.028 H 
ATOM     26  H   LIG d   1       6.253  -1.922  -1.848  0.00  0.00     0.047 H 
ATOM     27  H   LIG d   1       6.713  -2.396  -3.507  0.00  0.00     0.047 H 
ATOM     28  H   LIG d   1       5.564   1.622  -3.128  0.00  0.00     0.047 H 
ATOM     29  H   LIG d   1       5.618   0.741  -1.585  0.00  0.00     0.047 H 
ATOM     30  H   LIG d   1       6.793   1.974  -4.101  0.00  0.00     0.150 HD
ENDROOT
BRANCH  19  31
ATOM     31  C   LIG d   1       8.354   1.671  -5.506  0.00  0.00     0.025 C 
ATOM     32  C   LIG d   1       7.727   1.563  -6.898  0.00  0.00    -0.035 C 
ATOM     33  C   LIG d   1       8.762   1.954  -7.955  0.00  0.00    -0.051 C 
ATOM     34  H   LIG d   1       7.400   0.539  -7.072  0.00  0.00     0.028 H 
ATOM     35  H   LIG d   1       6.871   2.235  -6.963  0.00  0.00     0.028 H 
ATOM     36  C   LIG d   1       9.223   3.393  -7.711  0.00  0.00    -0.053 C 
ATOM     37  H   LIG d   1       9.619   1.283  -7.889  0.00  0.00     0.027 H 
ATOM     38  H   LIG d   1       8.316   1.878  -8.946  0.00  0.00     0.027 H 
ATOM     39  C   LIG d   1       9.849   3.500  -6.319  0.00  0.00    -0.051 C 
ATOM     40  H   LIG d   1       9.960   3.671  -8.464  0.00  0.00     0.026 H 
ATOM     41  H   LIG d   1       8.366   4.064  -7.777  0.00  0.00     0.026 H 
ATOM     42  C   LIG d   1       8.815   3.109  -5.263  0.00  0.00    -0.035 C 
ATOM     43  H   LIG d   1      10.705   2.828  -6.255  0.00  0.00     0.027 H 
ATOM     44  H   LIG d   1      10.177   4.525  -6.146  0.00  0.00     0.027 H 
ATOM     45  H   LIG d   1       7.957   3.780  -5.328  0.00  0.00     0.028 H 
ATOM     46  H   LIG d   1       9.261   3.185  -4.272  0.00  0.00     0.028 H 
ATOM     47  H   LIG d   1       9.211   0.999  -5.441  0.00  0.00     0.050 H 
ENDBRANCH  19  31
BRANCH   1  48
ATOM     48  N   LIG d   1       4.100  -1.134  -8.778  0.00  0.00    -0.211 N 
ATOM     49  H   LIG d   1       4.854  -0.743  -9.244  0.00  0.00     0.174 HD
BRANCH  48  50
ATOM     50  S   LIG d   1       2.716  -1.506  -9.609  0.00  0.00     0.072 S 
ATOM     51  O   LIG d   1       2.465  -2.886  -9.384  0.00  0.00    -0.150 OA
ATOM     52  O   LIG d   1       1.767  -0.497  -9.290  0.00  0.00    -0.150 OA
BRANCH  50  53
ATOM     53  C   LIG d   1       3.076  -1.333 -11.325  0.00  0.00     0.108 A 
ATOM     54  C   LIG d   1       2.256  -1.927 -12.266  0.00  0.00    -0.035 A 
ATOM     55  C   LIG d   1       2.538  -1.791 -13.613  0.00  0.00    -0.060 A 
ATOM     56  H   LIG d   1       1.394  -2.496 -11.951  0.00  0.00     0.064 H 
ATOM     57  C   LIG d   1       3.641  -1.062 -14.018  0.00  0.00    -0.062 A 
ATOM     58  H   LIG d   1       1.897  -2.254 -14.348  0.00  0.00     0.062 H 
ATOM     59  C   LIG d   1       4.461  -0.469 -13.077  0.00  0.00    -0.060 A 
ATOM     60  H   LIG d   1       3.862  -0.956 -15.070  0.00  0.00     0.062 H 
ATOM     61  C   LIG d   1       4.176  -0.600 -11.730  0.00  0.00    -0.035 A 
ATOM     62  H   LIG d   1       5.323   0.100 -13.393  0.00  0.00     0.062 H 
ATOM     63  H   LIG d   1       4.815  -0.133 -10.995  0.00  0.00     0.064 H 
ENDBRANCH  50  53
ENDBRANCH  48  50
ENDBRANCH   1  48
TORSDOF 4
ENDMDL
MODEL 6
REMARK VINA RESULT:      -8.0      4.140      7.642
REMARK  4 active torsions:
REMARK  status: ('A' for Active; 'I' for Inactive)
REMARK    1  A    between atoms: C_4  and  S_7 
REMARK    2  A    between atoms: S_7  and  N_10 
REMARK    3  A    between atoms: N_10  and  C_11 
REMARK       I    between atoms: N_25  and  C_27 
REMARK       I    between atoms: C_27  and  N_29 
REMARK    4  A    between atoms: N_29  and  C_30 
ROOT
ATOM      1  C   LIG d   1       4.379  -3.986  -8.877  0.00  0.00     0.112 A 
ATOM      2  C   LIG d   1       3.135  -3.855  -9.429  0.00  0.00    -0.032 A 
ATOM      3  C   LIG d   1       2.774  -2.630 -10.000  0.00  0.00    -0.040 A 
ATOM      4  C   LIG d   1       3.646  -1.587 -10.010  0.00  0.00     0.027 A 
ATOM      5  N   LIG d   1       4.905  -1.736  -9.530  0.00  0.00    -0.310 N 
ATOM      6  C   LIG d   1       5.262  -2.889  -8.913  0.00  0.00     0.274 A 
ATOM      7  O   LIG d   1       6.360  -2.979  -8.388  0.00  0.00    -0.266 OA
ATOM      8  C   LIG d   1       5.943  -0.714  -9.675  0.00  0.00     0.031 C 
ATOM      9  C   LIG d   1       5.367   0.661  -9.958  0.00  0.00    -0.006 C 
ATOM     10  H   LIG d   1       6.174   1.299 -10.317  0.00  0.00     0.033 H 
ATOM     11  C   LIG d   1       4.313   0.566 -11.062  0.00  0.00    -0.037 C 
ATOM     12  C   LIG d   1       3.138  -0.265 -10.539  0.00  0.00     0.016 C 
ATOM     13  H   LIG d   1       2.407  -0.422 -11.332  0.00  0.00     0.038 H 
ATOM     14  C   LIG d   1       2.494   0.492  -9.366  0.00  0.00     0.024 C 
ATOM     15  N   LIG d   1       3.529   0.662  -8.333  0.00  0.00    -0.285 N 
ATOM     16  C   LIG d   1       4.792   1.309  -8.706  0.00  0.00     0.021 C 
ATOM     17  C   LIG d   1       3.320   0.234  -7.072  0.00  0.00     0.302 C 
ATOM     18  O   LIG d   1       2.237  -0.216  -6.754  0.00  0.00    -0.253 OA
ATOM     19  N   LIG d   1       4.313   0.306  -6.164  0.00  0.00    -0.296 N 
ATOM     20  H   LIG d   1       2.444  -4.685  -9.428  0.00  0.00     0.064 H 
ATOM     21  H   LIG d   1       1.794  -2.511 -10.435  0.00  0.00     0.064 H 
ATOM     22  H   LIG d   1       6.525  -0.670  -8.756  0.00  0.00     0.050 H 
ATOM     23  H   LIG d   1       6.603  -0.996 -10.496  0.00  0.00     0.050 H 
ATOM     24  H   LIG d   1       3.966   1.566 -11.325  0.00  0.00     0.028 H 
ATOM     25  H   LIG d   1       4.742   0.084 -11.939  0.00  0.00     0.028 H 
ATOM     26  H   LIG d   1       2.142   1.468  -9.703  0.00  0.00     0.047 H 
ATOM     27  H   LIG d   1       1.661  -0.085  -8.965  0.00  0.00     0.047 H 
ATOM     28  H   LIG d   1       5.505   1.208  -7.888  0.00  0.00     0.047 H 
ATOM     29  H   LIG d   1       4.613   2.368  -8.898  0.00  0.00     0.047 H 
ATOM     30  H   LIG d   1       5.153   0.733  -6.395  0.00  0.00     0.150 HD
ENDROOT
BRANCH  19  31
ATOM     31  C   LIG d   1       4.124  -0.259  -4.825  0.00  0.00     0.025 C 
ATOM     32  C   LIG d   1       5.487  -0.600  -4.219  0.00  0.00    -0.035 C 
ATOM     33  C   LIG d   1       5.290  -1.191  -2.821  0.00  0.00    -0.051 C 
ATOM     34  H   LIG d   1       5.996  -1.327  -4.851  0.00  0.00     0.028 H 
ATOM     35  H   LIG d   1       6.089   0.306  -4.148  0.00  0.00     0.028 H 
ATOM     36  C   LIG d   1       4.575  -0.171  -1.932  0.00  0.00    -0.053 C 
ATOM     37  H   LIG d   1       4.687  -2.096  -2.892  0.00  0.00     0.027 H 
ATOM     38  H   LIG d   1       6.260  -1.434  -2.389  0.00  0.00     0.027 H 
ATOM     39  C   LIG d   1       3.212   0.169  -2.539  0.00  0.00    -0.051 C 
ATOM     40  H   LIG d   1       4.434  -0.593  -0.937  0.00  0.00     0.026 H 
ATOM     41  H   LIG d   1       5.178   0.735  -1.861  0.00  0.00     0.026 H 
ATOM     42  C   LIG d   1       3.409   0.760  -3.936  0.00  0.00    -0.035 C 
ATOM     43  H   LIG d   1       2.610  -0.737  -2.610  0.00  0.00     0.027 H 
ATOM     44  H   LIG d   1       2.703   0.895  -1.905  0.00  0.00     0.027 H 
ATOM     45  H   LIG d   1       4.013   1.666  -3.866  0.00  0.00     0.028 H 
ATOM     46  H   LIG d   1       2.439   1.002  -4.369  0.00  0.00     0.028 H 
ATOM     47  H   LIG d   1       3.521  -1.165  -4.896  0.00  0.00     0.050 H 
ENDBRANCH  19  31
BRANCH   1  48
ATOM     48  N   LIG d   1       4.769  -5.192  -8.279  0.00  0.00    -0.211 N 
ATOM     49  H   LIG d   1       5.206  -5.877  -8.807  0.00  0.00     0.174 HD
BRANCH  48  50
ATOM     50  S   LIG d   1       4.483  -5.446  -6.667  0.00  0.00     0.072 S 
ATOM     51  O   LIG d   1       3.690  -4.356  -6.218  0.00  0.00    -0.150 OA
ATOM     52  O   LIG d   1       4.064  -6.798  -6.537  0.00  0.00    -0.150 OA
BRANCH  50  53
ATOM     53  C   LIG d   1       6.032  -5.318  -5.836  0.00  0.00     0.108 A 
ATOM     54  C   LIG d   1       6.401  -4.125  -5.243  0.00  0.00    -0.035 A 
ATOM     55  C   LIG d   1       7.616  -4.024  -4.591  0.00  0.00    -0.060 A 
ATOM     56  H   LIG d   1       5.740  -3.272  -5.287  0.00  0.00     0.064 H 
ATOM     57  C   LIG d   1       8.462  -5.116  -4.533  0.00  0.00    -0.062 A 
ATOM     58  H   LIG d   1       7.904  -3.094  -4.126  0.00  0.00     0.062 H 
ATOM     59  C   LIG d   1       8.093  -6.309  -5.127  0.00  0.00    -0.060 A 
ATOM     60  H   LIG d   1       9.411  -5.038  -4.023  0.00  0.00     0.062 H 
ATOM     61  C   LIG d   1       6.876  -6.411  -5.775  0.00  0.00    -0.035 A 
ATOM     62  H   LIG d   1       8.754  -7.161  -5.082  0.00  0.00     0.062 H 
ATOM     63  H   LIG d   1       6.586  -7.344  -6.235  0.00  0.00     0.064 H 
ENDBRANCH  50  53
ENDBRANCH  48  50
ENDBRANCH   1  48
TORSDOF 4
ENDMDL
MODEL 7
REMARK VINA RESULT:      -7.9      3.309      6.268
REMARK  4 active torsions:
REMARK  status: ('A' for Active; 'I' for Inactive)
REMARK    1  A    between atoms: C_4  and  S_7 
REMARK    2  A    between atoms: S_7  and  N_10 
REMARK    3  A    between atoms: N_10  and  C_11 
REMARK       I    between atoms: N_25  and  C_27 
REMARK       I    between atoms: C_27  and  N_29 
REMARK    4  A    between atoms: N_29  and  C_30 
ROOT
ATOM      1  C   LIG d   1       4.648  -1.914  -6.448  0.00  0.00     0.112 A 
ATOM      2  C   LIG d   1       3.848  -0.906  -5.984  0.00  0.00    -0.032 A 
ATOM      3  C   LIG d   1       3.122  -0.142  -6.904  0.00  0.00    -0.040 A 
ATOM      4  C   LIG d   1       3.204  -0.398  -8.236  0.00  0.00     0.027 A 
ATOM      5  N   LIG d   1       3.937  -1.443  -8.692  0.00  0.00    -0.310 N 
ATOM      6  C   LIG d   1       4.703  -2.159  -7.834  0.00  0.00     0.274 A 
ATOM      7  O   LIG d   1       5.443  -3.028  -8.265  0.00  0.00    -0.266 OA
ATOM      8  C   LIG d   1       3.923  -1.880 -10.090  0.00  0.00     0.031 C 
ATOM      9  C   LIG d   1       3.422  -0.800 -11.030  0.00  0.00    -0.006 C 
ATOM     10  H   LIG d   1       3.183  -1.267 -11.986  0.00  0.00     0.033 H 
ATOM     11  C   LIG d   1       2.140  -0.179 -10.474  0.00  0.00    -0.037 C 
ATOM     12  C   LIG d   1       2.480   0.545  -9.169  0.00  0.00     0.016 C 
ATOM     13  H   LIG d   1       1.572   0.928  -8.703  0.00  0.00     0.038 H 
ATOM     14  C   LIG d   1       3.437   1.705  -9.495  0.00  0.00     0.024 C 
ATOM     15  N   LIG d   1       4.640   1.121 -10.111  0.00  0.00    -0.285 N 
ATOM     16  C   LIG d   1       4.477   0.266 -11.292  0.00  0.00     0.021 C 
ATOM     17  C   LIG d   1       5.863   1.368  -9.601  0.00  0.00     0.302 C 
ATOM     18  O   LIG d   1       5.991   2.151  -8.680  0.00  0.00    -0.253 OA
ATOM     19  N   LIG d   1       6.944   0.747 -10.114  0.00  0.00    -0.296 N 
ATOM     20  H   LIG d   1       3.776  -0.706  -4.925  0.00  0.00     0.064 H 
ATOM     21  H   LIG d   1       2.490   0.659  -6.552  0.00  0.00     0.064 H 
ATOM     22  H   LIG d   1       4.935  -2.161 -10.382  0.00  0.00     0.050 H 
ATOM     23  H   LIG d   1       3.277  -2.753 -10.179  0.00  0.00     0.050 H 
ATOM     24  H   LIG d   1       1.734   0.532 -11.193  0.00  0.00     0.028 H 
ATOM     25  H   LIG d   1       1.408  -0.963 -10.278  0.00  0.00     0.028 H 
ATOM     26  H   LIG d   1       2.960   2.394 -10.193  0.00  0.00     0.047 H 
ATOM     27  H   LIG d   1       3.707   2.231  -8.580  0.00  0.00     0.047 H 
ATOM     28  H   LIG d   1       5.428  -0.217 -11.522  0.00  0.00     0.047 H 
ATOM     29  H   LIG d   1       4.171   0.877 -12.141  0.00  0.00     0.047 H 
ATOM     30  H   LIG d   1       6.853   0.181 -10.895  0.00  0.00     0.150 HD
ENDROOT
BRANCH  19  31
ATOM     31  C   LIG d   1       8.257   0.929  -9.491  0.00  0.00     0.025 C 
ATOM     32  C   LIG d   1       8.612  -0.316  -8.676  0.00  0.00    -0.035 C 
ATOM     33  C   LIG d   1       9.984  -0.126  -8.025  0.00  0.00    -0.051 C 
ATOM     34  H   LIG d   1       7.861  -0.470  -7.901  0.00  0.00     0.028 H 
ATOM     35  H   LIG d   1       8.640  -1.184  -9.334  0.00  0.00     0.028 H 
ATOM     36  C   LIG d   1      11.039   0.091  -9.112  0.00  0.00    -0.053 C 
ATOM     37  H   LIG d   1       9.956   0.744  -7.368  0.00  0.00     0.027 H 
ATOM     38  H   LIG d   1      10.236  -1.012  -7.444  0.00  0.00     0.027 H 
ATOM     39  C   LIG d   1      10.683   1.336  -9.927  0.00  0.00    -0.051 C 
ATOM     40  H   LIG d   1      12.016   0.227  -8.648  0.00  0.00     0.026 H 
ATOM     41  H   LIG d   1      11.066  -0.778  -9.770  0.00  0.00     0.026 H 
ATOM     42  C   LIG d   1       9.312   1.146 -10.578  0.00  0.00    -0.035 C 
ATOM     43  H   LIG d   1      10.655   2.205  -9.269  0.00  0.00     0.027 H 
ATOM     44  H   LIG d   1      11.435   1.491 -10.701  0.00  0.00     0.027 H 
ATOM     45  H   LIG d   1       9.339   0.277 -11.235  0.00  0.00     0.028 H 
ATOM     46  H   LIG d   1       9.059   2.033 -11.158  0.00  0.00     0.028 H 
ATOM     47  H   LIG d   1       8.230   1.799  -8.833  0.00  0.00     0.050 H 
ENDBRANCH  19  31
BRANCH   1  48
ATOM     48  N   LIG d   1       5.406  -2.688  -5.559  0.00  0.00    -0.211 N 
ATOM     49  H   LIG d   1       5.231  -3.637  -5.471  0.00  0.00     0.174 HD
BRANCH  48  50
ATOM     50  S   LIG d   1       6.603  -1.980  -4.659  0.00  0.00     0.072 S 
ATOM     51  O   LIG d   1       7.205  -3.017  -3.897  0.00  0.00    -0.150 OA
ATOM     52  O   LIG d   1       7.347  -1.157  -5.547  0.00  0.00    -0.150 OA
BRANCH  50  53
ATOM     53  C   LIG d   1       5.821  -0.898  -3.509  0.00  0.00     0.108 A 
ATOM     54  C   LIG d   1       4.945  -1.407  -2.568  0.00  0.00    -0.035 A 
ATOM     55  C   LIG d   1       4.331  -0.558  -1.666  0.00  0.00    -0.060 A 
ATOM     56  H   LIG d   1       4.740  -2.466  -2.537  0.00  0.00     0.064 H 
ATOM     57  C   LIG d   1       4.592   0.799  -1.705  0.00  0.00    -0.062 A 
ATOM     58  H   LIG d   1       3.648  -0.955  -0.930  0.00  0.00     0.062 H 
ATOM     59  C   LIG d   1       5.467   1.308  -2.646  0.00  0.00    -0.060 A 
ATOM     60  H   LIG d   1       4.113   1.463  -1.000  0.00  0.00     0.062 H 
ATOM     61  C   LIG d   1       6.086   0.458  -3.546  0.00  0.00    -0.035 A 
ATOM     62  H   LIG d   1       5.672   2.367  -2.677  0.00  0.00     0.062 H 
ATOM     63  H   LIG d   1       6.773   0.855  -4.278  0.00  0.00     0.064 H 
ENDBRANCH  50  53
ENDBRANCH  48  50
ENDBRANCH   1  48
TORSDOF 4
ENDMDL
MODEL 8
REMARK VINA RESULT:      -7.7      2.692      6.273
REMARK  4 active torsions:
REMARK  status: ('A' for Active; 'I' for Inactive)
REMARK    1  A    between atoms: C_4  and  S_7 
REMARK    2  A    between atoms: S_7  and  N_10 
REMARK    3  A    between atoms: N_10  and  C_11 
REMARK       I    between atoms: N_25  and  C_27 
REMARK       I    between atoms: C_27  and  N_29 
REMARK    4  A    between atoms: N_29  and  C_30 
ROOT
ATOM      1  C   LIG d   1       8.917   0.112  -5.076  0.00  0.00     0.112 A 
ATOM      2  C   LIG d   1       9.822  -0.630  -5.785  0.00  0.00    -0.032 A 
ATOM      3  C   LIG d   1      10.518  -0.023  -6.836  0.00  0.00    -0.040 A 
ATOM      4  C   LIG d   1      10.303   1.283  -7.147  0.00  0.00     0.027 A 
ATOM      5  N   LIG d   1       9.463   2.039  -6.400  0.00  0.00    -0.310 N 
ATOM      6  C   LIG d   1       8.726   1.464  -5.418  0.00  0.00     0.274 A 
ATOM      7  O   LIG d   1       7.893   2.127  -4.821  0.00  0.00    -0.266 OA
ATOM      8  C   LIG d   1       9.326   3.487  -6.570  0.00  0.00     0.031 C 
ATOM      9  C   LIG d   1       9.817   3.961  -7.925  0.00  0.00    -0.006 C 
ATOM     10  H   LIG d   1       9.939   5.044  -7.881  0.00  0.00     0.033 H 
ATOM     11  C   LIG d   1      11.182   3.343  -8.228  0.00  0.00    -0.037 C 
ATOM     12  C   LIG d   1      11.007   1.829  -8.368  0.00  0.00     0.016 C 
ATOM     13  H   LIG d   1      11.977   1.349  -8.502  0.00  0.00     0.038 H 
ATOM     14  C   LIG d   1      10.109   1.556  -9.587  0.00  0.00     0.024 C 
ATOM     15  N   LIG d   1       8.820   2.222  -9.338  0.00  0.00    -0.285 N 
ATOM     16  C   LIG d   1       8.820   3.657  -9.034  0.00  0.00     0.021 C 
ATOM     17  C   LIG d   1       7.665   1.528  -9.391  0.00  0.00     0.302 C 
ATOM     18  O   LIG d   1       7.672   0.362  -9.734  0.00  0.00    -0.253 OA
ATOM     19  N   LIG d   1       6.504   2.128  -9.064  0.00  0.00    -0.296 N 
ATOM     20  H   LIG d   1      10.000  -1.665  -5.534  0.00  0.00     0.064 H 
ATOM     21  H   LIG d   1      11.232  -0.597  -7.407  0.00  0.00     0.064 H 
ATOM     22  H   LIG d   1       8.275   3.757  -6.461  0.00  0.00     0.050 H 
ATOM     23  H   LIG d   1       9.899   3.989  -5.791  0.00  0.00     0.050 H 
ATOM     24  H   LIG d   1      11.573   3.755  -9.159  0.00  0.00     0.028 H 
ATOM     25  H   LIG d   1      11.872   3.559  -7.413  0.00  0.00     0.028 H 
ATOM     26  H   LIG d   1      10.570   1.965 -10.486  0.00  0.00     0.047 H 
ATOM     27  H   LIG d   1       9.956   0.483  -9.702  0.00  0.00     0.047 H 
ATOM     28  H   LIG d   1       7.821   3.958  -8.714  0.00  0.00     0.047 H 
ATOM     29  H   LIG d   1       9.093   4.217  -9.929  0.00  0.00     0.047 H 
ATOM     30  H   LIG d   1       6.487   3.076  -8.862  0.00  0.00     0.150 HD
ENDROOT
BRANCH  19  31
ATOM     31  C   LIG d   1       5.265   1.348  -9.013  0.00  0.00     0.025 C 
ATOM     32  C   LIG d   1       5.193   0.590  -7.686  0.00  0.00    -0.035 C 
ATOM     33  C   LIG d   1       3.899  -0.225  -7.634  0.00  0.00    -0.051 C 
ATOM     34  H   LIG d   1       6.048  -0.080  -7.603  0.00  0.00     0.028 H 
ATOM     35  H   LIG d   1       5.207   1.302  -6.861  0.00  0.00     0.028 H 
ATOM     36  C   LIG d   1       2.698   0.716  -7.752  0.00  0.00    -0.053 C 
ATOM     37  H   LIG d   1       3.885  -0.937  -8.460  0.00  0.00     0.027 H 
ATOM     38  H   LIG d   1       3.847  -0.765  -6.689  0.00  0.00     0.027 H 
ATOM     39  C   LIG d   1       2.771   1.473  -9.079  0.00  0.00    -0.051 C 
ATOM     40  H   LIG d   1       1.776   0.134  -7.714  0.00  0.00     0.026 H 
ATOM     41  H   LIG d   1       2.712   1.427  -6.925  0.00  0.00     0.026 H 
ATOM     42  C   LIG d   1       4.064   2.288  -9.131  0.00  0.00    -0.035 C 
ATOM     43  H   LIG d   1       2.757   0.761  -9.904  0.00  0.00     0.027 H 
ATOM     44  H   LIG d   1       1.914   2.143  -9.162  0.00  0.00     0.027 H 
ATOM     45  H   LIG d   1       4.079   3.000  -8.305  0.00  0.00     0.028 H 
ATOM     46  H   LIG d   1       4.116   2.827 -10.076  0.00  0.00     0.028 H 
ATOM     47  H   LIG d   1       5.251   0.636  -9.840  0.00  0.00     0.050 H 
ENDBRANCH  19  31
BRANCH   1  48
ATOM     48  N   LIG d   1       8.187  -0.467  -4.030  0.00  0.00    -0.211 N 
ATOM     49  H   LIG d   1       8.428  -0.281  -3.109  0.00  0.00     0.174 HD
BRANCH  48  50
ATOM     50  S   LIG d   1       6.911  -1.468  -4.365  0.00  0.00     0.072 S 
ATOM     51  O   LIG d   1       6.728  -1.434  -5.774  0.00  0.00    -0.150 OA
ATOM     52  O   LIG d   1       7.147  -2.678  -3.657  0.00  0.00    -0.150 OA
BRANCH  50  53
ATOM     53  C   LIG d   1       5.475  -0.740  -3.652  0.00  0.00     0.108 A 
ATOM     54  C   LIG d   1       5.604   0.250  -2.695  0.00  0.00    -0.035 A 
ATOM     55  C   LIG d   1       4.477   0.822  -2.136  0.00  0.00    -0.060 A 
ATOM     56  H   LIG d   1       6.585   0.577  -2.386  0.00  0.00     0.064 H 
ATOM     57  C   LIG d   1       3.220   0.404  -2.533  0.00  0.00    -0.062 A 
ATOM     58  H   LIG d   1       4.577   1.596  -1.390  0.00  0.00     0.062 H 
ATOM     59  C   LIG d   1       3.090  -0.586  -3.489  0.00  0.00    -0.060 A 
ATOM     60  H   LIG d   1       2.338   0.851  -2.096  0.00  0.00     0.062 H 
ATOM     61  C   LIG d   1       4.218  -1.155  -4.053  0.00  0.00    -0.035 A 
ATOM     62  H   LIG d   1       2.110  -0.913  -3.799  0.00  0.00     0.062 H 
ATOM     63  H   LIG d   1       4.117  -1.925  -4.803  0.00  0.00     0.064 H 
ENDBRANCH  50  53
ENDBRANCH  48  50
ENDBRANCH   1  48
TORSDOF 4
ENDMDL
MODEL 9
REMARK VINA RESULT:      -7.6      4.236      8.729
REMARK  4 active torsions:
REMARK  status: ('A' for Active; 'I' for Inactive)
REMARK    1  A    between atoms: C_4  and  S_7 
REMARK    2  A    between atoms: S_7  and  N_10 
REMARK    3  A    between atoms: N_10  and  C_11 
REMARK       I    between atoms: N_25  and  C_27 
REMARK       I    between atoms: C_27  and  N_29 
REMARK    4  A    between atoms: N_29  and  C_30 
ROOT
ATOM      1  C   LIG d   1       4.525  -4.030  -8.911  0.00  0.00     0.112 A 
ATOM      2  C   LIG d   1       3.292  -3.920  -9.494  0.00  0.00    -0.032 A 
ATOM      3  C   LIG d   1       2.921  -2.697 -10.063  0.00  0.00    -0.040 A 
ATOM      4  C   LIG d   1       3.770  -1.636 -10.043  0.00  0.00     0.027 A 
ATOM      5  N   LIG d   1       5.019  -1.764  -9.532  0.00  0.00    -0.310 N 
ATOM      6  C   LIG d   1       5.384  -2.914  -8.915  0.00  0.00     0.274 A 
ATOM      7  O   LIG d   1       6.470  -2.985  -8.363  0.00  0.00    -0.266 OA
ATOM      8  C   LIG d   1       6.038  -0.718  -9.642  0.00  0.00     0.031 C 
ATOM      9  C   LIG d   1       5.441   0.646  -9.927  0.00  0.00    -0.006 C 
ATOM     10  H   LIG d   1       6.244   1.304 -10.260  0.00  0.00     0.033 H 
ATOM     11  C   LIG d   1       4.418   0.540 -11.059  0.00  0.00    -0.037 C 
ATOM     12  C   LIG d   1       3.248  -0.321 -10.574  0.00  0.00     0.016 C 
ATOM     13  H   LIG d   1       2.541  -0.486 -11.386  0.00  0.00     0.038 H 
ATOM     14  C   LIG d   1       2.558   0.412  -9.411  0.00  0.00     0.024 C 
ATOM     15  N   LIG d   1       3.563   0.595  -8.350  0.00  0.00    -0.285 N 
ATOM     16  C   LIG d   1       4.821   1.272  -8.686  0.00  0.00     0.021 C 
ATOM     17  C   LIG d   1       3.331   0.151  -7.099  0.00  0.00     0.302 C 
ATOM     18  O   LIG d   1       2.249  -0.324  -6.813  0.00  0.00    -0.253 OA
ATOM     19  N   LIG d   1       4.299   0.236  -6.164  0.00  0.00    -0.296 N 
ATOM     20  H   LIG d   1       2.619  -4.764  -9.518  0.00  0.00     0.064 H 
ATOM     21  H   LIG d   1       1.949  -2.595 -10.523  0.00  0.00     0.064 H 
ATOM     22  H   LIG d   1       6.596  -0.670  -8.707  0.00  0.00     0.050 H 
ATOM     23  H   LIG d   1       6.725  -0.979 -10.447  0.00  0.00     0.050 H 
ATOM     24  H   LIG d   1       4.057   1.534 -11.323  0.00  0.00     0.028 H 
ATOM     25  H   LIG d   1       4.880   0.074 -11.929  0.00  0.00     0.028 H 
ATOM     26  H   LIG d   1       2.195   1.383  -9.748  0.00  0.00     0.047 H 
ATOM     27  H   LIG d   1       1.728  -0.186  -9.036  0.00  0.00     0.047 H 
ATOM     28  H   LIG d   1       5.515   1.178  -7.850  0.00  0.00     0.047 H 
ATOM     29  H   LIG d   1       4.624   2.328  -8.873  0.00  0.00     0.047 H 
ATOM     30  H   LIG d   1       5.134   0.682  -6.370  0.00  0.00     0.150 HD
ENDROOT
BRANCH  19  31
ATOM     31  C   LIG d   1       4.087  -0.345  -4.836  0.00  0.00     0.025 C 
ATOM     32  C   LIG d   1       5.432  -0.784  -4.252  0.00  0.00    -0.035 C 
ATOM     33  C   LIG d   1       5.211  -1.391  -2.865  0.00  0.00    -0.051 C 
ATOM     34  H   LIG d   1       5.887  -1.528  -4.906  0.00  0.00     0.028 H 
ATOM     35  H   LIG d   1       6.091   0.080  -4.169  0.00  0.00     0.028 H 
ATOM     36  C   LIG d   1       4.571  -0.348  -1.947  0.00  0.00    -0.053 C 
ATOM     37  H   LIG d   1       4.551  -2.255  -2.948  0.00  0.00     0.027 H 
ATOM     38  H   LIG d   1       6.168  -1.704  -2.449  0.00  0.00     0.027 H 
ATOM     39  C   LIG d   1       3.227   0.091  -2.532  0.00  0.00    -0.051 C 
ATOM     40  H   LIG d   1       4.414  -0.781  -0.959  0.00  0.00     0.026 H 
ATOM     41  H   LIG d   1       5.231   0.516  -1.864  0.00  0.00     0.026 H 
ATOM     42  C   LIG d   1       3.447   0.698  -3.918  0.00  0.00    -0.035 C 
ATOM     43  H   LIG d   1       2.568  -0.774  -2.614  0.00  0.00     0.027 H 
ATOM     44  H   LIG d   1       2.771   0.834  -1.877  0.00  0.00     0.027 H 
ATOM     45  H   LIG d   1       4.108   1.562  -3.836  0.00  0.00     0.028 H 
ATOM     46  H   LIG d   1       2.490   1.010  -4.334  0.00  0.00     0.028 H 
ATOM     47  H   LIG d   1       3.427  -1.209  -4.919  0.00  0.00     0.050 H 
ENDBRANCH  19  31
BRANCH   1  48
ATOM     48  N   LIG d   1       4.924  -5.232  -8.313  0.00  0.00    -0.211 N 
ATOM     49  H   LIG d   1       5.389  -5.903  -8.836  0.00  0.00     0.174 HD
BRANCH  48  50
ATOM     50  S   LIG d   1       4.603  -5.507  -6.711  0.00  0.00     0.072 S 
ATOM     51  O   LIG d   1       5.667  -4.917  -5.977  0.00  0.00    -0.150 OA
ATOM     52  O   LIG d   1       3.244  -5.150  -6.502  0.00  0.00    -0.150 OA
BRANCH  50  53
ATOM     53  C   LIG d   1       4.713  -7.245  -6.448  0.00  0.00     0.108 A 
ATOM     54  C   LIG d   1       4.476  -8.119  -7.493  0.00  0.00    -0.035 A 
ATOM     55  C   LIG d   1       4.562  -9.483  -7.287  0.00  0.00    -0.060 A 
ATOM     56  H   LIG d   1       4.224  -7.736  -8.471  0.00  0.00     0.064 H 
ATOM     57  C   LIG d   1       4.885  -9.974  -6.035  0.00  0.00    -0.062 A 
ATOM     58  H   LIG d   1       4.379 -10.165  -8.103  0.00  0.00     0.062 H 
ATOM     59  C   LIG d   1       5.121  -9.101  -4.990  0.00  0.00    -0.060 A 
ATOM     60  H   LIG d   1       4.953 -11.040  -5.873  0.00  0.00     0.062 H 
ATOM     61  C   LIG d   1       5.040  -7.736  -5.198  0.00  0.00    -0.035 A 
ATOM     62  H   LIG d   1       5.373  -9.483  -4.013  0.00  0.00     0.062 H 
ATOM     63  H   LIG d   1       5.229  -7.053  -4.382  0.00  0.00     0.064 H 
ENDBRANCH  50  53
ENDBRANCH  48  50
ENDBRANCH   1  48
TORSDOF 4
ENDMDL
