MODEL 1
REMARK VINA RESULT:      -5.5      0.000      0.000
REMARK  5 active torsions:
REMARK  status: ('A' for Active; 'I' for Inactive)
REMARK    1  A    between atoms: C_1  and  C_2 
REMARK    2  A    between atoms: C_2  and  O_3 
REMARK    3  A    between atoms: O_3  and  C_4 
REMARK    4  A    between atoms: C_4  and  C_6 
REMARK    5  A    between atoms: C_10  and  N_11 
ROOT
ATOM      1  C   LIG d   1       4.100  -0.437  -6.479  0.00  0.00     0.090 A 
ATOM      2  C   LIG d   1       3.928  -0.540  -5.039  0.00  0.00    -0.021 A 
ATOM      3  C   LIG d   1       4.931  -1.185  -4.408  0.00  0.00    -0.004 A 
ATOM      4  S   LIG d   1       6.058  -1.635  -5.696  0.00  0.00    -0.078 SA
ATOM      5  C   LIG d   1       5.244  -1.005  -7.023  0.00  0.00     0.077 A 
ATOM      6  C   LIG d   1       5.046  -1.451  -2.939  0.00  0.00    -0.021 C 
ATOM      7  C   LIG d   1       4.039  -0.552  -2.205  0.00  0.00    -0.048 C 
ATOM      8  C   LIG d   1       2.679  -0.663  -2.900  0.00  0.00    -0.049 C 
ATOM      9  C   LIG d   1       2.738   0.014  -4.272  0.00  0.00    -0.026 C 
ATOM     10  H   LIG d   1       4.820  -2.497  -2.735  0.00  0.00     0.032 H 
ATOM     11  H   LIG d   1       6.057  -1.220  -2.602  0.00  0.00     0.032 H 
ATOM     12  H   LIG d   1       3.947  -0.875  -1.169  0.00  0.00     0.027 H 
ATOM     13  H   LIG d   1       4.382   0.482  -2.238  0.00  0.00     0.027 H 
ATOM     14  H   LIG d   1       2.422  -1.715  -3.027  0.00  0.00     0.027 H 
ATOM     15  H   LIG d   1       1.919  -0.177  -2.288  0.00  0.00     0.027 H 
ATOM     16  H   LIG d   1       2.855   1.091  -4.142  0.00  0.00     0.031 H 
ATOM     17  H   LIG d   1       1.819  -0.192  -4.821  0.00  0.00     0.031 H 
ENDROOT
BRANCH   1  18
ATOM     18  C   LIG d   1       3.108   0.232  -7.320  0.00  0.00     0.342 C 
ATOM     19  O   LIG d   1       2.323  -0.427  -7.976  0.00  0.00    -0.245 OA
BRANCH  18  20
ATOM     20  O   LIG d   1       3.062   1.579  -7.368  0.00  0.00    -0.461 OA
BRANCH  20  21
ATOM     21  C   LIG d   1       2.833   2.175  -8.647  0.00  0.00     0.090 C 
ATOM     22  H   LIG d   1       2.193   3.049  -8.531  0.00  0.00     0.070 H 
ATOM     23  H   LIG d   1       2.347   1.453  -9.302  0.00  0.00     0.070 H 
BRANCH  21  24
ATOM     24  C   LIG d   1       4.170   2.598  -9.259  0.00  0.00    -0.031 C 
ATOM     25  H   LIG d   1       4.679   1.722  -9.662  0.00  0.00     0.026 H 
ATOM     26  H   LIG d   1       3.993   3.316 -10.059  0.00  0.00     0.026 H 
ATOM     27  H   LIG d   1       4.792   3.057  -8.490  0.00  0.00     0.026 H 
ENDBRANCH  21  24
ENDBRANCH  20  21
ENDBRANCH  18  20
ENDBRANCH   1  18
BRANCH   5  28
ATOM     28  N   LIG d   1       5.628  -1.042  -8.349  0.00  0.00    -0.352 N 
ATOM     29  H   LIG d   1       5.849  -1.889  -8.766  0.00  0.00     0.143 HD
ATOM     30  H   LIG d   1       5.676  -0.221  -8.864  0.00  0.00     0.143 HD
ENDBRANCH   5  28
TORSDOF 5
ENDMDL
MODEL 2
REMARK VINA RESULT:      -5.0      1.968      4.858
REMARK  5 active torsions:
REMARK  status: ('A' for Active; 'I' for Inactive)
REMARK    1  A    between atoms: C_1  and  C_2 
REMARK    2  A    between atoms: C_2  and  O_3 
REMARK    3  A    between atoms: O_3  and  C_4 
REMARK    4  A    between atoms: C_4  and  C_6 
REMARK    5  A    between atoms: C_10  and  N_11 
ROOT
ATOM      1  C   LIG d   1       3.615  -0.230  -6.383  0.00  0.00     0.090 A 
ATOM      2  C   LIG d   1       3.661   0.459  -7.662  0.00  0.00    -0.021 A 
ATOM      3  C   LIG d   1       4.365  -0.189  -8.613  0.00  0.00    -0.004 A 
ATOM      4  S   LIG d   1       4.941  -1.662  -7.822  0.00  0.00    -0.078 SA
ATOM      5  C   LIG d   1       4.288  -1.441  -6.291  0.00  0.00     0.077 A 
ATOM      6  C   LIG d   1       4.595   0.259 -10.024  0.00  0.00    -0.021 C 
ATOM      7  C   LIG d   1       3.597   1.383 -10.343  0.00  0.00    -0.048 C 
ATOM      8  C   LIG d   1       3.620   2.404  -9.202  0.00  0.00    -0.049 C 
ATOM      9  C   LIG d   1       2.991   1.795  -7.946  0.00  0.00    -0.026 C 
ATOM     10  H   LIG d   1       5.613   0.632 -10.130  0.00  0.00     0.032 H 
ATOM     11  H   LIG d   1       4.436  -0.577 -10.705  0.00  0.00     0.032 H 
ATOM     12  H   LIG d   1       3.881   1.871 -11.275  0.00  0.00     0.027 H 
ATOM     13  H   LIG d   1       2.595   0.965 -10.438  0.00  0.00     0.027 H 
ATOM     14  H   LIG d   1       4.651   2.686  -8.989  0.00  0.00     0.027 H 
ATOM     15  H   LIG d   1       3.056   3.289  -9.496  0.00  0.00     0.027 H 
ATOM     16  H   LIG d   1       1.923   1.642  -8.110  0.00  0.00     0.031 H 
ATOM     17  H   LIG d   1       3.139   2.467  -7.100  0.00  0.00     0.031 H 
ENDROOT
BRANCH   1  18
ATOM     18  C   LIG d   1       2.894   0.330  -5.240  0.00  0.00     0.342 C 
ATOM     19  O   LIG d   1       1.679   0.281  -5.204  0.00  0.00    -0.245 OA
BRANCH  18  20
ATOM     20  O   LIG d   1       3.577   0.900  -4.225  0.00  0.00    -0.461 OA
BRANCH  20  21
ATOM     21  C   LIG d   1       3.298   0.423  -2.907  0.00  0.00     0.090 C 
ATOM     22  H   LIG d   1       3.286  -0.667  -2.910  0.00  0.00     0.070 H 
ATOM     23  H   LIG d   1       2.327   0.795  -2.584  0.00  0.00     0.070 H 
BRANCH  21  24
ATOM     24  C   LIG d   1       4.380   0.919  -1.946  0.00  0.00    -0.031 C 
ATOM     25  H   LIG d   1       5.209   1.338  -2.517  0.00  0.00     0.026 H 
ATOM     26  H   LIG d   1       3.963   1.687  -1.294  0.00  0.00     0.026 H 
ATOM     27  H   LIG d   1       4.739   0.086  -1.343  0.00  0.00     0.026 H 
ENDBRANCH  21  24
ENDBRANCH  20  21
ENDBRANCH  18  20
ENDBRANCH   1  18
BRANCH   5  28
ATOM     28  N   LIG d   1       4.395  -2.273  -5.194  0.00  0.00    -0.352 N 
ATOM     29  H   LIG d   1       3.601  -2.681  -4.817  0.00  0.00     0.143 HD
ATOM     30  H   LIG d   1       5.264  -2.451  -4.802  0.00  0.00     0.143 HD
ENDBRANCH   5  28
TORSDOF 5
ENDMDL
MODEL 3
REMARK VINA RESULT:      -4.7      2.311      4.905
REMARK  5 active torsions:
REMARK  status: ('A' for Active; 'I' for Inactive)
REMARK    1  A    between atoms: C_1  and  C_2 
REMARK    2  A    between atoms: C_2  and  O_3 
REMARK    3  A    between atoms: O_3  and  C_4 
REMARK    4  A    between atoms: C_4  and  C_6 
REMARK    5  A    between atoms: C_10  and  N_11 
ROOT
ATOM      1  C   LIG d   1       4.289  -1.190  -6.162  0.00  0.00     0.090 A 
ATOM      2  C   LIG d   1       3.571  -0.721  -7.336  0.00  0.00    -0.021 A 
ATOM      3  C   LIG d   1       3.559  -1.598  -8.362  0.00  0.00    -0.004 A 
ATOM      4  S   LIG d   1       4.473  -2.993  -7.773  0.00  0.00    -0.078 SA
ATOM      5  C   LIG d   1       4.867  -2.450  -6.233  0.00  0.00     0.077 A 
ATOM      6  C   LIG d   1       2.908  -1.410  -9.697  0.00  0.00    -0.021 C 
ATOM      7  C   LIG d   1       1.933  -0.227  -9.598  0.00  0.00    -0.048 C 
ATOM      8  C   LIG d   1       2.647   0.947  -8.922  0.00  0.00    -0.049 C 
ATOM      9  C   LIG d   1       2.883   0.631  -7.443  0.00  0.00    -0.026 C 
ATOM     10  H   LIG d   1       3.666  -1.197 -10.450  0.00  0.00     0.032 H 
ATOM     11  H   LIG d   1       2.362  -2.314  -9.969  0.00  0.00     0.032 H 
ATOM     12  H   LIG d   1       1.611   0.067 -10.596  0.00  0.00     0.027 H 
ATOM     13  H   LIG d   1       1.066  -0.518  -9.004  0.00  0.00     0.027 H 
ATOM     14  H   LIG d   1       3.605   1.119  -9.413  0.00  0.00     0.027 H 
ATOM     15  H   LIG d   1       2.031   1.843  -9.007  0.00  0.00     0.027 H 
ATOM     16  H   LIG d   1       1.927   0.598  -6.920  0.00  0.00     0.031 H 
ATOM     17  H   LIG d   1       3.517   1.401  -7.002  0.00  0.00     0.031 H 
ENDROOT
BRANCH   1  18
ATOM     18  C   LIG d   1       4.401  -0.367  -4.957  0.00  0.00     0.342 C 
ATOM     19  O   LIG d   1       5.434   0.231  -4.724  0.00  0.00    -0.245 OA
BRANCH  18  20
ATOM     20  O   LIG d   1       3.359  -0.271  -4.106  0.00  0.00    -0.461 OA
BRANCH  20  21
ATOM     21  C   LIG d   1       3.637  -0.456  -2.717  0.00  0.00     0.090 C 
ATOM     22  H   LIG d   1       2.830  -0.027  -2.124  0.00  0.00     0.070 H 
ATOM     23  H   LIG d   1       4.574   0.040  -2.465  0.00  0.00     0.070 H 
BRANCH  21  24
ATOM     24  C   LIG d   1       3.754  -1.951  -2.414  0.00  0.00    -0.031 C 
ATOM     25  H   LIG d   1       2.780  -2.424  -2.542  0.00  0.00     0.026 H 
ATOM     26  H   LIG d   1       4.472  -2.405  -3.096  0.00  0.00     0.026 H 
ATOM     27  H   LIG d   1       4.091  -2.088  -1.387  0.00  0.00     0.026 H 
ENDBRANCH  21  24
ENDBRANCH  20  21
ENDBRANCH  18  20
ENDBRANCH   1  18
BRANCH   5  28
ATOM     28  N   LIG d   1       5.596  -3.108  -5.262  0.00  0.00    -0.352 N 
ATOM     29  H   LIG d   1       6.369  -2.679  -4.864  0.00  0.00     0.143 HD
ATOM     30  H   LIG d   1       5.334  -3.998  -4.978  0.00  0.00     0.143 HD
ENDBRANCH   5  28
TORSDOF 5
ENDMDL
MODEL 4
REMARK VINA RESULT:      -4.7      2.360      4.034
REMARK  5 active torsions:
REMARK  status: ('A' for Active; 'I' for Inactive)
REMARK    1  A    between atoms: C_1  and  C_2 
REMARK    2  A    between atoms: C_2  and  O_3 
REMARK    3  A    between atoms: O_3  and  C_4 
REMARK    4  A    between atoms: C_4  and  C_6 
REMARK    5  A    between atoms: C_10  and  N_11 
ROOT
ATOM      1  C   LIG d   1       3.805  -0.433  -5.681  0.00  0.00     0.090 A 
ATOM      2  C   LIG d   1       4.523  -1.692  -5.565  0.00  0.00    -0.021 A 
ATOM      3  C   LIG d   1       5.067  -2.126  -6.721  0.00  0.00    -0.004 A 
ATOM      4  S   LIG d   1       4.631  -0.895  -7.913  0.00  0.00    -0.078 SA
ATOM      5  C   LIG d   1       3.760   0.157  -6.937  0.00  0.00     0.077 A 
ATOM      6  C   LIG d   1       5.861  -3.379  -6.926  0.00  0.00    -0.021 C 
ATOM      7  C   LIG d   1       6.290  -3.910  -5.550  0.00  0.00    -0.048 C 
ATOM      8  C   LIG d   1       5.072  -3.919  -4.622  0.00  0.00    -0.049 C 
ATOM      9  C   LIG d   1       4.672  -2.483  -4.274  0.00  0.00    -0.026 C 
ATOM     10  H   LIG d   1       5.249  -4.124  -7.432  0.00  0.00     0.032 H 
ATOM     11  H   LIG d   1       6.745  -3.159  -7.526  0.00  0.00     0.032 H 
ATOM     12  H   LIG d   1       6.678  -4.923  -5.653  0.00  0.00     0.027 H 
ATOM     13  H   LIG d   1       7.062  -3.263  -5.133  0.00  0.00     0.027 H 
ATOM     14  H   LIG d   1       4.240  -4.416  -5.121  0.00  0.00     0.027 H 
ATOM     15  H   LIG d   1       5.318  -4.458  -3.706  0.00  0.00     0.027 H 
ATOM     16  H   LIG d   1       5.444  -2.029  -3.653  0.00  0.00     0.031 H 
ATOM     17  H   LIG d   1       3.724  -2.488  -3.736  0.00  0.00     0.031 H 
ENDROOT
BRANCH   1  18
ATOM     18  C   LIG d   1       3.155   0.184  -4.525  0.00  0.00     0.342 C 
ATOM     19  O   LIG d   1       2.111  -0.273  -4.099  0.00  0.00    -0.245 OA
BRANCH  18  20
ATOM     20  O   LIG d   1       3.712   1.259  -3.931  0.00  0.00    -0.461 OA
BRANCH  20  21
ATOM     21  C   LIG d   1       3.573   1.362  -2.512  0.00  0.00     0.090 C 
ATOM     22  H   LIG d   1       2.564   1.068  -2.224  0.00  0.00     0.070 H 
ATOM     23  H   LIG d   1       3.755   2.390  -2.203  0.00  0.00     0.070 H 
BRANCH  21  24
ATOM     24  C   LIG d   1       4.587   0.438  -1.833  0.00  0.00    -0.031 C 
ATOM     25  H   LIG d   1       4.288  -0.600  -1.980  0.00  0.00     0.026 H 
ATOM     26  H   LIG d   1       5.573   0.598  -2.268  0.00  0.00     0.026 H 
ATOM     27  H   LIG d   1       4.620   0.659  -0.766  0.00  0.00     0.026 H 
ENDBRANCH  21  24
ENDBRANCH  20  21
ENDBRANCH  18  20
ENDBRANCH   1  18
BRANCH   5  28
ATOM     28  N   LIG d   1       3.142   1.338  -7.300  0.00  0.00    -0.352 N 
ATOM     29  H   LIG d   1       3.250   2.129  -6.750  0.00  0.00     0.143 HD
ATOM     30  H   LIG d   1       2.601   1.375  -8.104  0.00  0.00     0.143 HD
ENDBRANCH   5  28
TORSDOF 5
ENDMDL
MODEL 5
REMARK VINA RESULT:      -4.2      3.798      4.224
REMARK  5 active torsions:
REMARK  status: ('A' for Active; 'I' for Inactive)
REMARK    1  A    between atoms: C_1  and  C_2 
REMARK    2  A    between atoms: C_2  and  O_3 
REMARK    3  A    between atoms: O_3  and  C_4 
REMARK    4  A    between atoms: C_4  and  C_6 
REMARK    5  A    between atoms: C_10  and  N_11 
ROOT
ATOM      1  C   LIG d   1       7.731  -0.276  -4.340  0.00  0.00     0.090 A 
ATOM      2  C   LIG d   1       6.527  -0.114  -3.540  0.00  0.00    -0.021 A 
ATOM      3  C   LIG d   1       5.905  -1.273  -3.240  0.00  0.00    -0.004 A 
ATOM      4  S   LIG d   1       6.895  -2.526  -3.999  0.00  0.00    -0.078 SA
ATOM      5  C   LIG d   1       8.086  -1.569  -4.696  0.00  0.00     0.077 A 
ATOM      6  C   LIG d   1       4.652  -1.439  -2.437  0.00  0.00    -0.021 C 
ATOM      7  C   LIG d   1       4.382  -0.126  -1.685  0.00  0.00    -0.048 C 
ATOM      8  C   LIG d   1       4.514   1.042  -2.666  0.00  0.00    -0.049 C 
ATOM      9  C   LIG d   1       5.981   1.224  -3.065  0.00  0.00    -0.026 C 
ATOM     10  H   LIG d   1       3.816  -1.659  -3.100  0.00  0.00     0.032 H 
ATOM     11  H   LIG d   1       4.779  -2.252  -1.721  0.00  0.00     0.032 H 
ATOM     12  H   LIG d   1       3.375  -0.143  -1.270  0.00  0.00     0.027 H 
ATOM     13  H   LIG d   1       5.109  -0.011  -0.880  0.00  0.00     0.027 H 
ATOM     14  H   LIG d   1       3.920   0.836  -3.556  0.00  0.00     0.027 H 
ATOM     15  H   LIG d   1       4.152   1.955  -2.193  0.00  0.00     0.027 H 
ATOM     16  H   LIG d   1       6.554   1.567  -2.203  0.00  0.00     0.031 H 
ATOM     17  H   LIG d   1       6.053   1.955  -3.869  0.00  0.00     0.031 H 
ENDROOT
BRANCH   1  18
ATOM     18  C   LIG d   1       8.530   0.877  -4.756  0.00  0.00     0.342 C 
ATOM     19  O   LIG d   1       9.019   1.611  -3.919  0.00  0.00    -0.245 OA
BRANCH  18  20
ATOM     20  O   LIG d   1       8.725   1.124  -6.067  0.00  0.00    -0.461 OA
BRANCH  20  21
ATOM     21  C   LIG d   1       7.563   1.180  -6.897  0.00  0.00     0.090 C 
ATOM     22  H   LIG d   1       6.757   1.680  -6.360  0.00  0.00     0.070 H 
ATOM     23  H   LIG d   1       7.253   0.168  -7.156  0.00  0.00     0.070 H 
BRANCH  21  24
ATOM     24  C   LIG d   1       7.885   1.958  -8.174  0.00  0.00    -0.031 C 
ATOM     25  H   LIG d   1       8.840   1.619  -8.575  0.00  0.00     0.026 H 
ATOM     26  H   LIG d   1       7.100   1.787  -8.911  0.00  0.00     0.026 H 
ATOM     27  H   LIG d   1       7.944   3.022  -7.946  0.00  0.00     0.026 H 
ENDBRANCH  21  24
ENDBRANCH  20  21
ENDBRANCH  18  20
ENDBRANCH   1  18
BRANCH   5  28
ATOM     28  N   LIG d   1       9.171  -1.977  -5.447  0.00  0.00    -0.352 N 
ATOM     29  H   LIG d   1       9.083  -2.725  -6.058  0.00  0.00     0.143 HD
ATOM     30  H   LIG d   1      10.021  -1.516  -5.363  0.00  0.00     0.143 HD
ENDBRANCH   5  28
TORSDOF 5
ENDMDL
MODEL 6
REMARK VINA RESULT:      -4.2      9.732     10.747
REMARK  5 active torsions:
REMARK  status: ('A' for Active; 'I' for Inactive)
REMARK    1  A    between atoms: C_1  and  C_2 
REMARK    2  A    between atoms: C_2  and  O_3 
REMARK    3  A    between atoms: O_3  and  C_4 
REMARK    4  A    between atoms: C_4  and  C_6 
REMARK    5  A    between atoms: C_10  and  N_11 
ROOT
ATOM      1  C   LIG d   1       9.990   6.507  -1.985  0.00  0.00     0.090 A 
ATOM      2  C   LIG d   1       9.965   6.220  -3.411  0.00  0.00    -0.021 A 
ATOM      3  C   LIG d   1      10.527   5.040  -3.745  0.00  0.00    -0.004 A 
ATOM      4  S   LIG d   1      11.066   4.346  -2.211  0.00  0.00    -0.078 SA
ATOM      5  C   LIG d   1      10.579   5.561  -1.158  0.00  0.00     0.077 A 
ATOM      6  C   LIG d   1      10.654   4.463  -5.122  0.00  0.00    -0.021 C 
ATOM      7  C   LIG d   1       9.715   5.237  -6.059  0.00  0.00    -0.048 C 
ATOM      8  C   LIG d   1       9.920   6.738  -5.836  0.00  0.00    -0.049 C 
ATOM      9  C   LIG d   1       9.370   7.141  -4.465  0.00  0.00    -0.026 C 
ATOM     10  H   LIG d   1      11.682   4.563  -5.468  0.00  0.00     0.032 H 
ATOM     11  H   LIG d   1      10.371   3.410  -5.106  0.00  0.00     0.032 H 
ATOM     12  H   LIG d   1       9.944   4.987  -7.094  0.00  0.00     0.027 H 
ATOM     13  H   LIG d   1       8.681   4.973  -5.838  0.00  0.00     0.027 H 
ATOM     14  H   LIG d   1      10.985   6.968  -5.880  0.00  0.00     0.027 H 
ATOM     15  H   LIG d   1       9.398   7.295  -6.614  0.00  0.00     0.027 H 
ATOM     16  H   LIG d   1       8.284   7.044  -4.465  0.00  0.00     0.031 H 
ATOM     17  H   LIG d   1       9.647   8.173  -4.249  0.00  0.00     0.031 H 
ENDROOT
BRANCH   1  18
ATOM     18  C   LIG d   1       9.424   7.744  -1.447  0.00  0.00     0.342 C 
ATOM     19  O   LIG d   1       8.333   7.729  -0.909  0.00  0.00    -0.245 OA
BRANCH  18  20
ATOM     20  O   LIG d   1      10.111   8.900  -1.546  0.00  0.00    -0.461 OA
BRANCH  20  21
ATOM     21  C   LIG d   1      10.123   9.749  -0.396  0.00  0.00     0.090 C 
ATOM     22  H   LIG d   1       9.130   9.769   0.052  0.00  0.00     0.070 H 
ATOM     23  H   LIG d   1      10.409  10.757  -0.691  0.00  0.00     0.070 H 
BRANCH  21  24
ATOM     24  C   LIG d   1      11.131   9.212   0.623  0.00  0.00    -0.031 C 
ATOM     25  H   LIG d   1      11.428   8.201   0.342  0.00  0.00     0.026 H 
ATOM     26  H   LIG d   1      12.010   9.857   0.640  0.00  0.00     0.026 H 
ATOM     27  H   LIG d   1      10.673   9.194   1.612  0.00  0.00     0.026 H 
ENDBRANCH  21  24
ENDBRANCH  20  21
ENDBRANCH  18  20
ENDBRANCH   1  18
BRANCH   5  28
ATOM     28  N   LIG d   1      10.729   5.605   0.214  0.00  0.00    -0.352 N 
ATOM     29  H   LIG d   1      11.101   6.395   0.635  0.00  0.00     0.143 HD
ATOM     30  H   LIG d   1      10.461   4.847   0.756  0.00  0.00     0.143 HD
ENDBRANCH   5  28
TORSDOF 5
ENDMDL
MODEL 7
REMARK VINA RESULT:      -4.1     10.379     11.059
REMARK  5 active torsions:
REMARK  status: ('A' for Active; 'I' for Inactive)
REMARK    1  A    between atoms: C_1  and  C_2 
REMARK    2  A    between atoms: C_2  and  O_3 
REMARK    3  A    between atoms: O_3  and  C_4 
REMARK    4  A    between atoms: C_4  and  C_6 
REMARK    5  A    between atoms: C_10  and  N_11 
ROOT
ATOM      1  C   LIG d   1      10.229   7.320  -0.766  0.00  0.00     0.090 A 
ATOM      2  C   LIG d   1      10.117   6.282  -1.777  0.00  0.00    -0.021 A 
ATOM      3  C   LIG d   1      10.845   5.176  -1.517  0.00  0.00    -0.004 A 
ATOM      4  S   LIG d   1      11.646   5.518   0.022  0.00  0.00    -0.078 SA
ATOM      5  C   LIG d   1      11.055   7.061   0.319  0.00  0.00     0.077 A 
ATOM      6  C   LIG d   1      10.938   3.942  -2.359  0.00  0.00    -0.021 C 
ATOM      7  C   LIG d   1       9.789   3.964  -3.378  0.00  0.00    -0.048 C 
ATOM      8  C   LIG d   1       9.744   5.342  -4.043  0.00  0.00    -0.049 C 
ATOM      9  C   LIG d   1       9.267   6.391  -3.035  0.00  0.00    -0.026 C 
ATOM     10  H   LIG d   1      11.893   3.926  -2.883  0.00  0.00     0.032 H 
ATOM     11  H   LIG d   1      10.851   3.058  -1.726  0.00  0.00     0.032 H 
ATOM     12  H   LIG d   1       9.958   3.199  -4.136  0.00  0.00     0.027 H 
ATOM     13  H   LIG d   1       8.845   3.773  -2.868  0.00  0.00     0.027 H 
ATOM     14  H   LIG d   1      10.741   5.607  -4.396  0.00  0.00     0.027 H 
ATOM     15  H   LIG d   1       9.057   5.315  -4.889  0.00  0.00     0.027 H 
ATOM     16  H   LIG d   1       8.221   6.209  -2.786  0.00  0.00     0.031 H 
ATOM     17  H   LIG d   1       9.374   7.387  -3.464  0.00  0.00     0.031 H 
ENDROOT
BRANCH   1  18
ATOM     18  C   LIG d   1       9.506   8.586  -0.889  0.00  0.00     0.342 C 
ATOM     19  O   LIG d   1       8.308   8.625  -0.679  0.00  0.00    -0.245 OA
BRANCH  18  20
ATOM     20  O   LIG d   1      10.166   9.710  -1.235  0.00  0.00    -0.461 OA
BRANCH  20  21
ATOM     21  C   LIG d   1       9.863  10.274  -2.513  0.00  0.00     0.090 C 
ATOM     22  H   LIG d   1       9.912  11.361  -2.451  0.00  0.00     0.070 H 
ATOM     23  H   LIG d   1       8.860   9.973  -2.813  0.00  0.00     0.070 H 
BRANCH  21  24
ATOM     24  C   LIG d   1      10.876   9.774  -3.545  0.00  0.00    -0.031 C 
ATOM     25  H   LIG d   1      10.401   9.722  -4.524  0.00  0.00     0.026 H 
ATOM     26  H   LIG d   1      11.721  10.460  -3.586  0.00  0.00     0.026 H 
ATOM     27  H   LIG d   1      11.226   8.782  -3.258  0.00  0.00     0.026 H 
ENDBRANCH  21  24
ENDBRANCH  20  21
ENDBRANCH  18  20
ENDBRANCH   1  18
BRANCH   5  28
ATOM     28  N   LIG d   1      11.327   7.882   1.396  0.00  0.00    -0.352 N 
ATOM     29  H   LIG d   1      11.243   7.540   2.299  0.00  0.00     0.143 HD
ATOM     30  H   LIG d   1      11.602   8.801   1.249  0.00  0.00     0.143 HD
ENDBRANCH   5  28
TORSDOF 5
ENDMDL
MODEL 8
REMARK VINA RESULT:      -4.1      2.655      4.621
REMARK  5 active torsions:
REMARK  status: ('A' for Active; 'I' for Inactive)
REMARK    1  A    between atoms: C_1  and  C_2 
REMARK    2  A    between atoms: C_2  and  O_3 
REMARK    3  A    between atoms: O_3  and  C_4 
REMARK    4  A    between atoms: C_4  and  C_6 
REMARK    5  A    between atoms: C_10  and  N_11 
ROOT
ATOM      1  C   LIG d   1       5.566  -0.958  -4.911  0.00  0.00     0.090 A 
ATOM      2  C   LIG d   1       5.100  -0.447  -6.190  0.00  0.00    -0.021 A 
ATOM      3  C   LIG d   1       6.085  -0.023  -7.008  0.00  0.00    -0.004 A 
ATOM      4  S   LIG d   1       7.576  -0.300  -6.098  0.00  0.00    -0.078 SA
ATOM      5  C   LIG d   1       6.936  -0.946  -4.686  0.00  0.00     0.077 A 
ATOM      6  C   LIG d   1       5.929   0.551  -8.382  0.00  0.00    -0.021 C 
ATOM      7  C   LIG d   1       4.508   0.240  -8.877  0.00  0.00    -0.048 C 
ATOM      8  C   LIG d   1       3.510   0.606  -7.776  0.00  0.00    -0.049 C 
ATOM      9  C   LIG d   1       3.639  -0.376  -6.609  0.00  0.00    -0.026 C 
ATOM     10  H   LIG d   1       6.077   1.630  -8.349  0.00  0.00     0.032 H 
ATOM     11  H   LIG d   1       6.659   0.099  -9.054  0.00  0.00     0.032 H 
ATOM     12  H   LIG d   1       4.297   0.825  -9.772  0.00  0.00     0.027 H 
ATOM     13  H   LIG d   1       4.427  -0.822  -9.106  0.00  0.00     0.027 H 
ATOM     14  H   LIG d   1       3.714   1.617  -7.423  0.00  0.00     0.027 H 
ATOM     15  H   LIG d   1       2.496   0.561  -8.176  0.00  0.00     0.027 H 
ATOM     16  H   LIG d   1       3.300  -1.364  -6.923  0.00  0.00     0.031 H 
ATOM     17  H   LIG d   1       3.034  -0.029  -5.771  0.00  0.00     0.031 H 
ENDROOT
BRANCH   1  18
ATOM     18  C   LIG d   1       4.632  -1.460  -3.904  0.00  0.00     0.342 C 
ATOM     19  O   LIG d   1       4.005  -2.481  -4.111  0.00  0.00    -0.245 OA
BRANCH  18  20
ATOM     20  O   LIG d   1       4.466  -0.790  -2.745  0.00  0.00    -0.461 OA
BRANCH  20  21
ATOM     21  C   LIG d   1       3.322   0.062  -2.646  0.00  0.00     0.090 C 
ATOM     22  H   LIG d   1       2.856  -0.068  -1.670  0.00  0.00     0.070 H 
ATOM     23  H   LIG d   1       2.608  -0.197  -3.427  0.00  0.00     0.070 H 
BRANCH  21  24
ATOM     24  C   LIG d   1       3.756   1.520  -2.815  0.00  0.00    -0.031 C 
ATOM     25  H   LIG d   1       3.369   1.907  -3.758  0.00  0.00     0.026 H 
ATOM     26  H   LIG d   1       3.365   2.113  -1.989  0.00  0.00     0.026 H 
ATOM     27  H   LIG d   1       4.845   1.576  -2.820  0.00  0.00     0.026 H 
ENDBRANCH  21  24
ENDBRANCH  20  21
ENDBRANCH  18  20
ENDBRANCH   1  18
BRANCH   5  28
ATOM     28  N   LIG d   1       7.616  -1.369  -3.561  0.00  0.00    -0.352 N 
ATOM     29  H   LIG d   1       7.945  -2.279  -3.508  0.00  0.00     0.143 HD
ATOM     30  H   LIG d   1       7.765  -0.756  -2.824  0.00  0.00     0.143 HD
ENDBRANCH   5  28
TORSDOF 5
ENDMDL
MODEL 9
REMARK VINA RESULT:      -4.1      3.436      5.128
REMARK  5 active torsions:
REMARK  status: ('A' for Active; 'I' for Inactive)
REMARK    1  A    between atoms: C_1  and  C_2 
REMARK    2  A    between atoms: C_2  and  O_3 
REMARK    3  A    between atoms: O_3  and  C_4 
REMARK    4  A    between atoms: C_4  and  C_6 
REMARK    5  A    between atoms: C_10  and  N_11 
ROOT
ATOM      1  C   LIG d   1       5.937  -0.747  -5.015  0.00  0.00     0.090 A 
ATOM      2  C   LIG d   1       6.979   0.264  -5.112  0.00  0.00    -0.021 A 
ATOM      3  C   LIG d   1       7.234   0.675  -6.371  0.00  0.00    -0.004 A 
ATOM      4  S   LIG d   1       6.123  -0.257  -7.383  0.00  0.00    -0.078 SA
ATOM      5  C   LIG d   1       5.347  -1.163  -6.201  0.00  0.00     0.077 A 
ATOM      6  C   LIG d   1       8.242   1.697  -6.796  0.00  0.00    -0.021 C 
ATOM      7  C   LIG d   1       8.683   2.487  -5.554  0.00  0.00    -0.048 C 
ATOM      8  C   LIG d   1       9.020   1.499  -4.434  0.00  0.00    -0.049 C 
ATOM      9  C   LIG d   1       7.739   0.833  -3.924  0.00  0.00    -0.026 C 
ATOM     10  H   LIG d   1       9.105   1.201  -7.240  0.00  0.00     0.032 H 
ATOM     11  H   LIG d   1       7.793   2.376  -7.522  0.00  0.00     0.032 H 
ATOM     12  H   LIG d   1       9.564   3.082  -5.793  0.00  0.00     0.027 H 
ATOM     13  H   LIG d   1       7.873   3.142  -5.232  0.00  0.00     0.027 H 
ATOM     14  H   LIG d   1       9.697   0.735  -4.816  0.00  0.00     0.027 H 
ATOM     15  H   LIG d   1       9.503   2.031  -3.614  0.00  0.00     0.027 H 
ATOM     16  H   LIG d   1       7.121   1.573  -3.414  0.00  0.00     0.031 H 
ATOM     17  H   LIG d   1       7.995   0.030  -3.233  0.00  0.00     0.031 H 
ENDROOT
BRANCH   1  18
ATOM     18  C   LIG d   1       5.532  -1.304  -3.725  0.00  0.00     0.342 C 
ATOM     19  O   LIG d   1       6.286  -2.040  -3.117  0.00  0.00    -0.245 OA
BRANCH  18  20
ATOM     20  O   LIG d   1       4.323  -1.001  -3.209  0.00  0.00    -0.461 OA
BRANCH  20  21
ATOM     21  C   LIG d   1       4.286  -0.591  -1.841  0.00  0.00     0.090 C 
ATOM     22  H   LIG d   1       5.040  -1.138  -1.277  0.00  0.00     0.070 H 
ATOM     23  H   LIG d   1       3.300  -0.800  -1.426  0.00  0.00     0.070 H 
BRANCH  21  24
ATOM     24  C   LIG d   1       4.570   0.910  -1.751  0.00  0.00    -0.031 C 
ATOM     25  H   LIG d   1       5.347   1.088  -1.007  0.00  0.00     0.026 H 
ATOM     26  H   LIG d   1       4.904   1.276  -2.721  0.00  0.00     0.026 H 
ATOM     27  H   LIG d   1       3.660   1.434  -1.458  0.00  0.00     0.026 H 
ENDBRANCH  21  24
ENDBRANCH  20  21
ENDBRANCH  18  20
ENDBRANCH   1  18
BRANCH   5  28
ATOM     28  N   LIG d   1       4.350  -2.104  -6.370  0.00  0.00    -0.352 N 
ATOM     29  H   LIG d   1       3.550  -1.876  -6.867  0.00  0.00     0.143 HD
ATOM     30  H   LIG d   1       4.451  -2.991  -5.992  0.00  0.00     0.143 HD
ENDBRANCH   5  28
TORSDOF 5
ENDMDL
MODEL 10
REMARK VINA RESULT:      -4.0      2.437      3.454
REMARK  5 active torsions:
REMARK  status: ('A' for Active; 'I' for Inactive)
REMARK    1  A    between atoms: C_1  and  C_2 
REMARK    2  A    between atoms: C_2  and  O_3 
REMARK    3  A    between atoms: O_3  and  C_4 
REMARK    4  A    between atoms: C_4  and  C_6 
REMARK    5  A    between atoms: C_10  and  N_11 
ROOT
ATOM      1  C   LIG d   1       4.145  -0.725  -4.975  0.00  0.00     0.090 A 
ATOM      2  C   LIG d   1       5.551  -1.094  -4.982  0.00  0.00    -0.021 A 
ATOM      3  C   LIG d   1       5.963  -1.723  -3.862  0.00  0.00    -0.004 A 
ATOM      4  S   LIG d   1       4.521  -1.813  -2.841  0.00  0.00    -0.078 SA
ATOM      5  C   LIG d   1       3.411  -1.049  -3.842  0.00  0.00     0.077 A 
ATOM      6  C   LIG d   1       7.342  -2.226  -3.568  0.00  0.00    -0.021 C 
ATOM      7  C   LIG d   1       8.135  -2.259  -4.883  0.00  0.00    -0.048 C 
ATOM      8  C   LIG d   1       7.945  -0.924  -5.609  0.00  0.00    -0.049 C 
ATOM      9  C   LIG d   1       6.510  -0.814  -6.130  0.00  0.00    -0.026 C 
ATOM     10  H   LIG d   1       7.834  -1.559  -2.860  0.00  0.00     0.032 H 
ATOM     11  H   LIG d   1       7.285  -3.230  -3.148  0.00  0.00     0.032 H 
ATOM     12  H   LIG d   1       9.193  -2.411  -4.669  0.00  0.00     0.027 H 
ATOM     13  H   LIG d   1       7.767  -3.071  -5.510  0.00  0.00     0.027 H 
ATOM     14  H   LIG d   1       8.143  -0.105  -4.918  0.00  0.00     0.027 H 
ATOM     15  H   LIG d   1       8.640  -0.865  -6.447  0.00  0.00     0.027 H 
ATOM     16  H   LIG d   1       6.353  -1.545  -6.924  0.00  0.00     0.031 H 
ATOM     17  H   LIG d   1       6.337   0.190  -6.515  0.00  0.00     0.031 H 
ENDROOT
BRANCH   1  18
ATOM     18  C   LIG d   1       3.531  -0.036  -6.110  0.00  0.00     0.342 C 
ATOM     19  O   LIG d   1       3.034   1.063  -5.958  0.00  0.00    -0.245 OA
BRANCH  18  20
ATOM     20  O   LIG d   1       3.516  -0.621  -7.326  0.00  0.00    -0.461 OA
BRANCH  20  21
ATOM     21  C   LIG d   1       2.415  -0.310  -8.182  0.00  0.00     0.090 C 
ATOM     22  H   LIG d   1       1.677   0.271  -7.628  0.00  0.00     0.070 H 
ATOM     23  H   LIG d   1       1.958  -1.233  -8.536  0.00  0.00     0.070 H 
BRANCH  21  24
ATOM     24  C   LIG d   1       2.912   0.504  -9.378  0.00  0.00    -0.031 C 
ATOM     25  H   LIG d   1       3.722   1.161  -9.058  0.00  0.00     0.026 H 
ATOM     26  H   LIG d   1       3.276  -0.171 -10.152  0.00  0.00     0.026 H 
ATOM     27  H   LIG d   1       2.093   1.104  -9.774  0.00  0.00     0.026 H 
ENDBRANCH  21  24
ENDBRANCH  20  21
ENDBRANCH  18  20
ENDBRANCH   1  18
BRANCH   5  28
ATOM     28  N   LIG d   1       2.074  -0.802  -3.596  0.00  0.00    -0.352 N 
ATOM     29  H   LIG d   1       1.398  -1.398  -3.953  0.00  0.00     0.143 HD
ATOM     30  H   LIG d   1       1.812  -0.033  -3.066  0.00  0.00     0.143 HD
ENDBRANCH   5  28
TORSDOF 5
ENDMDL
