MODEL 1
REMARK VINA RESULT:      -5.6      0.000      0.000
REMARK  6 active torsions:
REMARK  status: ('A' for Active; 'I' for Inactive)
REMARK    1  A    between atoms: C_1  and  C_2 
REMARK    2  A    between atoms: C_2  and  C_22 
REMARK    3  A    between atoms: C_6  and  C_21 
REMARK    4  A    between atoms: C_17  and  C_19 
REMARK    5  A    between atoms: C_17  and  C_20 
REMARK    6  A    between atoms: C_21  and  N_39 
ROOT
ATOM      1  C   LIG d   1       5.183   0.243  -3.292  0.00  0.00     0.166 C 
ATOM      2  O   LIG d   1       5.800  -1.010  -3.686  0.00  0.00    -0.341 OA
ATOM      3  C   LIG d   1       5.552  -1.049  -5.086  0.00  0.00     0.122 C 
ATOM      4  H   LIG d   1       6.195  -0.335  -5.604  0.00  0.00     0.065 H 
ATOM      5  C   LIG d   1       5.627  -2.393  -5.777  0.00  0.00     0.130 C 
ATOM      6  H   LIG d   1       6.643  -2.784  -5.727  0.00  0.00     0.068 H 
ATOM      7  O   LIG d   1       5.248  -2.161  -7.165  0.00  0.00    -0.337 OA
ATOM      8  C   LIG d   1       4.971  -0.797  -7.382  0.00  0.00     0.192 C 
ATOM      9  H   LIG d   1       5.823  -0.223  -7.016  0.00  0.00     0.094 H 
ATOM     10  C   LIG d   1       3.718  -0.370  -6.561  0.00  0.00     0.141 C 
ATOM     11  H   LIG d   1       2.867  -0.996  -6.826  0.00  0.00     0.068 H 
ATOM     12  C   LIG d   1       4.076  -0.549  -5.123  0.00  0.00     0.122 C 
ATOM     13  H   LIG d   1       3.432  -1.311  -4.684  0.00  0.00     0.065 H 
ATOM     14  O   LIG d   1       4.144   0.564  -4.248  0.00  0.00    -0.341 OA
ATOM     15  O   LIG d   1       3.528   0.953  -7.064  0.00  0.00    -0.338 OA
ATOM     16  C   LIG d   1       3.788   0.812  -8.484  0.00  0.00     0.168 C 
ATOM     17  O   LIG d   1       4.652  -0.332  -8.681  0.00  0.00    -0.318 OA
ENDROOT
BRANCH   1  18
ATOM     18  C   LIG d   1       6.236   1.355  -3.284  0.00  0.00    -0.011 C 
ATOM     19  H   LIG d   1       6.745   1.365  -2.319  0.00  0.00     0.028 H 
ATOM     20  H   LIG d   1       6.963   1.172  -4.076  0.00  0.00     0.028 H 
ATOM     21  H   LIG d   1       5.751   2.316  -3.449  0.00  0.00     0.028 H 
ENDBRANCH   1  18
BRANCH   1  22
ATOM     22  C   LIG d   1       4.574   0.103  -1.896  0.00  0.00    -0.011 C 
ATOM     23  H   LIG d   1       3.766   0.825  -1.779  0.00  0.00     0.028 H 
ATOM     24  H   LIG d   1       4.181  -0.906  -1.771  0.00  0.00     0.028 H 
ATOM     25  H   LIG d   1       5.341   0.290  -1.145  0.00  0.00     0.028 H 
ENDBRANCH   1  22
BRANCH   5  26
ATOM     26  C   LIG d   1       4.654  -3.376  -5.122  0.00  0.00    -0.006 C 
ATOM     27  H   LIG d   1       5.213  -4.099  -4.529  0.00  0.00     0.084 H 
ATOM     28  H   LIG d   1       3.967  -2.831  -4.476  0.00  0.00     0.084 H 
BRANCH  26  29
ATOM     29  N   LIG d   1       3.913  -4.091  -6.175  0.00  0.00     0.220 N 
ATOM     30  H   LIG d   1       3.922  -5.093  -5.990  0.00  0.00     0.200 HD
ATOM     31  H   LIG d   1       2.950  -3.762  -6.210  0.00  0.00     0.200 HD
ATOM     32  H   LIG d   1       4.360  -3.914  -7.083  0.00  0.00     0.200 HD
ENDBRANCH  26  29
ENDBRANCH   5  26
BRANCH  16  33
ATOM     33  C   LIG d   1       2.469   0.597  -9.230  0.00  0.00    -0.011 C 
ATOM     34  H   LIG d   1       2.670   0.135 -10.196  0.00  0.00     0.028 H 
ATOM     35  H   LIG d   1       1.821  -0.053  -8.643  0.00  0.00     0.028 H 
ATOM     36  H   LIG d   1       1.977   1.559  -9.382  0.00  0.00     0.028 H 
ENDBRANCH  16  33
BRANCH  16  37
ATOM     37  C   LIG d   1       4.475   2.074  -9.010  0.00  0.00    -0.011 C 
ATOM     38  H   LIG d   1       5.420   1.804  -9.481  0.00  0.00     0.028 H 
ATOM     39  H   LIG d   1       3.830   2.561  -9.741  0.00  0.00     0.028 H 
ATOM     40  H   LIG d   1       4.665   2.757  -8.180  0.00  0.00     0.028 H 
ENDBRANCH  16  37
TORSDOF 6
ENDMDL
MODEL 2
REMARK VINA RESULT:      -5.0      3.006      4.280
REMARK  6 active torsions:
REMARK  status: ('A' for Active; 'I' for Inactive)
REMARK    1  A    between atoms: C_1  and  C_2 
REMARK    2  A    between atoms: C_2  and  C_22 
REMARK    3  A    between atoms: C_6  and  C_21 
REMARK    4  A    between atoms: C_17  and  C_19 
REMARK    5  A    between atoms: C_17  and  C_20 
REMARK    6  A    between atoms: C_21  and  N_39 
ROOT
ATOM      1  C   LIG d   1       3.684  -0.011  -3.849  0.00  0.00     0.166 C 
ATOM      2  O   LIG d   1       4.949   0.447  -4.395  0.00  0.00    -0.341 OA
ATOM      3  C   LIG d   1       5.415  -0.702  -5.093  0.00  0.00     0.122 C 
ATOM      4  H   LIG d   1       4.840  -0.847  -6.009  0.00  0.00     0.065 H 
ATOM      5  C   LIG d   1       6.893  -0.783  -5.406  0.00  0.00     0.130 C 
ATOM      6  H   LIG d   1       7.177   0.016  -6.092  0.00  0.00     0.068 H 
ATOM      7  O   LIG d   1       7.107  -2.080  -6.035  0.00  0.00    -0.337 OA
ATOM      8  C   LIG d   1       5.892  -2.782  -6.150  0.00  0.00     0.192 C 
ATOM      9  H   LIG d   1       5.175  -2.125  -6.642  0.00  0.00     0.094 H 
ATOM     10  C   LIG d   1       5.336  -3.123  -4.735  0.00  0.00     0.141 C 
ATOM     11  H   LIG d   1       6.074  -3.695  -4.172  0.00  0.00     0.068 H 
ATOM     12  C   LIG d   1       5.059  -1.818  -4.066  0.00  0.00     0.122 C 
ATOM     13  H   LIG d   1       5.704  -1.718  -3.193  0.00  0.00     0.065 H 
ATOM     14  O   LIG d   1       3.736  -1.451  -3.714  0.00  0.00    -0.341 OA
ATOM     15  O   LIG d   1       4.237  -3.962  -5.093  0.00  0.00    -0.338 OA
ATOM     16  C   LIG d   1       4.769  -4.768  -6.175  0.00  0.00     0.168 C 
ATOM     17  O   LIG d   1       5.853  -4.040  -6.799  0.00  0.00    -0.318 OA
ENDROOT
BRANCH   1  18
ATOM     18  C   LIG d   1       2.545   0.377  -4.795  0.00  0.00    -0.011 C 
ATOM     19  H   LIG d   1       2.926   0.440  -5.815  0.00  0.00     0.028 H 
ATOM     20  H   LIG d   1       1.759  -0.377  -4.746  0.00  0.00     0.028 H 
ATOM     21  H   LIG d   1       2.141   1.344  -4.498  0.00  0.00     0.028 H 
ENDBRANCH   1  18
BRANCH   1  22
ATOM     22  C   LIG d   1       3.453   0.628  -2.478  0.00  0.00    -0.011 C 
ATOM     23  H   LIG d   1       4.267   0.352  -1.808  0.00  0.00     0.028 H 
ATOM     24  H   LIG d   1       3.421   1.713  -2.584  0.00  0.00     0.028 H 
ATOM     25  H   LIG d   1       2.508   0.275  -2.068  0.00  0.00     0.028 H 
ENDBRANCH   1  22
BRANCH   5  26
ATOM     26  C   LIG d   1       7.710  -0.681  -4.116  0.00  0.00    -0.006 C 
ATOM     27  H   LIG d   1       7.163  -1.153  -3.301  0.00  0.00     0.084 H 
ATOM     28  H   LIG d   1       8.667  -1.186  -4.251  0.00  0.00     0.084 H 
BRANCH  26  29
ATOM     29  N   LIG d   1       7.920   0.741  -3.792  0.00  0.00     0.220 N 
ATOM     30  H   LIG d   1       8.796   1.065  -4.199  0.00  0.00     0.200 HD
ATOM     31  H   LIG d   1       7.150   1.300  -4.154  0.00  0.00     0.200 HD
ATOM     32  H   LIG d   1       7.965   0.852  -2.772  0.00  0.00     0.200 HD
ENDBRANCH  26  29
ENDBRANCH   5  26
BRANCH  16  33
ATOM     33  C   LIG d   1       5.291  -6.096  -5.621  0.00  0.00    -0.011 C 
ATOM     34  H   LIG d   1       6.253  -5.933  -5.136  0.00  0.00     0.028 H 
ATOM     35  H   LIG d   1       4.580  -6.491  -4.895  0.00  0.00     0.028 H 
ATOM     36  H   LIG d   1       5.411  -6.808  -6.438  0.00  0.00     0.028 H 
ENDBRANCH  16  33
BRANCH  16  37
ATOM     37  C   LIG d   1       3.670  -5.038  -7.205  0.00  0.00    -0.011 C 
ATOM     38  H   LIG d   1       2.694  -4.892  -6.741  0.00  0.00     0.028 H 
ATOM     39  H   LIG d   1       3.780  -4.351  -8.043  0.00  0.00     0.028 H 
ATOM     40  H   LIG d   1       3.752  -6.065  -7.562  0.00  0.00     0.028 H 
ENDBRANCH  16  37
TORSDOF 6
ENDMDL
MODEL 3
REMARK VINA RESULT:      -5.0      2.767      3.542
REMARK  6 active torsions:
REMARK  status: ('A' for Active; 'I' for Inactive)
REMARK    1  A    between atoms: C_1  and  C_2 
REMARK    2  A    between atoms: C_2  and  C_22 
REMARK    3  A    between atoms: C_6  and  C_21 
REMARK    4  A    between atoms: C_17  and  C_19 
REMARK    5  A    between atoms: C_17  and  C_20 
REMARK    6  A    between atoms: C_21  and  N_39 
ROOT
ATOM      1  C   LIG d   1       4.108  -0.300  -3.100  0.00  0.00     0.166 C 
ATOM      2  O   LIG d   1       4.693  -1.628  -3.079  0.00  0.00    -0.341 OA
ATOM      3  C   LIG d   1       5.937  -1.427  -3.739  0.00  0.00     0.122 C 
ATOM      4  H   LIG d   1       6.628  -0.891  -3.088  0.00  0.00     0.065 H 
ATOM      5  C   LIG d   1       6.627  -2.640  -4.323  0.00  0.00     0.130 C 
ATOM      6  H   LIG d   1       6.915  -3.328  -3.528  0.00  0.00     0.068 H 
ATOM      7  O   LIG d   1       7.815  -2.144  -5.008  0.00  0.00    -0.337 OA
ATOM      8  C   LIG d   1       7.917  -0.745  -4.874  0.00  0.00     0.192 C 
ATOM      9  H   LIG d   1       7.842  -0.508  -3.812  0.00  0.00     0.094 H 
ATOM     10  C   LIG d   1       6.729  -0.051  -5.604  0.00  0.00     0.141 C 
ATOM     11  H   LIG d   1       6.710  -0.350  -6.652  0.00  0.00     0.068 H 
ATOM     12  C   LIG d   1       5.487  -0.496  -4.906  0.00  0.00     0.122 C 
ATOM     13  H   LIG d   1       4.871  -1.068  -5.600  0.00  0.00     0.065 H 
ATOM     14  O   LIG d   1       4.672   0.433  -4.214  0.00  0.00    -0.341 OA
ATOM     15  O   LIG d   1       7.130   1.315  -5.493  0.00  0.00    -0.338 OA
ATOM     16  C   LIG d   1       8.559   1.266  -5.738  0.00  0.00     0.168 C 
ATOM     17  O   LIG d   1       9.037  -0.058  -5.401  0.00  0.00    -0.318 OA
ENDROOT
BRANCH   1  18
ATOM     18  C   LIG d   1       4.432   0.425  -1.790  0.00  0.00    -0.011 C 
ATOM     19  H   LIG d   1       5.470   0.233  -1.517  0.00  0.00     0.028 H 
ATOM     20  H   LIG d   1       4.282   1.497  -1.922  0.00  0.00     0.028 H 
ATOM     21  H   LIG d   1       3.775   0.059  -1.002  0.00  0.00     0.028 H 
ENDBRANCH   1  18
BRANCH   1  22
ATOM     22  C   LIG d   1       2.591  -0.406  -3.266  0.00  0.00    -0.011 C 
ATOM     23  H   LIG d   1       2.359  -0.707  -4.287  0.00  0.00     0.028 H 
ATOM     24  H   LIG d   1       2.201  -1.149  -2.571  0.00  0.00     0.028 H 
ATOM     25  H   LIG d   1       2.135   0.561  -3.059  0.00  0.00     0.028 H 
ENDBRANCH   1  22
BRANCH   5  26
ATOM     26  C   LIG d   1       5.702  -3.345  -5.318  0.00  0.00    -0.006 C 
ATOM     27  H   LIG d   1       5.275  -2.610  -5.999  0.00  0.00     0.084 H 
ATOM     28  H   LIG d   1       6.272  -4.080  -5.886  0.00  0.00     0.084 H 
BRANCH  26  29
ATOM     29  N   LIG d   1       4.611  -4.000  -4.576  0.00  0.00     0.220 N 
ATOM     30  H   LIG d   1       3.710  -3.709  -4.952  0.00  0.00     0.200 HD
ATOM     31  H   LIG d   1       4.697  -5.012  -4.648  0.00  0.00     0.200 HD
ATOM     32  H   LIG d   1       4.664  -3.729  -3.587  0.00  0.00     0.200 HD
ENDBRANCH  26  29
ENDBRANCH   5  26
BRANCH  16  33
ATOM     33  C   LIG d   1       8.838   1.555  -7.215  0.00  0.00    -0.011 C 
ATOM     34  H   LIG d   1       8.054   2.198  -7.613  0.00  0.00     0.028 H 
ATOM     35  H   LIG d   1       9.803   2.054  -7.312  0.00  0.00     0.028 H 
ATOM     36  H   LIG d   1       8.857   0.617  -7.771  0.00  0.00     0.028 H 
ENDBRANCH  16  33
BRANCH  16  37
ATOM     37  C   LIG d   1       9.267   2.307  -4.869  0.00  0.00    -0.011 C 
ATOM     38  H   LIG d   1       9.107   3.300  -5.288  0.00  0.00     0.028 H 
ATOM     39  H   LIG d   1       8.864   2.271  -3.857  0.00  0.00     0.028 H 
ATOM     40  H   LIG d   1      10.336   2.091  -4.842  0.00  0.00     0.028 H 
ENDBRANCH  16  37
TORSDOF 6
ENDMDL
MODEL 4
REMARK VINA RESULT:      -4.9      1.939      3.676
REMARK  6 active torsions:
REMARK  status: ('A' for Active; 'I' for Inactive)
REMARK    1  A    between atoms: C_1  and  C_2 
REMARK    2  A    between atoms: C_2  and  C_22 
REMARK    3  A    between atoms: C_6  and  C_21 
REMARK    4  A    between atoms: C_17  and  C_19 
REMARK    5  A    between atoms: C_17  and  C_20 
REMARK    6  A    between atoms: C_21  and  N_39 
ROOT
ATOM      1  C   LIG d   1       5.859  -3.646  -5.216  0.00  0.00     0.166 C 
ATOM      2  O   LIG d   1       5.491  -2.914  -4.017  0.00  0.00    -0.341 OA
ATOM      3  C   LIG d   1       4.780  -1.800  -4.544  0.00  0.00     0.122 C 
ATOM      4  H   LIG d   1       3.797  -2.113  -4.900  0.00  0.00     0.065 H 
ATOM      5  C   LIG d   1       4.634  -0.578  -3.663  0.00  0.00     0.130 C 
ATOM      6  H   LIG d   1       4.037  -0.818  -2.783  0.00  0.00     0.068 H 
ATOM      7  O   LIG d   1       3.954   0.428  -4.469  0.00  0.00    -0.337 OA
ATOM      8  C   LIG d   1       3.656  -0.080  -5.749  0.00  0.00     0.192 C 
ATOM      9  H   LIG d   1       3.127  -1.024  -5.615  0.00  0.00     0.094 H 
ATOM     10  C   LIG d   1       4.973  -0.374  -6.526  0.00  0.00     0.141 C 
ATOM     11  H   LIG d   1       5.580   0.529  -6.588  0.00  0.00     0.068 H 
ATOM     12  C   LIG d   1       5.687  -1.436  -5.758  0.00  0.00     0.122 C 
ATOM     13  H   LIG d   1       6.632  -1.039  -5.389  0.00  0.00     0.065 H 
ATOM     14  O   LIG d   1       5.908  -2.717  -6.325  0.00  0.00    -0.341 OA
ATOM     15  O   LIG d   1       4.439  -0.694  -7.812  0.00  0.00    -0.338 OA
ATOM     16  C   LIG d   1       3.377   0.278  -7.984  0.00  0.00     0.168 C 
ATOM     17  O   LIG d   1       2.928   0.705  -6.676  0.00  0.00    -0.318 OA
ENDROOT
BRANCH   1  18
ATOM     18  C   LIG d   1       4.814  -4.729  -5.497  0.00  0.00    -0.011 C 
ATOM     19  H   LIG d   1       4.605  -5.278  -4.578  0.00  0.00     0.028 H 
ATOM     20  H   LIG d   1       3.897  -4.264  -5.860  0.00  0.00     0.028 H 
ATOM     21  H   LIG d   1       5.198  -5.416  -6.251  0.00  0.00     0.028 H 
ENDBRANCH   1  18
BRANCH   1  22
ATOM     22  C   LIG d   1       7.231  -4.293  -5.024  0.00  0.00    -0.011 C 
ATOM     23  H   LIG d   1       7.186  -5.337  -5.333  0.00  0.00     0.028 H 
ATOM     24  H   LIG d   1       7.969  -3.767  -5.631  0.00  0.00     0.028 H 
ATOM     25  H   LIG d   1       7.516  -4.235  -3.974  0.00  0.00     0.028 H 
ENDBRANCH   1  22
BRANCH   5  26
ATOM     26  C   LIG d   1       6.014  -0.068  -3.238  0.00  0.00    -0.006 C 
ATOM     27  H   LIG d   1       6.185  -0.315  -2.191  0.00  0.00     0.084 H 
ATOM     28  H   LIG d   1       6.780  -0.541  -3.852  0.00  0.00     0.084 H 
BRANCH  26  29
ATOM     29  N   LIG d   1       6.055   1.395  -3.398  0.00  0.00     0.220 N 
ATOM     30  H   LIG d   1       5.800   1.849  -2.522  0.00  0.00     0.200 HD
ATOM     31  H   LIG d   1       6.989   1.691  -3.674  0.00  0.00     0.200 HD
ATOM     32  H   LIG d   1       5.386   1.674  -4.127  0.00  0.00     0.200 HD
ENDBRANCH  26  29
ENDBRANCH   5  26
BRANCH  16  33
ATOM     33  C   LIG d   1       3.903   1.483  -8.768  0.00  0.00    -0.011 C 
ATOM     34  H   LIG d   1       4.346   2.200  -8.077  0.00  0.00     0.028 H 
ATOM     35  H   LIG d   1       4.657   1.152  -9.481  0.00  0.00     0.028 H 
ATOM     36  H   LIG d   1       3.078   1.955  -9.303  0.00  0.00     0.028 H 
ENDBRANCH  16  33
BRANCH  16  37
ATOM     37  C   LIG d   1       2.213  -0.360  -8.745  0.00  0.00    -0.011 C 
ATOM     38  H   LIG d   1       2.286  -1.446  -8.676  0.00  0.00     0.028 H 
ATOM     39  H   LIG d   1       1.270  -0.032  -8.309  0.00  0.00     0.028 H 
ATOM     40  H   LIG d   1       2.255  -0.059  -9.792  0.00  0.00     0.028 H 
ENDBRANCH  16  37
TORSDOF 6
ENDMDL
MODEL 5
REMARK VINA RESULT:      -4.7      1.741      4.780
REMARK  6 active torsions:
REMARK  status: ('A' for Active; 'I' for Inactive)
REMARK    1  A    between atoms: C_1  and  C_2 
REMARK    2  A    between atoms: C_2  and  C_22 
REMARK    3  A    between atoms: C_6  and  C_21 
REMARK    4  A    between atoms: C_17  and  C_19 
REMARK    5  A    between atoms: C_17  and  C_20 
REMARK    6  A    between atoms: C_21  and  N_39 
ROOT
ATOM      1  C   LIG d   1       3.960   0.495  -8.926  0.00  0.00     0.166 C 
ATOM      2  O   LIG d   1       4.467  -0.842  -9.176  0.00  0.00    -0.341 OA
ATOM      3  C   LIG d   1       4.562  -1.384  -7.864  0.00  0.00     0.122 C 
ATOM      4  H   LIG d   1       3.569  -1.613  -7.476  0.00  0.00     0.065 H 
ATOM      5  C   LIG d   1       5.474  -2.575  -7.661  0.00  0.00     0.130 C 
ATOM      6  H   LIG d   1       5.102  -3.433  -8.221  0.00  0.00     0.068 H 
ATOM      7  O   LIG d   1       5.453  -2.865  -6.232  0.00  0.00    -0.337 OA
ATOM      8  C   LIG d   1       4.598  -1.973  -5.557  0.00  0.00     0.192 C 
ATOM      9  H   LIG d   1       3.632  -1.992  -6.063  0.00  0.00     0.094 H 
ATOM     10  C   LIG d   1       5.159  -0.522  -5.650  0.00  0.00     0.141 C 
ATOM     11  H   LIG d   1       6.170  -0.487  -5.246  0.00  0.00     0.068 H 
ATOM     12  C   LIG d   1       5.157  -0.163  -7.099  0.00  0.00     0.122 C 
ATOM     13  H   LIG d   1       6.182   0.000  -7.430  0.00  0.00     0.065 H 
ATOM     14  O   LIG d   1       4.337   0.887  -7.584  0.00  0.00    -0.341 OA
ATOM     15  O   LIG d   1       4.257   0.152  -4.771  0.00  0.00    -0.338 OA
ATOM     16  C   LIG d   1       4.094  -0.784  -3.676  0.00  0.00     0.168 C 
ATOM     17  O   LIG d   1       4.369  -2.118  -4.167  0.00  0.00    -0.318 OA
ENDROOT
BRANCH   1  18
ATOM     18  C   LIG d   1       2.434   0.499  -9.054  0.00  0.00    -0.011 C 
ATOM     19  H   LIG d   1       2.088   1.516  -9.242  0.00  0.00     0.028 H 
ATOM     20  H   LIG d   1       2.138  -0.145  -9.882  0.00  0.00     0.028 H 
ATOM     21  H   LIG d   1       1.992   0.130  -8.129  0.00  0.00     0.028 H 
ENDBRANCH   1  18
BRANCH   1  22
ATOM     22  C   LIG d   1       4.562   1.473  -9.937  0.00  0.00    -0.011 C 
ATOM     23  H   LIG d   1       5.204   0.929 -10.629  0.00  0.00     0.028 H 
ATOM     24  H   LIG d   1       3.760   1.961 -10.492  0.00  0.00     0.028 H 
ATOM     25  H   LIG d   1       5.148   2.224  -9.410  0.00  0.00     0.028 H 
ENDBRANCH   1  22
BRANCH   5  26
ATOM     26  C   LIG d   1       6.896  -2.232  -8.109  0.00  0.00    -0.006 C 
ATOM     27  H   LIG d   1       7.130  -1.208  -7.821  0.00  0.00     0.084 H 
ATOM     28  H   LIG d   1       7.601  -2.913  -7.632  0.00  0.00     0.084 H 
BRANCH  26  29
ATOM     29  N   LIG d   1       6.979  -2.349  -9.575  0.00  0.00     0.220 N 
ATOM     30  H   LIG d   1       7.827  -1.897  -9.913  0.00  0.00     0.200 HD
ATOM     31  H   LIG d   1       6.986  -3.330  -9.848  0.00  0.00     0.200 HD
ATOM     32  H   LIG d   1       6.163  -1.890  -9.997  0.00  0.00     0.200 HD
ENDBRANCH  26  29
ENDBRANCH   5  26
BRANCH  16  33
ATOM     33  C   LIG d   1       5.072  -0.436  -2.551  0.00  0.00    -0.011 C 
ATOM     34  H   LIG d   1       5.874   0.186  -2.947  0.00  0.00     0.028 H 
ATOM     35  H   LIG d   1       4.544   0.106  -1.766  0.00  0.00     0.028 H 
ATOM     36  H   LIG d   1       5.492  -1.354  -2.139  0.00  0.00     0.028 H 
ENDBRANCH  16  33
BRANCH  16  37
ATOM     37  C   LIG d   1       2.659  -0.716  -3.148  0.00  0.00    -0.011 C 
ATOM     38  H   LIG d   1       2.653  -0.223  -2.176  0.00  0.00     0.028 H 
ATOM     39  H   LIG d   1       2.042  -0.149  -3.846  0.00  0.00     0.028 H 
ATOM     40  H   LIG d   1       2.261  -1.726  -3.047  0.00  0.00     0.028 H 
ENDBRANCH  16  37
TORSDOF 6
ENDMDL
MODEL 6
REMARK VINA RESULT:      -4.7      2.150      4.488
REMARK  6 active torsions:
REMARK  status: ('A' for Active; 'I' for Inactive)
REMARK    1  A    between atoms: C_1  and  C_2 
REMARK    2  A    between atoms: C_2  and  C_22 
REMARK    3  A    between atoms: C_6  and  C_21 
REMARK    4  A    between atoms: C_17  and  C_19 
REMARK    5  A    between atoms: C_17  and  C_20 
REMARK    6  A    between atoms: C_21  and  N_39 
ROOT
ATOM      1  C   LIG d   1       6.937   0.021  -7.754  0.00  0.00     0.166 C 
ATOM      2  O   LIG d   1       5.798   0.103  -8.651  0.00  0.00    -0.341 OA
ATOM      3  C   LIG d   1       4.701   0.176  -7.749  0.00  0.00     0.122 C 
ATOM      4  H   LIG d   1       4.661   1.160  -7.280  0.00  0.00     0.065 H 
ATOM      5  C   LIG d   1       3.331  -0.190  -8.277  0.00  0.00     0.130 C 
ATOM      6  H   LIG d   1       3.024   0.518  -9.046  0.00  0.00     0.068 H 
ATOM      7  O   LIG d   1       2.422  -0.117  -7.139  0.00  0.00    -0.337 OA
ATOM      8  C   LIG d   1       3.112   0.280  -5.977  0.00  0.00     0.192 C 
ATOM      9  H   LIG d   1       3.660   1.193  -6.212  0.00  0.00     0.094 H 
ATOM     10  C   LIG d   1       4.151  -0.810  -5.575  0.00  0.00     0.141 C 
ATOM     11  H   LIG d   1       3.650  -1.768  -5.434  0.00  0.00     0.068 H 
ATOM     12  C   LIG d   1       5.133  -0.890  -6.696  0.00  0.00     0.122 C 
ATOM     13  H   LIG d   1       5.081  -1.879  -7.150  0.00  0.00     0.065 H 
ATOM     14  O   LIG d   1       6.492  -0.538  -6.496  0.00  0.00    -0.341 OA
ATOM     15  O   LIG d   1       4.582  -0.293  -4.316  0.00  0.00    -0.338 OA
ATOM     16  C   LIG d   1       3.353   0.184  -3.711  0.00  0.00     0.168 C 
ATOM     17  O   LIG d   1       2.409   0.487  -4.766  0.00  0.00    -0.318 OA
ENDROOT
BRANCH   1  18
ATOM     18  C   LIG d   1       7.509   1.422  -7.521  0.00  0.00    -0.011 C 
ATOM     19  H   LIG d   1       8.203   1.669  -8.326  0.00  0.00     0.028 H 
ATOM     20  H   LIG d   1       6.697   2.149  -7.505  0.00  0.00     0.028 H 
ATOM     21  H   LIG d   1       8.037   1.444  -6.568  0.00  0.00     0.028 H 
ENDBRANCH   1  18
BRANCH   1  22
ATOM     22  C   LIG d   1       8.013  -0.877  -8.367  0.00  0.00    -0.011 C 
ATOM     23  H   LIG d   1       8.997  -0.525  -8.060  0.00  0.00     0.028 H 
ATOM     24  H   LIG d   1       7.870  -1.902  -8.021  0.00  0.00     0.028 H 
ATOM     25  H   LIG d   1       7.937  -0.846  -9.453  0.00  0.00     0.028 H 
ENDBRANCH   1  22
BRANCH   5  26
ATOM     26  C   LIG d   1       3.349  -1.610  -8.847  0.00  0.00    -0.006 C 
ATOM     27  H   LIG d   1       3.983  -2.243  -8.226  0.00  0.00     0.084 H 
ATOM     28  H   LIG d   1       2.335  -2.010  -8.857  0.00  0.00     0.084 H 
BRANCH  26  29
ATOM     29  N   LIG d   1       3.901  -1.572 -10.212  0.00  0.00     0.220 N 
ATOM     30  H   LIG d   1       4.109  -2.518 -10.530  0.00  0.00     0.200 HD
ATOM     31  H   LIG d   1       3.233  -1.140 -10.848  0.00  0.00     0.200 HD
ATOM     32  H   LIG d   1       4.767  -1.021 -10.211  0.00  0.00     0.200 HD
ENDBRANCH  26  29
ENDBRANCH   5  26
BRANCH  16  33
ATOM     33  C   LIG d   1       2.775  -0.899  -2.797  0.00  0.00    -0.011 C 
ATOM     34  H   LIG d   1       3.325  -0.911  -1.856  0.00  0.00     0.028 H 
ATOM     35  H   LIG d   1       1.724  -0.687  -2.601  0.00  0.00     0.028 H 
ATOM     36  H   LIG d   1       2.865  -1.871  -3.283  0.00  0.00     0.028 H 
ENDBRANCH  16  33
BRANCH  16  37
ATOM     37  C   LIG d   1       3.637   1.447  -2.895  0.00  0.00    -0.011 C 
ATOM     38  H   LIG d   1       4.699   1.493  -2.654  0.00  0.00     0.028 H 
ATOM     39  H   LIG d   1       3.358   2.326  -3.476  0.00  0.00     0.028 H 
ATOM     40  H   LIG d   1       3.055   1.421  -1.973  0.00  0.00     0.028 H 
ENDBRANCH  16  37
TORSDOF 6
ENDMDL
MODEL 7
REMARK VINA RESULT:      -4.7      2.369      4.927
REMARK  6 active torsions:
REMARK  status: ('A' for Active; 'I' for Inactive)
REMARK    1  A    between atoms: C_1  and  C_2 
REMARK    2  A    between atoms: C_2  and  C_22 
REMARK    3  A    between atoms: C_6  and  C_21 
REMARK    4  A    between atoms: C_17  and  C_19 
REMARK    5  A    between atoms: C_17  and  C_20 
REMARK    6  A    between atoms: C_21  and  N_39 
ROOT
ATOM      1  C   LIG d   1       6.036  -0.440  -7.964  0.00  0.00     0.166 C 
ATOM      2  O   LIG d   1       6.846  -1.565  -7.535  0.00  0.00    -0.341 OA
ATOM      3  C   LIG d   1       6.500  -1.686  -6.160  0.00  0.00     0.122 C 
ATOM      4  H   LIG d   1       5.499  -2.106  -6.058  0.00  0.00     0.065 H 
ATOM      5  C   LIG d   1       7.459  -2.431  -5.257  0.00  0.00     0.130 C 
ATOM      6  H   LIG d   1       7.520  -3.478  -5.556  0.00  0.00     0.068 H 
ATOM      7  O   LIG d   1       6.913  -2.328  -3.909  0.00  0.00    -0.337 OA
ATOM      8  C   LIG d   1       5.703  -1.607  -3.917  0.00  0.00     0.192 C 
ATOM      9  H   LIG d   1       5.052  -2.062  -4.664  0.00  0.00     0.094 H 
ATOM     10  C   LIG d   1       5.965  -0.132  -4.344  0.00  0.00     0.141 C 
ATOM     11  H   LIG d   1       6.696   0.325  -3.678  0.00  0.00     0.068 H 
ATOM     12  C   LIG d   1       6.485  -0.184  -5.742  0.00  0.00     0.122 C 
ATOM     13  H   LIG d   1       7.504   0.201  -5.761  0.00  0.00     0.065 H 
ATOM     14  O   LIG d   1       5.750   0.388  -6.811  0.00  0.00    -0.341 OA
ATOM     15  O   LIG d   1       4.672   0.429  -4.110  0.00  0.00    -0.338 OA
ATOM     16  C   LIG d   1       4.259  -0.189  -2.865  0.00  0.00     0.168 C 
ATOM     17  O   LIG d   1       4.960  -1.448  -2.722  0.00  0.00    -0.318 OA
ENDROOT
BRANCH   1  18
ATOM     18  C   LIG d   1       4.725  -0.951  -8.568  0.00  0.00    -0.011 C 
ATOM     19  H   LIG d   1       4.128  -0.104  -8.908  0.00  0.00     0.028 H 
ATOM     20  H   LIG d   1       4.945  -1.603  -9.414  0.00  0.00     0.028 H 
ATOM     21  H   LIG d   1       4.170  -1.507  -7.814  0.00  0.00     0.028 H 
ENDBRANCH   1  18
BRANCH   1  22
ATOM     22  C   LIG d   1       6.798   0.377  -9.009  0.00  0.00    -0.011 C 
ATOM     23  H   LIG d   1       7.590   0.943  -8.519  0.00  0.00     0.028 H 
ATOM     24  H   LIG d   1       7.236  -0.296  -9.747  0.00  0.00     0.028 H 
ATOM     25  H   LIG d   1       6.113   1.063  -9.504  0.00  0.00     0.028 H 
ENDBRANCH   1  22
BRANCH   5  26
ATOM     26  C   LIG d   1       8.846  -1.787  -5.315  0.00  0.00    -0.006 C 
ATOM     27  H   LIG d   1       9.321  -2.034  -6.264  0.00  0.00     0.084 H 
ATOM     28  H   LIG d   1       8.747  -0.705  -5.229  0.00  0.00     0.084 H 
BRANCH  26  29
ATOM     29  N   LIG d   1       9.668  -2.319  -4.214  0.00  0.00     0.220 N 
ATOM     30  H   LIG d   1      10.213  -1.568  -3.793  0.00  0.00     0.200 HD
ATOM     31  H   LIG d   1       9.072  -2.744  -3.507  0.00  0.00     0.200 HD
ATOM     32  H   LIG d   1      10.309  -3.030  -4.585  0.00  0.00     0.200 HD
ENDBRANCH  26  29
ENDBRANCH   5  26
BRANCH  16  33
ATOM     33  C   LIG d   1       4.606   0.731  -1.692  0.00  0.00    -0.011 C 
ATOM     34  H   LIG d   1       4.212   1.728  -1.885  0.00  0.00     0.028 H 
ATOM     35  H   LIG d   1       4.165   0.336  -0.777  0.00  0.00     0.028 H 
ATOM     36  H   LIG d   1       5.690   0.782  -1.581  0.00  0.00     0.028 H 
ENDBRANCH  16  33
BRANCH  16  37
ATOM     37  C   LIG d   1       2.750  -0.441  -2.891  0.00  0.00    -0.011 C 
ATOM     38  H   LIG d   1       2.558  -1.474  -3.181  0.00  0.00     0.028 H 
ATOM     39  H   LIG d   1       2.334  -0.260  -1.899  0.00  0.00     0.028 H 
ATOM     40  H   LIG d   1       2.282   0.232  -3.610  0.00  0.00     0.028 H 
ENDBRANCH  16  37
TORSDOF 6
ENDMDL
MODEL 8
REMARK VINA RESULT:      -4.5      2.100      4.537
REMARK  6 active torsions:
REMARK  status: ('A' for Active; 'I' for Inactive)
REMARK    1  A    between atoms: C_1  and  C_2 
REMARK    2  A    between atoms: C_2  and  C_22 
REMARK    3  A    between atoms: C_6  and  C_21 
REMARK    4  A    between atoms: C_17  and  C_19 
REMARK    5  A    between atoms: C_17  and  C_20 
REMARK    6  A    between atoms: C_21  and  N_39 
ROOT
ATOM      1  C   LIG d   1       8.113   0.303  -6.822  0.00  0.00     0.166 C 
ATOM      2  O   LIG d   1       6.973   0.163  -7.710  0.00  0.00    -0.341 OA
ATOM      3  C   LIG d   1       5.896  -0.022  -6.800  0.00  0.00     0.122 C 
ATOM      4  H   LIG d   1       5.652   0.919  -6.305  0.00  0.00     0.065 H 
ATOM      5  C   LIG d   1       4.629  -0.658  -7.330  0.00  0.00     0.130 C 
ATOM      6  H   LIG d   1       4.170  -0.013  -8.079  0.00  0.00     0.068 H 
ATOM      7  O   LIG d   1       3.738  -0.809  -6.186  0.00  0.00    -0.337 OA
ATOM      8  C   LIG d   1       4.341  -0.304  -5.017  0.00  0.00     0.192 C 
ATOM      9  H   LIG d   1       4.679   0.711  -5.231  0.00  0.00     0.094 H 
ATOM     10  C   LIG d   1       5.591  -1.157  -4.651  0.00  0.00     0.141 C 
ATOM     11  H   LIG d   1       5.308  -2.203  -4.532  0.00  0.00     0.068 H 
ATOM     12  C   LIG d   1       6.556  -0.998  -5.779  0.00  0.00     0.122 C 
ATOM     13  H   LIG d   1       6.711  -1.963  -6.259  0.00  0.00     0.065 H 
ATOM     14  O   LIG d   1       7.811  -0.370  -5.576  0.00  0.00    -0.341 OA
ATOM     15  O   LIG d   1       5.917  -0.592  -3.380  0.00  0.00    -0.338 OA
ATOM     16  C   LIG d   1       4.622  -0.403  -2.756  0.00  0.00     0.168 C 
ATOM     17  O   LIG d   1       3.623  -0.282  -3.797  0.00  0.00    -0.318 OA
ENDROOT
BRANCH   1  18
ATOM     18  C   LIG d   1       8.377   1.787  -6.554  0.00  0.00    -0.011 C 
ATOM     19  H   LIG d   1       7.526   2.375  -6.899  0.00  0.00     0.028 H 
ATOM     20  H   LIG d   1       8.517   1.944  -5.484  0.00  0.00     0.028 H 
ATOM     21  H   LIG d   1       9.274   2.099  -7.088  0.00  0.00     0.028 H 
ENDBRANCH   1  18
BRANCH   1  22
ATOM     22  C   LIG d   1       9.348  -0.330  -7.464  0.00  0.00    -0.011 C 
ATOM     23  H   LIG d   1       9.273  -1.415  -7.403  0.00  0.00     0.028 H 
ATOM     24  H   LIG d   1       9.409  -0.028  -8.510  0.00  0.00     0.028 H 
ATOM     25  H   LIG d   1      10.242   0.003  -6.938  0.00  0.00     0.028 H 
ENDBRANCH   1  22
BRANCH   5  26
ATOM     26  C   LIG d   1       4.942  -2.027  -7.938  0.00  0.00    -0.006 C 
ATOM     27  H   LIG d   1       4.914  -1.956  -9.025  0.00  0.00     0.084 H 
ATOM     28  H   LIG d   1       5.935  -2.347  -7.621  0.00  0.00     0.084 H 
BRANCH  26  29
ATOM     29  N   LIG d   1       3.924  -2.994  -7.494  0.00  0.00     0.220 N 
ATOM     30  H   LIG d   1       3.349  -2.582  -6.761  0.00  0.00     0.200 HD
ATOM     31  H   LIG d   1       3.332  -3.264  -8.277  0.00  0.00     0.200 HD
ATOM     32  H   LIG d   1       4.391  -3.830  -7.123  0.00  0.00     0.200 HD
ENDBRANCH  26  29
ENDBRANCH   5  26
BRANCH  16  33
ATOM     33  C   LIG d   1       4.298  -1.607  -1.868  0.00  0.00    -0.011 C 
ATOM     34  H   LIG d   1       3.792  -1.266  -0.965  0.00  0.00     0.028 H 
ATOM     35  H   LIG d   1       3.649  -2.295  -2.411  0.00  0.00     0.028 H 
ATOM     36  H   LIG d   1       5.222  -2.117  -1.596  0.00  0.00     0.028 H 
ENDBRANCH  16  33
BRANCH  16  37
ATOM     37  C   LIG d   1       4.639   0.870  -1.908  0.00  0.00    -0.011 C 
ATOM     38  H   LIG d   1       3.693   1.399  -2.027  0.00  0.00     0.028 H 
ATOM     39  H   LIG d   1       4.778   0.607  -0.859  0.00  0.00     0.028 H 
ATOM     40  H   LIG d   1       5.458   1.512  -2.233  0.00  0.00     0.028 H 
ENDBRANCH  16  37
TORSDOF 6
ENDMDL
MODEL 9
REMARK VINA RESULT:      -4.5      2.929      4.099
REMARK  6 active torsions:
REMARK  status: ('A' for Active; 'I' for Inactive)
REMARK    1  A    between atoms: C_1  and  C_2 
REMARK    2  A    between atoms: C_2  and  C_22 
REMARK    3  A    between atoms: C_6  and  C_21 
REMARK    4  A    between atoms: C_17  and  C_19 
REMARK    5  A    between atoms: C_17  and  C_20 
REMARK    6  A    between atoms: C_21  and  N_39 
ROOT
ATOM      1  C   LIG d   1       8.630   1.078  -5.223  0.00  0.00     0.166 C 
ATOM      2  O   LIG d   1       8.862  -0.321  -5.535  0.00  0.00    -0.341 OA
ATOM      3  C   LIG d   1       7.575  -0.895  -5.342  0.00  0.00     0.122 C 
ATOM      4  H   LIG d   1       6.909  -0.613  -6.158  0.00  0.00     0.065 H 
ATOM      5  C   LIG d   1       7.499  -2.390  -5.119  0.00  0.00     0.130 C 
ATOM      6  H   LIG d   1       7.840  -2.921  -6.007  0.00  0.00     0.068 H 
ATOM      7  O   LIG d   1       6.096  -2.694  -4.864  0.00  0.00    -0.337 OA
ATOM      8  C   LIG d   1       5.314  -1.524  -4.933  0.00  0.00     0.192 C 
ATOM      9  H   LIG d   1       5.534  -1.035  -5.883  0.00  0.00     0.094 H 
ATOM     10  C   LIG d   1       5.714  -0.547  -3.788  0.00  0.00     0.141 C 
ATOM     11  H   LIG d   1       5.607  -1.040  -2.822  0.00  0.00     0.068 H 
ATOM     12  C   LIG d   1       7.138  -0.171  -4.033  0.00  0.00     0.122 C 
ATOM     13  H   LIG d   1       7.751  -0.528  -3.207  0.00  0.00     0.065 H 
ATOM     14  O   LIG d   1       7.493   1.169  -4.333  0.00  0.00    -0.341 OA
ATOM     15  O   LIG d   1       4.702   0.449  -3.944  0.00  0.00    -0.338 OA
ATOM     16  C   LIG d   1       3.508  -0.327  -4.219  0.00  0.00     0.168 C 
ATOM     17  O   LIG d   1       3.907  -1.597  -4.790  0.00  0.00    -0.318 OA
ENDROOT
BRANCH   1  18
ATOM     18  C   LIG d   1       8.338   1.850  -6.512  0.00  0.00    -0.011 C 
ATOM     19  H   LIG d   1       9.202   2.464  -6.771  0.00  0.00     0.028 H 
ATOM     20  H   LIG d   1       8.136   1.146  -7.320  0.00  0.00     0.028 H 
ATOM     21  H   LIG d   1       7.470   2.491  -6.362  0.00  0.00     0.028 H 
ENDBRANCH   1  18
BRANCH   1  22
ATOM     22  C   LIG d   1       9.867   1.667  -4.542  0.00  0.00    -0.011 C 
ATOM     23  H   LIG d   1      10.765   1.287  -5.029  0.00  0.00     0.028 H 
ATOM     24  H   LIG d   1       9.843   2.754  -4.621  0.00  0.00     0.028 H 
ATOM     25  H   LIG d   1       9.873   1.380  -3.491  0.00  0.00     0.028 H 
ENDBRANCH   1  22
BRANCH   5  26
ATOM     26  C   LIG d   1       8.352  -2.786  -3.911  0.00  0.00    -0.006 C 
ATOM     27  H   LIG d   1       8.179  -2.081  -3.098  0.00  0.00     0.084 H 
ATOM     28  H   LIG d   1       8.077  -3.789  -3.586  0.00  0.00     0.084 H 
BRANCH  26  29
ATOM     29  N   LIG d   1       9.774  -2.739  -4.292  0.00  0.00     0.220 N 
ATOM     30  H   LIG d   1      10.356  -3.004  -3.499  0.00  0.00     0.200 HD
ATOM     31  H   LIG d   1       9.950  -3.374  -5.068  0.00  0.00     0.200 HD
ATOM     32  H   LIG d   1      10.015  -1.783  -4.580  0.00  0.00     0.200 HD
ENDBRANCH  26  29
ENDBRANCH   5  26
BRANCH  16  33
ATOM     33  C   LIG d   1       2.737  -0.566  -2.919  0.00  0.00    -0.011 C 
ATOM     34  H   LIG d   1       2.798  -1.619  -2.649  0.00  0.00     0.028 H 
ATOM     35  H   LIG d   1       3.169   0.040  -2.123  0.00  0.00     0.028 H 
ATOM     36  H   LIG d   1       1.692  -0.287  -3.062  0.00  0.00     0.028 H 
ENDBRANCH  16  33
BRANCH  16  37
ATOM     37  C   LIG d   1       2.621   0.427  -5.212  0.00  0.00    -0.011 C 
ATOM     38  H   LIG d   1       2.674  -0.057  -6.188  0.00  0.00     0.028 H 
ATOM     39  H   LIG d   1       1.590   0.417  -4.858  0.00  0.00     0.028 H 
ATOM     40  H   LIG d   1       2.967   1.457  -5.298  0.00  0.00     0.028 H 
ENDBRANCH  16  37
TORSDOF 6
ENDMDL
MODEL 10
REMARK VINA RESULT:      -4.5      2.339      2.909
REMARK  6 active torsions:
REMARK  status: ('A' for Active; 'I' for Inactive)
REMARK    1  A    between atoms: C_1  and  C_2 
REMARK    2  A    between atoms: C_2  and  C_22 
REMARK    3  A    between atoms: C_6  and  C_21 
REMARK    4  A    between atoms: C_17  and  C_19 
REMARK    5  A    between atoms: C_17  and  C_20 
REMARK    6  A    between atoms: C_21  and  N_39 
ROOT
ATOM      1  C   LIG d   1       7.096   0.160  -4.413  0.00  0.00     0.166 C 
ATOM      2  O   LIG d   1       6.620  -0.887  -3.528  0.00  0.00    -0.341 OA
ATOM      3  C   LIG d   1       5.875  -1.718  -4.409  0.00  0.00     0.122 C 
ATOM      4  H   LIG d   1       6.547  -2.287  -5.053  0.00  0.00     0.065 H 
ATOM      5  C   LIG d   1       4.850  -2.650  -3.798  0.00  0.00     0.130 C 
ATOM      6  H   LIG d   1       5.343  -3.391  -3.169  0.00  0.00     0.068 H 
ATOM      7  O   LIG d   1       4.180  -3.307  -4.913  0.00  0.00    -0.337 OA
ATOM      8  C   LIG d   1       4.719  -2.875  -6.141  0.00  0.00     0.192 C 
ATOM      9  H   LIG d   1       5.801  -3.002  -6.090  0.00  0.00     0.094 H 
ATOM     10  C   LIG d   1       4.423  -1.360  -6.349  0.00  0.00     0.141 C 
ATOM     11  H   LIG d   1       3.350  -1.179  -6.301  0.00  0.00     0.068 H 
ATOM     12  C   LIG d   1       5.130  -0.638  -5.251  0.00  0.00     0.122 C 
ATOM     13  H   LIG d   1       4.396  -0.138  -4.619  0.00  0.00     0.065 H 
ATOM     14  O   LIG d   1       6.189   0.260  -5.537  0.00  0.00    -0.341 OA
ATOM     15  O   LIG d   1       4.886  -1.197  -7.691  0.00  0.00    -0.338 OA
ATOM     16  C   LIG d   1       4.426  -2.402  -8.353  0.00  0.00     0.168 C 
ATOM     17  O   LIG d   1       4.265  -3.441  -7.357  0.00  0.00    -0.318 OA
ENDROOT
BRANCH   1  18
ATOM     18  C   LIG d   1       8.500  -0.188  -4.914  0.00  0.00    -0.011 C 
ATOM     19  H   LIG d   1       9.198   0.591  -4.608  0.00  0.00     0.028 H 
ATOM     20  H   LIG d   1       8.811  -1.143  -4.489  0.00  0.00     0.028 H 
ATOM     21  H   LIG d   1       8.490  -0.261  -6.001  0.00  0.00     0.028 H 
ENDBRANCH   1  18
BRANCH   1  22
ATOM     22  C   LIG d   1       7.135   1.492  -3.662  0.00  0.00    -0.011 C 
ATOM     23  H   LIG d   1       7.792   1.402  -2.798  0.00  0.00     0.028 H 
ATOM     24  H   LIG d   1       7.512   2.272  -4.325  0.00  0.00     0.028 H 
ATOM     25  H   LIG d   1       6.131   1.752  -3.330  0.00  0.00     0.028 H 
ENDBRANCH   1  22
BRANCH   5  26
ATOM     26  C   LIG d   1       3.838  -1.851  -2.972  0.00  0.00    -0.006 C 
ATOM     27  H   LIG d   1       3.517  -0.978  -3.539  0.00  0.00     0.084 H 
ATOM     28  H   LIG d   1       2.975  -2.478  -2.750  0.00  0.00     0.084 H 
BRANCH  26  29
ATOM     29  N   LIG d   1       4.484  -1.402  -1.726  0.00  0.00     0.220 N 
ATOM     30  H   LIG d   1       3.831  -0.845  -1.177  0.00  0.00     0.200 HD
ATOM     31  H   LIG d   1       4.787  -2.206  -1.180  0.00  0.00     0.200 HD
ATOM     32  H   LIG d   1       5.302  -0.827  -1.958  0.00  0.00     0.200 HD
ENDBRANCH  26  29
ENDBRANCH   5  26
BRANCH  16  33
ATOM     33  C   LIG d   1       3.084  -2.133  -9.038  0.00  0.00    -0.011 C 
ATOM     34  H   LIG d   1       2.364  -1.780  -8.300  0.00  0.00     0.028 H 
ATOM     35  H   LIG d   1       3.215  -1.373  -9.809  0.00  0.00     0.028 H 
ATOM     36  H   LIG d   1       2.718  -3.054  -9.493  0.00  0.00     0.028 H 
ENDBRANCH  16  33
BRANCH  16  37
ATOM     37  C   LIG d   1       5.455  -2.843  -9.396  0.00  0.00    -0.011 C 
ATOM     38  H   LIG d   1       5.687  -2.005 -10.053  0.00  0.00     0.028 H 
ATOM     39  H   LIG d   1       6.364  -3.172  -8.893  0.00  0.00     0.028 H 
ATOM     40  H   LIG d   1       5.046  -3.665  -9.984  0.00  0.00     0.028 H 
ENDBRANCH  16  37
TORSDOF 6
ENDMDL
