MODEL 1
REMARK VINA RESULT:      -6.1      0.000      0.000
REMARK  9 active torsions:
REMARK  status: ('A' for Active; 'I' for Inactive)
REMARK    1  A    between atoms: C_1  and  O_2 
REMARK    2  A    between atoms: O_2  and  C_3 
REMARK    3  A    between atoms: C_8  and  O_9 
REMARK    4  A    between atoms: O_9  and  C_10 
REMARK    5  A    between atoms: C_14  and  C_16 
REMARK    6  A    between atoms: C_16  and  C_17 
REMARK    7  A    between atoms: C_17  and  C_19 
REMARK    8  A    between atoms: C_22  and  O_26 
REMARK    9  A    between atoms: C_24  and  O_25 
ROOT
ATOM      1  C   LIG d   1       3.338  -0.677  -8.577  0.00  0.00     0.162 A 
ATOM      2  C   LIG d   1       3.304  -2.060  -8.509  0.00  0.00    -0.016 A 
ATOM      3  C   LIG d   1       4.323  -2.754  -7.877  0.00  0.00    -0.051 A 
ATOM      4  C   LIG d   1       5.369  -2.073  -7.302  0.00  0.00     0.011 A 
ATOM      5  C   LIG d   1       5.418  -0.675  -7.354  0.00  0.00     0.111 A 
ATOM      6  C   LIG d   1       4.390   0.025  -7.998  0.00  0.00     0.176 A 
ATOM      7  C   LIG d   1       6.639  -0.235  -6.661  0.00  0.00     0.344 A 
ATOM      8  O   LIG d   1       6.982   0.923  -6.527  0.00  0.00    -0.245 OA
ATOM      9  O   LIG d   1       7.321  -1.297  -6.200  0.00  0.00    -0.453 OA
ATOM     10  C   LIG d   1       6.602  -2.511  -6.551  0.00  0.00     0.136 A 
ATOM     11  H   LIG d   1       7.222  -3.142  -7.187  0.00  0.00     0.079 H 
ATOM     12  H   LIG d   1       2.482  -2.600  -8.956  0.00  0.00     0.066 H 
ATOM     13  H   LIG d   1       4.294  -3.833  -7.831  0.00  0.00     0.062 H 
ENDROOT
BRANCH  10  14
ATOM     14  C   LIG d   1       6.203  -3.271  -5.285  0.00  0.00     0.052 C 
ATOM     15  H   LIG d   1       5.208  -3.372  -5.255  0.00  0.00     0.038 H 
ATOM     16  H   LIG d   1       6.668  -4.257  -5.291  0.00  0.00     0.038 H 
BRANCH  14  17
ATOM     17  C   LIG d   1       6.666  -2.505  -4.072  0.00  0.00     0.171 C 
ATOM     18  O   LIG d   1       7.755  -2.736  -3.588  0.00  0.00    -0.292 OA
BRANCH  17  19
ATOM     19  C   LIG d   1       5.802  -1.483  -3.478  0.00  0.00     0.059 A 
ATOM     20  C   LIG d   1       6.309  -0.201  -3.204  0.00  0.00     0.131 A 
ATOM     21  C   LIG d   1       5.483   0.757  -2.642  0.00  0.00     0.022 A 
ATOM     22  C   LIG d   1       4.161   0.447  -2.354  0.00  0.00     0.120 A 
ATOM     23  H   LIG d   1       5.864   1.744  -2.428  0.00  0.00     0.069 H 
ATOM     24  C   LIG d   1       3.661  -0.824  -2.628  0.00  0.00    -0.019 A 
ATOM     25  C   LIG d   1       4.463  -1.776  -3.184  0.00  0.00    -0.044 A 
ATOM     26  H   LIG d   1       2.631  -1.055  -2.400  0.00  0.00     0.065 H 
ATOM     27  H   LIG d   1       4.067  -2.759  -3.397  0.00  0.00     0.063 H 
BRANCH  20  28
ATOM     28  O   LIG d   1       7.602   0.097  -3.487  0.00  0.00    -0.506 OA
ATOM     29  H   LIG d   1       7.798   1.044  -3.483  0.00  0.00     0.292 HD
ENDBRANCH  20  28
BRANCH  22  30
ATOM     30  O   LIG d   1       3.351   1.386  -1.804  0.00  0.00    -0.507 OA
ATOM     31  H   LIG d   1       3.775   1.916  -1.115  0.00  0.00     0.292 HD
ENDBRANCH  22  30
ENDBRANCH  17  19
ENDBRANCH  14  17
ENDBRANCH  10  14
BRANCH   6  32
ATOM     32  O   LIG d   1       4.422   1.381  -8.060  0.00  0.00    -0.491 OA
BRANCH  32  33
ATOM     33  C   LIG d   1       5.048   1.964  -9.204  0.00  0.00     0.079 C 
ATOM     34  H   LIG d   1       5.825   1.295  -9.574  0.00  0.00     0.066 H 
ATOM     35  H   LIG d   1       4.305   2.123  -9.984  0.00  0.00     0.066 H 
ATOM     36  H   LIG d   1       5.494   2.919  -8.927  0.00  0.00     0.066 H 
ENDBRANCH  32  33
ENDBRANCH   6  32
BRANCH   1  37
ATOM     37  O   LIG d   1       2.337  -0.003  -9.204  0.00  0.00    -0.491 OA
BRANCH  37  38
ATOM     38  C   LIG d   1       1.457  -0.770 -10.029  0.00  0.00     0.079 C 
ATOM     39  H   LIG d   1       2.002  -1.609 -10.462  0.00  0.00     0.066 H 
ATOM     40  H   LIG d   1       1.066  -0.140 -10.829  0.00  0.00     0.066 H 
ATOM     41  H   LIG d   1       0.630  -1.146  -9.427  0.00  0.00     0.066 H 
ENDBRANCH  37  38
ENDBRANCH   1  37
TORSDOF 9
ENDMDL
MODEL 2
REMARK VINA RESULT:      -5.6      8.044     10.001
REMARK  9 active torsions:
REMARK  status: ('A' for Active; 'I' for Inactive)
REMARK    1  A    between atoms: C_1  and  O_2 
REMARK    2  A    between atoms: O_2  and  C_3 
REMARK    3  A    between atoms: C_8  and  O_9 
REMARK    4  A    between atoms: O_9  and  C_10 
REMARK    5  A    between atoms: C_14  and  C_16 
REMARK    6  A    between atoms: C_16  and  C_17 
REMARK    7  A    between atoms: C_17  and  C_19 
REMARK    8  A    between atoms: C_22  and  O_26 
REMARK    9  A    between atoms: C_24  and  O_25 
ROOT
ATOM      1  C   LIG d   1       9.684   6.779  -6.630  0.00  0.00     0.162 A 
ATOM      2  C   LIG d   1       9.592   7.759  -5.657  0.00  0.00    -0.016 A 
ATOM      3  C   LIG d   1       9.615   7.415  -4.315  0.00  0.00    -0.051 A 
ATOM      4  C   LIG d   1       9.741   6.099  -3.941  0.00  0.00     0.011 A 
ATOM      5  C   LIG d   1       9.842   5.094  -4.911  0.00  0.00     0.111 A 
ATOM      6  C   LIG d   1       9.813   5.442  -6.267  0.00  0.00     0.176 A 
ATOM      7  C   LIG d   1       9.966   3.802  -4.218  0.00  0.00     0.344 A 
ATOM      8  O   LIG d   1      10.073   2.725  -4.770  0.00  0.00    -0.245 OA
ATOM      9  O   LIG d   1       9.944   3.984  -2.887  0.00  0.00    -0.453 OA
ATOM     10  C   LIG d   1       9.805   5.404  -2.604  0.00  0.00     0.136 A 
ATOM     11  H   LIG d   1       8.888   5.585  -2.044  0.00  0.00     0.079 H 
ATOM     12  H   LIG d   1       9.496   8.795  -5.945  0.00  0.00     0.066 H 
ATOM     13  H   LIG d   1       9.538   8.184  -3.560  0.00  0.00     0.062 H 
ENDROOT
BRANCH  10  14
ATOM     14  C   LIG d   1      11.014   5.902  -1.810  0.00  0.00     0.052 C 
ATOM     15  H   LIG d   1      11.547   5.120  -1.488  0.00  0.00     0.038 H 
ATOM     16  H   LIG d   1      11.636   6.528  -2.450  0.00  0.00     0.038 H 
BRANCH  14  17
ATOM     17  C   LIG d   1      10.541   6.708  -0.627  0.00  0.00     0.171 C 
ATOM     18  O   LIG d   1      10.315   6.157   0.430  0.00  0.00    -0.292 OA
BRANCH  17  19
ATOM     19  C   LIG d   1      10.353   8.155  -0.755  0.00  0.00     0.059 A 
ATOM     20  C   LIG d   1       9.061   8.691  -0.893  0.00  0.00     0.131 A 
ATOM     21  C   LIG d   1       8.895  10.060  -1.011  0.00  0.00     0.022 A 
ATOM     22  C   LIG d   1      10.005  10.894  -0.993  0.00  0.00     0.120 A 
ATOM     23  H   LIG d   1       7.907  10.479  -1.118  0.00  0.00     0.069 H 
ATOM     24  C   LIG d   1      11.284  10.360  -0.854  0.00  0.00    -0.019 A 
ATOM     25  C   LIG d   1      11.461   9.014  -0.733  0.00  0.00    -0.044 A 
ATOM     26  H   LIG d   1      12.140  11.018  -0.841  0.00  0.00     0.065 H 
ATOM     27  H   LIG d   1      12.456   8.608  -0.622  0.00  0.00     0.063 H 
BRANCH  20  28
ATOM     28  O   LIG d   1       7.980   7.870  -0.911  0.00  0.00    -0.506 OA
ATOM     29  H   LIG d   1       7.199   8.239  -0.478  0.00  0.00     0.292 HD
ENDBRANCH  20  28
BRANCH  22  30
ATOM     30  O   LIG d   1       9.842  12.236  -1.108  0.00  0.00    -0.507 OA
ATOM     31  H   LIG d   1       9.100  12.495  -1.672  0.00  0.00     0.292 HD
ENDBRANCH  22  30
ENDBRANCH  17  19
ENDBRANCH  14  17
ENDBRANCH  10  14
BRANCH   6  32
ATOM     32  O   LIG d   1       9.909   4.481  -7.221  0.00  0.00    -0.491 OA
BRANCH  32  33
ATOM     33  C   LIG d   1      11.219   4.174  -7.703  0.00  0.00     0.079 C 
ATOM     34  H   LIG d   1      11.141   3.615  -8.636  0.00  0.00     0.066 H 
ATOM     35  H   LIG d   1      11.768   5.098  -7.878  0.00  0.00     0.066 H 
ATOM     36  H   LIG d   1      11.746   3.572  -6.963  0.00  0.00     0.066 H 
ENDBRANCH  32  33
ENDBRANCH   6  32
BRANCH   1  37
ATOM     37  O   LIG d   1       9.654   7.124  -7.946  0.00  0.00    -0.491 OA
BRANCH  37  38
ATOM     38  C   LIG d   1       8.982   8.339  -8.283  0.00  0.00     0.079 C 
ATOM     39  H   LIG d   1       9.412   9.162  -7.712  0.00  0.00     0.066 H 
ATOM     40  H   LIG d   1       7.922   8.247  -8.045  0.00  0.00     0.066 H 
ATOM     41  H   LIG d   1       9.099   8.536  -9.349  0.00  0.00     0.066 H 
ENDBRANCH  37  38
ENDBRANCH   1  37
TORSDOF 9
ENDMDL
MODEL 3
REMARK VINA RESULT:      -5.6      9.376     11.325
REMARK  9 active torsions:
REMARK  status: ('A' for Active; 'I' for Inactive)
REMARK    1  A    between atoms: C_1  and  O_2 
REMARK    2  A    between atoms: O_2  and  C_3 
REMARK    3  A    between atoms: C_8  and  O_9 
REMARK    4  A    between atoms: O_9  and  C_10 
REMARK    5  A    between atoms: C_14  and  C_16 
REMARK    6  A    between atoms: C_16  and  C_17 
REMARK    7  A    between atoms: C_17  and  C_19 
REMARK    8  A    between atoms: C_22  and  O_26 
REMARK    9  A    between atoms: C_24  and  O_25 
ROOT
ATOM      1  C   LIG d   1       9.858  10.693  -7.149  0.00  0.00     0.162 A 
ATOM      2  C   LIG d   1       9.787  10.923  -5.786  0.00  0.00    -0.016 A 
ATOM      3  C   LIG d   1       9.675   9.860  -4.904  0.00  0.00    -0.051 A 
ATOM      4  C   LIG d   1       9.645   8.571  -5.376  0.00  0.00     0.011 A 
ATOM      5  C   LIG d   1       9.722   8.318  -6.751  0.00  0.00     0.111 A 
ATOM      6  C   LIG d   1       9.830   9.393  -7.643  0.00  0.00     0.176 A 
ATOM      7  C   LIG d   1       9.668   6.861  -6.952  0.00  0.00     0.344 A 
ATOM      8  O   LIG d   1       9.712   6.307  -8.032  0.00  0.00    -0.245 OA
ATOM      9  O   LIG d   1       9.562   6.233  -5.769  0.00  0.00    -0.453 OA
ATOM     10  C   LIG d   1       9.539   7.224  -4.705  0.00  0.00     0.136 A 
ATOM     11  H   LIG d   1       8.605   7.155  -4.150  0.00  0.00     0.079 H 
ATOM     12  H   LIG d   1       9.814  11.934  -5.409  0.00  0.00     0.066 H 
ATOM     13  H   LIG d   1       9.615  10.045  -3.841  0.00  0.00     0.062 H 
ENDROOT
BRANCH  10  14
ATOM     14  C   LIG d   1      10.727   7.012  -3.764  0.00  0.00     0.052 C 
ATOM     15  H   LIG d   1      11.142   6.120  -3.946  0.00  0.00     0.038 H 
ATOM     16  H   LIG d   1      11.465   7.797  -3.927  0.00  0.00     0.038 H 
BRANCH  14  17
ATOM     17  C   LIG d   1      10.250   7.061  -2.335  0.00  0.00     0.171 C 
ATOM     18  O   LIG d   1       9.937   6.036  -1.764  0.00  0.00    -0.292 OA
BRANCH  17  19
ATOM     19  C   LIG d   1      10.164   8.344  -1.635  0.00  0.00     0.059 A 
ATOM     20  C   LIG d   1       8.972   8.720  -0.991  0.00  0.00     0.131 A 
ATOM     21  C   LIG d   1       8.902   9.935  -0.332  0.00  0.00     0.022 A 
ATOM     22  C   LIG d   1      10.008  10.774  -0.311  0.00  0.00     0.120 A 
ATOM     23  H   LIG d   1       7.991  10.231   0.164  0.00  0.00     0.069 H 
ATOM     24  C   LIG d   1      11.188  10.399  -0.949  0.00  0.00    -0.019 A 
ATOM     25  C   LIG d   1      11.271   9.203  -1.598  0.00  0.00    -0.044 A 
ATOM     26  H   LIG d   1      12.042  11.059  -0.926  0.00  0.00     0.065 H 
ATOM     27  H   LIG d   1      12.192   8.918  -2.088  0.00  0.00     0.063 H 
BRANCH  20  28
ATOM     28  O   LIG d   1       7.894   7.895  -1.015  0.00  0.00    -0.506 OA
ATOM     29  H   LIG d   1       7.443   7.864  -1.870  0.00  0.00     0.292 HD
ENDBRANCH  20  28
BRANCH  22  30
ATOM     30  O   LIG d   1       9.939  11.965   0.336  0.00  0.00    -0.507 OA
ATOM     31  H   LIG d   1      10.709  12.159   0.886  0.00  0.00     0.292 HD
ENDBRANCH  22  30
ENDBRANCH  17  19
ENDBRANCH  14  17
ENDBRANCH  10  14
BRANCH   6  32
ATOM     32  O   LIG d   1       9.905   9.167  -8.979  0.00  0.00    -0.491 OA
BRANCH  32  33
ATOM     33  C   LIG d   1      11.213   9.050  -9.544  0.00  0.00     0.079 C 
ATOM     34  H   LIG d   1      11.144   8.575 -10.523  0.00  0.00     0.066 H 
ATOM     35  H   LIG d   1      11.653  10.041  -9.651  0.00  0.00     0.066 H 
ATOM     36  H   LIG d   1      11.838   8.443  -8.890  0.00  0.00     0.066 H 
ENDBRANCH  32  33
ENDBRANCH   6  32
BRANCH   1  37
ATOM     37  O   LIG d   1       9.963  11.742  -8.010  0.00  0.00    -0.491 OA
BRANCH  37  38
ATOM     38  C   LIG d   1       9.536  13.019  -7.530  0.00  0.00     0.079 C 
ATOM     39  H   LIG d   1      10.340  13.479  -6.955  0.00  0.00     0.066 H 
ATOM     40  H   LIG d   1       8.660  12.895  -6.894  0.00  0.00     0.066 H 
ATOM     41  H   LIG d   1       9.283  13.659  -8.376  0.00  0.00     0.066 H 
ENDBRANCH  37  38
ENDBRANCH   1  37
TORSDOF 9
ENDMDL
MODEL 4
REMARK VINA RESULT:      -5.4      1.804      3.655
REMARK  9 active torsions:
REMARK  status: ('A' for Active; 'I' for Inactive)
REMARK    1  A    between atoms: C_1  and  O_2 
REMARK    2  A    between atoms: O_2  and  C_3 
REMARK    3  A    between atoms: C_8  and  O_9 
REMARK    4  A    between atoms: O_9  and  C_10 
REMARK    5  A    between atoms: C_14  and  C_16 
REMARK    6  A    between atoms: C_16  and  C_17 
REMARK    7  A    between atoms: C_17  and  C_19 
REMARK    8  A    between atoms: C_22  and  O_26 
REMARK    9  A    between atoms: C_24  and  O_25 
ROOT
ATOM      1  C   LIG d   1       3.573  -2.347  -9.624  0.00  0.00     0.162 A 
ATOM      2  C   LIG d   1       4.026  -2.869  -8.425  0.00  0.00    -0.016 A 
ATOM      3  C   LIG d   1       4.078  -2.071  -7.292  0.00  0.00    -0.051 A 
ATOM      4  C   LIG d   1       3.669  -0.761  -7.350  0.00  0.00     0.011 A 
ATOM      5  C   LIG d   1       3.202  -0.217  -8.553  0.00  0.00     0.111 A 
ATOM      6  C   LIG d   1       3.155  -1.023  -9.698  0.00  0.00     0.176 A 
ATOM      7  C   LIG d   1       2.840   1.188  -8.309  0.00  0.00     0.344 A 
ATOM      8  O   LIG d   1       2.399   1.947  -9.149  0.00  0.00    -0.245 OA
ATOM      9  O   LIG d   1       3.068   1.510  -7.025  0.00  0.00    -0.453 OA
ATOM     10  C   LIG d   1       3.594   0.346  -6.329  0.00  0.00     0.136 A 
ATOM     11  H   LIG d   1       4.587   0.563  -5.937  0.00  0.00     0.079 H 
ATOM     12  H   LIG d   1       4.345  -3.899  -8.372  0.00  0.00     0.066 H 
ATOM     13  H   LIG d   1       4.437  -2.482  -6.360  0.00  0.00     0.062 H 
ENDROOT
BRANCH  10  14
ATOM     14  C   LIG d   1       2.654  -0.054  -5.190  0.00  0.00     0.052 C 
ATOM     15  H   LIG d   1       1.896   0.597  -5.139  0.00  0.00     0.038 H 
ATOM     16  H   LIG d   1       2.264  -1.054  -5.375  0.00  0.00     0.038 H 
BRANCH  14  17
ATOM     17  C   LIG d   1       3.412  -0.044  -3.887  0.00  0.00     0.171 C 
ATOM     18  O   LIG d   1       2.935   0.499  -2.912  0.00  0.00    -0.292 OA
BRANCH  17  19
ATOM     19  C   LIG d   1       4.725  -0.687  -3.798  0.00  0.00     0.059 A 
ATOM     20  C   LIG d   1       5.878   0.085  -3.575  0.00  0.00     0.131 A 
ATOM     21  C   LIG d   1       7.113  -0.535  -3.492  0.00  0.00     0.022 A 
ATOM     22  C   LIG d   1       7.205  -1.913  -3.630  0.00  0.00     0.120 A 
ATOM     23  H   LIG d   1       8.002   0.051  -3.321  0.00  0.00     0.069 H 
ATOM     24  C   LIG d   1       6.060  -2.676  -3.849  0.00  0.00    -0.019 A 
ATOM     25  C   LIG d   1       4.837  -2.079  -3.929  0.00  0.00    -0.044 A 
ATOM     26  H   LIG d   1       6.143  -3.748  -3.955  0.00  0.00     0.065 H 
ATOM     27  H   LIG d   1       3.954  -2.678  -4.097  0.00  0.00     0.063 H 
BRANCH  20  28
ATOM     28  O   LIG d   1       5.781   1.432  -3.442  0.00  0.00    -0.506 OA
ATOM     29  H   LIG d   1       6.634   1.887  -3.421  0.00  0.00     0.292 HD
ENDBRANCH  20  28
BRANCH  22  30
ATOM     30  O   LIG d   1       8.415  -2.520  -3.548  0.00  0.00    -0.507 OA
ATOM     31  H   LIG d   1       8.552  -3.017  -2.730  0.00  0.00     0.292 HD
ENDBRANCH  22  30
ENDBRANCH  17  19
ENDBRANCH  14  17
ENDBRANCH  10  14
BRANCH   6  32
ATOM     32  O   LIG d   1       2.705  -0.512 -10.873  0.00  0.00    -0.491 OA
BRANCH  32  33
ATOM     33  C   LIG d   1       3.683   0.044 -11.755  0.00  0.00     0.079 C 
ATOM     34  H   LIG d   1       3.206   0.325 -12.694  0.00  0.00     0.066 H 
ATOM     35  H   LIG d   1       4.128   0.925 -11.295  0.00  0.00     0.066 H 
ATOM     36  H   LIG d   1       4.459  -0.696 -11.949  0.00  0.00     0.066 H 
ENDBRANCH  32  33
ENDBRANCH   6  32
BRANCH   1  37
ATOM     37  O   LIG d   1       3.529  -3.134 -10.733  0.00  0.00    -0.491 OA
BRANCH  37  38
ATOM     38  C   LIG d   1       4.752  -3.757 -11.135  0.00  0.00     0.079 C 
ATOM     39  H   LIG d   1       5.594  -3.133 -10.833  0.00  0.00     0.066 H 
ATOM     40  H   LIG d   1       4.760  -3.878 -12.218  0.00  0.00     0.066 H 
ATOM     41  H   LIG d   1       4.835  -4.734 -10.659  0.00  0.00     0.066 H 
ENDBRANCH  37  38
ENDBRANCH   1  37
TORSDOF 9
ENDMDL
MODEL 5
REMARK VINA RESULT:      -5.4      8.543     10.492
REMARK  9 active torsions:
REMARK  status: ('A' for Active; 'I' for Inactive)
REMARK    1  A    between atoms: C_1  and  O_2 
REMARK    2  A    between atoms: O_2  and  C_3 
REMARK    3  A    between atoms: C_8  and  O_9 
REMARK    4  A    between atoms: O_9  and  C_10 
REMARK    5  A    between atoms: C_14  and  C_16 
REMARK    6  A    between atoms: C_16  and  C_17 
REMARK    7  A    between atoms: C_17  and  C_19 
REMARK    8  A    between atoms: C_22  and  O_26 
REMARK    9  A    between atoms: C_24  and  O_25 
ROOT
ATOM      1  C   LIG d   1       9.818  10.329  -7.171  0.00  0.00     0.162 A 
ATOM      2  C   LIG d   1       9.736  10.433  -5.793  0.00  0.00    -0.016 A 
ATOM      3  C   LIG d   1       9.635   9.292  -5.012  0.00  0.00    -0.051 A 
ATOM      4  C   LIG d   1       9.626   8.051  -5.600  0.00  0.00     0.011 A 
ATOM      5  C   LIG d   1       9.714   7.925  -6.992  0.00  0.00     0.111 A 
ATOM      6  C   LIG d   1       9.811   9.079  -7.781  0.00  0.00     0.176 A 
ATOM      7  C   LIG d   1       9.682   6.492  -7.324  0.00  0.00     0.344 A 
ATOM      8  O   LIG d   1       9.740   6.039  -8.449  0.00  0.00    -0.245 OA
ATOM      9  O   LIG d   1       9.579   5.758  -6.204  0.00  0.00    -0.453 OA
ATOM     10  C   LIG d   1       9.536   6.648  -5.054  0.00  0.00     0.136 A 
ATOM     11  H   LIG d   1       8.600   6.515  -4.514  0.00  0.00     0.079 H 
ATOM     12  H   LIG d   1       9.747  11.406  -5.325  0.00  0.00     0.066 H 
ATOM     13  H   LIG d   1       9.567   9.379  -3.937  0.00  0.00     0.062 H 
ENDROOT
BRANCH  10  14
ATOM     14  C   LIG d   1      10.722   6.367  -4.129  0.00  0.00     0.052 C 
ATOM     15  H   LIG d   1      11.371   5.763  -4.591  0.00  0.00     0.038 H 
ATOM     16  H   LIG d   1      11.215   7.305  -3.876  0.00  0.00     0.038 H 
BRANCH  14  17
ATOM     17  C   LIG d   1      10.229   5.703  -2.868  0.00  0.00     0.171 C 
ATOM     18  O   LIG d   1       9.562   4.692  -2.936  0.00  0.00    -0.292 OA
BRANCH  17  19
ATOM     19  C   LIG d   1      10.554   6.280  -1.562  0.00  0.00     0.059 A 
ATOM     20  C   LIG d   1      11.150   5.486  -0.566  0.00  0.00     0.131 A 
ATOM     21  C   LIG d   1      11.452   6.042   0.664  0.00  0.00     0.022 A 
ATOM     22  C   LIG d   1      11.167   7.378   0.908  0.00  0.00     0.120 A 
ATOM     23  H   LIG d   1      11.909   5.439   1.434  0.00  0.00     0.069 H 
ATOM     24  C   LIG d   1      10.577   8.163  -0.080  0.00  0.00    -0.019 A 
ATOM     25  C   LIG d   1      10.277   7.629  -1.299  0.00  0.00    -0.044 A 
ATOM     26  H   LIG d   1      10.360   9.202   0.119  0.00  0.00     0.065 H 
ATOM     27  H   LIG d   1       9.823   8.246  -2.061  0.00  0.00     0.063 H 
BRANCH  20  28
ATOM     28  O   LIG d   1      11.426   4.180  -0.811  0.00  0.00    -0.506 OA
ATOM     29  H   LIG d   1      11.435   3.625  -0.019  0.00  0.00     0.292 HD
ENDBRANCH  20  28
BRANCH  22  30
ATOM     30  O   LIG d   1      11.464   7.923   2.114  0.00  0.00    -0.507 OA
ATOM     31  H   LIG d   1      12.026   7.365   2.670  0.00  0.00     0.292 HD
ENDBRANCH  22  30
ENDBRANCH  17  19
ENDBRANCH  14  17
ENDBRANCH  10  14
BRANCH   6  32
ATOM     32  O   LIG d   1       9.896   8.976  -9.132  0.00  0.00    -0.491 OA
BRANCH  32  33
ATOM     33  C   LIG d   1      11.208   8.905  -9.695  0.00  0.00     0.079 C 
ATOM     34  H   LIG d   1      11.894   9.502  -9.094  0.00  0.00     0.066 H 
ATOM     35  H   LIG d   1      11.543   7.869  -9.708  0.00  0.00     0.066 H 
ATOM     36  H   LIG d   1      11.187   9.293 -10.714  0.00  0.00     0.066 H 
ENDBRANCH  32  33
ENDBRANCH   6  32
BRANCH   1  37
ATOM     37  O   LIG d   1       9.912  11.453  -7.932  0.00  0.00    -0.491 OA
BRANCH  37  38
ATOM     38  C   LIG d   1       9.634  12.698  -7.287  0.00  0.00     0.079 C 
ATOM     39  H   LIG d   1       9.616  12.552  -6.207  0.00  0.00     0.066 H 
ATOM     40  H   LIG d   1       8.665  13.071  -7.618  0.00  0.00     0.066 H 
ATOM     41  H   LIG d   1      10.409  13.421  -7.543  0.00  0.00     0.066 H 
ENDBRANCH  37  38
ENDBRANCH   1  37
TORSDOF 9
ENDMDL
MODEL 6
REMARK VINA RESULT:      -5.3      4.028      7.010
REMARK  9 active torsions:
REMARK  status: ('A' for Active; 'I' for Inactive)
REMARK    1  A    between atoms: C_1  and  O_2 
REMARK    2  A    between atoms: O_2  and  C_3 
REMARK    3  A    between atoms: C_8  and  O_9 
REMARK    4  A    between atoms: O_9  and  C_10 
REMARK    5  A    between atoms: C_14  and  C_16 
REMARK    6  A    between atoms: C_16  and  C_17 
REMARK    7  A    between atoms: C_17  and  C_19 
REMARK    8  A    between atoms: C_22  and  O_26 
REMARK    9  A    between atoms: C_24  and  O_25 
ROOT
ATOM      1  C   LIG d   1       8.534  -7.561  -4.639  0.00  0.00     0.162 A 
ATOM      2  C   LIG d   1       8.745  -6.193  -4.687  0.00  0.00    -0.016 A 
ATOM      3  C   LIG d   1       7.719  -5.341  -5.065  0.00  0.00    -0.051 A 
ATOM      4  C   LIG d   1       6.482  -5.847  -5.382  0.00  0.00     0.011 A 
ATOM      5  C   LIG d   1       6.247  -7.226  -5.333  0.00  0.00     0.111 A 
ATOM      6  C   LIG d   1       7.286  -8.087  -4.957  0.00  0.00     0.176 A 
ATOM      7  C   LIG d   1       4.848  -7.465  -5.720  0.00  0.00     0.344 A 
ATOM      8  O   LIG d   1       4.321  -8.558  -5.779  0.00  0.00    -0.245 OA
ATOM      9  O   LIG d   1       4.237  -6.301  -5.997  0.00  0.00    -0.453 OA
ATOM     10  C   LIG d   1       5.184  -5.212  -5.814  0.00  0.00     0.136 A 
ATOM     11  H   LIG d   1       5.323  -4.677  -6.753  0.00  0.00     0.079 H 
ATOM     12  H   LIG d   1       9.714  -5.790  -4.435  0.00  0.00     0.066 H 
ATOM     13  H   LIG d   1       7.891  -4.275  -5.106  0.00  0.00     0.062 H 
ENDROOT
BRANCH  10  14
ATOM     14  C   LIG d   1       4.682  -4.255  -4.731  0.00  0.00     0.052 C 
ATOM     15  H   LIG d   1       3.704  -4.405  -4.581  0.00  0.00     0.038 H 
ATOM     16  H   LIG d   1       5.225  -4.438  -3.805  0.00  0.00     0.038 H 
BRANCH  14  17
ATOM     17  C   LIG d   1       4.908  -2.832  -5.174  0.00  0.00     0.171 C 
ATOM     18  O   LIG d   1       5.433  -2.607  -6.246  0.00  0.00    -0.292 OA
BRANCH  17  19
ATOM     19  C   LIG d   1       4.497  -1.722  -4.312  0.00  0.00     0.059 A 
ATOM     20  C   LIG d   1       3.734  -0.665  -4.836  0.00  0.00     0.131 A 
ATOM     21  C   LIG d   1       3.350   0.378  -4.011  0.00  0.00     0.022 A 
ATOM     22  C   LIG d   1       3.721   0.374  -2.674  0.00  0.00     0.120 A 
ATOM     23  H   LIG d   1       2.764   1.194  -4.406  0.00  0.00     0.069 H 
ATOM     24  C   LIG d   1       4.477  -0.676  -2.157  0.00  0.00    -0.019 A 
ATOM     25  C   LIG d   1       4.858  -1.712  -2.957  0.00  0.00    -0.044 A 
ATOM     26  H   LIG d   1       4.760  -0.670  -1.114  0.00  0.00     0.065 H 
ATOM     27  H   LIG d   1       5.442  -2.524  -2.548  0.00  0.00     0.063 H 
BRANCH  20  28
ATOM     28  O   LIG d   1       3.374  -0.666  -6.145  0.00  0.00    -0.506 OA
ATOM     29  H   LIG d   1       2.422  -0.745  -6.291  0.00  0.00     0.292 HD
ENDBRANCH  20  28
BRANCH  22  30
ATOM     30  O   LIG d   1       3.345   1.397  -1.866  0.00  0.00    -0.507 OA
ATOM     31  H   LIG d   1       3.891   1.494  -1.074  0.00  0.00     0.292 HD
ENDBRANCH  22  30
ENDBRANCH  17  19
ENDBRANCH  14  17
ENDBRANCH  10  14
BRANCH   6  32
ATOM     32  O   LIG d   1       7.076  -9.428  -4.904  0.00  0.00    -0.491 OA
BRANCH  32  33
ATOM     33  C   LIG d   1       6.588  -9.960  -3.670  0.00  0.00     0.079 C 
ATOM     34  H   LIG d   1       7.374 -10.545  -3.191  0.00  0.00     0.066 H 
ATOM     35  H   LIG d   1       6.292  -9.142  -3.014  0.00  0.00     0.066 H 
ATOM     36  H   LIG d   1       5.728 -10.599  -3.866  0.00  0.00     0.066 H 
ENDBRANCH  32  33
ENDBRANCH   6  32
BRANCH   1  37
ATOM     37  O   LIG d   1       9.547  -8.392  -4.273  0.00  0.00    -0.491 OA
BRANCH  37  38
ATOM     38  C   LIG d   1       9.876  -8.439  -2.883  0.00  0.00     0.079 C 
ATOM     39  H   LIG d   1      10.934  -8.677  -2.768  0.00  0.00     0.066 H 
ATOM     40  H   LIG d   1       9.276  -9.206  -2.392  0.00  0.00     0.066 H 
ATOM     41  H   LIG d   1       9.671  -7.470  -2.428  0.00  0.00     0.066 H 
ENDBRANCH  37  38
ENDBRANCH   1  37
TORSDOF 9
ENDMDL
MODEL 7
REMARK VINA RESULT:      -5.2      3.612      6.090
REMARK  9 active torsions:
REMARK  status: ('A' for Active; 'I' for Inactive)
REMARK    1  A    between atoms: C_1  and  O_2 
REMARK    2  A    between atoms: O_2  and  C_3 
REMARK    3  A    between atoms: C_8  and  O_9 
REMARK    4  A    between atoms: O_9  and  C_10 
REMARK    5  A    between atoms: C_14  and  C_16 
REMARK    6  A    between atoms: C_16  and  C_17 
REMARK    7  A    between atoms: C_17  and  C_19 
REMARK    8  A    between atoms: C_22  and  O_26 
REMARK    9  A    between atoms: C_24  and  O_25 
ROOT
ATOM      1  C   LIG d   1       6.931  -8.176  -4.924  0.00  0.00     0.162 A 
ATOM      2  C   LIG d   1       8.089  -7.436  -4.754  0.00  0.00    -0.016 A 
ATOM      3  C   LIG d   1       8.090  -6.073  -5.002  0.00  0.00    -0.051 A 
ATOM      4  C   LIG d   1       6.938  -5.444  -5.408  0.00  0.00     0.011 A 
ATOM      5  C   LIG d   1       5.755  -6.174  -5.580  0.00  0.00     0.111 A 
ATOM      6  C   LIG d   1       5.757  -7.553  -5.333  0.00  0.00     0.176 A 
ATOM      7  C   LIG d   1       4.702  -5.242  -6.013  0.00  0.00     0.344 A 
ATOM      8  O   LIG d   1       3.552  -5.555  -6.250  0.00  0.00    -0.245 OA
ATOM      9  O   LIG d   1       5.195  -3.996  -6.109  0.00  0.00    -0.453 OA
ATOM     10  C   LIG d   1       6.603  -4.013  -5.747  0.00  0.00     0.136 A 
ATOM     11  H   LIG d   1       7.209  -3.676  -6.587  0.00  0.00     0.079 H 
ATOM     12  H   LIG d   1       8.997  -7.924  -4.432  0.00  0.00     0.066 H 
ATOM     13  H   LIG d   1       8.997  -5.501  -4.872  0.00  0.00     0.062 H 
ENDROOT
BRANCH  10  14
ATOM     14  C   LIG d   1       6.844  -3.115  -4.531  0.00  0.00     0.052 C 
ATOM     15  H   LIG d   1       6.192  -3.349  -3.810  0.00  0.00     0.038 H 
ATOM     16  H   LIG d   1       7.860  -3.264  -4.166  0.00  0.00     0.038 H 
BRANCH  14  17
ATOM     17  C   LIG d   1       6.658  -1.673  -4.928  0.00  0.00     0.171 C 
ATOM     18  O   LIG d   1       7.253  -1.226  -5.886  0.00  0.00    -0.292 OA
BRANCH  17  19
ATOM     19  C   LIG d   1       5.761  -0.811  -4.155  0.00  0.00     0.059 A 
ATOM     20  C   LIG d   1       6.279   0.267  -3.416  0.00  0.00     0.131 A 
ATOM     21  C   LIG d   1       5.421   1.076  -2.691  0.00  0.00     0.022 A 
ATOM     22  C   LIG d   1       4.057   0.817  -2.697  0.00  0.00     0.120 A 
ATOM     23  H   LIG d   1       5.810   1.905  -2.121  0.00  0.00     0.069 H 
ATOM     24  C   LIG d   1       3.546  -0.251  -3.431  0.00  0.00    -0.019 A 
ATOM     25  C   LIG d   1       4.380  -1.053  -4.154  0.00  0.00    -0.044 A 
ATOM     26  H   LIG d   1       2.484  -0.443  -3.430  0.00  0.00     0.065 H 
ATOM     27  H   LIG d   1       3.976  -1.878  -4.723  0.00  0.00     0.063 H 
BRANCH  20  28
ATOM     28  O   LIG d   1       7.613   0.514  -3.414  0.00  0.00    -0.506 OA
ATOM     29  H   LIG d   1       8.004   0.570  -4.296  0.00  0.00     0.292 HD
ENDBRANCH  20  28
BRANCH  22  30
ATOM     30  O   LIG d   1       3.216   1.610  -1.986  0.00  0.00    -0.507 OA
ATOM     31  H   LIG d   1       3.028   1.284  -1.096  0.00  0.00     0.292 HD
ENDBRANCH  22  30
ENDBRANCH  17  19
ENDBRANCH  14  17
ENDBRANCH  10  14
BRANCH   6  32
ATOM     32  O   LIG d   1       4.620  -8.277  -5.495  0.00  0.00    -0.491 OA
BRANCH  32  33
ATOM     33  C   LIG d   1       4.446  -8.939  -6.750  0.00  0.00     0.079 C 
ATOM     34  H   LIG d   1       3.675  -9.704  -6.653  0.00  0.00     0.066 H 
ATOM     35  H   LIG d   1       4.145  -8.214  -7.505  0.00  0.00     0.066 H 
ATOM     36  H   LIG d   1       5.385  -9.405  -7.048  0.00  0.00     0.066 H 
ENDBRANCH  32  33
ENDBRANCH   6  32
BRANCH   1  37
ATOM     37  O   LIG d   1       6.940  -9.515  -4.684  0.00  0.00    -0.491 OA
BRANCH  37  38
ATOM     38  C   LIG d   1       6.887  -9.929  -3.317  0.00  0.00     0.079 C 
ATOM     39  H   LIG d   1       6.218 -10.784  -3.222  0.00  0.00     0.066 H 
ATOM     40  H   LIG d   1       6.516  -9.108  -2.702  0.00  0.00     0.066 H 
ATOM     41  H   LIG d   1       7.886 -10.210  -2.983  0.00  0.00     0.066 H 
ENDBRANCH  37  38
ENDBRANCH   1  37
TORSDOF 9
ENDMDL
MODEL 8
REMARK VINA RESULT:      -5.1     13.038     15.769
REMARK  9 active torsions:
REMARK  status: ('A' for Active; 'I' for Inactive)
REMARK    1  A    between atoms: C_1  and  O_2 
REMARK    2  A    between atoms: O_2  and  C_3 
REMARK    3  A    between atoms: C_8  and  O_9 
REMARK    4  A    between atoms: O_9  and  C_10 
REMARK    5  A    between atoms: C_14  and  C_16 
REMARK    6  A    between atoms: C_16  and  C_17 
REMARK    7  A    between atoms: C_17  and  C_19 
REMARK    8  A    between atoms: C_22  and  O_26 
REMARK    9  A    between atoms: C_24  and  O_25 
ROOT
ATOM      1  C   LIG d   1      -1.403  11.627 -16.796  0.00  0.00     0.162 A 
ATOM      2  C   LIG d   1      -2.707  11.409 -17.207  0.00  0.00    -0.016 A 
ATOM      3  C   LIG d   1      -3.317  10.186 -16.973  0.00  0.00    -0.051 A 
ATOM      4  C   LIG d   1      -2.637   9.188 -16.321  0.00  0.00     0.011 A 
ATOM      5  C   LIG d   1      -1.319   9.391 -15.891  0.00  0.00     0.111 A 
ATOM      6  C   LIG d   1      -0.701  10.625 -16.133  0.00  0.00     0.176 A 
ATOM      7  C   LIG d   1      -0.858   8.160 -15.232  0.00  0.00     0.344 A 
ATOM      8  O   LIG d   1       0.244   8.004 -14.745  0.00  0.00    -0.245 OA
ATOM      9  O   LIG d   1      -1.830   7.232 -15.246  0.00  0.00    -0.453 OA
ATOM     10  C   LIG d   1      -3.001   7.782 -15.913  0.00  0.00     0.136 A 
ATOM     11  H   LIG d   1      -3.243   7.187 -16.793  0.00  0.00     0.079 H 
ATOM     12  H   LIG d   1      -3.248  12.191 -17.717  0.00  0.00     0.066 H 
ATOM     13  H   LIG d   1      -4.334  10.020 -17.301  0.00  0.00     0.062 H 
ENDROOT
BRANCH  10  14
ATOM     14  C   LIG d   1      -4.190   7.806 -14.951  0.00  0.00     0.052 C 
ATOM     15  H   LIG d   1      -3.858   7.774 -14.008  0.00  0.00     0.038 H 
ATOM     16  H   LIG d   1      -4.763   8.720 -15.104  0.00  0.00     0.038 H 
BRANCH  14  17
ATOM     17  C   LIG d   1      -5.072   6.611 -15.213  0.00  0.00     0.171 C 
ATOM     18  O   LIG d   1      -5.644   6.502 -16.277  0.00  0.00    -0.292 OA
BRANCH  17  19
ATOM     19  C   LIG d   1      -5.238   5.584 -14.182  0.00  0.00     0.059 A 
ATOM     20  C   LIG d   1      -4.172   4.726 -13.860  0.00  0.00     0.131 A 
ATOM     21  C   LIG d   1      -4.341   3.760 -12.884  0.00  0.00     0.022 A 
ATOM     22  C   LIG d   1      -5.560   3.643 -12.230  0.00  0.00     0.120 A 
ATOM     23  H   LIG d   1      -3.528   3.097 -12.631  0.00  0.00     0.069 H 
ATOM     24  C   LIG d   1      -6.614   4.496 -12.550  0.00  0.00    -0.019 A 
ATOM     25  C   LIG d   1      -6.460   5.455 -13.507  0.00  0.00    -0.044 A 
ATOM     26  H   LIG d   1      -7.558   4.398 -12.035  0.00  0.00     0.065 H 
ATOM     27  H   LIG d   1      -7.282   6.115 -13.747  0.00  0.00     0.063 H 
BRANCH  20  28
ATOM     28  O   LIG d   1      -2.983   4.844 -14.504  0.00  0.00    -0.506 OA
ATOM     29  H   LIG d   1      -2.333   5.382 -14.032  0.00  0.00     0.292 HD
ENDBRANCH  20  28
BRANCH  22  30
ATOM     30  O   LIG d   1      -5.725   2.696 -11.273  0.00  0.00    -0.507 OA
ATOM     31  H   LIG d   1      -6.321   1.979 -11.528  0.00  0.00     0.292 HD
ENDBRANCH  22  30
ENDBRANCH  17  19
ENDBRANCH  14  17
ENDBRANCH  10  14
BRANCH   6  32
ATOM     32  O   LIG d   1       0.575  10.840 -15.725  0.00  0.00    -0.491 OA
BRANCH  32  33
ATOM     33  C   LIG d   1       1.615  10.539 -16.659  0.00  0.00     0.079 C 
ATOM     34  H   LIG d   1       1.173  10.205 -17.598  0.00  0.00     0.066 H 
ATOM     35  H   LIG d   1       2.213  11.432 -16.836  0.00  0.00     0.066 H 
ATOM     36  H   LIG d   1       2.249   9.751 -16.254  0.00  0.00     0.066 H 
ENDBRANCH  32  33
ENDBRANCH   6  32
BRANCH   1  37
ATOM     37  O   LIG d   1      -0.808  12.827 -17.034  0.00  0.00    -0.491 OA
BRANCH  37  38
ATOM     38  C   LIG d   1      -0.535  13.156 -18.398  0.00  0.00     0.079 C 
ATOM     39  H   LIG d   1      -1.474  13.263 -18.941  0.00  0.00     0.066 H 
ATOM     40  H   LIG d   1       0.059  12.362 -18.852  0.00  0.00     0.066 H 
ATOM     41  H   LIG d   1       0.019  14.093 -18.441  0.00  0.00     0.066 H 
ENDBRANCH  37  38
ENDBRANCH   1  37
TORSDOF 9
ENDMDL
MODEL 9
REMARK VINA RESULT:      -5.1      4.208      5.801
REMARK  9 active torsions:
REMARK  status: ('A' for Active; 'I' for Inactive)
REMARK    1  A    between atoms: C_1  and  O_2 
REMARK    2  A    between atoms: O_2  and  C_3 
REMARK    3  A    between atoms: C_8  and  O_9 
REMARK    4  A    between atoms: O_9  and  C_10 
REMARK    5  A    between atoms: C_14  and  C_16 
REMARK    6  A    between atoms: C_16  and  C_17 
REMARK    7  A    between atoms: C_17  and  C_19 
REMARK    8  A    between atoms: C_22  and  O_26 
REMARK    9  A    between atoms: C_24  and  O_25 
ROOT
ATOM      1  C   LIG d   1       4.780  -0.855  -4.076  0.00  0.00     0.162 A 
ATOM      2  C   LIG d   1       5.500  -0.212  -3.084  0.00  0.00    -0.016 A 
ATOM      3  C   LIG d   1       6.707   0.401  -3.383  0.00  0.00    -0.051 A 
ATOM      4  C   LIG d   1       7.191   0.384  -4.668  0.00  0.00     0.011 A 
ATOM      5  C   LIG d   1       6.474  -0.256  -5.687  0.00  0.00     0.111 A 
ATOM      6  C   LIG d   1       5.256  -0.879  -5.383  0.00  0.00     0.176 A 
ATOM      7  C   LIG d   1       7.230  -0.109  -6.940  0.00  0.00     0.344 A 
ATOM      8  O   LIG d   1       6.883  -0.551  -8.017  0.00  0.00    -0.245 OA
ATOM      9  O   LIG d   1       8.361   0.583  -6.722  0.00  0.00    -0.453 OA
ATOM     10  C   LIG d   1       8.433   0.944  -5.315  0.00  0.00     0.136 A 
ATOM     11  H   LIG d   1       9.321   0.505  -4.862  0.00  0.00     0.079 H 
ATOM     12  H   LIG d   1       5.123  -0.192  -2.073  0.00  0.00     0.066 H 
ATOM     13  H   LIG d   1       7.268   0.897  -2.604  0.00  0.00     0.062 H 
ENDROOT
BRANCH  10  14
ATOM     14  C   LIG d   1       8.462   2.466  -5.164  0.00  0.00     0.052 C 
ATOM     15  H   LIG d   1       8.363   2.893  -6.063  0.00  0.00     0.038 H 
ATOM     16  H   LIG d   1       7.643   2.783  -4.518  0.00  0.00     0.038 H 
BRANCH  14  17
ATOM     17  C   LIG d   1       9.775   2.885  -4.552  0.00  0.00     0.171 C 
ATOM     18  O   LIG d   1      10.761   2.194  -4.702  0.00  0.00    -0.292 OA
BRANCH  17  19
ATOM     19  C   LIG d   1       9.859   4.125  -3.777  0.00  0.00     0.059 A 
ATOM     20  C   LIG d   1      10.412   4.114  -2.484  0.00  0.00     0.131 A 
ATOM     21  C   LIG d   1      10.487   5.292  -1.761  0.00  0.00     0.022 A 
ATOM     22  C   LIG d   1      10.018   6.475  -2.316  0.00  0.00     0.120 A 
ATOM     23  H   LIG d   1      10.909   5.292  -0.768  0.00  0.00     0.069 H 
ATOM     24  C   LIG d   1       9.473   6.483  -3.598  0.00  0.00    -0.019 A 
ATOM     25  C   LIG d   1       9.396   5.330  -4.323  0.00  0.00    -0.044 A 
ATOM     26  H   LIG d   1       9.111   7.409  -4.021  0.00  0.00     0.065 H 
ATOM     27  H   LIG d   1       8.974   5.345  -5.318  0.00  0.00     0.063 H 
BRANCH  20  28
ATOM     28  O   LIG d   1      10.868   2.954  -1.947  0.00  0.00    -0.506 OA
ATOM     29  H   LIG d   1      10.533   2.774  -1.058  0.00  0.00     0.292 HD
ENDBRANCH  20  28
BRANCH  22  30
ATOM     30  O   LIG d   1      10.093   7.629  -1.607  0.00  0.00    -0.507 OA
ATOM     31  H   LIG d   1       9.788   7.549  -0.693  0.00  0.00     0.292 HD
ENDBRANCH  22  30
ENDBRANCH  17  19
ENDBRANCH  14  17
ENDBRANCH  10  14
BRANCH   6  32
ATOM     32  O   LIG d   1       4.548  -1.505  -6.357  0.00  0.00    -0.491 OA
BRANCH  32  33
ATOM     33  C   LIG d   1       3.609  -0.712  -7.087  0.00  0.00     0.079 C 
ATOM     34  H   LIG d   1       3.329   0.158  -6.493  0.00  0.00     0.066 H 
ATOM     35  H   LIG d   1       4.060  -0.383  -8.022  0.00  0.00     0.066 H 
ATOM     36  H   LIG d   1       2.721  -1.306  -7.301  0.00  0.00     0.066 H 
ENDBRANCH  32  33
ENDBRANCH   6  32
BRANCH   1  37
ATOM     37  O   LIG d   1       3.598  -1.458  -3.774  0.00  0.00    -0.491 OA
BRANCH  37  38
ATOM     38  C   LIG d   1       2.619  -0.665  -3.100  0.00  0.00     0.079 C 
ATOM     39  H   LIG d   1       2.857   0.391  -3.225  0.00  0.00     0.066 H 
ATOM     40  H   LIG d   1       2.618  -0.914  -2.038  0.00  0.00     0.066 H 
ATOM     41  H   LIG d   1       1.634  -0.868  -3.521  0.00  0.00     0.066 H 
ENDBRANCH  37  38
ENDBRANCH   1  37
TORSDOF 9
ENDMDL
MODEL 10
REMARK VINA RESULT:      -5.1      9.847     11.876
REMARK  9 active torsions:
REMARK  status: ('A' for Active; 'I' for Inactive)
REMARK    1  A    between atoms: C_1  and  O_2 
REMARK    2  A    between atoms: O_2  and  C_3 
REMARK    3  A    between atoms: C_8  and  O_9 
REMARK    4  A    between atoms: O_9  and  C_10 
REMARK    5  A    between atoms: C_14  and  C_16 
REMARK    6  A    between atoms: C_16  and  C_17 
REMARK    7  A    between atoms: C_17  and  C_19 
REMARK    8  A    between atoms: C_22  and  O_26 
REMARK    9  A    between atoms: C_24  and  O_25 
ROOT
ATOM      1  C   LIG d   1       9.842  12.615  -5.727  0.00  0.00     0.162 A 
ATOM      2  C   LIG d   1       9.669  12.122  -4.445  0.00  0.00    -0.016 A 
ATOM      3  C   LIG d   1       9.501  10.762  -4.237  0.00  0.00    -0.051 A 
ATOM      4  C   LIG d   1       9.517   9.893  -5.301  0.00  0.00     0.011 A 
ATOM      5  C   LIG d   1       9.697  10.372  -6.604  0.00  0.00     0.111 A 
ATOM      6  C   LIG d   1       9.861  11.748  -6.814  0.00  0.00     0.176 A 
ATOM      7  C   LIG d   1       9.669   9.222  -7.521  0.00  0.00     0.344 A 
ATOM      8  O   LIG d   1       9.797   9.293  -8.727  0.00  0.00    -0.245 OA
ATOM      9  O   LIG d   1       9.482   8.084  -6.834  0.00  0.00    -0.453 OA
ATOM     10  C   LIG d   1       9.373   8.396  -5.417  0.00  0.00     0.136 A 
ATOM     11  H   LIG d   1       8.401   8.083  -5.039  0.00  0.00     0.079 H 
ATOM     12  H   LIG d   1       9.660  12.800  -3.604  0.00  0.00     0.066 H 
ATOM     13  H   LIG d   1       9.362  10.383  -3.235  0.00  0.00     0.062 H 
ENDROOT
BRANCH  10  14
ATOM     14  C   LIG d   1      10.491   7.699  -4.638  0.00  0.00     0.052 C 
ATOM     15  H   LIG d   1      11.043   7.150  -5.266  0.00  0.00     0.038 H 
ATOM     16  H   LIG d   1      11.121   8.448  -4.159  0.00  0.00     0.038 H 
BRANCH  14  17
ATOM     17  C   LIG d   1       9.886   6.804  -3.587  0.00  0.00     0.171 C 
ATOM     18  O   LIG d   1       9.083   5.952  -3.905  0.00  0.00    -0.292 OA
BRANCH  17  19
ATOM     19  C   LIG d   1      10.268   6.963  -2.182  0.00  0.00     0.059 A 
ATOM     20  C   LIG d   1      10.489   5.832  -1.377  0.00  0.00     0.131 A 
ATOM     21  C   LIG d   1      10.849   5.994  -0.050  0.00  0.00     0.022 A 
ATOM     22  C   LIG d   1      10.991   7.271   0.476  0.00  0.00     0.120 A 
ATOM     23  H   LIG d   1      11.020   5.131   0.574  0.00  0.00     0.069 H 
ATOM     24  C   LIG d   1      10.772   8.390  -0.325  0.00  0.00    -0.019 A 
ATOM     25  C   LIG d   1      10.420   8.244  -1.634  0.00  0.00    -0.044 A 
ATOM     26  H   LIG d   1      10.885   9.379   0.095  0.00  0.00     0.065 H 
ATOM     27  H   LIG d   1      10.256   9.117  -2.249  0.00  0.00     0.063 H 
BRANCH  20  28
ATOM     28  O   LIG d   1      10.348   4.586  -1.897  0.00  0.00    -0.506 OA
ATOM     29  H   LIG d   1      11.156   4.056  -1.871  0.00  0.00     0.292 HD
ENDBRANCH  20  28
BRANCH  22  30
ATOM     30  O   LIG d   1      11.345   7.430   1.776  0.00  0.00    -0.507 OA
ATOM     31  H   LIG d   1      10.664   7.846   2.321  0.00  0.00     0.292 HD
ENDBRANCH  22  30
ENDBRANCH  17  19
ENDBRANCH  14  17
ENDBRANCH  10  14
BRANCH   6  32
ATOM     32  O   LIG d   1      10.036  12.230  -8.070  0.00  0.00    -0.491 OA
BRANCH  32  33
ATOM     33  C   LIG d   1      11.382  12.374  -8.529  0.00  0.00     0.079 C 
ATOM     34  H   LIG d   1      12.046  11.787  -7.894  0.00  0.00     0.066 H 
ATOM     35  H   LIG d   1      11.455  12.021  -9.557  0.00  0.00     0.066 H 
ATOM     36  H   LIG d   1      11.671  13.424  -8.484  0.00  0.00     0.066 H 
ENDBRANCH  32  33
ENDBRANCH   6  32
BRANCH   1  37
ATOM     37  O   LIG d   1      10.001  13.952  -5.924  0.00  0.00    -0.491 OA
BRANCH  37  38
ATOM     38  C   LIG d   1       9.218  14.826  -5.107  0.00  0.00     0.079 C 
ATOM     39  H   LIG d   1       9.384  15.858  -5.415  0.00  0.00     0.066 H 
ATOM     40  H   LIG d   1       9.510  14.707  -4.063  0.00  0.00     0.066 H 
ATOM     41  H   LIG d   1       8.162  14.578  -5.218  0.00  0.00     0.066 H 
ENDBRANCH  37  38
ENDBRANCH   1  37
TORSDOF 9
ENDMDL
