MODEL 1
REMARK VINA RESULT:      -4.5      0.000      0.000
REMARK  5 active torsions:
REMARK  status: ('A' for Active; 'I' for Inactive)
REMARK    1  A    between atoms: C_2  and  N_26 
REMARK    2  A    between atoms: C_4  and  O_13 
REMARK    3  A    between atoms: C_6  and  O_12 
REMARK    4  A    between atoms: C_7  and  O_11 
REMARK    5  A    between atoms: C_9  and  N_24 
ROOT
ATOM      1  C   LIG d   1       5.556  -1.969  -4.093  0.00  0.00     0.038 C 
ATOM      2  C   LIG d   1       4.039  -2.008  -3.895  0.00  0.00     0.010 C 
ATOM      3  H   LIG d   1       3.608  -2.771  -4.542  0.00  0.00     0.088 H 
ATOM      4  C   LIG d   1       3.443  -0.644  -4.248  0.00  0.00     0.126 C 
ATOM      5  H   LIG d   1       3.668  -0.407  -5.288  0.00  0.00     0.068 H 
ATOM      6  C   LIG d   1       4.048   0.428  -3.338  0.00  0.00     0.117 C 
ATOM      7  C   LIG d   1       5.565   0.467  -3.536  0.00  0.00     0.126 C 
ATOM      8  H   LIG d   1       5.789   0.704  -4.576  0.00  0.00     0.068 H 
ATOM      9  C   LIG d   1       6.160  -0.897  -3.183  0.00  0.00     0.010 C 
ATOM     10  H   LIG d   1       5.936  -1.134  -2.143  0.00  0.00     0.088 H 
ATOM     11  H   LIG d   1       5.780  -1.732  -5.133  0.00  0.00     0.038 H 
ATOM     12  H   LIG d   1       5.980  -2.940  -3.842  0.00  0.00     0.038 H 
ATOM     13  H   LIG d   1       3.824   0.191  -2.298  0.00  0.00     0.065 H 
ENDROOT
BRANCH   2  14
ATOM     14  N   LIG d   1       3.710  -2.328  -2.494  0.00  0.00     0.223 N 
ATOM     15  H   LIG d   1       2.735  -2.104  -2.304  0.00  0.00     0.200 HD
ATOM     16  H   LIG d   1       3.871  -3.318  -2.315  0.00  0.00     0.200 HD
ATOM     17  H   LIG d   1       4.310  -1.773  -1.872  0.00  0.00     0.200 HD
ENDBRANCH   2  14
BRANCH   4  18
ATOM     18  O   LIG d   1       2.027  -0.681  -4.062  0.00  0.00    -0.384 OA
ATOM     19  H   LIG d   1       1.539  -0.076  -4.638  0.00  0.00     0.210 HD
ENDBRANCH   4  18
BRANCH   9  20
ATOM     20  N   LIG d   1       7.623  -0.842  -3.356  0.00  0.00     0.223 N 
ATOM     21  H   LIG d   1       7.883   0.001  -3.866  0.00  0.00     0.200 HD
ATOM     22  H   LIG d   1       8.083  -0.842  -2.446  0.00  0.00     0.200 HD
ATOM     23  H   LIG d   1       7.932  -1.664  -3.887  0.00  0.00     0.200 HD
ENDBRANCH   9  20
BRANCH   6  24
ATOM     24  O   LIG d   1       3.491   1.702  -3.667  0.00  0.00    -0.386 OA
ATOM     25  H   LIG d   1       2.620   1.655  -4.085  0.00  0.00     0.210 HD
ENDBRANCH   6  24
BRANCH   7  26
ATOM     26  O   LIG d   1       6.131   1.468  -2.687  0.00  0.00    -0.384 OA
ATOM     27  H   LIG d   1       5.679   2.322  -2.731  0.00  0.00     0.210 HD
ENDBRANCH   7  26
TORSDOF 5
ENDMDL
MODEL 2
REMARK VINA RESULT:      -4.5      1.916      2.929
REMARK  5 active torsions:
REMARK  status: ('A' for Active; 'I' for Inactive)
REMARK    1  A    between atoms: C_2  and  N_26 
REMARK    2  A    between atoms: C_4  and  O_13 
REMARK    3  A    between atoms: C_6  and  O_12 
REMARK    4  A    between atoms: C_7  and  O_11 
REMARK    5  A    between atoms: C_9  and  N_24 
ROOT
ATOM      1  C   LIG d   1       4.046  -2.106  -2.757  0.00  0.00     0.038 C 
ATOM      2  C   LIG d   1       4.227  -0.740  -2.090  0.00  0.00     0.010 C 
ATOM      3  H   LIG d   1       4.044  -0.831  -1.021  0.00  0.00     0.088 H 
ATOM      4  C   LIG d   1       3.238   0.258  -2.695  0.00  0.00     0.126 C 
ATOM      5  H   LIG d   1       2.220  -0.095  -2.530  0.00  0.00     0.068 H 
ATOM      6  C   LIG d   1       3.497   0.386  -4.198  0.00  0.00     0.117 C 
ATOM      7  C   LIG d   1       3.315  -0.979  -4.864  0.00  0.00     0.126 C 
ATOM      8  H   LIG d   1       2.297  -1.332  -4.699  0.00  0.00     0.068 H 
ATOM      9  C   LIG d   1       4.304  -1.977  -4.260  0.00  0.00     0.010 C 
ATOM     10  H   LIG d   1       5.322  -1.625  -4.425  0.00  0.00     0.088 H 
ATOM     11  H   LIG d   1       3.028  -2.458  -2.592  0.00  0.00     0.038 H 
ATOM     12  H   LIG d   1       4.751  -2.816  -2.326  0.00  0.00     0.038 H 
ATOM     13  H   LIG d   1       4.515   0.738  -4.363  0.00  0.00     0.065 H 
ENDROOT
BRANCH   2  14
ATOM     14  N   LIG d   1       5.599  -0.243  -2.300  0.00  0.00     0.223 N 
ATOM     15  H   LIG d   1       6.180  -0.977  -2.702  0.00  0.00     0.200 HD
ATOM     16  H   LIG d   1       5.587   0.560  -2.927  0.00  0.00     0.200 HD
ATOM     17  H   LIG d   1       5.996   0.042  -1.398  0.00  0.00     0.200 HD
ENDBRANCH   2  14
BRANCH   4  18
ATOM     18  O   LIG d   1       3.408   1.533  -2.073  0.00  0.00    -0.384 OA
ATOM     19  H   LIG d   1       4.136   1.566  -1.437  0.00  0.00     0.210 HD
ENDBRANCH   4  18
BRANCH   9  20
ATOM     20  N   LIG d   1       4.136  -3.282  -4.924  0.00  0.00     0.223 N 
ATOM     21  H   LIG d   1       5.036  -3.622  -5.258  0.00  0.00     0.200 HD
ATOM     22  H   LIG d   1       3.740  -3.958  -4.271  0.00  0.00     0.200 HD
ATOM     23  H   LIG d   1       3.500  -3.175  -5.722  0.00  0.00     0.200 HD
ENDBRANCH   9  20
BRANCH   6  24
ATOM     24  O   LIG d   1       2.572   1.319  -4.762  0.00  0.00    -0.386 OA
ATOM     25  H   LIG d   1       2.209   1.045  -5.616  0.00  0.00     0.210 HD
ENDBRANCH   6  24
BRANCH   7  26
ATOM     26  O   LIG d   1       3.556  -0.860  -6.268  0.00  0.00    -0.384 OA
ATOM     27  H   LIG d   1       4.427  -1.175  -6.545  0.00  0.00     0.210 HD
ENDBRANCH   7  26
TORSDOF 5
ENDMDL
MODEL 3
REMARK VINA RESULT:      -4.3      2.315      3.106
REMARK  5 active torsions:
REMARK  status: ('A' for Active; 'I' for Inactive)
REMARK    1  A    between atoms: C_2  and  N_26 
REMARK    2  A    between atoms: C_4  and  O_13 
REMARK    3  A    between atoms: C_6  and  O_12 
REMARK    4  A    between atoms: C_7  and  O_11 
REMARK    5  A    between atoms: C_9  and  N_24 
ROOT
ATOM      1  C   LIG d   1       3.645  -1.074  -2.673  0.00  0.00     0.038 C 
ATOM      2  C   LIG d   1       4.303  -2.122  -3.573  0.00  0.00     0.010 C 
ATOM      3  H   LIG d   1       3.934  -3.112  -3.308  0.00  0.00     0.088 H 
ATOM      4  C   LIG d   1       5.821  -2.076  -3.383  0.00  0.00     0.126 C 
ATOM      5  H   LIG d   1       6.064  -2.287  -2.342  0.00  0.00     0.068 H 
ATOM      6  C   LIG d   1       6.339  -0.686  -3.757  0.00  0.00     0.117 C 
ATOM      7  C   LIG d   1       5.681   0.362  -2.856  0.00  0.00     0.126 C 
ATOM      8  H   LIG d   1       5.924   0.151  -1.815  0.00  0.00     0.068 H 
ATOM      9  C   LIG d   1       4.164   0.316  -3.046  0.00  0.00     0.010 C 
ATOM     10  H   LIG d   1       3.921   0.528  -4.087  0.00  0.00     0.088 H 
ATOM     11  H   LIG d   1       3.887  -1.286  -1.632  0.00  0.00     0.038 H 
ATOM     12  H   LIG d   1       2.564  -1.107  -2.808  0.00  0.00     0.038 H 
ATOM     13  H   LIG d   1       6.097  -0.474  -4.798  0.00  0.00     0.065 H 
ENDROOT
BRANCH   2  14
ATOM     14  N   LIG d   1       3.988  -1.857  -4.988  0.00  0.00     0.223 N 
ATOM     15  H   LIG d   1       4.622  -2.378  -5.592  0.00  0.00     0.200 HD
ATOM     16  H   LIG d   1       3.028  -2.131  -5.189  0.00  0.00     0.200 HD
ATOM     17  H   LIG d   1       4.096  -0.853  -5.176  0.00  0.00     0.200 HD
ENDBRANCH   2  14
BRANCH   4  18
ATOM     18  O   LIG d   1       6.435  -3.054  -4.225  0.00  0.00    -0.384 OA
ATOM     19  H   LIG d   1       5.925  -3.266  -5.019  0.00  0.00     0.210 HD
ENDBRANCH   4  18
BRANCH   9  20
ATOM     20  N   LIG d   1       3.542   1.343  -2.192  0.00  0.00     0.223 N 
ATOM     21  H   LIG d   1       4.245   2.010  -1.879  0.00  0.00     0.200 HD
ATOM     22  H   LIG d   1       2.814   1.836  -2.710  0.00  0.00     0.200 HD
ATOM     23  H   LIG d   1       3.121   0.891  -1.372  0.00  0.00     0.200 HD
ENDBRANCH   9  20
BRANCH   6  24
ATOM     24  O   LIG d   1       7.757  -0.643  -3.580  0.00  0.00    -0.386 OA
ATOM     25  H   LIG d   1       8.256  -1.052  -4.301  0.00  0.00     0.210 HD
ENDBRANCH   6  24
BRANCH   7  26
ATOM     26  O   LIG d   1       6.166   1.661  -3.204  0.00  0.00    -0.384 OA
ATOM     27  H   LIG d   1       6.128   2.301  -2.480  0.00  0.00     0.210 HD
ENDBRANCH   7  26
TORSDOF 5
ENDMDL
MODEL 4
REMARK VINA RESULT:      -4.2      2.068      2.563
REMARK  5 active torsions:
REMARK  status: ('A' for Active; 'I' for Inactive)
REMARK    1  A    between atoms: C_2  and  N_26 
REMARK    2  A    between atoms: C_4  and  O_13 
REMARK    3  A    between atoms: C_6  and  O_12 
REMARK    4  A    between atoms: C_7  and  O_11 
REMARK    5  A    between atoms: C_9  and  N_24 
ROOT
ATOM      1  C   LIG d   1       4.817  -0.091  -2.408  0.00  0.00     0.038 C 
ATOM      2  C   LIG d   1       3.456   0.380  -2.928  0.00  0.00     0.010 C 
ATOM      3  H   LIG d   1       2.725   0.334  -2.122  0.00  0.00     0.088 H 
ATOM      4  C   LIG d   1       3.008  -0.525  -4.077  0.00  0.00     0.126 C 
ATOM      5  H   LIG d   1       2.925  -1.552  -3.720  0.00  0.00     0.068 H 
ATOM      6  C   LIG d   1       4.036  -0.459  -5.208  0.00  0.00     0.117 C 
ATOM      7  C   LIG d   1       5.396  -0.931  -4.689  0.00  0.00     0.126 C 
ATOM      8  H   LIG d   1       5.313  -1.957  -4.333  0.00  0.00     0.068 H 
ATOM      9  C   LIG d   1       5.844  -0.026  -3.540  0.00  0.00     0.010 C 
ATOM     10  H   LIG d   1       5.927   1.001  -3.897  0.00  0.00     0.088 H 
ATOM     11  H   LIG d   1       4.734  -1.117  -2.051  0.00  0.00     0.038 H 
ATOM     12  H   LIG d   1       5.136   0.553  -1.590  0.00  0.00     0.038 H 
ATOM     13  H   LIG d   1       4.119   0.567  -5.565  0.00  0.00     0.065 H 
ENDROOT
BRANCH   2  14
ATOM     14  N   LIG d   1       3.544   1.768  -3.415  0.00  0.00     0.223 N 
ATOM     15  H   LIG d   1       2.803   2.331  -3.002  0.00  0.00     0.200 HD
ATOM     16  H   LIG d   1       4.449   2.167  -3.171  0.00  0.00     0.200 HD
ATOM     17  H   LIG d   1       3.441   1.774  -4.436  0.00  0.00     0.200 HD
ENDBRANCH   2  14
BRANCH   4  18
ATOM     18  O   LIG d   1       1.738  -0.084  -4.562  0.00  0.00    -0.384 OA
ATOM     19  H   LIG d   1       1.773   0.748  -5.053  0.00  0.00     0.210 HD
ENDBRANCH   4  18
BRANCH   9  20
ATOM     20  N   LIG d   1       7.165  -0.475  -3.062  0.00  0.00     0.223 N 
ATOM     21  H   LIG d   1       7.686  -0.901  -3.826  0.00  0.00     0.200 HD
ATOM     22  H   LIG d   1       7.690   0.317  -2.693  0.00  0.00     0.200 HD
ATOM     23  H   LIG d   1       7.036  -1.168  -2.317  0.00  0.00     0.200 HD
ENDBRANCH   9  20
BRANCH   6  24
ATOM     24  O   LIG d   1       3.617  -1.305  -6.282  0.00  0.00    -0.386 OA
ATOM     25  H   LIG d   1       2.966  -0.899  -6.871  0.00  0.00     0.210 HD
ENDBRANCH   6  24
BRANCH   7  26
ATOM     26  O   LIG d   1       6.357  -0.870  -5.746  0.00  0.00    -0.384 OA
ATOM     27  H   LIG d   1       6.260  -0.098  -6.321  0.00  0.00     0.210 HD
ENDBRANCH   7  26
TORSDOF 5
ENDMDL
MODEL 5
REMARK VINA RESULT:      -4.2      1.339      3.281
REMARK  5 active torsions:
REMARK  status: ('A' for Active; 'I' for Inactive)
REMARK    1  A    between atoms: C_2  and  N_26 
REMARK    2  A    between atoms: C_4  and  O_13 
REMARK    3  A    between atoms: C_6  and  O_12 
REMARK    4  A    between atoms: C_7  and  O_11 
REMARK    5  A    between atoms: C_9  and  N_24 
ROOT
ATOM      1  C   LIG d   1       6.083  -1.830  -4.217  0.00  0.00     0.038 C 
ATOM      2  C   LIG d   1       6.513  -0.363  -4.144  0.00  0.00     0.010 C 
ATOM      3  H   LIG d   1       7.571  -0.308  -3.891  0.00  0.00     0.088 H 
ATOM      4  C   LIG d   1       5.693   0.357  -3.071  0.00  0.00     0.126 C 
ATOM      5  H   LIG d   1       5.860  -0.119  -2.105  0.00  0.00     0.068 H 
ATOM      6  C   LIG d   1       4.207   0.279  -3.429  0.00  0.00     0.117 C 
ATOM      7  C   LIG d   1       3.776  -1.187  -3.501  0.00  0.00     0.126 C 
ATOM      8  H   LIG d   1       3.943  -1.663  -2.535  0.00  0.00     0.068 H 
ATOM      9  C   LIG d   1       4.596  -1.907  -4.573  0.00  0.00     0.010 C 
ATOM     10  H   LIG d   1       4.429  -1.431  -5.539  0.00  0.00     0.088 H 
ATOM     11  H   LIG d   1       6.250  -2.305  -3.251  0.00  0.00     0.038 H 
ATOM     12  H   LIG d   1       6.666  -2.342  -4.980  0.00  0.00     0.038 H 
ATOM     13  H   LIG d   1       4.040   0.755  -4.395  0.00  0.00     0.065 H 
ENDROOT
BRANCH   2  14
ATOM     14  N   LIG d   1       6.296   0.302  -5.441  0.00  0.00     0.223 N 
ATOM     15  H   LIG d   1       5.383   0.754  -5.454  0.00  0.00     0.200 HD
ATOM     16  H   LIG d   1       7.022   1.000  -5.601  0.00  0.00     0.200 HD
ATOM     17  H   LIG d   1       6.335  -0.398  -6.190  0.00  0.00     0.200 HD
ENDBRANCH   2  14
BRANCH   4  18
ATOM     18  O   LIG d   1       6.095   1.726  -3.005  0.00  0.00    -0.384 OA
ATOM     19  H   LIG d   1       5.991   2.124  -2.129  0.00  0.00     0.210 HD
ENDBRANCH   4  18
BRANCH   9  20
ATOM     20  N   LIG d   1       4.158  -3.312  -4.650  0.00  0.00     0.223 N 
ATOM     21  H   LIG d   1       3.197  -3.397  -4.324  0.00  0.00     0.200 HD
ATOM     22  H   LIG d   1       4.221  -3.646  -5.612  0.00  0.00     0.200 HD
ATOM     23  H   LIG d   1       4.765  -3.888  -4.056  0.00  0.00     0.200 HD
ENDBRANCH   9  20
BRANCH   6  24
ATOM     24  O   LIG d   1       3.441   0.952  -2.427  0.00  0.00    -0.386 OA
ATOM     25  H   LIG d   1       2.720   0.422  -2.061  0.00  0.00     0.210 HD
ENDBRANCH   6  24
BRANCH   7  26
ATOM     26  O   LIG d   1       2.388  -1.260  -3.834  0.00  0.00    -0.384 OA
ATOM     27  H   LIG d   1       1.797  -1.005  -3.112  0.00  0.00     0.210 HD
ENDBRANCH   7  26
TORSDOF 5
ENDMDL
MODEL 6
REMARK VINA RESULT:      -4.1     10.593     11.920
REMARK  5 active torsions:
REMARK  status: ('A' for Active; 'I' for Inactive)
REMARK    1  A    between atoms: C_2  and  N_26 
REMARK    2  A    between atoms: C_4  and  O_13 
REMARK    3  A    between atoms: C_6  and  O_12 
REMARK    4  A    between atoms: C_7  and  O_11 
REMARK    5  A    between atoms: C_9  and  N_24 
ROOT
ATOM      1  C   LIG d   1      10.764  10.436  -1.155  0.00  0.00     0.038 C 
ATOM      2  C   LIG d   1      11.725   9.741  -0.189  0.00  0.00     0.010 C 
ATOM      3  H   LIG d   1      12.738  10.099  -0.364  0.00  0.00     0.088 H 
ATOM      4  C   LIG d   1      11.671   8.229  -0.415  0.00  0.00     0.126 C 
ATOM      5  H   LIG d   1      11.963   8.004  -1.441  0.00  0.00     0.068 H 
ATOM      6  C   LIG d   1      10.247   7.726  -0.167  0.00  0.00     0.117 C 
ATOM      7  C   LIG d   1       9.286   8.421  -1.134  0.00  0.00     0.126 C 
ATOM      8  H   LIG d   1       9.578   8.196  -2.160  0.00  0.00     0.068 H 
ATOM      9  C   LIG d   1       9.340   9.933  -0.907  0.00  0.00     0.010 C 
ATOM     10  H   LIG d   1       9.048  10.158   0.118  0.00  0.00     0.088 H 
ATOM     11  H   LIG d   1      11.055  10.212  -2.181  0.00  0.00     0.038 H 
ATOM     12  H   LIG d   1      10.802  11.513  -0.994  0.00  0.00     0.038 H 
ATOM     13  H   LIG d   1       9.956   7.951   0.859  0.00  0.00     0.065 H 
ENDROOT
BRANCH   2  14
ATOM     14  N   LIG d   1      11.350  10.031   1.207  0.00  0.00     0.223 N 
ATOM     15  H   LIG d   1      10.913  10.950   1.268  0.00  0.00     0.200 HD
ATOM     16  H   LIG d   1      10.702   9.324   1.549  0.00  0.00     0.200 HD
ATOM     17  H   LIG d   1      12.194  10.022   1.792  0.00  0.00     0.200 HD
ENDBRANCH   2  14
BRANCH   4  18
ATOM     18  O   LIG d   1      12.568   7.580   0.489  0.00  0.00    -0.384 OA
ATOM     19  H   LIG d   1      13.492   7.848   0.386  0.00  0.00     0.210 HD
ENDBRANCH   4  18
BRANCH   9  20
ATOM     20  N   LIG d   1       8.395  10.590  -1.828  0.00  0.00     0.223 N 
ATOM     21  H   LIG d   1       8.547  11.597  -1.825  0.00  0.00     0.200 HD
ATOM     22  H   LIG d   1       8.522  10.231  -2.774  0.00  0.00     0.200 HD
ATOM     23  H   LIG d   1       7.435  10.395  -1.522  0.00  0.00     0.200 HD
ENDBRANCH   9  20
BRANCH   6  24
ATOM     24  O   LIG d   1      10.197   6.314  -0.378  0.00  0.00    -0.386 OA
ATOM     25  H   LIG d   1      10.132   5.796   0.436  0.00  0.00     0.210 HD
ENDBRANCH   6  24
BRANCH   7  26
ATOM     26  O   LIG d   1       7.956   7.952  -0.903  0.00  0.00    -0.384 OA
ATOM     27  H   LIG d   1       7.273   8.472  -1.348  0.00  0.00     0.210 HD
ENDBRANCH   7  26
TORSDOF 5
ENDMDL
MODEL 7
REMARK VINA RESULT:      -3.9     10.468     11.498
REMARK  5 active torsions:
REMARK  status: ('A' for Active; 'I' for Inactive)
REMARK    1  A    between atoms: C_2  and  N_26 
REMARK    2  A    between atoms: C_4  and  O_13 
REMARK    3  A    between atoms: C_6  and  O_12 
REMARK    4  A    between atoms: C_7  and  O_11 
REMARK    5  A    between atoms: C_9  and  N_24 
ROOT
ATOM      1  C   LIG d   1      11.469   9.998  -0.550  0.00  0.00     0.038 C 
ATOM      2  C   LIG d   1      10.382  10.613  -1.434  0.00  0.00     0.010 C 
ATOM      3  H   LIG d   1      10.376  11.694  -1.302  0.00  0.00     0.088 H 
ATOM      4  C   LIG d   1       9.019  10.042  -1.037  0.00  0.00     0.126 C 
ATOM      5  H   LIG d   1       8.815  10.280   0.007  0.00  0.00     0.068 H 
ATOM      6  C   LIG d   1       9.028   8.523  -1.223  0.00  0.00     0.117 C 
ATOM      7  C   LIG d   1      10.114   7.908  -0.339  0.00  0.00     0.126 C 
ATOM      8  H   LIG d   1       9.910   8.146   0.705  0.00  0.00     0.068 H 
ATOM      9  C   LIG d   1      11.477   8.479  -0.735  0.00  0.00     0.010 C 
ATOM     10  H   LIG d   1      11.681   8.241  -1.779  0.00  0.00     0.088 H 
ATOM     11  H   LIG d   1      11.265  10.235   0.494  0.00  0.00     0.038 H 
ATOM     12  H   LIG d   1      12.439  10.404  -0.832  0.00  0.00     0.038 H 
ATOM     13  H   LIG d   1       9.231   8.286  -2.267  0.00  0.00     0.065 H 
ENDROOT
BRANCH   2  14
ATOM     14  N   LIG d   1      10.637  10.305  -2.852  0.00  0.00     0.223 N 
ATOM     15  H   LIG d   1      10.643   9.296  -2.996  0.00  0.00     0.200 HD
ATOM     16  H   LIG d   1       9.915  10.725  -3.436  0.00  0.00     0.200 HD
ATOM     17  H   LIG d   1      11.550  10.688  -3.122  0.00  0.00     0.200 HD
ENDBRANCH   2  14
BRANCH   4  18
ATOM     18  O   LIG d   1       8.004  10.616  -1.864  0.00  0.00    -0.384 OA
ATOM     19  H   LIG d   1       8.261  11.451  -2.279  0.00  0.00     0.210 HD
ENDBRANCH   4  18
BRANCH   9  20
ATOM     20  N   LIG d   1      12.519   7.863   0.107  0.00  0.00     0.223 N 
ATOM     21  H   LIG d   1      13.089   8.586   0.541  0.00  0.00     0.200 HD
ATOM     22  H   LIG d   1      12.088   7.290   0.832  0.00  0.00     0.200 HD
ATOM     23  H   LIG d   1      13.118   7.269  -0.477  0.00  0.00     0.200 HD
ENDBRANCH   9  20
BRANCH   6  24
ATOM     24  O   LIG d   1       7.754   7.991  -0.853  0.00  0.00    -0.386 OA
ATOM     25  H   LIG d   1       7.450   8.269   0.022  0.00  0.00     0.210 HD
ENDBRANCH   6  24
BRANCH   7  26
ATOM     26  O   LIG d   1      10.123   6.489  -0.512  0.00  0.00    -0.384 OA
ATOM     27  H   LIG d   1      10.866   6.162  -1.037  0.00  0.00     0.210 HD
ENDBRANCH   7  26
TORSDOF 5
ENDMDL
MODEL 8
REMARK VINA RESULT:      -3.8     10.134     11.823
REMARK  5 active torsions:
REMARK  status: ('A' for Active; 'I' for Inactive)
REMARK    1  A    between atoms: C_2  and  N_26 
REMARK    2  A    between atoms: C_4  and  O_13 
REMARK    3  A    between atoms: C_6  and  O_12 
REMARK    4  A    between atoms: C_7  and  O_11 
REMARK    5  A    between atoms: C_9  and  N_24 
ROOT
ATOM      1  C   LIG d   1      11.144   8.427   0.735  0.00  0.00     0.038 C 
ATOM      2  C   LIG d   1      11.198   9.937   0.490  0.00  0.00     0.010 C 
ATOM      3  H   LIG d   1      11.552  10.438   1.390  0.00  0.00     0.088 H 
ATOM      4  C   LIG d   1       9.799  10.447   0.139  0.00  0.00     0.126 C 
ATOM      5  H   LIG d   1       9.118  10.237   0.964  0.00  0.00     0.068 H 
ATOM      6  C   LIG d   1       9.302   9.743  -1.126  0.00  0.00     0.117 C 
ATOM      7  C   LIG d   1       9.247   8.234  -0.881  0.00  0.00     0.126 C 
ATOM      8  H   LIG d   1       8.566   8.024  -0.056  0.00  0.00     0.068 H 
ATOM      9  C   LIG d   1      10.646   7.724  -0.530  0.00  0.00     0.010 C 
ATOM     10  H   LIG d   1      11.327   7.934  -1.354  0.00  0.00     0.088 H 
ATOM     11  H   LIG d   1      10.463   8.217   1.559  0.00  0.00     0.038 H 
ATOM     12  H   LIG d   1      12.140   8.064   0.985  0.00  0.00     0.038 H 
ATOM     13  H   LIG d   1       9.983   9.954  -1.950  0.00  0.00     0.065 H 
ENDROOT
BRANCH   2  14
ATOM     14  N   LIG d   1      12.115  10.245  -0.622  0.00  0.00     0.223 N 
ATOM     15  H   LIG d   1      13.031   9.835  -0.444  0.00  0.00     0.200 HD
ATOM     16  H   LIG d   1      11.742   9.875  -1.494  0.00  0.00     0.200 HD
ATOM     17  H   LIG d   1      12.214  11.264  -0.705  0.00  0.00     0.200 HD
ENDBRANCH   2  14
BRANCH   4  18
ATOM     18  O   LIG d   1       9.851  11.857  -0.090  0.00  0.00    -0.384 OA
ATOM     19  H   LIG d   1       9.420  12.137  -0.909  0.00  0.00     0.210 HD
ENDBRANCH   4  18
BRANCH   9  20
ATOM     20  N   LIG d   1      10.587   6.266  -0.318  0.00  0.00     0.223 N 
ATOM     21  H   LIG d   1       9.886   6.044   0.387  0.00  0.00     0.200 HD
ATOM     22  H   LIG d   1      10.350   5.796  -1.191  0.00  0.00     0.200 HD
ATOM     23  H   LIG d   1      11.503   5.934   0.003  0.00  0.00     0.200 HD
ENDBRANCH   9  20
BRANCH   6  24
ATOM     24  O   LIG d   1       7.995  10.221  -1.454  0.00  0.00    -0.386 OA
ATOM     25  H   LIG d   1       7.300   9.555  -1.363  0.00  0.00     0.210 HD
ENDBRANCH   6  24
BRANCH   7  26
ATOM     26  O   LIG d   1       8.783   7.576  -2.062  0.00  0.00    -0.384 OA
ATOM     27  H   LIG d   1       8.171   6.847  -1.891  0.00  0.00     0.210 HD
ENDBRANCH   7  26
TORSDOF 5
ENDMDL
MODEL 9
REMARK VINA RESULT:      -3.8      8.791     10.052
REMARK  5 active torsions:
REMARK  status: ('A' for Active; 'I' for Inactive)
REMARK    1  A    between atoms: C_2  and  N_26 
REMARK    2  A    between atoms: C_4  and  O_13 
REMARK    3  A    between atoms: C_6  and  O_12 
REMARK    4  A    between atoms: C_7  and  O_11 
REMARK    5  A    between atoms: C_9  and  N_24 
ROOT
ATOM      1  C   LIG d   1      11.945   7.287   0.286  0.00  0.00     0.038 C 
ATOM      2  C   LIG d   1      11.848   5.763   0.194  0.00  0.00     0.010 C 
ATOM      3  H   LIG d   1      12.826   5.325   0.393  0.00  0.00     0.088 H 
ATOM      4  C   LIG d   1      11.388   5.365  -1.210  0.00  0.00     0.126 C 
ATOM      5  H   LIG d   1      12.105   5.728  -1.945  0.00  0.00     0.068 H 
ATOM      6  C   LIG d   1      10.014   5.979  -1.489  0.00  0.00     0.117 C 
ATOM      7  C   LIG d   1      10.110   7.504  -1.398  0.00  0.00     0.126 C 
ATOM      8  H   LIG d   1      10.828   7.867  -2.133  0.00  0.00     0.068 H 
ATOM      9  C   LIG d   1      10.571   7.902   0.006  0.00  0.00     0.010 C 
ATOM     10  H   LIG d   1       9.854   7.538   0.741  0.00  0.00     0.088 H 
ATOM     11  H   LIG d   1      12.662   7.651  -0.449  0.00  0.00     0.038 H 
ATOM     12  H   LIG d   1      12.273   7.571   1.285  0.00  0.00     0.038 H 
ATOM     13  H   LIG d   1       9.296   5.616  -0.754  0.00  0.00     0.065 H 
ENDROOT
BRANCH   2  14
ATOM     14  N   LIG d   1      10.883   5.247   1.181  0.00  0.00     0.223 N 
ATOM     15  H   LIG d   1      11.071   5.650   2.098  0.00  0.00     0.200 HD
ATOM     16  H   LIG d   1       9.933   5.483   0.896  0.00  0.00     0.200 HD
ATOM     17  H   LIG d   1      10.972   4.226   1.238  0.00  0.00     0.200 HD
ENDBRANCH   2  14
BRANCH   4  18
ATOM     18  O   LIG d   1      11.297   3.941  -1.295  0.00  0.00    -0.384 OA
ATOM     19  H   LIG d   1      11.286   3.496  -0.436  0.00  0.00     0.210 HD
ENDBRANCH   4  18
BRANCH   9  20
ATOM     20  N   LIG d   1      10.639   9.372   0.090  0.00  0.00     0.223 N 
ATOM     21  H   LIG d   1      10.230   9.789  -0.744  0.00  0.00     0.200 HD
ATOM     22  H   LIG d   1      10.135   9.698   0.915  0.00  0.00     0.200 HD
ATOM     23  H   LIG d   1      11.621   9.661   0.162  0.00  0.00     0.200 HD
ENDBRANCH   9  20
BRANCH   6  24
ATOM     24  O   LIG d   1       9.583   5.607  -2.800  0.00  0.00    -0.386 OA
ATOM     25  H   LIG d   1       9.761   4.683  -3.025  0.00  0.00     0.210 HD
ENDBRANCH   6  24
BRANCH   7  26
ATOM     26  O   LIG d   1       8.828   8.079  -1.659  0.00  0.00    -0.384 OA
ATOM     27  H   LIG d   1       8.701   8.952  -1.264  0.00  0.00     0.210 HD
ENDBRANCH   7  26
TORSDOF 5
ENDMDL
