MODEL 1
REMARK VINA RESULT:      -5.6      0.000      0.000
REMARK  14 active torsions:
REMARK  status: ('A' for Active; 'I' for Inactive)
REMARK    1  A    between atoms: C_1  and  C_2 
REMARK    2  A    between atoms: C_2  and  C_3 
REMARK    3  A    between atoms: C_3  and  C_4 
REMARK    4  A    between atoms: C_4  and  O_6 
REMARK    5  A    between atoms: O_6  and  C_7 
REMARK    6  A    between atoms: C_7  and  O_8 
REMARK    7  A    between atoms: O_8  and  C_9 
REMARK    8  A    between atoms: C_9  and  C_11 
REMARK    9  A    between atoms: C_12  and  C_31 
REMARK   10  A    between atoms: C_14  and  C_30 
REMARK   11  A    between atoms: C_15  and  C_26 
REMARK   12  A    between atoms: C_16  and  C_18 
REMARK   13  A    between atoms: C_26  and  O_28 
REMARK   14  A    between atoms: O_28  and  C_29 
ROOT
ATOM      1  C   LIG d   1       6.803  -1.302  -5.933  0.00  0.00     0.065 C 
ATOM      2  C   LIG d   1       6.612  -2.367  -5.136  0.00  0.00     0.016 C 
ATOM      3  N   LIG d   1       5.985  -3.490  -5.605  0.00  0.00    -0.321 N 
ATOM      4  C   LIG d   1       5.863  -3.701  -6.951  0.00  0.00     0.016 C 
ATOM      5  C   LIG d   1       6.022  -2.691  -7.824  0.00  0.00     0.065 C 
ATOM      6  C   LIG d   1       6.326  -1.293  -7.358  0.00  0.00     0.052 C 
ATOM      7  H   LIG d   1       7.119  -0.876  -7.994  0.00  0.00     0.045 H 
ATOM      8  H   LIG d   1       5.575  -4.226  -4.898  0.00  0.00     0.152 HD
ENDROOT
BRANCH   1   9
ATOM      9  C   LIG d   1       7.462  -0.162  -5.418  0.00  0.00     0.340 C 
ATOM     10  O   LIG d   1       8.676  -0.089  -5.463  0.00  0.00    -0.245 OA
BRANCH   9  11
ATOM     11  O   LIG d   1       6.745   0.845  -4.875  0.00  0.00    -0.424 OA
BRANCH  11  12
ATOM     12  C   LIG d   1       7.019   1.174  -3.512  0.00  0.00     0.239 C 
ATOM     13  H   LIG d   1       7.954   1.751  -3.455  0.00  0.00     0.117 H 
ATOM     14  H   LIG d   1       7.123   0.248  -2.926  0.00  0.00     0.117 H 
BRANCH  12  15
ATOM     15  O   LIG d   1       5.927   1.967  -2.976  0.00  0.00    -0.427 OA
BRANCH  15  16
ATOM     16  C   LIG d   1       4.728   1.370  -2.886  0.00  0.00     0.310 C 
ATOM     17  O   LIG d   1       3.778   1.830  -3.476  0.00  0.00    -0.251 OA
BRANCH  16  18
ATOM     18  C   LIG d   1       4.566   0.127  -2.050  0.00  0.00     0.045 C 
ATOM     19  H   LIG d   1       4.299   0.409  -1.021  0.00  0.00     0.038 H 
ATOM     20  H   LIG d   1       5.511  -0.436  -2.044  0.00  0.00     0.038 H 
BRANCH  18  21
ATOM     21  C   LIG d   1       3.457  -0.746  -2.643  0.00  0.00    -0.046 C 
ATOM     22  H   LIG d   1       3.393  -0.571  -3.726  0.00  0.00     0.027 H 
ATOM     23  H   LIG d   1       2.497  -0.488  -2.172  0.00  0.00     0.027 H 
BRANCH  21  24
ATOM     24  C   LIG d   1       3.774  -2.220  -2.382  0.00  0.00    -0.065 C 
ATOM     25  H   LIG d   1       4.826  -2.321  -2.078  0.00  0.00     0.023 H 
ATOM     26  H   LIG d   1       3.600  -2.800  -3.301  0.00  0.00     0.023 H 
ATOM     27  H   LIG d   1       3.123  -2.598  -1.581  0.00  0.00     0.023 H 
ENDBRANCH  21  24
ENDBRANCH  18  21
ENDBRANCH  16  18
ENDBRANCH  15  16
ENDBRANCH  12  15
ENDBRANCH  11  12
ENDBRANCH   9  11
ENDBRANCH   1   9
BRANCH   6  28
ATOM     28  C   LIG d   1       5.079  -0.451  -7.459  0.00  0.00    -0.015 A 
ATOM     29  C   LIG d   1       4.981   0.522  -8.437  0.00  0.00     0.063 A 
ATOM     30  C   LIG d   1       3.834   1.292  -8.533  0.00  0.00     0.059 A 
ATOM     31 CL   LIG d   1       6.290   0.773  -9.549  0.00  0.00    -0.082 Cl
ATOM     32  C   LIG d   1       2.794   1.096  -7.643  0.00  0.00    -0.042 A 
ATOM     33 CL   LIG d   1       3.704   2.508  -9.766  0.00  0.00    -0.082 Cl
ATOM     34  C   LIG d   1       2.897   0.128  -6.662  0.00  0.00    -0.060 A 
ATOM     35  H   LIG d   1       1.901   1.700  -7.713  0.00  0.00     0.063 H 
ATOM     36  C   LIG d   1       4.039  -0.646  -6.570  0.00  0.00    -0.056 A 
ATOM     37  H   LIG d   1       2.085  -0.026  -5.967  0.00  0.00     0.062 H 
ATOM     38  H   LIG d   1       4.118  -1.402  -5.803  0.00  0.00     0.062 H 
ENDBRANCH   6  28
BRANCH   2  39
ATOM     39  C   LIG d   1       7.095  -2.325  -3.710  0.00  0.00    -0.026 C 
ATOM     40  H   LIG d   1       6.950  -1.313  -3.303  0.00  0.00     0.029 H 
ATOM     41  H   LIG d   1       8.163  -2.585  -3.677  0.00  0.00     0.029 H 
ATOM     42  H   LIG d   1       6.524  -3.047  -3.108  0.00  0.00     0.029 H 
ENDBRANCH   2  39
BRANCH   5  43
ATOM     43  C   LIG d   1       5.897  -2.948  -9.209  0.00  0.00     0.337 C 
ATOM     44  O   LIG d   1       6.889  -3.150  -9.882  0.00  0.00    -0.245 OA
BRANCH  43  45
ATOM     45  O   LIG d   1       4.676  -2.971  -9.783  0.00  0.00    -0.465 OA
BRANCH  45  46
ATOM     46  C   LIG d   1       4.498  -2.181 -10.962  0.00  0.00     0.082 C 
ATOM     47  H   LIG d   1       3.437  -2.187 -11.250  0.00  0.00     0.066 H 
ATOM     48  H   LIG d   1       5.102  -2.602 -11.779  0.00  0.00     0.066 H 
ATOM     49  H   LIG d   1       4.819  -1.149 -10.763  0.00  0.00     0.066 H 
ENDBRANCH  45  46
ENDBRANCH  43  45
ENDBRANCH   5  43
BRANCH   4  50
ATOM     50  C   LIG d   1       5.545  -5.083  -7.462  0.00  0.00    -0.026 C 
ATOM     51  H   LIG d   1       6.428  -5.728  -7.349  0.00  0.00     0.029 H 
ATOM     52  H   LIG d   1       5.267  -5.026  -8.525  0.00  0.00     0.029 H 
ATOM     53  H   LIG d   1       4.707  -5.503  -6.887  0.00  0.00     0.029 H 
ENDBRANCH   4  50
TORSDOF 14
ENDMDL
MODEL 2
REMARK VINA RESULT:      -5.6      2.418      4.339
REMARK  14 active torsions:
REMARK  status: ('A' for Active; 'I' for Inactive)
REMARK    1  A    between atoms: C_1  and  C_2 
REMARK    2  A    between atoms: C_2  and  C_3 
REMARK    3  A    between atoms: C_3  and  C_4 
REMARK    4  A    between atoms: C_4  and  O_6 
REMARK    5  A    between atoms: O_6  and  C_7 
REMARK    6  A    between atoms: C_7  and  O_8 
REMARK    7  A    between atoms: O_8  and  C_9 
REMARK    8  A    between atoms: C_9  and  C_11 
REMARK    9  A    between atoms: C_12  and  C_31 
REMARK   10  A    between atoms: C_14  and  C_30 
REMARK   11  A    between atoms: C_15  and  C_26 
REMARK   12  A    between atoms: C_16  and  C_18 
REMARK   13  A    between atoms: C_26  and  O_28 
REMARK   14  A    between atoms: O_28  and  C_29 
ROOT
ATOM      1  C   LIG d   1       7.130  -2.440  -5.641  0.00  0.00     0.065 C 
ATOM      2  C   LIG d   1       7.979  -3.351  -5.137  0.00  0.00     0.016 C 
ATOM      3  N   LIG d   1       7.570  -4.637  -4.907  0.00  0.00    -0.321 N 
ATOM      4  C   LIG d   1       6.436  -5.118  -5.502  0.00  0.00     0.016 C 
ATOM      5  C   LIG d   1       5.523  -4.280  -6.022  0.00  0.00     0.065 C 
ATOM      6  C   LIG d   1       5.703  -2.788  -5.958  0.00  0.00     0.052 C 
ATOM      7  H   LIG d   1       5.444  -2.361  -6.937  0.00  0.00     0.045 H 
ATOM      8  H   LIG d   1       8.154  -5.289  -4.240  0.00  0.00     0.152 HD
ENDROOT
BRANCH   1   9
ATOM      9  C   LIG d   1       7.589  -1.122  -5.874  0.00  0.00     0.340 C 
ATOM     10  O   LIG d   1       7.763  -0.364  -4.939  0.00  0.00    -0.245 OA
BRANCH   9  11
ATOM     11  O   LIG d   1       7.832  -0.705  -7.135  0.00  0.00    -0.424 OA
BRANCH  11  12
ATOM     12  C   LIG d   1       7.976   0.702  -7.336  0.00  0.00     0.239 C 
ATOM     13  H   LIG d   1       8.623   0.884  -8.207  0.00  0.00     0.117 H 
ATOM     14  H   LIG d   1       8.429   1.155  -6.441  0.00  0.00     0.117 H 
BRANCH  12  15
ATOM     15  O   LIG d   1       6.671   1.294  -7.570  0.00  0.00    -0.427 OA
BRANCH  15  16
ATOM     16  C   LIG d   1       6.457   1.839  -8.778  0.00  0.00     0.310 C 
ATOM     17  O   LIG d   1       7.298   2.551  -9.278  0.00  0.00    -0.251 OA
BRANCH  16  18
ATOM     18  C   LIG d   1       5.170   1.566  -9.512  0.00  0.00     0.045 C 
ATOM     19  H   LIG d   1       4.729   0.628  -9.141  0.00  0.00     0.038 H 
ATOM     20  H   LIG d   1       5.375   1.476 -10.589  0.00  0.00     0.038 H 
BRANCH  18  21
ATOM     21  C   LIG d   1       4.192   2.718  -9.273  0.00  0.00    -0.046 C 
ATOM     22  H   LIG d   1       4.037   3.268 -10.212  0.00  0.00     0.027 H 
ATOM     23  H   LIG d   1       4.607   3.399  -8.514  0.00  0.00     0.027 H 
BRANCH  21  24
ATOM     24  C   LIG d   1       2.855   2.159  -8.782  0.00  0.00    -0.065 C 
ATOM     25  H   LIG d   1       2.076   2.930  -8.882  0.00  0.00     0.023 H 
ATOM     26  H   LIG d   1       2.946   1.866  -7.726  0.00  0.00     0.023 H 
ATOM     27  H   LIG d   1       2.581   1.281  -9.384  0.00  0.00     0.023 H 
ENDBRANCH  21  24
ENDBRANCH  18  21
ENDBRANCH  16  18
ENDBRANCH  15  16
ENDBRANCH  12  15
ENDBRANCH  11  12
ENDBRANCH   9  11
ENDBRANCH   1   9
BRANCH   6  28
ATOM     28  C   LIG d   1       4.805  -2.220  -4.889  0.00  0.00    -0.015 A 
ATOM     29  C   LIG d   1       4.005  -1.126  -5.167  0.00  0.00     0.063 A 
ATOM     30  C   LIG d   1       3.175  -0.610  -4.186  0.00  0.00     0.059 A 
ATOM     31 CL   LIG d   1       4.036  -0.407  -6.747  0.00  0.00    -0.082 Cl
ATOM     32  C   LIG d   1       3.157  -1.179  -2.926  0.00  0.00    -0.042 A 
ATOM     33 CL   LIG d   1       2.165   0.759  -4.536  0.00  0.00    -0.082 Cl
ATOM     34  C   LIG d   1       3.962  -2.268  -2.648  0.00  0.00    -0.060 A 
ATOM     35  H   LIG d   1       2.514  -0.773  -2.159  0.00  0.00     0.063 H 
ATOM     36  C   LIG d   1       4.785  -2.789  -3.629  0.00  0.00    -0.056 A 
ATOM     37  H   LIG d   1       3.947  -2.714  -1.664  0.00  0.00     0.062 H 
ATOM     38  H   LIG d   1       5.412  -3.640  -3.411  0.00  0.00     0.062 H 
ENDBRANCH   6  28
BRANCH   2  39
ATOM     39  C   LIG d   1       9.397  -2.953  -4.821  0.00  0.00    -0.026 C 
ATOM     40  H   LIG d   1       9.432  -2.474  -3.830  0.00  0.00     0.029 H 
ATOM     41  H   LIG d   1       9.758  -2.248  -5.583  0.00  0.00     0.029 H 
ATOM     42  H   LIG d   1      10.037  -3.848  -4.817  0.00  0.00     0.029 H 
ENDBRANCH   2  39
BRANCH   5  43
ATOM     43  C   LIG d   1       4.366  -4.813  -6.637  0.00  0.00     0.337 C 
ATOM     44  O   LIG d   1       3.435  -5.193  -5.955  0.00  0.00    -0.245 OA
BRANCH  43  45
ATOM     45  O   LIG d   1       4.297  -4.898  -7.982  0.00  0.00    -0.465 OA
BRANCH  45  46
ATOM     46  C   LIG d   1       3.507  -3.915  -8.655  0.00  0.00     0.082 C 
ATOM     47  H   LIG d   1       2.525  -3.836  -8.164  0.00  0.00     0.066 H 
ATOM     48  H   LIG d   1       3.369  -4.211  -9.705  0.00  0.00     0.066 H 
ATOM     49  H   LIG d   1       4.018  -2.942  -8.612  0.00  0.00     0.066 H 
ENDBRANCH  45  46
ENDBRANCH  43  45
ENDBRANCH   5  43
BRANCH   4  50
ATOM     50  C   LIG d   1       6.207  -6.606  -5.576  0.00  0.00    -0.026 C 
ATOM     51  H   LIG d   1       6.047  -7.003  -4.564  0.00  0.00     0.029 H 
ATOM     52  H   LIG d   1       7.087  -7.090  -6.025  0.00  0.00     0.029 H 
ATOM     53  H   LIG d   1       5.321  -6.810  -6.195  0.00  0.00     0.029 H 
ENDBRANCH   4  50
TORSDOF 14
ENDMDL
MODEL 3
REMARK VINA RESULT:      -5.5      2.662      4.393
REMARK  14 active torsions:
REMARK  status: ('A' for Active; 'I' for Inactive)
REMARK    1  A    between atoms: C_1  and  C_2 
REMARK    2  A    between atoms: C_2  and  C_3 
REMARK    3  A    between atoms: C_3  and  C_4 
REMARK    4  A    between atoms: C_4  and  O_6 
REMARK    5  A    between atoms: O_6  and  C_7 
REMARK    6  A    between atoms: C_7  and  O_8 
REMARK    7  A    between atoms: O_8  and  C_9 
REMARK    8  A    between atoms: C_9  and  C_11 
REMARK    9  A    between atoms: C_12  and  C_31 
REMARK   10  A    between atoms: C_14  and  C_30 
REMARK   11  A    between atoms: C_15  and  C_26 
REMARK   12  A    between atoms: C_16  and  C_18 
REMARK   13  A    between atoms: C_26  and  O_28 
REMARK   14  A    between atoms: O_28  and  C_29 
ROOT
ATOM      1  C   LIG d   1       3.544  -1.191  -8.022  0.00  0.00     0.065 C 
ATOM      2  C   LIG d   1       2.845  -1.382  -9.155  0.00  0.00     0.016 C 
ATOM      3  N   LIG d   1       2.794  -2.614  -9.748  0.00  0.00    -0.321 N 
ATOM      4  C   LIG d   1       3.134  -3.735  -9.040  0.00  0.00     0.016 C 
ATOM      5  C   LIG d   1       3.845  -3.643  -7.904  0.00  0.00     0.065 C 
ATOM      6  C   LIG d   1       4.305  -2.312  -7.373  0.00  0.00     0.052 C 
ATOM      7  H   LIG d   1       4.120  -2.284  -6.290  0.00  0.00     0.045 H 
ATOM      8  H   LIG d   1       2.480  -2.706 -10.797  0.00  0.00     0.152 HD
ENDROOT
BRANCH   1   9
ATOM      9  C   LIG d   1       3.567   0.094  -7.432  0.00  0.00     0.340 C 
ATOM     10  O   LIG d   1       4.481   0.859  -7.676  0.00  0.00    -0.245 OA
BRANCH   9  11
ATOM     11  O   LIG d   1       2.576   0.471  -6.598  0.00  0.00    -0.424 OA
BRANCH  11  12
ATOM     12  C   LIG d   1       2.745   0.171  -5.211  0.00  0.00     0.239 C 
ATOM     13  H   LIG d   1       3.490  -0.631  -5.098  0.00  0.00     0.117 H 
ATOM     14  H   LIG d   1       1.785  -0.158  -4.788  0.00  0.00     0.117 H 
BRANCH  12  15
ATOM     15  O   LIG d   1       3.202   1.358  -4.511  0.00  0.00    -0.427 OA
BRANCH  15  16
ATOM     16  C   LIG d   1       3.826   1.171  -3.337  0.00  0.00     0.310 C 
ATOM     17  O   LIG d   1       4.844   1.774  -3.090  0.00  0.00    -0.251 OA
BRANCH  16  18
ATOM     18  C   LIG d   1       3.258   0.208  -2.327  0.00  0.00     0.045 C 
ATOM     19  H   LIG d   1       2.391  -0.311  -2.762  0.00  0.00     0.038 H 
ATOM     20  H   LIG d   1       2.942   0.763  -1.430  0.00  0.00     0.038 H 
BRANCH  18  21
ATOM     21  C   LIG d   1       4.326  -0.817  -1.942  0.00  0.00    -0.046 C 
ATOM     22  H   LIG d   1       4.511  -0.766  -0.860  0.00  0.00     0.027 H 
ATOM     23  H   LIG d   1       5.258  -0.596  -2.484  0.00  0.00     0.027 H 
BRANCH  21  24
ATOM     24  C   LIG d   1       3.842  -2.221  -2.311  0.00  0.00    -0.065 C 
ATOM     25  H   LIG d   1       3.123  -2.572  -1.556  0.00  0.00     0.023 H 
ATOM     26  H   LIG d   1       4.701  -2.907  -2.345  0.00  0.00     0.023 H 
ATOM     27  H   LIG d   1       3.355  -2.194  -3.297  0.00  0.00     0.023 H 
ENDBRANCH  21  24
ENDBRANCH  18  21
ENDBRANCH  16  18
ENDBRANCH  15  16
ENDBRANCH  12  15
ENDBRANCH  11  12
ENDBRANCH   9  11
ENDBRANCH   1   9
BRANCH   6  28
ATOM     28  C   LIG d   1       5.776  -2.143  -7.655  0.00  0.00    -0.015 A 
ATOM     29  C   LIG d   1       6.635  -1.760  -6.641  0.00  0.00     0.063 A 
ATOM     30  C   LIG d   1       7.987  -1.611  -6.899  0.00  0.00     0.059 A 
ATOM     31 CL   LIG d   1       6.019  -1.477  -5.042  0.00  0.00    -0.082 Cl
ATOM     32  C   LIG d   1       8.474  -1.830  -8.175  0.00  0.00    -0.042 A 
ATOM     33 CL   LIG d   1       9.068  -1.139  -5.625  0.00  0.00    -0.082 Cl
ATOM     34  C   LIG d   1       7.614  -2.205  -9.189  0.00  0.00    -0.060 A 
ATOM     35  H   LIG d   1       9.528  -1.707  -8.379  0.00  0.00     0.063 H 
ATOM     36  C   LIG d   1       6.265  -2.362  -8.930  0.00  0.00    -0.056 A 
ATOM     37  H   LIG d   1       7.995  -2.377 -10.185  0.00  0.00     0.062 H 
ATOM     38  H   LIG d   1       5.594  -2.656  -9.723  0.00  0.00     0.062 H 
ENDBRANCH   6  28
BRANCH   2  39
ATOM     39  C   LIG d   1       2.109  -0.225  -9.778  0.00  0.00    -0.026 C 
ATOM     40  H   LIG d   1       2.154  -0.309 -10.875  0.00  0.00     0.029 H 
ATOM     41  H   LIG d   1       2.575   0.720  -9.463  0.00  0.00     0.029 H 
ATOM     42  H   LIG d   1       1.058  -0.240  -9.453  0.00  0.00     0.029 H 
ENDBRANCH   2  39
BRANCH   5  43
ATOM     43  C   LIG d   1       4.171  -4.822  -7.194  0.00  0.00     0.337 C 
ATOM     44  O   LIG d   1       3.436  -5.225  -6.313  0.00  0.00    -0.245 OA
BRANCH  43  45
ATOM     45  O   LIG d   1       5.297  -5.501  -7.496  0.00  0.00    -0.465 OA
BRANCH  45  46
ATOM     46  C   LIG d   1       6.310  -5.558  -6.489  0.00  0.00     0.082 C 
ATOM     47  H   LIG d   1       6.920  -6.462  -6.634  0.00  0.00     0.066 H 
ATOM     48  H   LIG d   1       5.838  -5.590  -5.496  0.00  0.00     0.066 H 
ATOM     49  H   LIG d   1       6.951  -4.668  -6.562  0.00  0.00     0.066 H 
ENDBRANCH  45  46
ENDBRANCH  43  45
ENDBRANCH   5  43
BRANCH   4  50
ATOM     50  C   LIG d   1       2.706  -5.090  -9.542  0.00  0.00    -0.026 C 
ATOM     51  H   LIG d   1       1.610  -5.123  -9.623  0.00  0.00     0.029 H 
ATOM     52  H   LIG d   1       3.046  -5.865  -8.840  0.00  0.00     0.029 H 
ATOM     53  H   LIG d   1       3.152  -5.272 -10.532  0.00  0.00     0.029 H 
ENDBRANCH   4  50
TORSDOF 14
ENDMDL
MODEL 4
REMARK VINA RESULT:      -5.4      2.727      5.608
REMARK  14 active torsions:
REMARK  status: ('A' for Active; 'I' for Inactive)
REMARK    1  A    between atoms: C_1  and  C_2 
REMARK    2  A    between atoms: C_2  and  C_3 
REMARK    3  A    between atoms: C_3  and  C_4 
REMARK    4  A    between atoms: C_4  and  O_6 
REMARK    5  A    between atoms: O_6  and  C_7 
REMARK    6  A    between atoms: C_7  and  O_8 
REMARK    7  A    between atoms: O_8  and  C_9 
REMARK    8  A    between atoms: C_9  and  C_11 
REMARK    9  A    between atoms: C_12  and  C_31 
REMARK   10  A    between atoms: C_14  and  C_30 
REMARK   11  A    between atoms: C_15  and  C_26 
REMARK   12  A    between atoms: C_16  and  C_18 
REMARK   13  A    between atoms: C_26  and  O_28 
REMARK   14  A    between atoms: O_28  and  C_29 
ROOT
ATOM      1  C   LIG d   1       4.909  -0.423  -3.917  0.00  0.00     0.065 C 
ATOM      2  C   LIG d   1       5.354   0.398  -2.950  0.00  0.00     0.016 C 
ATOM      3  N   LIG d   1       6.550   1.051  -3.081  0.00  0.00    -0.321 N 
ATOM      4  C   LIG d   1       7.138   1.174  -4.310  0.00  0.00     0.016 C 
ATOM      5  C   LIG d   1       6.768   0.386  -5.333  0.00  0.00     0.065 C 
ATOM      6  C   LIG d   1       5.707  -0.668  -5.166  0.00  0.00     0.052 C 
ATOM      7  H   LIG d   1       5.031  -0.626  -6.032  0.00  0.00     0.045 H 
ATOM      8  H   LIG d   1       7.043   1.477  -2.195  0.00  0.00     0.152 HD
ENDROOT
BRANCH   1   9
ATOM      9  C   LIG d   1       3.665  -1.074  -3.753  0.00  0.00     0.340 C 
ATOM     10  O   LIG d   1       3.625  -2.212  -3.323  0.00  0.00    -0.245 OA
BRANCH   9  11
ATOM     11  O   LIG d   1       2.520  -0.434  -4.073  0.00  0.00    -0.424 OA
BRANCH  11  12
ATOM     12  C   LIG d   1       2.591   0.534  -5.122  0.00  0.00     0.239 C 
ATOM     13  H   LIG d   1       3.550   1.070  -5.063  0.00  0.00     0.117 H 
ATOM     14  H   LIG d   1       1.763   1.251  -5.014  0.00  0.00     0.117 H 
BRANCH  12  15
ATOM     15  O   LIG d   1       2.488  -0.135  -6.406  0.00  0.00    -0.427 OA
BRANCH  15  16
ATOM     16  C   LIG d   1       2.846   0.571  -7.491  0.00  0.00     0.310 C 
ATOM     17  O   LIG d   1       3.158   1.734  -7.380  0.00  0.00    -0.251 OA
BRANCH  16  18
ATOM     18  C   LIG d   1       2.857  -0.086  -8.847  0.00  0.00     0.045 C 
ATOM     19  H   LIG d   1       2.029   0.310  -9.453  0.00  0.00     0.038 H 
ATOM     20  H   LIG d   1       2.738  -1.173  -8.728  0.00  0.00     0.038 H 
BRANCH  18  21
ATOM     21  C   LIG d   1       4.187   0.209  -9.545  0.00  0.00    -0.046 C 
ATOM     22  H   LIG d   1       4.646  -0.735  -9.872  0.00  0.00     0.027 H 
ATOM     23  H   LIG d   1       4.862   0.722  -8.844  0.00  0.00     0.027 H 
BRANCH  21  24
ATOM     24  C   LIG d   1       3.937   1.103 -10.761  0.00  0.00    -0.065 C 
ATOM     25  H   LIG d   1       3.805   0.477 -11.656  0.00  0.00     0.023 H 
ATOM     26  H   LIG d   1       4.798   1.773 -10.906  0.00  0.00     0.023 H 
ATOM     27  H   LIG d   1       3.030   1.703 -10.595  0.00  0.00     0.023 H 
ENDBRANCH  21  24
ENDBRANCH  18  21
ENDBRANCH  16  18
ENDBRANCH  15  16
ENDBRANCH  12  15
ENDBRANCH  11  12
ENDBRANCH   9  11
ENDBRANCH   1   9
BRANCH   6  28
ATOM     28  C   LIG d   1       6.360  -2.025  -5.080  0.00  0.00    -0.015 A 
ATOM     29  C   LIG d   1       5.940  -3.047  -5.912  0.00  0.00     0.063 A 
ATOM     30  C   LIG d   1       6.543  -4.291  -5.837  0.00  0.00     0.059 A 
ATOM     31 CL   LIG d   1       4.663  -2.769  -7.055  0.00  0.00    -0.082 Cl
ATOM     32  C   LIG d   1       7.555  -4.514  -4.921  0.00  0.00    -0.042 A 
ATOM     33 CL   LIG d   1       6.023  -5.573  -6.886  0.00  0.00    -0.082 Cl
ATOM     34  C   LIG d   1       7.969  -3.493  -4.086  0.00  0.00    -0.060 A 
ATOM     35  H   LIG d   1       8.022  -5.486  -4.858  0.00  0.00     0.063 H 
ATOM     36  C   LIG d   1       7.371  -2.248  -4.165  0.00  0.00    -0.056 A 
ATOM     37  H   LIG d   1       8.760  -3.666  -3.371  0.00  0.00     0.062 H 
ATOM     38  H   LIG d   1       7.696  -1.452  -3.513  0.00  0.00     0.062 H 
ENDBRANCH   6  28
BRANCH   2  39
ATOM     39  C   LIG d   1       4.527   0.602  -1.709  0.00  0.00    -0.026 C 
ATOM     40  H   LIG d   1       5.038   1.310  -1.039  0.00  0.00     0.029 H 
ATOM     41  H   LIG d   1       4.394  -0.360  -1.193  0.00  0.00     0.029 H 
ATOM     42  H   LIG d   1       3.542   1.008  -1.986  0.00  0.00     0.029 H 
ENDBRANCH   2  39
BRANCH   5  43
ATOM     43  C   LIG d   1       7.392   0.548  -6.592  0.00  0.00     0.337 C 
ATOM     44  O   LIG d   1       8.432  -0.034  -6.835  0.00  0.00    -0.245 OA
BRANCH  43  45
ATOM     45  O   LIG d   1       6.832   1.347  -7.525  0.00  0.00    -0.465 OA
BRANCH  45  46
ATOM     46  C   LIG d   1       7.718   1.994  -8.441  0.00  0.00     0.082 C 
ATOM     47  H   LIG d   1       8.657   2.246  -7.926  0.00  0.00     0.066 H 
ATOM     48  H   LIG d   1       7.247   2.914  -8.817  0.00  0.00     0.066 H 
ATOM     49  H   LIG d   1       7.930   1.319  -9.283  0.00  0.00     0.066 H 
ENDBRANCH  45  46
ENDBRANCH  43  45
ENDBRANCH   5  43
BRANCH   4  50
ATOM     50  C   LIG d   1       8.215   2.208  -4.519  0.00  0.00    -0.026 C 
ATOM     51  H   LIG d   1       8.436   2.296  -5.592  0.00  0.00     0.029 H 
ATOM     52  H   LIG d   1       9.125   1.902  -3.982  0.00  0.00     0.029 H 
ATOM     53  H   LIG d   1       7.871   3.179  -4.134  0.00  0.00     0.029 H 
ENDBRANCH   4  50
TORSDOF 14
ENDMDL
MODEL 5
REMARK VINA RESULT:      -5.3      1.675      2.101
REMARK  14 active torsions:
REMARK  status: ('A' for Active; 'I' for Inactive)
REMARK    1  A    between atoms: C_1  and  C_2 
REMARK    2  A    between atoms: C_2  and  C_3 
REMARK    3  A    between atoms: C_3  and  C_4 
REMARK    4  A    between atoms: C_4  and  O_6 
REMARK    5  A    between atoms: O_6  and  C_7 
REMARK    6  A    between atoms: C_7  and  O_8 
REMARK    7  A    between atoms: O_8  and  C_9 
REMARK    8  A    between atoms: C_9  and  C_11 
REMARK    9  A    between atoms: C_12  and  C_31 
REMARK   10  A    between atoms: C_14  and  C_30 
REMARK   11  A    between atoms: C_15  and  C_26 
REMARK   12  A    between atoms: C_16  and  C_18 
REMARK   13  A    between atoms: C_26  and  O_28 
REMARK   14  A    between atoms: O_28  and  C_29 
ROOT
ATOM      1  C   LIG d   1       5.326  -2.777  -6.884  0.00  0.00     0.065 C 
ATOM      2  C   LIG d   1       4.583  -3.745  -6.320  0.00  0.00     0.016 C 
ATOM      3  N   LIG d   1       3.664  -4.441  -7.057  0.00  0.00    -0.321 N 
ATOM      4  C   LIG d   1       3.725  -4.432  -8.423  0.00  0.00     0.016 C 
ATOM      5  C   LIG d   1       4.431  -3.493  -9.075  0.00  0.00     0.065 C 
ATOM      6  C   LIG d   1       5.169  -2.412  -8.333  0.00  0.00     0.052 C 
ATOM      7  H   LIG d   1       6.167  -2.298  -8.779  0.00  0.00     0.045 H 
ATOM      8  H   LIG d   1       2.871  -5.011  -6.550  0.00  0.00     0.152 HD
ENDROOT
BRANCH   1   9
ATOM      9  C   LIG d   1       6.272  -2.083  -6.095  0.00  0.00     0.340 C 
ATOM     10  O   LIG d   1       7.446  -2.400  -6.134  0.00  0.00    -0.245 OA
BRANCH   9  11
ATOM     11  O   LIG d   1       5.873  -1.070  -5.297  0.00  0.00    -0.424 OA
BRANCH  11  12
ATOM     12  C   LIG d   1       6.893  -0.356  -4.595  0.00  0.00     0.239 C 
ATOM     13  H   LIG d   1       6.956   0.671  -4.984  0.00  0.00     0.117 H 
ATOM     14  H   LIG d   1       7.859  -0.863  -4.740  0.00  0.00     0.117 H 
BRANCH  12  15
ATOM     15  O   LIG d   1       6.572  -0.319  -3.180  0.00  0.00    -0.427 OA
BRANCH  15  16
ATOM     16  C   LIG d   1       5.765   0.669  -2.764  0.00  0.00     0.310 C 
ATOM     17  O   LIG d   1       5.970   1.807  -3.118  0.00  0.00    -0.251 OA
BRANCH  16  18
ATOM     18  C   LIG d   1       4.603   0.361  -1.855  0.00  0.00     0.045 C 
ATOM     19  H   LIG d   1       3.721   0.930  -2.182  0.00  0.00     0.038 H 
ATOM     20  H   LIG d   1       4.861   0.644  -0.823  0.00  0.00     0.038 H 
BRANCH  18  21
ATOM     21  C   LIG d   1       4.295  -1.136  -1.911  0.00  0.00    -0.046 C 
ATOM     22  H   LIG d   1       4.015  -1.491  -0.909  0.00  0.00     0.027 H 
ATOM     23  H   LIG d   1       5.187  -1.681  -2.256  0.00  0.00     0.027 H 
BRANCH  21  24
ATOM     24  C   LIG d   1       3.138  -1.383  -2.882  0.00  0.00    -0.065 C 
ATOM     25  H   LIG d   1       2.238  -0.865  -2.520  0.00  0.00     0.023 H 
ATOM     26  H   LIG d   1       2.938  -2.463  -2.946  0.00  0.00     0.023 H 
ATOM     27  H   LIG d   1       3.407  -1.000  -3.877  0.00  0.00     0.023 H 
ENDBRANCH  21  24
ENDBRANCH  18  21
ENDBRANCH  16  18
ENDBRANCH  15  16
ENDBRANCH  12  15
ENDBRANCH  11  12
ENDBRANCH   9  11
ENDBRANCH   1   9
BRANCH   6  28
ATOM     28  C   LIG d   1       4.401  -1.119  -8.438  0.00  0.00    -0.015 A 
ATOM     29  C   LIG d   1       5.065   0.058  -8.732  0.00  0.00     0.063 A 
ATOM     30  C   LIG d   1       4.359   1.244  -8.835  0.00  0.00     0.059 A 
ATOM     31 CL   LIG d   1       6.784   0.046  -8.981  0.00  0.00    -0.082 Cl
ATOM     32  C   LIG d   1       2.991   1.253  -8.630  0.00  0.00    -0.042 A 
ATOM     33 CL   LIG d   1       5.190   2.721  -9.212  0.00  0.00    -0.082 Cl
ATOM     34  C   LIG d   1       2.329   0.078  -8.330  0.00  0.00    -0.060 A 
ATOM     35  H   LIG d   1       2.440   2.179  -8.705  0.00  0.00     0.063 H 
ATOM     36  C   LIG d   1       3.033  -1.109  -8.234  0.00  0.00    -0.056 A 
ATOM     37  H   LIG d   1       1.261   0.084  -8.171  0.00  0.00     0.062 H 
ATOM     38  H   LIG d   1       2.515  -2.026  -8.001  0.00  0.00     0.062 H 
ENDBRANCH   6  28
BRANCH   2  39
ATOM     39  C   LIG d   1       4.765  -4.067  -4.860  0.00  0.00    -0.026 C 
ATOM     40  H   LIG d   1       3.822  -4.461  -4.450  0.00  0.00     0.029 H 
ATOM     41  H   LIG d   1       5.049  -3.155  -4.315  0.00  0.00     0.029 H 
ATOM     42  H   LIG d   1       5.557  -4.822  -4.746  0.00  0.00     0.029 H 
ENDBRANCH   2  39
BRANCH   5  43
ATOM     43  C   LIG d   1       4.478  -3.519 -10.488  0.00  0.00     0.337 C 
ATOM     44  O   LIG d   1       3.585  -3.007 -11.136  0.00  0.00    -0.245 OA
BRANCH  43  45
ATOM     45  O   LIG d   1       5.515  -4.111 -11.118  0.00  0.00    -0.465 OA
BRANCH  45  46
ATOM     46  C   LIG d   1       6.465  -3.252 -11.752  0.00  0.00     0.082 C 
ATOM     47  H   LIG d   1       6.358  -3.331 -12.844  0.00  0.00     0.066 H 
ATOM     48  H   LIG d   1       7.482  -3.552 -11.461  0.00  0.00     0.066 H 
ATOM     49  H   LIG d   1       6.284  -2.213 -11.441  0.00  0.00     0.066 H 
ENDBRANCH  45  46
ENDBRANCH  43  45
ENDBRANCH   5  43
BRANCH   4  50
ATOM     50  C   LIG d   1       2.989  -5.488  -9.208  0.00  0.00    -0.026 C 
ATOM     51  H   LIG d   1       2.081  -5.052  -9.648  0.00  0.00     0.029 H 
ATOM     52  H   LIG d   1       2.712  -6.316  -8.539  0.00  0.00     0.029 H 
ATOM     53  H   LIG d   1       3.639  -5.867 -10.011  0.00  0.00     0.029 H 
ENDBRANCH   4  50
TORSDOF 14
ENDMDL
MODEL 6
REMARK VINA RESULT:      -5.3      2.015      5.854
REMARK  14 active torsions:
REMARK  status: ('A' for Active; 'I' for Inactive)
REMARK    1  A    between atoms: C_1  and  C_2 
REMARK    2  A    between atoms: C_2  and  C_3 
REMARK    3  A    between atoms: C_3  and  C_4 
REMARK    4  A    between atoms: C_4  and  O_6 
REMARK    5  A    between atoms: O_6  and  C_7 
REMARK    6  A    between atoms: C_7  and  O_8 
REMARK    7  A    between atoms: O_8  and  C_9 
REMARK    8  A    between atoms: C_9  and  C_11 
REMARK    9  A    between atoms: C_12  and  C_31 
REMARK   10  A    between atoms: C_14  and  C_30 
REMARK   11  A    between atoms: C_15  and  C_26 
REMARK   12  A    between atoms: C_16  and  C_18 
REMARK   13  A    between atoms: C_26  and  O_28 
REMARK   14  A    between atoms: O_28  and  C_29 
ROOT
ATOM      1  C   LIG d   1       5.240  -2.760  -6.356  0.00  0.00     0.065 C 
ATOM      2  C   LIG d   1       4.638  -3.731  -5.649  0.00  0.00     0.016 C 
ATOM      3  N   LIG d   1       4.432  -3.592  -4.303  0.00  0.00    -0.321 N 
ATOM      4  C   LIG d   1       4.495  -2.356  -3.719  0.00  0.00     0.016 C 
ATOM      5  C   LIG d   1       5.091  -1.328  -4.346  0.00  0.00     0.065 C 
ATOM      6  C   LIG d   1       5.722  -1.496  -5.701  0.00  0.00     0.052 C 
ATOM      7  H   LIG d   1       5.435  -0.641  -6.330  0.00  0.00     0.045 H 
ATOM      8  H   LIG d   1       4.215  -4.476  -3.686  0.00  0.00     0.152 HD
ENDROOT
BRANCH   1   9
ATOM      9  C   LIG d   1       5.429  -2.933  -7.747  0.00  0.00     0.340 C 
ATOM     10  O   LIG d   1       6.427  -3.491  -8.161  0.00  0.00    -0.245 OA
BRANCH   9  11
ATOM     11  O   LIG d   1       4.501  -2.479  -8.616  0.00  0.00    -0.424 OA
BRANCH  11  12
ATOM     12  C   LIG d   1       4.810  -1.279  -9.327  0.00  0.00     0.239 C 
ATOM     13  H   LIG d   1       5.587  -1.487 -10.077  0.00  0.00     0.117 H 
ATOM     14  H   LIG d   1       5.176  -0.519  -8.620  0.00  0.00     0.117 H 
BRANCH  12  15
ATOM     15  O   LIG d   1       3.616  -0.788  -9.991  0.00  0.00    -0.427 OA
BRANCH  15  16
ATOM     16  C   LIG d   1       2.670  -0.235  -9.215  0.00  0.00     0.310 C 
ATOM     17  O   LIG d   1       1.503  -0.475  -9.421  0.00  0.00    -0.251 OA
BRANCH  16  18
ATOM     18  C   LIG d   1       3.063   0.684  -8.088  0.00  0.00     0.045 C 
ATOM     19  H   LIG d   1       4.125   0.532  -7.843  0.00  0.00     0.038 H 
ATOM     20  H   LIG d   1       2.447   0.463  -7.204  0.00  0.00     0.038 H 
BRANCH  18  21
ATOM     21  C   LIG d   1       2.841   2.137  -8.514  0.00  0.00    -0.046 C 
ATOM     22  H   LIG d   1       2.695   2.763  -7.622  0.00  0.00     0.027 H 
ATOM     23  H   LIG d   1       1.948   2.198  -9.155  0.00  0.00     0.027 H 
BRANCH  21  24
ATOM     24  C   LIG d   1       4.062   2.633  -9.291  0.00  0.00    -0.065 C 
ATOM     25  H   LIG d   1       4.009   3.727  -9.398  0.00  0.00     0.023 H 
ATOM     26  H   LIG d   1       4.076   2.168 -10.288  0.00  0.00     0.023 H 
ATOM     27  H   LIG d   1       4.978   2.362  -8.747  0.00  0.00     0.023 H 
ENDBRANCH  21  24
ENDBRANCH  18  21
ENDBRANCH  16  18
ENDBRANCH  15  16
ENDBRANCH  12  15
ENDBRANCH  11  12
ENDBRANCH   9  11
ENDBRANCH   1   9
BRANCH   6  28
ATOM     28  C   LIG d   1       7.221  -1.554  -5.553  0.00  0.00    -0.015 A 
ATOM     29  C   LIG d   1       8.010  -0.569  -6.117  0.00  0.00     0.063 A 
ATOM     30  C   LIG d   1       9.386  -0.619  -5.975  0.00  0.00     0.059 A 
ATOM     31 CL   LIG d   1       7.275   0.736  -6.996  0.00  0.00    -0.082 Cl
ATOM     32  C   LIG d   1       9.971  -1.663  -5.281  0.00  0.00    -0.042 A 
ATOM     33 CL   LIG d   1      10.378   0.622  -6.676  0.00  0.00    -0.082 Cl
ATOM     34  C   LIG d   1       9.181  -2.650  -4.723  0.00  0.00    -0.060 A 
ATOM     35  H   LIG d   1      11.045  -1.706  -5.175  0.00  0.00     0.063 H 
ATOM     36  C   LIG d   1       7.806  -2.597  -4.859  0.00  0.00    -0.056 A 
ATOM     37  H   LIG d   1       9.638  -3.465  -4.180  0.00  0.00     0.062 H 
ATOM     38  H   LIG d   1       7.190  -3.368  -4.422  0.00  0.00     0.062 H 
ENDBRANCH   6  28
BRANCH   2  39
ATOM     39  C   LIG d   1       4.184  -4.987  -6.345  0.00  0.00    -0.026 C 
ATOM     40  H   LIG d   1       3.406  -5.480  -5.743  0.00  0.00     0.029 H 
ATOM     41  H   LIG d   1       5.039  -5.668  -6.468  0.00  0.00     0.029 H 
ATOM     42  H   LIG d   1       3.775  -4.732  -7.334  0.00  0.00     0.029 H 
ENDBRANCH   2  39
BRANCH   5  43
ATOM     43  C   LIG d   1       5.131  -0.062  -3.715  0.00  0.00     0.337 C 
ATOM     44  O   LIG d   1       6.054   0.220  -2.976  0.00  0.00    -0.245 OA
BRANCH  43  45
ATOM     45  O   LIG d   1       4.144   0.831  -3.935  0.00  0.00    -0.465 OA
BRANCH  45  46
ATOM     46  C   LIG d   1       3.662   1.558  -2.802  0.00  0.00     0.082 C 
ATOM     47  H   LIG d   1       4.358   2.378  -2.570  0.00  0.00     0.066 H 
ATOM     48  H   LIG d   1       3.590   0.882  -1.938  0.00  0.00     0.066 H 
ATOM     49  H   LIG d   1       2.669   1.973  -3.028  0.00  0.00     0.066 H 
ENDBRANCH  45  46
ENDBRANCH  43  45
ENDBRANCH   5  43
BRANCH   4  50
ATOM     50  C   LIG d   1       3.890  -2.146  -2.355  0.00  0.00    -0.026 C 
ATOM     51  H   LIG d   1       3.998  -1.091  -2.064  0.00  0.00     0.029 H 
ATOM     52  H   LIG d   1       4.407  -2.783  -1.622  0.00  0.00     0.029 H 
ATOM     53  H   LIG d   1       2.823  -2.411  -2.382  0.00  0.00     0.029 H 
ENDBRANCH   4  50
TORSDOF 14
ENDMDL
MODEL 7
REMARK VINA RESULT:      -5.2      3.006      4.804
REMARK  14 active torsions:
REMARK  status: ('A' for Active; 'I' for Inactive)
REMARK    1  A    between atoms: C_1  and  C_2 
REMARK    2  A    between atoms: C_2  and  C_3 
REMARK    3  A    between atoms: C_3  and  C_4 
REMARK    4  A    between atoms: C_4  and  O_6 
REMARK    5  A    between atoms: O_6  and  C_7 
REMARK    6  A    between atoms: C_7  and  O_8 
REMARK    7  A    between atoms: O_8  and  C_9 
REMARK    8  A    between atoms: C_9  and  C_11 
REMARK    9  A    between atoms: C_12  and  C_31 
REMARK   10  A    between atoms: C_14  and  C_30 
REMARK   11  A    between atoms: C_15  and  C_26 
REMARK   12  A    between atoms: C_16  and  C_18 
REMARK   13  A    between atoms: C_26  and  O_28 
REMARK   14  A    between atoms: O_28  and  C_29 
ROOT
ATOM      1  C   LIG d   1       3.246  -0.371  -8.064  0.00  0.00     0.065 C 
ATOM      2  C   LIG d   1       3.013   0.623  -8.938  0.00  0.00     0.016 C 
ATOM      3  N   LIG d   1       2.803   0.355 -10.264  0.00  0.00    -0.321 N 
ATOM      4  C   LIG d   1       2.470  -0.909 -10.669  0.00  0.00     0.016 C 
ATOM      5  C   LIG d   1       2.681  -1.966  -9.867  0.00  0.00     0.065 C 
ATOM      6  C   LIG d   1       3.301  -1.806  -8.506  0.00  0.00     0.052 C 
ATOM      7  H   LIG d   1       2.736  -2.418  -7.788  0.00  0.00     0.045 H 
ATOM      8  H   LIG d   1       2.902   1.158 -11.009  0.00  0.00     0.152 HD
ENDROOT
BRANCH   1   9
ATOM      9  C   LIG d   1       3.450  -0.059  -6.700  0.00  0.00     0.340 C 
ATOM     10  O   LIG d   1       4.575   0.144  -6.284  0.00  0.00    -0.245 OA
BRANCH   9  11
ATOM     11  O   LIG d   1       2.396   0.014  -5.860  0.00  0.00    -0.424 OA
BRANCH  11  12
ATOM     12  C   LIG d   1       2.594   0.718  -4.632  0.00  0.00     0.239 C 
ATOM     13  H   LIG d   1       1.808   1.478  -4.514  0.00  0.00     0.117 H 
ATOM     14  H   LIG d   1       3.579   1.208  -4.645  0.00  0.00     0.117 H 
BRANCH  12  15
ATOM     15  O   LIG d   1       2.532  -0.217  -3.522  0.00  0.00    -0.427 OA
BRANCH  15  16
ATOM     16  C   LIG d   1       3.415  -0.039  -2.526  0.00  0.00     0.310 C 
ATOM     17  O   LIG d   1       3.546   1.053  -2.023  0.00  0.00    -0.251 OA
BRANCH  16  18
ATOM     18  C   LIG d   1       4.241  -1.199  -2.035  0.00  0.00     0.045 C 
ATOM     19  H   LIG d   1       3.587  -2.065  -1.855  0.00  0.00     0.038 H 
ATOM     20  H   LIG d   1       4.746  -0.919  -1.099  0.00  0.00     0.038 H 
BRANCH  18  21
ATOM     21  C   LIG d   1       5.289  -1.562  -3.090  0.00  0.00    -0.046 C 
ATOM     22  H   LIG d   1       6.225  -1.852  -2.593  0.00  0.00     0.027 H 
ATOM     23  H   LIG d   1       5.472  -0.691  -3.738  0.00  0.00     0.027 H 
BRANCH  21  24
ATOM     24  C   LIG d   1       4.777  -2.729  -3.937  0.00  0.00    -0.065 C 
ATOM     25  H   LIG d   1       5.395  -2.825  -4.842  0.00  0.00     0.023 H 
ATOM     26  H   LIG d   1       3.732  -2.544  -4.225  0.00  0.00     0.023 H 
ATOM     27  H   LIG d   1       4.837  -3.659  -3.353  0.00  0.00     0.023 H 
ENDBRANCH  21  24
ENDBRANCH  18  21
ENDBRANCH  16  18
ENDBRANCH  15  16
ENDBRANCH  12  15
ENDBRANCH  11  12
ENDBRANCH   9  11
ENDBRANCH   1   9
BRANCH   6  28
ATOM     28  C   LIG d   1       4.739  -2.256  -8.554  0.00  0.00    -0.015 A 
ATOM     29  C   LIG d   1       5.120  -3.422  -7.915  0.00  0.00     0.063 A 
ATOM     30  C   LIG d   1       6.440  -3.838  -7.966  0.00  0.00     0.059 A 
ATOM     31 CL   LIG d   1       3.943  -4.368  -7.058  0.00  0.00    -0.082 Cl
ATOM     32  C   LIG d   1       7.378  -3.080  -8.643  0.00  0.00    -0.042 A 
ATOM     33 CL   LIG d   1       6.919  -5.306  -7.171  0.00  0.00    -0.082 Cl
ATOM     34  C   LIG d   1       6.996  -1.912  -9.275  0.00  0.00    -0.060 A 
ATOM     35  H   LIG d   1       8.409  -3.401  -8.678  0.00  0.00     0.063 H 
ATOM     36  C   LIG d   1       5.677  -1.499  -9.231  0.00  0.00    -0.056 A 
ATOM     37  H   LIG d   1       7.728  -1.320  -9.805  0.00  0.00     0.062 H 
ATOM     38  H   LIG d   1       5.380  -0.587  -9.726  0.00  0.00     0.062 H 
ENDBRANCH   6  28
BRANCH   2  39
ATOM     39  C   LIG d   1       2.981   2.048  -8.453  0.00  0.00    -0.026 C 
ATOM     40  H   LIG d   1       4.006   2.383  -8.230  0.00  0.00     0.029 H 
ATOM     41  H   LIG d   1       2.368   2.113  -7.542  0.00  0.00     0.029 H 
ATOM     42  H   LIG d   1       2.547   2.692  -9.232  0.00  0.00     0.029 H 
ENDBRANCH   2  39
BRANCH   5  43
ATOM     43  C   LIG d   1       2.317  -3.258 -10.315  0.00  0.00     0.337 C 
ATOM     44  O   LIG d   1       3.141  -3.967 -10.859  0.00  0.00    -0.245 OA
BRANCH  43  45
ATOM     45  O   LIG d   1       1.055  -3.702 -10.138  0.00  0.00    -0.465 OA
BRANCH  45  46
ATOM     46  C   LIG d   1       0.516  -4.548 -11.156  0.00  0.00     0.082 C 
ATOM     47  H   LIG d   1      -0.583  -4.537 -11.097  0.00  0.00     0.066 H 
ATOM     48  H   LIG d   1       0.881  -5.575 -11.010  0.00  0.00     0.066 H 
ATOM     49  H   LIG d   1       0.834  -4.182 -12.143  0.00  0.00     0.066 H 
ENDBRANCH  45  46
ENDBRANCH  43  45
ENDBRANCH   5  43
BRANCH   4  50
ATOM     50  C   LIG d   1       1.860  -1.118 -12.031  0.00  0.00    -0.026 C 
ATOM     51  H   LIG d   1       2.185  -0.314 -12.706  0.00  0.00     0.029 H 
ATOM     52  H   LIG d   1       0.763  -1.105 -11.947  0.00  0.00     0.029 H 
ATOM     53  H   LIG d   1       2.185  -2.088 -12.433  0.00  0.00     0.029 H 
ENDBRANCH   4  50
TORSDOF 14
ENDMDL
MODEL 8
REMARK VINA RESULT:      -5.2      6.446      9.712
REMARK  14 active torsions:
REMARK  status: ('A' for Active; 'I' for Inactive)
REMARK    1  A    between atoms: C_1  and  C_2 
REMARK    2  A    between atoms: C_2  and  C_3 
REMARK    3  A    between atoms: C_3  and  C_4 
REMARK    4  A    between atoms: C_4  and  O_6 
REMARK    5  A    between atoms: O_6  and  C_7 
REMARK    6  A    between atoms: C_7  and  O_8 
REMARK    7  A    between atoms: O_8  and  C_9 
REMARK    8  A    between atoms: C_9  and  C_11 
REMARK    9  A    between atoms: C_12  and  C_31 
REMARK   10  A    between atoms: C_14  and  C_30 
REMARK   11  A    between atoms: C_15  and  C_26 
REMARK   12  A    between atoms: C_16  and  C_18 
REMARK   13  A    between atoms: C_26  and  O_28 
REMARK   14  A    between atoms: O_28  and  C_29 
ROOT
ATOM      1  C   LIG d   1      10.183   4.654  -3.327  0.00  0.00     0.065 C 
ATOM      2  C   LIG d   1      10.804   3.892  -2.410  0.00  0.00     0.016 C 
ATOM      3  N   LIG d   1      11.257   4.435  -1.238  0.00  0.00    -0.321 N 
ATOM      4  C   LIG d   1      10.786   5.647  -0.812  0.00  0.00     0.016 C 
ATOM      5  C   LIG d   1      10.164   6.482  -1.661  0.00  0.00     0.065 C 
ATOM      6  C   LIG d   1       9.973   6.126  -3.111  0.00  0.00     0.052 C 
ATOM      7  H   LIG d   1       8.945   6.384  -3.403  0.00  0.00     0.045 H 
ATOM      8  H   LIG d   1      12.003   3.898  -0.636  0.00  0.00     0.152 HD
ENDROOT
BRANCH   1   9
ATOM      9  C   LIG d   1       9.720   4.058  -4.523  0.00  0.00     0.340 C 
ATOM     10  O   LIG d   1      10.466   3.950  -5.477  0.00  0.00    -0.245 OA
BRANCH   9  11
ATOM     11  O   LIG d   1       8.450   3.609  -4.606  0.00  0.00    -0.424 OA
BRANCH  11  12
ATOM     12  C   LIG d   1       8.263   2.193  -4.624  0.00  0.00     0.239 C 
ATOM     13  H   LIG d   1       9.229   1.693  -4.461  0.00  0.00     0.117 H 
ATOM     14  H   LIG d   1       7.854   1.891  -5.600  0.00  0.00     0.117 H 
BRANCH  12  15
ATOM     15  O   LIG d   1       7.337   1.812  -3.572  0.00  0.00    -0.427 OA
BRANCH  15  16
ATOM     16  C   LIG d   1       6.460   0.836  -3.855  0.00  0.00     0.310 C 
ATOM     17  O   LIG d   1       6.213   0.560  -5.007  0.00  0.00    -0.251 OA
BRANCH  16  18
ATOM     18  C   LIG d   1       5.783   0.084  -2.739  0.00  0.00     0.045 C 
ATOM     19  H   LIG d   1       6.545  -0.350  -2.075  0.00  0.00     0.038 H 
ATOM     20  H   LIG d   1       5.164  -0.721  -3.163  0.00  0.00     0.038 H 
BRANCH  18  21
ATOM     21  C   LIG d   1       4.897   1.043  -1.942  0.00  0.00    -0.046 C 
ATOM     22  H   LIG d   1       5.411   2.007  -1.826  0.00  0.00     0.027 H 
ATOM     23  H   LIG d   1       4.694   0.614  -0.948  0.00  0.00     0.027 H 
BRANCH  21  24
ATOM     24  C   LIG d   1       3.577   1.254  -2.685  0.00  0.00    -0.065 C 
ATOM     25  H   LIG d   1       3.705   0.987  -3.744  0.00  0.00     0.023 H 
ATOM     26  H   LIG d   1       3.277   2.310  -2.607  0.00  0.00     0.023 H 
ATOM     27  H   LIG d   1       2.798   0.618  -2.238  0.00  0.00     0.023 H 
ENDBRANCH  21  24
ENDBRANCH  18  21
ENDBRANCH  16  18
ENDBRANCH  15  16
ENDBRANCH  12  15
ENDBRANCH  11  12
ENDBRANCH   9  11
ENDBRANCH   1   9
BRANCH   6  28
ATOM     28  C   LIG d   1      10.962   6.897  -3.949  0.00  0.00    -0.015 A 
ATOM     29  C   LIG d   1      10.531   7.580  -5.072  0.00  0.00     0.063 A 
ATOM     30  C   LIG d   1      11.438   8.292  -5.838  0.00  0.00     0.059 A 
ATOM     31 CL   LIG d   1       8.853   7.552  -5.515  0.00  0.00    -0.082 Cl
ATOM     32  C   LIG d   1      12.776   8.308  -5.487  0.00  0.00    -0.042 A 
ATOM     33 CL   LIG d   1      10.898   9.157  -7.243  0.00  0.00    -0.082 Cl
ATOM     34  C   LIG d   1      13.206   7.619  -4.369  0.00  0.00    -0.060 A 
ATOM     35  H   LIG d   1      13.485   8.859  -6.088  0.00  0.00     0.063 H 
ATOM     36  C   LIG d   1      12.299   6.913  -3.599  0.00  0.00    -0.056 A 
ATOM     37  H   LIG d   1      14.250   7.632  -4.094  0.00  0.00     0.062 H 
ATOM     38  H   LIG d   1      12.636   6.377  -2.725  0.00  0.00     0.062 H 
ENDBRANCH   6  28
BRANCH   2  39
ATOM     39  C   LIG d   1      11.005   2.423  -2.676  0.00  0.00    -0.026 C 
ATOM     40  H   LIG d   1      10.790   1.852  -1.760  0.00  0.00     0.029 H 
ATOM     41  H   LIG d   1      12.045   2.245  -2.985  0.00  0.00     0.029 H 
ATOM     42  H   LIG d   1      10.324   2.099  -3.478  0.00  0.00     0.029 H 
ENDBRANCH   2  39
BRANCH   5  43
ATOM     43  C   LIG d   1       9.682   7.723  -1.183  0.00  0.00     0.337 C 
ATOM     44  O   LIG d   1       8.514   7.841  -0.867  0.00  0.00    -0.245 OA
BRANCH  43  45
ATOM     45  O   LIG d   1      10.520   8.776  -1.077  0.00  0.00    -0.465 OA
BRANCH  45  46
ATOM     46  C   LIG d   1      10.254   9.714  -0.032  0.00  0.00     0.082 C 
ATOM     47  H   LIG d   1       9.759  10.601  -0.454  0.00  0.00     0.066 H 
ATOM     48  H   LIG d   1      11.201  10.013   0.442  0.00  0.00     0.066 H 
ATOM     49  H   LIG d   1       9.598   9.250   0.718  0.00  0.00     0.066 H 
ENDBRANCH  45  46
ENDBRANCH  43  45
ENDBRANCH   5  43
BRANCH   4  50
ATOM     50  C   LIG d   1      10.967   6.051   0.629  0.00  0.00    -0.026 C 
ATOM     51  H   LIG d   1      10.290   5.462   1.264  0.00  0.00     0.029 H 
ATOM     52  H   LIG d   1      10.737   7.121   0.742  0.00  0.00     0.029 H 
ATOM     53  H   LIG d   1      12.008   5.866   0.933  0.00  0.00     0.029 H 
ENDBRANCH   4  50
TORSDOF 14
ENDMDL
MODEL 9
REMARK VINA RESULT:      -5.1      5.131      7.559
REMARK  14 active torsions:
REMARK  status: ('A' for Active; 'I' for Inactive)
REMARK    1  A    between atoms: C_1  and  C_2 
REMARK    2  A    between atoms: C_2  and  C_3 
REMARK    3  A    between atoms: C_3  and  C_4 
REMARK    4  A    between atoms: C_4  and  O_6 
REMARK    5  A    between atoms: O_6  and  C_7 
REMARK    6  A    between atoms: C_7  and  O_8 
REMARK    7  A    between atoms: O_8  and  C_9 
REMARK    8  A    between atoms: C_9  and  C_11 
REMARK    9  A    between atoms: C_12  and  C_31 
REMARK   10  A    between atoms: C_14  and  C_30 
REMARK   11  A    between atoms: C_15  and  C_26 
REMARK   12  A    between atoms: C_16  and  C_18 
REMARK   13  A    between atoms: C_26  and  O_28 
REMARK   14  A    between atoms: O_28  and  C_29 
ROOT
ATOM      1  C   LIG d   1       9.669   2.185  -4.573  0.00  0.00     0.065 C 
ATOM      2  C   LIG d   1      10.455   1.124  -4.826  0.00  0.00     0.016 C 
ATOM      3  N   LIG d   1      11.818   1.232  -4.763  0.00  0.00    -0.321 N 
ATOM      4  C   LIG d   1      12.398   2.283  -4.107  0.00  0.00     0.016 C 
ATOM      5  C   LIG d   1      11.694   3.392  -3.825  0.00  0.00     0.065 C 
ATOM      6  C   LIG d   1      10.251   3.527  -4.228  0.00  0.00     0.052 C 
ATOM      7  H   LIG d   1       9.688   3.949  -3.383  0.00  0.00     0.045 H 
ATOM      8  H   LIG d   1      12.452   0.471  -5.242  0.00  0.00     0.152 HD
ENDROOT
BRANCH   1   9
ATOM      9  C   LIG d   1       8.265   2.036  -4.639  0.00  0.00     0.340 C 
ATOM     10  O   LIG d   1       7.702   2.042  -5.717  0.00  0.00    -0.245 OA
BRANCH   9  11
ATOM     11  O   LIG d   1       7.548   1.888  -3.504  0.00  0.00    -0.424 OA
BRANCH  11  12
ATOM     12  C   LIG d   1       6.597   0.822  -3.472  0.00  0.00     0.239 C 
ATOM     13  H   LIG d   1       6.780   0.194  -2.589  0.00  0.00     0.117 H 
ATOM     14  H   LIG d   1       6.700   0.213  -4.383  0.00  0.00     0.117 H 
BRANCH  12  15
ATOM     15  O   LIG d   1       5.255   1.372  -3.406  0.00  0.00    -0.427 OA
BRANCH  15  16
ATOM     16  C   LIG d   1       4.489   0.985  -2.373  0.00  0.00     0.310 C 
ATOM     17  O   LIG d   1       4.869   1.161  -1.239  0.00  0.00    -0.251 OA
BRANCH  16  18
ATOM     18  C   LIG d   1       3.155   0.331  -2.628  0.00  0.00     0.045 C 
ATOM     19  H   LIG d   1       2.545   0.982  -3.272  0.00  0.00     0.038 H 
ATOM     20  H   LIG d   1       2.638   0.172  -1.670  0.00  0.00     0.038 H 
BRANCH  18  21
ATOM     21  C   LIG d   1       3.372  -1.015  -3.321  0.00  0.00    -0.046 C 
ATOM     22  H   LIG d   1       4.095  -0.895  -4.139  0.00  0.00     0.027 H 
ATOM     23  H   LIG d   1       2.415  -1.376  -3.727  0.00  0.00     0.027 H 
BRANCH  21  24
ATOM     24  C   LIG d   1       3.910  -2.029  -2.308  0.00  0.00    -0.065 C 
ATOM     25  H   LIG d   1       3.404  -1.887  -1.342  0.00  0.00     0.023 H 
ATOM     26  H   LIG d   1       4.993  -1.880  -2.181  0.00  0.00     0.023 H 
ATOM     27  H   LIG d   1       3.722  -3.049  -2.675  0.00  0.00     0.023 H 
ENDBRANCH  21  24
ENDBRANCH  18  21
ENDBRANCH  16  18
ENDBRANCH  15  16
ENDBRANCH  12  15
ENDBRANCH  11  12
ENDBRANCH   9  11
ENDBRANCH   1   9
BRANCH   6  28
ATOM     28  C   LIG d   1      10.149   4.435  -5.427  0.00  0.00    -0.015 A 
ATOM     29  C   LIG d   1       9.723   5.742  -5.270  0.00  0.00     0.063 A 
ATOM     30  C   LIG d   1       9.635   6.578  -6.370  0.00  0.00     0.059 A 
ATOM     31 CL   LIG d   1       9.306   6.336  -3.693  0.00  0.00    -0.082 Cl
ATOM     32  C   LIG d   1       9.961   6.101  -7.627  0.00  0.00    -0.042 A 
ATOM     33 CL   LIG d   1       9.108   8.220  -6.174  0.00  0.00    -0.082 Cl
ATOM     34  C   LIG d   1      10.381   4.794  -7.783  0.00  0.00    -0.060 A 
ATOM     35  H   LIG d   1       9.888   6.751  -8.487  0.00  0.00     0.063 H 
ATOM     36  C   LIG d   1      10.475   3.960  -6.683  0.00  0.00    -0.056 A 
ATOM     37  H   LIG d   1      10.636   4.421  -8.764  0.00  0.00     0.062 H 
ATOM     38  H   LIG d   1      10.804   2.939  -6.807  0.00  0.00     0.062 H 
ENDBRANCH   6  28
BRANCH   2  39
ATOM     39  C   LIG d   1       9.828  -0.198  -5.182  0.00  0.00    -0.026 C 
ATOM     40  H   LIG d   1      10.090  -0.461  -6.219  0.00  0.00     0.029 H 
ATOM     41  H   LIG d   1       8.735  -0.123  -5.087  0.00  0.00     0.029 H 
ATOM     42  H   LIG d   1      10.202  -0.977  -4.502  0.00  0.00     0.029 H 
ENDBRANCH   2  39
BRANCH   5  43
ATOM     43  C   LIG d   1      12.324   4.456  -3.138  0.00  0.00     0.337 C 
ATOM     44  O   LIG d   1      12.125   4.615  -1.950  0.00  0.00    -0.245 OA
BRANCH  43  45
ATOM     45  O   LIG d   1      13.148   5.293  -3.803  0.00  0.00    -0.465 OA
BRANCH  45  46
ATOM     46  C   LIG d   1      12.949   6.694  -3.601  0.00  0.00     0.082 C 
ATOM     47  H   LIG d   1      13.308   6.974  -2.600  0.00  0.00     0.066 H 
ATOM     48  H   LIG d   1      11.878   6.928  -3.686  0.00  0.00     0.066 H 
ATOM     49  H   LIG d   1      13.509   7.257  -4.363  0.00  0.00     0.066 H 
ENDBRANCH  45  46
ENDBRANCH  43  45
ENDBRANCH   5  43
BRANCH   4  50
ATOM     50  C   LIG d   1      13.846   2.197  -3.697  0.00  0.00    -0.026 C 
ATOM     51  H   LIG d   1      14.050   1.202  -3.275  0.00  0.00     0.029 H 
ATOM     52  H   LIG d   1      14.059   2.966  -2.941  0.00  0.00     0.029 H 
ATOM     53  H   LIG d   1      14.487   2.360  -4.577  0.00  0.00     0.029 H 
ENDBRANCH   4  50
TORSDOF 14
ENDMDL
MODEL 10
REMARK VINA RESULT:      -5.1      3.240      5.828
REMARK  14 active torsions:
REMARK  status: ('A' for Active; 'I' for Inactive)
REMARK    1  A    between atoms: C_1  and  C_2 
REMARK    2  A    between atoms: C_2  and  C_3 
REMARK    3  A    between atoms: C_3  and  C_4 
REMARK    4  A    between atoms: C_4  and  O_6 
REMARK    5  A    between atoms: O_6  and  C_7 
REMARK    6  A    between atoms: C_7  and  O_8 
REMARK    7  A    between atoms: O_8  and  C_9 
REMARK    8  A    between atoms: C_9  and  C_11 
REMARK    9  A    between atoms: C_12  and  C_31 
REMARK   10  A    between atoms: C_14  and  C_30 
REMARK   11  A    between atoms: C_15  and  C_26 
REMARK   12  A    between atoms: C_16  and  C_18 
REMARK   13  A    between atoms: C_26  and  O_28 
REMARK   14  A    between atoms: O_28  and  C_29 
ROOT
ATOM      1  C   LIG d   1       7.456  -0.793  -6.791  0.00  0.00     0.065 C 
ATOM      2  C   LIG d   1       8.596  -0.116  -7.009  0.00  0.00     0.016 C 
ATOM      3  N   LIG d   1       9.709  -0.355  -6.250  0.00  0.00    -0.321 N 
ATOM      4  C   LIG d   1       9.809  -1.504  -5.515  0.00  0.00     0.016 C 
ATOM      5  C   LIG d   1       8.720  -2.239  -5.234  0.00  0.00     0.065 C 
ATOM      6  C   LIG d   1       7.352  -1.823  -5.702  0.00  0.00     0.052 C 
ATOM      7  H   LIG d   1       6.833  -2.707  -6.100  0.00  0.00     0.045 H 
ATOM      8  H   LIG d   1      10.528   0.379  -6.228  0.00  0.00     0.152 HD
ENDROOT
BRANCH   1   9
ATOM      9  C   LIG d   1       6.327  -0.526  -7.600  0.00  0.00     0.340 C 
ATOM     10  O   LIG d   1       6.218  -1.059  -8.687  0.00  0.00    -0.245 OA
BRANCH   9  11
ATOM     11  O   LIG d   1       5.371   0.322  -7.166  0.00  0.00    -0.424 OA
BRANCH  11  12
ATOM     12  C   LIG d   1       4.058  -0.215  -6.993  0.00  0.00     0.239 C 
ATOM     13  H   LIG d   1       3.982  -0.687  -6.003  0.00  0.00     0.117 H 
ATOM     14  H   LIG d   1       3.864  -0.965  -7.774  0.00  0.00     0.117 H 
BRANCH  12  15
ATOM     15  O   LIG d   1       3.080   0.854  -7.095  0.00  0.00    -0.427 OA
BRANCH  15  16
ATOM     16  C   LIG d   1       3.019   1.515  -8.262  0.00  0.00     0.310 C 
ATOM     17  O   LIG d   1       3.048   2.724  -8.275  0.00  0.00    -0.251 OA
BRANCH  16  18
ATOM     18  C   LIG d   1       2.914   0.751  -9.557  0.00  0.00     0.045 C 
ATOM     19  H   LIG d   1       1.891   0.839  -9.952  0.00  0.00     0.038 H 
ATOM     20  H   LIG d   1       3.148  -0.309  -9.376  0.00  0.00     0.038 H 
BRANCH  18  21
ATOM     21  C   LIG d   1       3.905   1.326 -10.570  0.00  0.00    -0.046 C 
ATOM     22  H   LIG d   1       4.851   1.562 -10.065  0.00  0.00     0.027 H 
ATOM     23  H   LIG d   1       3.486   2.243 -11.013  0.00  0.00     0.027 H 
BRANCH  21  24
ATOM     24  C   LIG d   1       4.159   0.297 -11.675  0.00  0.00    -0.065 C 
ATOM     25  H   LIG d   1       4.458  -0.660 -11.223  0.00  0.00     0.023 H 
ATOM     26  H   LIG d   1       4.963   0.658 -12.333  0.00  0.00     0.023 H 
ATOM     27  H   LIG d   1       3.240   0.155 -12.262  0.00  0.00     0.023 H 
ENDBRANCH  21  24
ENDBRANCH  18  21
ENDBRANCH  16  18
ENDBRANCH  15  16
ENDBRANCH  12  15
ENDBRANCH  11  12
ENDBRANCH   9  11
ENDBRANCH   1   9
BRANCH   6  28
ATOM     28  C   LIG d   1       6.581  -1.244  -4.543  0.00  0.00    -0.015 A 
ATOM     29  C   LIG d   1       5.553  -1.968  -3.967  0.00  0.00     0.063 A 
ATOM     30  C   LIG d   1       4.849  -1.439  -2.898  0.00  0.00     0.059 A 
ATOM     31 CL   LIG d   1       5.150  -3.543  -4.577  0.00  0.00    -0.082 Cl
ATOM     32  C   LIG d   1       5.166  -0.182  -2.417  0.00  0.00    -0.042 A 
ATOM     33 CL   LIG d   1       3.563  -2.349  -2.168  0.00  0.00    -0.082 Cl
ATOM     34  C   LIG d   1       6.189   0.543  -2.998  0.00  0.00    -0.060 A 
ATOM     35  H   LIG d   1       4.614   0.234  -1.587  0.00  0.00     0.063 H 
ATOM     36  C   LIG d   1       6.897   0.012  -4.061  0.00  0.00    -0.056 A 
ATOM     37  H   LIG d   1       6.438   1.524  -2.622  0.00  0.00     0.062 H 
ATOM     38  H   LIG d   1       7.697   0.579  -4.513  0.00  0.00     0.062 H 
ENDBRANCH   6  28
BRANCH   2  39
ATOM     39  C   LIG d   1       8.649   0.919  -8.103  0.00  0.00    -0.026 C 
ATOM     40  H   LIG d   1       8.997   0.449  -9.036  0.00  0.00     0.029 H 
ATOM     41  H   LIG d   1       9.343   1.722  -7.815  0.00  0.00     0.029 H 
ATOM     42  H   LIG d   1       7.646   1.341  -8.258  0.00  0.00     0.029 H 
ENDBRANCH   2  39
BRANCH   5  43
ATOM     43  C   LIG d   1       8.862  -3.426  -4.478  0.00  0.00     0.337 C 
ATOM     44  O   LIG d   1       9.039  -4.489  -5.043  0.00  0.00    -0.245 OA
BRANCH  43  45
ATOM     45  O   LIG d   1       8.803  -3.379  -3.131  0.00  0.00    -0.465 OA
BRANCH  45  46
ATOM     46  C   LIG d   1       9.659  -4.272  -2.413  0.00  0.00     0.082 C 
ATOM     47  H   LIG d   1      10.498  -4.573  -3.057  0.00  0.00     0.066 H 
ATOM     48  H   LIG d   1       9.089  -5.163  -2.112  0.00  0.00     0.066 H 
ATOM     49  H   LIG d   1      10.048  -3.765  -1.517  0.00  0.00     0.066 H 
ENDBRANCH  45  46
ENDBRANCH  43  45
ENDBRANCH   5  43
BRANCH   4  50
ATOM     50  C   LIG d   1      11.158  -1.952  -5.013  0.00  0.00    -0.026 C 
ATOM     51  H   LIG d   1      11.185  -3.050  -4.962  0.00  0.00     0.029 H 
ATOM     52  H   LIG d   1      11.334  -1.534  -4.011  0.00  0.00     0.029 H 
ATOM     53  H   LIG d   1      11.941  -1.598  -5.700  0.00  0.00     0.029 H 
ENDBRANCH   4  50
TORSDOF 14
ENDMDL
