MODEL 1
REMARK VINA RESULT:      -7.2      0.000      0.000
REMARK  4 active torsions:
REMARK  status: ('A' for Active; 'I' for Inactive)
REMARK    1  A    between atoms: C_7  and  N_21 
REMARK    2  A    between atoms: C_9  and  N_11 
REMARK    3  A    between atoms: N_11  and  C_12 
REMARK    4  A    between atoms: C_15  and  C_18 
REMARK       I    between atoms: C_18  and  N_20 
ROOT
ATOM      1  C   LIG d   1       3.110   0.234  -2.757  0.00  0.00    -0.061 A 
ATOM      2  C   LIG d   1       4.146   0.971  -2.193  0.00  0.00    -0.056 A 
ATOM      3  C   LIG d   1       5.443   0.574  -2.324  0.00  0.00     0.011 A 
ATOM      4  C   LIG d   1       5.740  -0.597  -3.038  0.00  0.00     0.219 A 
ATOM      5  C   LIG d   1       4.684  -1.346  -3.610  0.00  0.00     0.086 A 
ATOM      6  C   LIG d   1       3.363  -0.910  -3.457  0.00  0.00    -0.045 A 
ATOM      7  C   LIG d   1       5.008  -2.526  -4.326  0.00  0.00     0.138 A 
ATOM      8  N   LIG d   1       6.283  -2.871  -4.425  0.00  0.00    -0.156 NA
ATOM      9  C   LIG d   1       7.245  -2.136  -3.871  0.00  0.00     0.379 A 
ATOM     10  N   LIG d   1       6.999  -1.031  -3.195  0.00  0.00    -0.174 N 
ATOM     11  H   LIG d   1       2.090   0.568  -2.635  0.00  0.00     0.062 H 
ATOM     12  H   LIG d   1       3.919   1.873  -1.644  0.00  0.00     0.062 H 
ATOM     13  H   LIG d   1       6.238   1.156  -1.882  0.00  0.00     0.068 H 
ATOM     14  H   LIG d   1       2.551  -1.475  -3.890  0.00  0.00     0.063 H 
ATOM     15  H   LIG d   1       7.734  -0.528  -2.809  0.00  0.00     0.457 HD
ENDROOT
BRANCH   9  16
ATOM     16  N   LIG d   1       8.558  -2.551  -4.010  0.00  0.00    -0.244 N 
ATOM     17  H   LIG d   1       9.179  -2.026  -4.538  0.00  0.00     0.159 HD
BRANCH  16  18
ATOM     18  C   LIG d   1       8.987  -3.724  -3.392  0.00  0.00     0.037 A 
ATOM     19  C   LIG d   1       9.196  -3.749  -2.017  0.00  0.00    -0.040 A 
ATOM     20  C   LIG d   1       9.614  -4.907  -1.403  0.00  0.00    -0.048 A 
ATOM     21  H   LIG d   1       9.025  -2.858  -1.430  0.00  0.00     0.064 H 
ATOM     22  C   LIG d   1       9.840  -6.057  -2.165  0.00  0.00     0.037 A 
ATOM     23  H   LIG d   1       9.772  -4.926  -0.335  0.00  0.00     0.063 H 
ATOM     24  C   LIG d   1       9.633  -6.028  -3.547  0.00  0.00    -0.048 A 
ATOM     25  C   LIG d   1       9.210  -4.868  -4.154  0.00  0.00    -0.040 A 
ATOM     26  H   LIG d   1       9.806  -6.915  -4.139  0.00  0.00     0.063 H 
ATOM     27  H   LIG d   1       9.051  -4.844  -5.222  0.00  0.00     0.064 H 
BRANCH  22  28
ATOM     28  C   LIG d   1      10.293  -7.300  -1.511  0.00  0.00     0.241 C 
ATOM     29  O   LIG d   1      10.229  -8.358  -2.107  0.00  0.00    -0.270 OA
ATOM     30  N   LIG d   1      10.778  -7.262  -0.254  0.00  0.00    -0.325 N 
ATOM     31  H   LIG d   1      10.829  -6.417   0.221  0.00  0.00     0.145 HD
ATOM     32  H   LIG d   1      11.076  -8.078   0.176  0.00  0.00     0.145 HD
ENDBRANCH  22  28
ENDBRANCH  16  18
ENDBRANCH   9  16
BRANCH   7  33
ATOM     33  N   LIG d   1       4.020  -3.295  -4.904  0.00  0.00    -0.342 N 
ATOM     34  H   LIG d   1       4.142  -4.253  -4.994  0.00  0.00     0.144 HD
ATOM     35  H   LIG d   1       3.204  -2.877  -5.222  0.00  0.00     0.144 HD
ENDBRANCH   7  33
TORSDOF 4
ENDMDL
MODEL 2
REMARK VINA RESULT:      -6.9      5.710      8.599
REMARK  4 active torsions:
REMARK  status: ('A' for Active; 'I' for Inactive)
REMARK    1  A    between atoms: C_7  and  N_21 
REMARK    2  A    between atoms: C_9  and  N_11 
REMARK    3  A    between atoms: N_11  and  C_12 
REMARK    4  A    between atoms: C_15  and  C_18 
REMARK       I    between atoms: C_18  and  N_20 
ROOT
ATOM      1  C   LIG d   1       4.290  -1.603  -1.863  0.00  0.00    -0.061 A 
ATOM      2  C   LIG d   1       4.368  -0.215  -1.935  0.00  0.00    -0.056 A 
ATOM      3  C   LIG d   1       4.450   0.421  -3.137  0.00  0.00     0.011 A 
ATOM      4  C   LIG d   1       4.457  -0.331  -4.321  0.00  0.00     0.219 A 
ATOM      5  C   LIG d   1       4.379  -1.743  -4.244  0.00  0.00     0.086 A 
ATOM      6  C   LIG d   1       4.295  -2.365  -2.994  0.00  0.00    -0.045 A 
ATOM      7  C   LIG d   1       4.390  -2.483  -5.453  0.00  0.00     0.138 A 
ATOM      8  N   LIG d   1       4.472  -1.818  -6.596  0.00  0.00    -0.156 NA
ATOM      9  C   LIG d   1       4.543  -0.489  -6.622  0.00  0.00     0.379 A 
ATOM     10  N   LIG d   1       4.538   0.246  -5.528  0.00  0.00    -0.174 N 
ATOM     11  H   LIG d   1       4.230  -2.084  -0.897  0.00  0.00     0.062 H 
ATOM     12  H   LIG d   1       4.361   0.365  -1.025  0.00  0.00     0.062 H 
ATOM     13  H   LIG d   1       4.509   1.499  -3.179  0.00  0.00     0.068 H 
ATOM     14  H   LIG d   1       4.235  -3.442  -2.926  0.00  0.00     0.063 H 
ATOM     15  H   LIG d   1       4.592   1.213  -5.597  0.00  0.00     0.457 HD
ENDROOT
BRANCH   9  16
ATOM     16  N   LIG d   1       4.629   0.146  -7.849  0.00  0.00    -0.244 N 
ATOM     17  H   LIG d   1       5.275   0.856  -7.983  0.00  0.00     0.159 HD
BRANCH  16  18
ATOM     18  C   LIG d   1       3.784  -0.234  -8.890  0.00  0.00     0.037 A 
ATOM     19  C   LIG d   1       4.321  -0.716 -10.079  0.00  0.00    -0.040 A 
ATOM     20  C   LIG d   1       3.489  -1.097 -11.107  0.00  0.00    -0.048 A 
ATOM     21  H   LIG d   1       5.392  -0.796 -10.194  0.00  0.00     0.064 H 
ATOM     22  C   LIG d   1       2.104  -0.988 -10.960  0.00  0.00     0.037 A 
ATOM     23  H   LIG d   1       3.906  -1.475 -12.029  0.00  0.00     0.063 H 
ATOM     24  C   LIG d   1       1.568  -0.499  -9.764  0.00  0.00    -0.048 A 
ATOM     25  C   LIG d   1       2.404  -0.125  -8.738  0.00  0.00    -0.040 A 
ATOM     26  H   LIG d   1       0.497  -0.415  -9.647  0.00  0.00     0.063 H 
ATOM     27  H   LIG d   1       1.992   0.253  -7.815  0.00  0.00     0.064 H 
BRANCH  22  28
ATOM     28  C   LIG d   1       1.208  -1.391 -12.062  0.00  0.00     0.241 C 
ATOM     29  O   LIG d   1       1.663  -1.952 -13.040  0.00  0.00    -0.270 OA
ATOM     30  N   LIG d   1      -0.113  -1.135 -11.984  0.00  0.00    -0.325 N 
ATOM     31  H   LIG d   1      -0.475  -0.687 -11.203  0.00  0.00     0.145 HD
ATOM     32  H   LIG d   1      -0.701  -1.399 -12.708  0.00  0.00     0.145 HD
ENDBRANCH  22  28
ENDBRANCH  16  18
ENDBRANCH   9  16
BRANCH   7  33
ATOM     33  N   LIG d   1       4.316  -3.860  -5.440  0.00  0.00    -0.342 N 
ATOM     34  H   LIG d   1       3.524  -4.300  -5.092  0.00  0.00     0.144 HD
ATOM     35  H   LIG d   1       5.056  -4.388  -5.778  0.00  0.00     0.144 HD
ENDBRANCH   7  33
TORSDOF 4
ENDMDL
MODEL 3
REMARK VINA RESULT:      -6.8      5.475      7.804
REMARK  4 active torsions:
REMARK  status: ('A' for Active; 'I' for Inactive)
REMARK    1  A    between atoms: C_7  and  N_21 
REMARK    2  A    between atoms: C_9  and  N_11 
REMARK    3  A    between atoms: N_11  and  C_12 
REMARK    4  A    between atoms: C_15  and  C_18 
REMARK       I    between atoms: C_18  and  N_20 
ROOT
ATOM      1  C   LIG d   1       4.175  -0.903  -2.009  0.00  0.00    -0.061 A 
ATOM      2  C   LIG d   1       4.021   0.479  -1.963  0.00  0.00    -0.056 A 
ATOM      3  C   LIG d   1       4.926   1.306  -2.557  0.00  0.00     0.011 A 
ATOM      4  C   LIG d   1       6.031   0.759  -3.226  0.00  0.00     0.219 A 
ATOM      5  C   LIG d   1       6.185  -0.648  -3.270  0.00  0.00     0.086 A 
ATOM      6  C   LIG d   1       5.238  -1.469  -2.650  0.00  0.00    -0.045 A 
ATOM      7  C   LIG d   1       7.310  -1.179  -3.950  0.00  0.00     0.138 A 
ATOM      8  N   LIG d   1       8.162  -0.334  -4.511  0.00  0.00    -0.156 NA
ATOM      9  C   LIG d   1       7.978   0.983  -4.445  0.00  0.00     0.379 A 
ATOM     10  N   LIG d   1       6.950   1.529  -3.826  0.00  0.00    -0.174 N 
ATOM     11  H   LIG d   1       3.446  -1.537  -1.526  0.00  0.00     0.062 H 
ATOM     12  H   LIG d   1       3.170   0.902  -1.449  0.00  0.00     0.062 H 
ATOM     13  H   LIG d   1       4.794   2.378  -2.515  0.00  0.00     0.068 H 
ATOM     14  H   LIG d   1       5.348  -2.543  -2.679  0.00  0.00     0.063 H 
ATOM     15  H   LIG d   1       6.858   2.495  -3.804  0.00  0.00     0.457 HD
ENDROOT
BRANCH   9  16
ATOM     16  N   LIG d   1       8.905   1.813  -5.051  0.00  0.00    -0.244 N 
ATOM     17  H   LIG d   1       9.307   1.556  -5.895  0.00  0.00     0.159 HD
BRANCH  16  18
ATOM     18  C   LIG d   1       9.262   3.016  -4.447  0.00  0.00     0.037 A 
ATOM     19  C   LIG d   1       9.021   4.220  -5.101  0.00  0.00    -0.040 A 
ATOM     20  C   LIG d   1       9.366   5.411  -4.505  0.00  0.00    -0.048 A 
ATOM     21  H   LIG d   1       8.556   4.220  -6.077  0.00  0.00     0.064 H 
ATOM     22  C   LIG d   1       9.972   5.410  -3.245  0.00  0.00     0.037 A 
ATOM     23  H   LIG d   1       9.175   6.345  -5.011  0.00  0.00     0.063 H 
ATOM     24  C   LIG d   1      10.218   4.198  -2.593  0.00  0.00    -0.048 A 
ATOM     25  C   LIG d   1       9.864   3.011  -3.192  0.00  0.00    -0.040 A 
ATOM     26  H   LIG d   1      10.685   4.193  -1.618  0.00  0.00     0.063 H 
ATOM     27  H   LIG d   1      10.054   2.074  -2.689  0.00  0.00     0.064 H 
BRANCH  22  28
ATOM     28  C   LIG d   1      10.350   6.684  -2.605  0.00  0.00     0.241 C 
ATOM     29  O   LIG d   1      11.480   6.842  -2.185  0.00  0.00    -0.270 OA
ATOM     30  N   LIG d   1       9.442   7.673  -2.484  0.00  0.00    -0.325 N 
ATOM     31  H   LIG d   1       8.540   7.547  -2.819  0.00  0.00     0.145 HD
ATOM     32  H   LIG d   1       9.690   8.510  -2.063  0.00  0.00     0.145 HD
ENDBRANCH  22  28
ENDBRANCH  16  18
ENDBRANCH   9  16
BRANCH   7  33
ATOM     33  N   LIG d   1       7.512  -2.541  -4.026  0.00  0.00    -0.342 N 
ATOM     34  H   LIG d   1       6.830  -3.151  -3.704  0.00  0.00     0.144 HD
ATOM     35  H   LIG d   1       8.337  -2.888  -4.401  0.00  0.00     0.144 HD
ENDBRANCH   7  33
TORSDOF 4
ENDMDL
MODEL 4
REMARK VINA RESULT:      -6.7      1.045      1.998
REMARK  4 active torsions:
REMARK  status: ('A' for Active; 'I' for Inactive)
REMARK    1  A    between atoms: C_7  and  N_21 
REMARK    2  A    between atoms: C_9  and  N_11 
REMARK    3  A    between atoms: N_11  and  C_12 
REMARK    4  A    between atoms: C_15  and  C_18 
REMARK       I    between atoms: C_18  and  N_20 
ROOT
ATOM      1  C   LIG d   1       3.716   0.353  -2.352  0.00  0.00    -0.061 A 
ATOM      2  C   LIG d   1       3.430  -1.008  -2.286  0.00  0.00    -0.056 A 
ATOM      3  C   LIG d   1       4.308  -1.934  -2.763  0.00  0.00     0.011 A 
ATOM      4  C   LIG d   1       5.520  -1.512  -3.329  0.00  0.00     0.219 A 
ATOM      5  C   LIG d   1       5.809  -0.128  -3.395  0.00  0.00     0.086 A 
ATOM      6  C   LIG d   1       4.885   0.797  -2.897  0.00  0.00    -0.045 A 
ATOM      7  C   LIG d   1       7.039   0.275  -3.973  0.00  0.00     0.138 A 
ATOM      8  N   LIG d   1       7.859  -0.663  -4.422  0.00  0.00    -0.156 NA
ATOM      9  C   LIG d   1       7.548  -1.954  -4.340  0.00  0.00     0.379 A 
ATOM     10  N   LIG d   1       6.418  -2.383  -3.812  0.00  0.00    -0.174 N 
ATOM     11  H   LIG d   1       3.000   1.067  -1.972  0.00  0.00     0.062 H 
ATOM     12  H   LIG d   1       2.497  -1.334  -1.850  0.00  0.00     0.062 H 
ATOM     13  H   LIG d   1       4.074  -2.987  -2.704  0.00  0.00     0.068 H 
ATOM     14  H   LIG d   1       5.096   1.855  -2.944  0.00  0.00     0.063 H 
ATOM     15  H   LIG d   1       6.235  -3.336  -3.774  0.00  0.00     0.457 HD
ENDROOT
BRANCH   9  16
ATOM     16  N   LIG d   1       8.448  -2.886  -4.829  0.00  0.00    -0.244 N 
ATOM     17  H   LIG d   1       8.799  -2.794  -5.728  0.00  0.00     0.159 HD
BRANCH  16  18
ATOM     18  C   LIG d   1       8.847  -3.954  -4.029  0.00  0.00     0.037 A 
ATOM     19  C   LIG d   1       9.349  -3.718  -2.753  0.00  0.00    -0.040 A 
ATOM     20  C   LIG d   1       9.739  -4.771  -1.959  0.00  0.00    -0.048 A 
ATOM     21  H   LIG d   1       9.427  -2.705  -2.383  0.00  0.00     0.064 H 
ATOM     22  C   LIG d   1       9.642  -6.080  -2.440  0.00  0.00     0.037 A 
ATOM     23  H   LIG d   1      10.124  -4.587  -0.967  0.00  0.00     0.063 H 
ATOM     24  C   LIG d   1       9.143  -6.314  -3.725  0.00  0.00    -0.048 A 
ATOM     25  C   LIG d   1       8.749  -5.256  -4.512  0.00  0.00    -0.040 A 
ATOM     26  H   LIG d   1       9.066  -7.324  -4.099  0.00  0.00     0.063 H 
ATOM     27  H   LIG d   1       8.363  -5.436  -5.504  0.00  0.00     0.064 H 
BRANCH  22  28
ATOM     28  C   LIG d   1      10.065  -7.213  -1.593  0.00  0.00     0.241 C 
ATOM     29  O   LIG d   1       9.899  -8.354  -1.978  0.00  0.00    -0.270 OA
ATOM     30  N   LIG d   1      10.636  -6.981  -0.394  0.00  0.00    -0.325 N 
ATOM     31  H   LIG d   1      10.768  -6.070  -0.088  0.00  0.00     0.145 HD
ATOM     32  H   LIG d   1      10.913  -7.725   0.162  0.00  0.00     0.145 HD
ENDBRANCH  22  28
ENDBRANCH  16  18
ENDBRANCH   9  16
BRANCH   7  33
ATOM     33  N   LIG d   1       7.373   1.610  -4.064  0.00  0.00    -0.342 N 
ATOM     34  H   LIG d   1       8.305   1.874  -4.126  0.00  0.00     0.144 HD
ATOM     35  H   LIG d   1       6.676   2.284  -4.067  0.00  0.00     0.144 HD
ENDBRANCH   7  33
TORSDOF 4
ENDMDL
MODEL 5
REMARK VINA RESULT:      -6.4      6.088      9.026
REMARK  4 active torsions:
REMARK  status: ('A' for Active; 'I' for Inactive)
REMARK    1  A    between atoms: C_7  and  N_21 
REMARK    2  A    between atoms: C_9  and  N_11 
REMARK    3  A    between atoms: N_11  and  C_12 
REMARK    4  A    between atoms: C_15  and  C_18 
REMARK       I    between atoms: C_18  and  N_20 
ROOT
ATOM      1  C   LIG d   1       3.473  -1.390  -2.326  0.00  0.00    -0.061 A 
ATOM      2  C   LIG d   1       4.163  -2.515  -2.768  0.00  0.00    -0.056 A 
ATOM      3  C   LIG d   1       4.513  -2.653  -4.077  0.00  0.00     0.011 A 
ATOM      4  C   LIG d   1       4.174  -1.649  -4.996  0.00  0.00     0.219 A 
ATOM      5  C   LIG d   1       3.471  -0.506  -4.543  0.00  0.00     0.086 A 
ATOM      6  C   LIG d   1       3.127  -0.395  -3.192  0.00  0.00    -0.045 A 
ATOM      7  C   LIG d   1       3.138   0.495  -5.490  0.00  0.00     0.138 A 
ATOM      8  N   LIG d   1       3.500   0.314  -6.750  0.00  0.00    -0.156 NA
ATOM      9  C   LIG d   1       4.160  -0.776  -7.133  0.00  0.00     0.379 A 
ATOM     10  N   LIG d   1       4.495  -1.738  -6.294  0.00  0.00    -0.174 N 
ATOM     11  H   LIG d   1       3.203  -1.306  -1.283  0.00  0.00     0.062 H 
ATOM     12  H   LIG d   1       4.426  -3.289  -2.062  0.00  0.00     0.062 H 
ATOM     13  H   LIG d   1       5.050  -3.531  -4.407  0.00  0.00     0.068 H 
ATOM     14  H   LIG d   1       2.591   0.474  -2.838  0.00  0.00     0.063 H 
ATOM     15  H   LIG d   1       4.977  -2.515  -6.620  0.00  0.00     0.457 HD
ENDROOT
BRANCH   9  16
ATOM     16  N   LIG d   1       4.509  -0.907  -8.466  0.00  0.00    -0.244 N 
ATOM     17  H   LIG d   1       5.438  -0.830  -8.734  0.00  0.00     0.159 HD
BRANCH  16  18
ATOM     18  C   LIG d   1       3.526  -1.147  -9.423  0.00  0.00     0.037 A 
ATOM     19  C   LIG d   1       2.689  -2.251  -9.296  0.00  0.00    -0.040 A 
ATOM     20  C   LIG d   1       1.712  -2.488 -10.236  0.00  0.00    -0.048 A 
ATOM     21  H   LIG d   1       2.802  -2.920  -8.455  0.00  0.00     0.064 H 
ATOM     22  C   LIG d   1       1.570  -1.624 -11.327  0.00  0.00     0.037 A 
ATOM     23  H   LIG d   1       1.061  -3.342 -10.135  0.00  0.00     0.063 H 
ATOM     24  C   LIG d   1       2.416  -0.519 -11.453  0.00  0.00    -0.048 A 
ATOM     25  C   LIG d   1       3.387  -0.284 -10.506  0.00  0.00    -0.040 A 
ATOM     26  H   LIG d   1       2.308   0.151 -12.294  0.00  0.00     0.063 H 
ATOM     27  H   LIG d   1       4.041   0.569 -10.604  0.00  0.00     0.064 H 
BRANCH  22  28
ATOM     28  C   LIG d   1       0.528  -1.878 -12.340  0.00  0.00     0.241 C 
ATOM     29  O   LIG d   1       0.688  -2.752 -13.170  0.00  0.00    -0.270 OA
ATOM     30  N   LIG d   1      -0.600  -1.141 -12.346  0.00  0.00    -0.325 N 
ATOM     31  H   LIG d   1      -0.727  -0.444 -11.683  0.00  0.00     0.145 HD
ATOM     32  H   LIG d   1      -1.285  -1.307 -13.012  0.00  0.00     0.145 HD
ENDBRANCH  22  28
ENDBRANCH  16  18
ENDBRANCH   9  16
BRANCH   7  33
ATOM     33  N   LIG d   1       2.454   1.630  -5.106  0.00  0.00    -0.342 N 
ATOM     34  H   LIG d   1       2.642   2.478  -5.537  0.00  0.00     0.144 HD
ATOM     35  H   LIG d   1       1.785   1.578  -4.405  0.00  0.00     0.144 HD
ENDBRANCH   7  33
TORSDOF 4
ENDMDL
MODEL 6
REMARK VINA RESULT:      -6.4      5.875      8.299
REMARK  4 active torsions:
REMARK  status: ('A' for Active; 'I' for Inactive)
REMARK    1  A    between atoms: C_7  and  N_21 
REMARK    2  A    between atoms: C_9  and  N_11 
REMARK    3  A    between atoms: N_11  and  C_12 
REMARK    4  A    between atoms: C_15  and  C_18 
REMARK       I    between atoms: C_18  and  N_20 
ROOT
ATOM      1  C   LIG d   1       3.292  -1.494 -13.306  0.00  0.00    -0.061 A 
ATOM      2  C   LIG d   1       4.237  -0.479 -13.186  0.00  0.00    -0.056 A 
ATOM      3  C   LIG d   1       4.367   0.225 -12.027  0.00  0.00     0.011 A 
ATOM      4  C   LIG d   1       3.537  -0.074 -10.937  0.00  0.00     0.219 A 
ATOM      5  C   LIG d   1       2.576  -1.107 -11.062  0.00  0.00     0.086 A 
ATOM      6  C   LIG d   1       2.468  -1.811 -12.266  0.00  0.00    -0.045 A 
ATOM      7  C   LIG d   1       1.747  -1.391  -9.947  0.00  0.00     0.138 A 
ATOM      8  N   LIG d   1       1.912  -0.679  -8.843  0.00  0.00    -0.156 NA
ATOM      9  C   LIG d   1       2.829   0.283  -8.769  0.00  0.00     0.379 A 
ATOM     10  N   LIG d   1       3.625   0.589  -9.775  0.00  0.00    -0.174 N 
ATOM     11  H   LIG d   1       3.206  -2.034 -14.237  0.00  0.00     0.062 H 
ATOM     12  H   LIG d   1       4.877  -0.247 -14.024  0.00  0.00     0.062 H 
ATOM     13  H   LIG d   1       5.105   1.010 -11.947  0.00  0.00     0.068 H 
ATOM     14  H   LIG d   1       1.738  -2.600 -12.371  0.00  0.00     0.063 H 
ATOM     15  H   LIG d   1       4.279   1.299  -9.673  0.00  0.00     0.457 HD
ENDROOT
BRANCH   9  16
ATOM     16  N   LIG d   1       2.950   0.993  -7.586  0.00  0.00    -0.244 N 
ATOM     17  H   LIG d   1       2.864   1.959  -7.590  0.00  0.00     0.159 HD
BRANCH  16  18
ATOM     18  C   LIG d   1       3.198   0.320  -6.393  0.00  0.00     0.037 A 
ATOM     19  C   LIG d   1       4.233  -0.607  -6.319  0.00  0.00    -0.040 A 
ATOM     20  C   LIG d   1       4.483  -1.270  -5.140  0.00  0.00    -0.048 A 
ATOM     21  H   LIG d   1       4.844  -0.803  -7.189  0.00  0.00     0.064 H 
ATOM     22  C   LIG d   1       3.689  -1.020  -4.017  0.00  0.00     0.037 A 
ATOM     23  H   LIG d   1       5.289  -1.986  -5.083  0.00  0.00     0.063 H 
ATOM     24  C   LIG d   1       2.647  -0.092  -4.096  0.00  0.00    -0.048 A 
ATOM     25  C   LIG d   1       2.405   0.572  -5.276  0.00  0.00    -0.040 A 
ATOM     26  H   LIG d   1       2.031   0.105  -3.230  0.00  0.00     0.063 H 
ATOM     27  H   LIG d   1       1.600   1.289  -5.338  0.00  0.00     0.064 H 
BRANCH  22  28
ATOM     28  C   LIG d   1       3.951  -1.733  -2.752  0.00  0.00     0.241 C 
ATOM     29  O   LIG d   1       3.775  -2.934  -2.684  0.00  0.00    -0.270 OA
ATOM     30  N   LIG d   1       4.384  -1.053  -1.672  0.00  0.00    -0.325 N 
ATOM     31  H   LIG d   1       4.524  -0.094  -1.727  0.00  0.00     0.145 HD
ATOM     32  H   LIG d   1       4.555  -1.521  -0.841  0.00  0.00     0.145 HD
ENDBRANCH  22  28
ENDBRANCH  16  18
ENDBRANCH   9  16
BRANCH   7  33
ATOM     33  N   LIG d   1       0.794  -2.386 -10.012  0.00  0.00    -0.342 N 
ATOM     34  H   LIG d   1       0.674  -2.992  -9.264  0.00  0.00     0.144 HD
ATOM     35  H   LIG d   1       0.244  -2.479 -10.806  0.00  0.00     0.144 HD
ENDBRANCH   7  33
TORSDOF 4
ENDMDL
MODEL 7
REMARK VINA RESULT:      -6.2      4.355      6.749
REMARK  4 active torsions:
REMARK  status: ('A' for Active; 'I' for Inactive)
REMARK    1  A    between atoms: C_7  and  N_21 
REMARK    2  A    between atoms: C_9  and  N_11 
REMARK    3  A    between atoms: N_11  and  C_12 
REMARK    4  A    between atoms: C_15  and  C_18 
REMARK       I    between atoms: C_18  and  N_20 
ROOT
ATOM      1  C   LIG d   1       4.657   1.100  -2.109  0.00  0.00    -0.061 A 
ATOM      2  C   LIG d   1       3.321   0.798  -2.357  0.00  0.00    -0.056 A 
ATOM      3  C   LIG d   1       2.971  -0.322  -3.048  0.00  0.00     0.011 A 
ATOM      4  C   LIG d   1       3.970  -1.187  -3.519  0.00  0.00     0.219 A 
ATOM      5  C   LIG d   1       5.329  -0.877  -3.266  0.00  0.00     0.086 A 
ATOM      6  C   LIG d   1       5.654   0.282  -2.553  0.00  0.00    -0.045 A 
ATOM      7  C   LIG d   1       6.322  -1.764  -3.753  0.00  0.00     0.138 A 
ATOM      8  N   LIG d   1       5.931  -2.840  -4.420  0.00  0.00    -0.156 NA
ATOM      9  C   LIG d   1       4.642  -3.093  -4.635  0.00  0.00     0.379 A 
ATOM     10  N   LIG d   1       3.679  -2.301  -4.204  0.00  0.00    -0.174 N 
ATOM     11  H   LIG d   1       4.908   1.997  -1.562  0.00  0.00     0.062 H 
ATOM     12  H   LIG d   1       2.550   1.462  -1.994  0.00  0.00     0.062 H 
ATOM     13  H   LIG d   1       1.931  -0.545  -3.232  0.00  0.00     0.068 H 
ATOM     14  H   LIG d   1       6.688   0.526  -2.356  0.00  0.00     0.063 H 
ATOM     15  H   LIG d   1       2.753  -2.527  -4.386  0.00  0.00     0.457 HD
ENDROOT
BRANCH   9  16
ATOM     16  N   LIG d   1       4.299  -4.233  -5.340  0.00  0.00    -0.244 N 
ATOM     17  H   LIG d   1       4.173  -5.073  -4.872  0.00  0.00     0.159 HD
BRANCH  16  18
ATOM     18  C   LIG d   1       4.138  -4.175  -6.722  0.00  0.00     0.037 A 
ATOM     19  C   LIG d   1       4.280  -2.962  -7.387  0.00  0.00    -0.040 A 
ATOM     20  C   LIG d   1       4.126  -2.901  -8.754  0.00  0.00    -0.048 A 
ATOM     21  H   LIG d   1       4.516  -2.066  -6.831  0.00  0.00     0.064 H 
ATOM     22  C   LIG d   1       3.816  -4.060  -9.472  0.00  0.00     0.037 A 
ATOM     23  H   LIG d   1       4.240  -1.960  -9.270  0.00  0.00     0.063 H 
ATOM     24  C   LIG d   1       3.669  -5.277  -8.799  0.00  0.00    -0.048 A 
ATOM     25  C   LIG d   1       3.830  -5.331  -7.434  0.00  0.00    -0.040 A 
ATOM     26  H   LIG d   1       3.430  -6.174  -9.352  0.00  0.00     0.063 H 
ATOM     27  H   LIG d   1       3.716  -6.271  -6.914  0.00  0.00     0.064 H 
BRANCH  22  28
ATOM     28  C   LIG d   1       3.645  -3.998 -10.936  0.00  0.00     0.241 C 
ATOM     29  O   LIG d   1       4.261  -3.176 -11.586  0.00  0.00    -0.270 OA
ATOM     30  N   LIG d   1       2.805  -4.854 -11.553  0.00  0.00    -0.325 N 
ATOM     31  H   LIG d   1       2.314  -5.510 -11.034  0.00  0.00     0.145 HD
ATOM     32  H   LIG d   1       2.692  -4.814 -12.515  0.00  0.00     0.145 HD
ENDBRANCH  22  28
ENDBRANCH  16  18
ENDBRANCH   9  16
BRANCH   7  33
ATOM     33  N   LIG d   1       7.660  -1.514  -3.537  0.00  0.00    -0.342 N 
ATOM     34  H   LIG d   1       8.148  -2.022  -2.869  0.00  0.00     0.144 HD
ATOM     35  H   LIG d   1       8.114  -0.828  -4.052  0.00  0.00     0.144 HD
ENDBRANCH   7  33
TORSDOF 4
ENDMDL
MODEL 8
REMARK VINA RESULT:      -6.1      7.401      9.849
REMARK  4 active torsions:
REMARK  status: ('A' for Active; 'I' for Inactive)
REMARK    1  A    between atoms: C_7  and  N_21 
REMARK    2  A    between atoms: C_9  and  N_11 
REMARK    3  A    between atoms: N_11  and  C_12 
REMARK    4  A    between atoms: C_15  and  C_18 
REMARK       I    between atoms: C_18  and  N_20 
ROOT
ATOM      1  C   LIG d   1      11.909  -8.923   3.490  0.00  0.00    -0.061 A 
ATOM      2  C   LIG d   1      11.660 -10.276   3.699  0.00  0.00    -0.056 A 
ATOM      3  C   LIG d   1      11.080 -11.041   2.733  0.00  0.00     0.011 A 
ATOM      4  C   LIG d   1      10.726 -10.459   1.507  0.00  0.00     0.219 A 
ATOM      5  C   LIG d   1      10.979  -9.082   1.297  0.00  0.00     0.086 A 
ATOM      6  C   LIG d   1      11.576  -8.325   2.309  0.00  0.00    -0.045 A 
ATOM      7  C   LIG d   1      10.611  -8.515   0.050  0.00  0.00     0.138 A 
ATOM      8  N   LIG d   1      10.050  -9.300  -0.856  0.00  0.00    -0.156 NA
ATOM      9  C   LIG d   1       9.830 -10.591  -0.616  0.00  0.00     0.379 A 
ATOM     10  N   LIG d   1      10.153 -11.168   0.525  0.00  0.00    -0.174 N 
ATOM     11  H   LIG d   1      12.365  -8.337   4.273  0.00  0.00     0.062 H 
ATOM     12  H   LIG d   1      11.933 -10.726   4.643  0.00  0.00     0.062 H 
ATOM     13  H   LIG d   1      10.894 -12.091   2.909  0.00  0.00     0.068 H 
ATOM     14  H   LIG d   1      11.773  -7.273   2.158  0.00  0.00     0.063 H 
ATOM     15  H   LIG d   1       9.973 -12.114   0.654  0.00  0.00     0.457 HD
ENDROOT
BRANCH   9  16
ATOM     16  N   LIG d   1       9.239 -11.358  -1.605  0.00  0.00    -0.244 N 
ATOM     17  H   LIG d   1       9.720 -12.106  -1.991  0.00  0.00     0.159 HD
BRANCH  16  18
ATOM     18  C   LIG d   1       7.953 -11.054  -2.046  0.00  0.00     0.037 A 
ATOM     19  C   LIG d   1       7.748 -10.645  -3.360  0.00  0.00    -0.040 A 
ATOM     20  C   LIG d   1       6.478 -10.350  -3.801  0.00  0.00    -0.048 A 
ATOM     21  H   LIG d   1       8.586 -10.566  -4.037  0.00  0.00     0.064 H 
ATOM     22  C   LIG d   1       5.395 -10.448  -2.923  0.00  0.00     0.037 A 
ATOM     23  H   LIG d   1       6.319 -10.037  -4.822  0.00  0.00     0.063 H 
ATOM     24  C   LIG d   1       5.606 -10.854  -1.601  0.00  0.00    -0.048 A 
ATOM     25  C   LIG d   1       6.877 -11.154  -1.169  0.00  0.00    -0.040 A 
ATOM     26  H   LIG d   1       4.770 -10.933  -0.920  0.00  0.00     0.063 H 
ATOM     27  H   LIG d   1       7.040 -11.467  -0.149  0.00  0.00     0.064 H 
BRANCH  22  28
ATOM     28  C   LIG d   1       4.032 -10.126  -3.389  0.00  0.00     0.241 C 
ATOM     29  O   LIG d   1       3.852  -9.177  -4.128  0.00  0.00    -0.270 OA
ATOM     30  N   LIG d   1       2.989 -10.884  -2.997  0.00  0.00    -0.325 N 
ATOM     31  H   LIG d   1       3.134 -11.641  -2.407  0.00  0.00     0.145 HD
ATOM     32  H   LIG d   1       2.094 -10.672  -3.303  0.00  0.00     0.145 HD
ENDBRANCH  22  28
ENDBRANCH  16  18
ENDBRANCH   9  16
BRANCH   7  33
ATOM     33  N   LIG d   1      10.833  -7.179  -0.211  0.00  0.00    -0.342 N 
ATOM     34  H   LIG d   1      10.084  -6.566  -0.276  0.00  0.00     0.144 HD
ATOM     35  H   LIG d   1      11.740  -6.853  -0.329  0.00  0.00     0.144 HD
ENDBRANCH   7  33
TORSDOF 4
ENDMDL
MODEL 9
REMARK VINA RESULT:      -5.9      5.424      8.006
REMARK  4 active torsions:
REMARK  status: ('A' for Active; 'I' for Inactive)
REMARK    1  A    between atoms: C_7  and  N_21 
REMARK    2  A    between atoms: C_9  and  N_11 
REMARK    3  A    between atoms: N_11  and  C_12 
REMARK    4  A    between atoms: C_15  and  C_18 
REMARK       I    between atoms: C_18  and  N_20 
ROOT
ATOM      1  C   LIG d   1      10.469   6.363  -5.849  0.00  0.00    -0.061 A 
ATOM      2  C   LIG d   1      10.061   5.613  -6.949  0.00  0.00    -0.056 A 
ATOM      3  C   LIG d   1       9.587   4.345  -6.797  0.00  0.00     0.011 A 
ATOM      4  C   LIG d   1       9.507   3.784  -5.514  0.00  0.00     0.219 A 
ATOM      5  C   LIG d   1       9.924   4.548  -4.397  0.00  0.00     0.086 A 
ATOM      6  C   LIG d   1      10.406   5.847  -4.588  0.00  0.00    -0.045 A 
ATOM      7  C   LIG d   1       9.836   3.960  -3.110  0.00  0.00     0.138 A 
ATOM      8  N   LIG d   1       9.369   2.724  -3.015  0.00  0.00    -0.156 NA
ATOM      9  C   LIG d   1       8.988   2.041  -4.092  0.00  0.00     0.379 A 
ATOM     10  N   LIG d   1       9.049   2.541  -5.311  0.00  0.00    -0.174 N 
ATOM     11  H   LIG d   1      10.846   7.364  -5.997  0.00  0.00     0.062 H 
ATOM     12  H   LIG d   1      10.121   6.044  -7.937  0.00  0.00     0.062 H 
ATOM     13  H   LIG d   1       9.272   3.775  -7.659  0.00  0.00     0.068 H 
ATOM     14  H   LIG d   1      10.726   6.438  -3.741  0.00  0.00     0.063 H 
ATOM     15  H   LIG d   1       8.760   2.004  -6.066  0.00  0.00     0.457 HD
ENDROOT
BRANCH   9  16
ATOM     16  N   LIG d   1       8.509   0.753  -3.925  0.00  0.00    -0.244 N 
ATOM     17  H   LIG d   1       9.129   0.020  -3.792  0.00  0.00     0.159 HD
BRANCH  16  18
ATOM     18  C   LIG d   1       7.138   0.511  -3.950  0.00  0.00     0.037 A 
ATOM     19  C   LIG d   1       6.304   1.143  -3.034  0.00  0.00    -0.040 A 
ATOM     20  C   LIG d   1       4.948   0.911  -3.059  0.00  0.00    -0.048 A 
ATOM     21  H   LIG d   1       6.721   1.821  -2.303  0.00  0.00     0.064 H 
ATOM     22  C   LIG d   1       4.409   0.029  -4.001  0.00  0.00     0.037 A 
ATOM     23  H   LIG d   1       4.301   1.405  -2.350  0.00  0.00     0.063 H 
ATOM     24  C   LIG d   1       5.251  -0.608  -4.919  0.00  0.00    -0.048 A 
ATOM     25  C   LIG d   1       6.605  -0.366  -4.891  0.00  0.00    -0.040 A 
ATOM     26  H   LIG d   1       4.838  -1.289  -5.649  0.00  0.00     0.063 H 
ATOM     27  H   LIG d   1       7.256  -0.858  -5.598  0.00  0.00     0.064 H 
BRANCH  22  28
ATOM     28  C   LIG d   1       2.956  -0.227  -4.029  0.00  0.00     0.241 C 
ATOM     29  O   LIG d   1       2.401  -0.679  -3.047  0.00  0.00    -0.270 OA
ATOM     30  N   LIG d   1       2.246   0.040  -5.143  0.00  0.00    -0.325 N 
ATOM     31  H   LIG d   1       2.691   0.400  -5.927  0.00  0.00     0.145 HD
ATOM     32  H   LIG d   1       1.292  -0.129  -5.162  0.00  0.00     0.145 HD
ENDBRANCH  22  28
ENDBRANCH  16  18
ENDBRANCH   9  16
BRANCH   7  33
ATOM     33  N   LIG d   1      10.227   4.657  -1.987  0.00  0.00    -0.342 N 
ATOM     34  H   LIG d   1      10.976   4.342  -1.456  0.00  0.00     0.144 HD
ATOM     35  H   LIG d   1       9.752   5.462  -1.727  0.00  0.00     0.144 HD
ENDBRANCH   7  33
TORSDOF 4
ENDMDL
MODEL 10
REMARK VINA RESULT:      -5.9      3.782      5.005
REMARK  4 active torsions:
REMARK  status: ('A' for Active; 'I' for Inactive)
REMARK    1  A    between atoms: C_7  and  N_21 
REMARK    2  A    between atoms: C_9  and  N_11 
REMARK    3  A    between atoms: N_11  and  C_12 
REMARK    4  A    between atoms: C_15  and  C_18 
REMARK       I    between atoms: C_18  and  N_20 
ROOT
ATOM      1  C   LIG d   1       4.362   0.095  -1.941  0.00  0.00    -0.061 A 
ATOM      2  C   LIG d   1       3.129   0.024  -2.584  0.00  0.00    -0.056 A 
ATOM      3  C   LIG d   1       2.957  -0.756  -3.687  0.00  0.00     0.011 A 
ATOM      4  C   LIG d   1       4.036  -1.500  -4.186  0.00  0.00     0.219 A 
ATOM      5  C   LIG d   1       5.289  -1.427  -3.530  0.00  0.00     0.086 A 
ATOM      6  C   LIG d   1       5.432  -0.616  -2.399  0.00  0.00    -0.045 A 
ATOM      7  C   LIG d   1       6.366  -2.187  -4.052  0.00  0.00     0.138 A 
ATOM      8  N   LIG d   1       6.148  -2.929  -5.127  0.00  0.00    -0.156 NA
ATOM      9  C   LIG d   1       4.953  -2.969  -5.712  0.00  0.00     0.379 A 
ATOM     10  N   LIG d   1       3.918  -2.282  -5.268  0.00  0.00    -0.174 N 
ATOM     11  H   LIG d   1       4.474   0.724  -1.071  0.00  0.00     0.062 H 
ATOM     12  H   LIG d   1       2.297   0.597  -2.201  0.00  0.00     0.062 H 
ATOM     13  H   LIG d   1       1.995  -0.802  -4.176  0.00  0.00     0.068 H 
ATOM     14  H   LIG d   1       6.385  -0.554  -1.893  0.00  0.00     0.063 H 
ATOM     15  H   LIG d   1       3.066  -2.343  -5.729  0.00  0.00     0.457 HD
ENDROOT
BRANCH   9  16
ATOM     16  N   LIG d   1       4.790  -3.764  -6.834  0.00  0.00    -0.244 N 
ATOM     17  H   LIG d   1       4.696  -3.355  -7.708  0.00  0.00     0.159 HD
BRANCH  16  18
ATOM     18  C   LIG d   1       4.760  -5.151  -6.706  0.00  0.00     0.037 A 
ATOM     19  C   LIG d   1       4.798  -5.733  -5.443  0.00  0.00    -0.040 A 
ATOM     20  C   LIG d   1       4.763  -7.102  -5.313  0.00  0.00    -0.048 A 
ATOM     21  H   LIG d   1       4.850  -5.108  -4.563  0.00  0.00     0.064 H 
ATOM     22  C   LIG d   1       4.700  -7.910  -6.452  0.00  0.00     0.037 A 
ATOM     23  H   LIG d   1       4.788  -7.553  -4.332  0.00  0.00     0.063 H 
ATOM     24  C   LIG d   1       4.667  -7.321  -7.720  0.00  0.00    -0.048 A 
ATOM     25  C   LIG d   1       4.696  -5.951  -7.843  0.00  0.00    -0.040 A 
ATOM     26  H   LIG d   1       4.617  -7.942  -8.603  0.00  0.00     0.063 H 
ATOM     27  H   LIG d   1       4.672  -5.496  -8.822  0.00  0.00     0.064 H 
BRANCH  22  28
ATOM     28  C   LIG d   1       4.668  -9.379  -6.317  0.00  0.00     0.241 C 
ATOM     29  O   LIG d   1       4.091  -9.890  -5.377  0.00  0.00    -0.270 OA
ATOM     30  N   LIG d   1       5.279 -10.153  -7.236  0.00  0.00    -0.325 N 
ATOM     31  H   LIG d   1       5.739  -9.745  -7.986  0.00  0.00     0.145 HD
ATOM     32  H   LIG d   1       5.258 -11.118  -7.147  0.00  0.00     0.145 HD
ENDBRANCH  22  28
ENDBRANCH  16  18
ENDBRANCH   9  16
BRANCH   7  33
ATOM     33  N   LIG d   1       7.608  -2.154  -3.455  0.00  0.00    -0.342 N 
ATOM     34  H   LIG d   1       7.738  -1.656  -2.633  0.00  0.00     0.144 HD
ATOM     35  H   LIG d   1       8.352  -2.629  -3.859  0.00  0.00     0.144 HD
ENDBRANCH   7  33
TORSDOF 4
ENDMDL
