MODEL 1
REMARK VINA RESULT:      -7.7      0.000      0.000
REMARK  4 active torsions:
REMARK  status: ('A' for Active; 'I' for Inactive)
REMARK    1  A    between atoms: C_1  and  C_2 
REMARK    2  A    between atoms: C_5  and  N_9 
REMARK    3  A    between atoms: C_12  and  C_19 
REMARK    4  A    between atoms: N_33  and  C_34 
ROOT
ATOM      1  C   LIG d   1       4.748  -3.687  -6.518  0.00  0.00     0.052 C 
ATOM      2  H   LIG d   1       3.744  -4.013  -6.786  0.00  0.00     0.097 H 
ATOM      3  C   LIG d   1       4.675  -2.714  -5.366  0.00  0.00     0.074 A 
ATOM      4  C   LIG d   1       4.796  -1.375  -5.525  0.00  0.00    -0.008 A 
ATOM      5  C   LIG d   1       4.679  -0.776  -4.216  0.00  0.00     0.004 A 
ATOM      6  C   LIG d   1       4.724   0.548  -3.766  0.00  0.00    -0.052 A 
ATOM      7  C   LIG d   1       4.572   0.751  -2.417  0.00  0.00    -0.061 A 
ATOM      8  C   LIG d   1       4.381  -0.296  -1.530  0.00  0.00    -0.060 A 
ATOM      9  C   LIG d   1       4.330  -1.615  -1.946  0.00  0.00    -0.038 A 
ATOM     10  C   LIG d   1       4.483  -1.853  -3.311  0.00  0.00     0.047 A 
ATOM     11  N   LIG d   1       4.485  -3.006  -4.043  0.00  0.00    -0.353 N 
ATOM     12  H   LIG d   1       4.371  -3.898  -3.680  0.00  0.00     0.166 HD
ATOM     13  C   LIG d   1       5.009  -0.719  -6.866  0.00  0.00     0.015 C 
ATOM     14  C   LIG d   1       4.674  -1.751  -7.953  0.00  0.00    -0.027 C 
ATOM     15  N   LIG d   1       5.370  -3.012  -7.668  0.00  0.00     0.243 N 
ATOM     16  H   LIG d   1       4.873   1.370  -4.449  0.00  0.00     0.062 H 
ATOM     17  H   LIG d   1       4.603   1.761  -2.034  0.00  0.00     0.062 H 
ATOM     18  H   LIG d   1       4.267  -0.075  -0.479  0.00  0.00     0.062 H 
ATOM     19  H   LIG d   1       4.180  -2.422  -1.246  0.00  0.00     0.064 H 
ATOM     20  H   LIG d   1       4.352   0.145  -6.963  0.00  0.00     0.037 H 
ATOM     21  H   LIG d   1       6.049  -0.406  -6.963  0.00  0.00     0.037 H 
ATOM     22  H   LIG d   1       3.599  -1.927  -7.966  0.00  0.00     0.082 H 
ATOM     23  H   LIG d   1       4.994  -1.372  -8.924  0.00  0.00     0.082 H 
ATOM     24  H   LIG d   1       6.339  -2.818  -7.459  0.00  0.00     0.204 HD
ENDROOT
BRANCH   1  25
ATOM     25  C   LIG d   1       5.579  -4.880  -6.121  0.00  0.00     0.079 A 
ATOM     26  C   LIG d   1       5.031  -6.174  -6.157  0.00  0.00     0.269 A 
ATOM     27  N   LIG d   1       5.791  -7.227  -5.798  0.00  0.00    -0.229 N 
ATOM     28  O   LIG d   1       3.876  -6.341  -6.511  0.00  0.00    -0.267 OA
ATOM     29  C   LIG d   1       7.063  -7.048  -5.403  0.00  0.00     0.333 A 
ATOM     30  N   LIG d   1       7.611  -5.820  -5.365  0.00  0.00    -0.320 N 
ATOM     31  O   LIG d   1       7.732  -8.011  -5.077  0.00  0.00    -0.246 OA
ATOM     32  C   LIG d   1       6.873  -4.719  -5.722  0.00  0.00    -0.020 A 
ATOM     33  H   LIG d   1       8.531  -5.710  -5.080  0.00  0.00     0.169 HD
ATOM     34  O   LIG d   1       7.423  -3.488  -5.679  0.00  0.00    -0.861 OA
BRANCH  27  35
ATOM     35  C   LIG d   1       5.248  -8.520  -5.833  0.00  0.00     0.056 A 
ATOM     36  C   LIG d   1       5.273  -9.253  -7.012  0.00  0.00    -0.037 A 
ATOM     37  C   LIG d   1       4.739 -10.526  -7.043  0.00  0.00    -0.056 A 
ATOM     38  H   LIG d   1       5.712  -8.829  -7.903  0.00  0.00     0.064 H 
ATOM     39  C   LIG d   1       4.178 -11.071  -5.902  0.00  0.00    -0.032 A 
ATOM     40  H   LIG d   1       4.759 -11.097  -7.960  0.00  0.00     0.062 H 
ATOM     41  C   LIG d   1       4.145 -10.340  -4.727  0.00  0.00     0.046 A 
ATOM     42  C   LIG d   1       4.684  -9.067  -4.689  0.00  0.00    -0.019 A 
ATOM     43 CL   LIG d   1       3.434 -11.024  -3.300  0.00  0.00    -0.083 Cl
ATOM     44  H   LIG d   1       4.663  -8.499  -3.771  0.00  0.00     0.065 H 
BRANCH  39  45
ATOM     45  C   LIG d   1       3.596 -12.460  -5.940  0.00  0.00    -0.038 C 
ATOM     46  H   LIG d   1       2.615 -12.430  -6.415  0.00  0.00     0.028 H 
ATOM     47  H   LIG d   1       4.256 -13.116  -6.510  0.00  0.00     0.028 H 
ATOM     48  H   LIG d   1       3.496 -12.840  -4.924  0.00  0.00     0.028 H 
ENDBRANCH  39  45
ENDBRANCH  27  35
ENDBRANCH   1  25
BRANCH  15  49
ATOM     49  C   LIG d   1       5.297  -3.889  -8.844  0.00  0.00    -0.042 C 
ATOM     50  H   LIG d   1       4.403  -3.651  -9.420  0.00  0.00     0.078 H 
ATOM     51  H   LIG d   1       6.180  -3.737  -9.466  0.00  0.00     0.078 H 
ATOM     52  H   LIG d   1       5.256  -4.929  -8.521  0.00  0.00     0.078 H 
ENDBRANCH  15  49
TORSDOF 4
ENDMDL
MODEL 2
REMARK VINA RESULT:      -7.5      5.157      7.555
REMARK  4 active torsions:
REMARK  status: ('A' for Active; 'I' for Inactive)
REMARK    1  A    between atoms: C_1  and  C_2 
REMARK    2  A    between atoms: C_5  and  N_9 
REMARK    3  A    between atoms: C_12  and  C_19 
REMARK    4  A    between atoms: N_33  and  C_34 
ROOT
ATOM      1  C   LIG d   1       6.754  -0.662  -7.230  0.00  0.00     0.052 C 
ATOM      2  H   LIG d   1       7.666  -0.123  -6.973  0.00  0.00     0.097 H 
ATOM      3  C   LIG d   1       5.921  -0.872  -5.988  0.00  0.00     0.074 A 
ATOM      4  C   LIG d   1       5.867  -2.053  -5.329  0.00  0.00    -0.008 A 
ATOM      5  C   LIG d   1       4.976  -1.876  -4.206  0.00  0.00     0.004 A 
ATOM      6  C   LIG d   1       4.540  -2.735  -3.191  0.00  0.00    -0.052 A 
ATOM      7  C   LIG d   1       3.669  -2.213  -2.267  0.00  0.00    -0.061 A 
ATOM      8  C   LIG d   1       3.234  -0.899  -2.324  0.00  0.00    -0.060 A 
ATOM      9  C   LIG d   1       3.649  -0.027  -3.315  0.00  0.00    -0.038 A 
ATOM     10  C   LIG d   1       4.532  -0.529  -4.269  0.00  0.00     0.047 A 
ATOM     11  N   LIG d   1       5.126   0.045  -5.357  0.00  0.00    -0.353 N 
ATOM     12  H   LIG d   1       5.002   0.965  -5.641  0.00  0.00     0.166 HD
ATOM     13  C   LIG d   1       6.636  -3.276  -5.762  0.00  0.00     0.015 C 
ATOM     14  C   LIG d   1       7.711  -2.825  -6.762  0.00  0.00    -0.027 C 
ATOM     15  N   LIG d   1       7.101  -1.976  -7.794  0.00  0.00     0.243 N 
ATOM     16  H   LIG d   1       4.874  -3.760  -3.138  0.00  0.00     0.062 H 
ATOM     17  H   LIG d   1       3.312  -2.848  -1.470  0.00  0.00     0.062 H 
ATOM     18  H   LIG d   1       2.549  -0.543  -1.569  0.00  0.00     0.062 H 
ATOM     19  H   LIG d   1       3.303   0.995  -3.349  0.00  0.00     0.064 H 
ATOM     20  H   LIG d   1       7.109  -3.740  -4.897  0.00  0.00     0.037 H 
ATOM     21  H   LIG d   1       5.962  -3.986  -6.240  0.00  0.00     0.037 H 
ATOM     22  H   LIG d   1       8.480  -2.260  -6.238  0.00  0.00     0.082 H 
ATOM     23  H   LIG d   1       8.159  -3.701  -7.232  0.00  0.00     0.082 H 
ATOM     24  H   LIG d   1       6.265  -2.422  -8.141  0.00  0.00     0.204 HD
ENDROOT
BRANCH   1  25
ATOM     25  C   LIG d   1       5.966   0.130  -8.240  0.00  0.00     0.079 A 
ATOM     26  C   LIG d   1       4.923  -0.474  -8.964  0.00  0.00     0.269 A 
ATOM     27  N   LIG d   1       4.230   0.253  -9.862  0.00  0.00    -0.229 N 
ATOM     28  O   LIG d   1       4.647  -1.647  -8.778  0.00  0.00    -0.267 OA
ATOM     29  C   LIG d   1       4.532   1.546 -10.074  0.00  0.00     0.333 A 
ATOM     30  N   LIG d   1       5.523   2.147  -9.390  0.00  0.00    -0.320 N 
ATOM     31  O   LIG d   1       3.899   2.184 -10.893  0.00  0.00    -0.246 OA
ATOM     32  C   LIG d   1       6.254   1.444  -8.466  0.00  0.00    -0.020 A 
ATOM     33  H   LIG d   1       5.725   3.081  -9.554  0.00  0.00     0.169 HD
ATOM     34  O   LIG d   1       7.251   2.048  -7.784  0.00  0.00    -0.861 OA
BRANCH  27  35
ATOM     35  C   LIG d   1       3.188  -0.346 -10.585  0.00  0.00     0.056 A 
ATOM     36  C   LIG d   1       1.913  -0.415 -10.040  0.00  0.00    -0.037 A 
ATOM     37  C   LIG d   1       0.889  -1.004 -10.755  0.00  0.00    -0.056 A 
ATOM     38  H   LIG d   1       1.722  -0.007  -9.059  0.00  0.00     0.064 H 
ATOM     39  C   LIG d   1       1.132  -1.527 -12.012  0.00  0.00    -0.032 A 
ATOM     40  H   LIG d   1      -0.103  -1.057 -10.331  0.00  0.00     0.062 H 
ATOM     41  C   LIG d   1       2.403  -1.465 -12.555  0.00  0.00     0.046 A 
ATOM     42  C   LIG d   1       3.431  -0.871 -11.847  0.00  0.00    -0.019 A 
ATOM     43 CL   LIG d   1       2.706  -2.128 -14.131  0.00  0.00    -0.083 Cl
ATOM     44  H   LIG d   1       4.422  -0.819 -12.273  0.00  0.00     0.065 H 
BRANCH  39  45
ATOM     45  C   LIG d   1       0.012  -2.169 -12.789  0.00  0.00    -0.038 C 
ATOM     46  H   LIG d   1       0.346  -2.371 -13.808  0.00  0.00     0.028 H 
ATOM     47  H   LIG d   1      -0.274  -3.105 -12.309  0.00  0.00     0.028 H 
ATOM     48  H   LIG d   1      -0.845  -1.496 -12.815  0.00  0.00     0.028 H 
ENDBRANCH  39  45
ENDBRANCH  27  35
ENDBRANCH   1  25
BRANCH  15  49
ATOM     49  C   LIG d   1       8.047  -1.795  -8.903  0.00  0.00    -0.042 C 
ATOM     50  H   LIG d   1       7.501  -1.776  -9.846  0.00  0.00     0.078 H 
ATOM     51  H   LIG d   1       8.582  -0.853  -8.774  0.00  0.00     0.078 H 
ATOM     52  H   LIG d   1       8.760  -2.619  -8.912  0.00  0.00     0.078 H 
ENDBRANCH  15  49
TORSDOF 4
ENDMDL
MODEL 3
REMARK VINA RESULT:      -7.5      5.850      8.030
REMARK  4 active torsions:
REMARK  status: ('A' for Active; 'I' for Inactive)
REMARK    1  A    between atoms: C_1  and  C_2 
REMARK    2  A    between atoms: C_5  and  N_9 
REMARK    3  A    between atoms: C_12  and  C_19 
REMARK    4  A    between atoms: N_33  and  C_34 
ROOT
ATOM      1  C   LIG d   1       9.141  -0.609  -5.291  0.00  0.00     0.052 C 
ATOM      2  H   LIG d   1      10.023  -0.318  -4.722  0.00  0.00     0.097 H 
ATOM      3  C   LIG d   1       7.907  -0.436  -4.438  0.00  0.00     0.074 A 
ATOM      4  C   LIG d   1       7.277  -1.472  -3.838  0.00  0.00    -0.008 A 
ATOM      5  C   LIG d   1       6.148  -0.928  -3.118  0.00  0.00     0.004 A 
ATOM      6  C   LIG d   1       5.153  -1.511  -2.327  0.00  0.00    -0.052 A 
ATOM      7  C   LIG d   1       4.214  -0.666  -1.788  0.00  0.00    -0.061 A 
ATOM      8  C   LIG d   1       4.241   0.702  -2.007  0.00  0.00    -0.060 A 
ATOM      9  C   LIG d   1       5.214   1.305  -2.784  0.00  0.00    -0.038 A 
ATOM     10  C   LIG d   1       6.180   0.473  -3.346  0.00  0.00     0.047 A 
ATOM     11  N   LIG d   1       7.257   0.732  -4.146  0.00  0.00    -0.353 N 
ATOM     12  H   LIG d   1       7.520   1.611  -4.461  0.00  0.00     0.166 HD
ATOM     13  C   LIG d   1       7.744  -2.901  -3.953  0.00  0.00     0.015 C 
ATOM     14  C   LIG d   1       9.181  -2.884  -4.495  0.00  0.00    -0.027 C 
ATOM     15  N   LIG d   1       9.251  -2.023  -5.683  0.00  0.00     0.243 N 
ATOM     16  H   LIG d   1       5.123  -2.575  -2.150  0.00  0.00     0.062 H 
ATOM     17  H   LIG d   1       3.430  -1.082  -1.172  0.00  0.00     0.062 H 
ATOM     18  H   LIG d   1       3.477   1.317  -1.556  0.00  0.00     0.062 H 
ATOM     19  H   LIG d   1       5.225   2.373  -2.947  0.00  0.00     0.064 H 
ATOM     20  H   LIG d   1       7.726  -3.376  -2.972  0.00  0.00     0.037 H 
ATOM     21  H   LIG d   1       7.098  -3.447  -4.640  0.00  0.00     0.037 H 
ATOM     22  H   LIG d   1       9.853  -2.498  -3.729  0.00  0.00     0.082 H 
ATOM     23  H   LIG d   1       9.480  -3.897  -4.764  0.00  0.00     0.082 H 
ATOM     24  H   LIG d   1       8.494  -2.256  -6.308  0.00  0.00     0.204 HD
ENDROOT
BRANCH   1  25
ATOM     25  C   LIG d   1       9.028   0.250  -6.524  0.00  0.00     0.079 A 
ATOM     26  C   LIG d   1       7.958   0.075  -7.420  0.00  0.00     0.269 A 
ATOM     27  N   LIG d   1       7.875   0.854  -8.516  0.00  0.00    -0.229 N 
ATOM     28  O   LIG d   1       7.112  -0.776  -7.205  0.00  0.00    -0.267 OA
ATOM     29  C   LIG d   1       8.809   1.791  -8.761  0.00  0.00     0.333 A 
ATOM     30  N   LIG d   1       9.839   1.980  -7.915  0.00  0.00    -0.320 N 
ATOM     31  O   LIG d   1       8.720   2.480  -9.758  0.00  0.00    -0.246 OA
ATOM     32  C   LIG d   1       9.961   1.209  -6.787  0.00  0.00    -0.020 A 
ATOM     33  H   LIG d   1      10.501   2.662  -8.106  0.00  0.00     0.169 HD
ATOM     34  O   LIG d   1      10.998   1.398  -5.943  0.00  0.00    -0.861 OA
BRANCH  27  35
ATOM     35  C   LIG d   1       6.810   0.683  -9.411  0.00  0.00     0.056 A 
ATOM     36  C   LIG d   1       6.901  -0.259 -10.427  0.00  0.00    -0.037 A 
ATOM     37  C   LIG d   1       5.850  -0.425 -11.308  0.00  0.00    -0.056 A 
ATOM     38  H   LIG d   1       7.791  -0.861 -10.529  0.00  0.00     0.064 H 
ATOM     39  C   LIG d   1       4.708   0.344 -11.179  0.00  0.00    -0.032 A 
ATOM     40  H   LIG d   1       5.920  -1.159 -12.098  0.00  0.00     0.062 H 
ATOM     41  C   LIG d   1       4.617   1.288 -10.171  0.00  0.00     0.046 A 
ATOM     42  C   LIG d   1       5.664   1.455  -9.284  0.00  0.00    -0.019 A 
ATOM     43 CL   LIG d   1       3.186   2.257 -10.017  0.00  0.00    -0.083 Cl
ATOM     44  H   LIG d   1       5.591   2.189  -8.494  0.00  0.00     0.065 H 
BRANCH  39  45
ATOM     45  C   LIG d   1       3.563   0.159 -12.141  0.00  0.00    -0.038 C 
ATOM     46  H   LIG d   1       3.418   1.076 -12.714  0.00  0.00     0.028 H 
ATOM     47  H   LIG d   1       3.789  -0.663 -12.822  0.00  0.00     0.028 H 
ATOM     48  H   LIG d   1       2.654  -0.069 -11.585  0.00  0.00     0.028 H 
ENDBRANCH  39  45
ENDBRANCH  27  35
ENDBRANCH   1  25
BRANCH  15  49
ATOM     49  C   LIG d   1      10.530  -2.239  -6.371  0.00  0.00    -0.042 C 
ATOM     50  H   LIG d   1      10.435  -1.943  -7.415  0.00  0.00     0.078 H 
ATOM     51  H   LIG d   1      11.306  -1.639  -5.893  0.00  0.00     0.078 H 
ATOM     52  H   LIG d   1      10.801  -3.293  -6.315  0.00  0.00     0.078 H 
ENDBRANCH  15  49
TORSDOF 4
ENDMDL
MODEL 4
REMARK VINA RESULT:      -7.3      2.228      4.225
REMARK  4 active torsions:
REMARK  status: ('A' for Active; 'I' for Inactive)
REMARK    1  A    between atoms: C_1  and  C_2 
REMARK    2  A    between atoms: C_5  and  N_9 
REMARK    3  A    between atoms: C_12  and  C_19 
REMARK    4  A    between atoms: N_33  and  C_34 
ROOT
ATOM      1  C   LIG d   1       4.867  -1.059  -4.424  0.00  0.00     0.052 C 
ATOM      2  H   LIG d   1       5.327  -0.351  -3.735  0.00  0.00     0.097 H 
ATOM      3  C   LIG d   1       4.632  -0.391  -5.758  0.00  0.00     0.074 A 
ATOM      4  C   LIG d   1       3.416   0.054  -6.153  0.00  0.00    -0.008 A 
ATOM      5  C   LIG d   1       3.577   0.625  -7.470  0.00  0.00     0.004 A 
ATOM      6  C   LIG d   1       2.685   1.228  -8.363  0.00  0.00    -0.052 A 
ATOM      7  C   LIG d   1       3.201   1.666  -9.557  0.00  0.00    -0.061 A 
ATOM      8  C   LIG d   1       4.542   1.525  -9.876  0.00  0.00    -0.060 A 
ATOM      9  C   LIG d   1       5.448   0.935  -9.013  0.00  0.00    -0.038 A 
ATOM     10  C   LIG d   1       4.953   0.479  -7.793  0.00  0.00     0.047 A 
ATOM     11  N   LIG d   1       5.556  -0.138  -6.734  0.00  0.00    -0.353 N 
ATOM     12  H   LIG d   1       6.498  -0.363  -6.681  0.00  0.00     0.166 HD
ATOM     13  C   LIG d   1       2.177  -0.066  -5.303  0.00  0.00     0.015 C 
ATOM     14  C   LIG d   1       2.620  -0.387  -3.868  0.00  0.00    -0.027 C 
ATOM     15  N   LIG d   1       3.573  -1.504  -3.883  0.00  0.00     0.243 N 
ATOM     16  H   LIG d   1       1.638   1.342  -8.124  0.00  0.00     0.062 H 
ATOM     17  H   LIG d   1       2.540   2.135 -10.271  0.00  0.00     0.062 H 
ATOM     18  H   LIG d   1       4.892   1.889 -10.831  0.00  0.00     0.062 H 
ATOM     19  H   LIG d   1       6.491   0.831  -9.273  0.00  0.00     0.064 H 
ATOM     20  H   LIG d   1       1.626   0.875  -5.318  0.00  0.00     0.037 H 
ATOM     21  H   LIG d   1       1.545  -0.869  -5.683  0.00  0.00     0.037 H 
ATOM     22  H   LIG d   1       3.097   0.490  -3.432  0.00  0.00     0.082 H 
ATOM     23  H   LIG d   1       1.749  -0.662  -3.273  0.00  0.00     0.082 H 
ATOM     24  H   LIG d   1       3.206  -2.247  -4.461  0.00  0.00     0.204 HD
ENDROOT
BRANCH   1  25
ATOM     25  C   LIG d   1       5.774  -2.248  -4.607  0.00  0.00     0.079 A 
ATOM     26  C   LIG d   1       5.319  -3.397  -5.279  0.00  0.00     0.269 A 
ATOM     27  N   LIG d   1       6.146  -4.449  -5.432  0.00  0.00    -0.229 N 
ATOM     28  O   LIG d   1       4.182  -3.439  -5.719  0.00  0.00    -0.267 OA
ATOM     29  C   LIG d   1       7.399  -4.410  -4.944  0.00  0.00     0.333 A 
ATOM     30  N   LIG d   1       7.858  -3.320  -4.303  0.00  0.00    -0.320 N 
ATOM     31  O   LIG d   1       8.129  -5.371  -5.088  0.00  0.00    -0.246 OA
ATOM     32  C   LIG d   1       7.049  -2.226  -4.125  0.00  0.00    -0.020 A 
ATOM     33  H   LIG d   1       8.766  -3.308  -3.960  0.00  0.00     0.169 HD
ATOM     34  O   LIG d   1       7.512  -1.136  -3.476  0.00  0.00    -0.861 OA
BRANCH  27  35
ATOM     35  C   LIG d   1       5.696  -5.596  -6.101  0.00  0.00     0.056 A 
ATOM     36  C   LIG d   1       5.593  -5.597  -7.486  0.00  0.00    -0.037 A 
ATOM     37  C   LIG d   1       5.150  -6.728  -8.143  0.00  0.00    -0.056 A 
ATOM     38  H   LIG d   1       5.861  -4.715  -8.049  0.00  0.00     0.064 H 
ATOM     39  C   LIG d   1       4.807  -7.858  -7.423  0.00  0.00    -0.032 A 
ATOM     40  H   LIG d   1       5.071  -6.730  -9.220  0.00  0.00     0.062 H 
ATOM     41  C   LIG d   1       4.902  -7.858  -6.043  0.00  0.00     0.046 A 
ATOM     42  C   LIG d   1       5.351  -6.730  -5.381  0.00  0.00    -0.019 A 
ATOM     43 CL   LIG d   1       4.465  -9.276  -5.143  0.00  0.00    -0.083 Cl
ATOM     44  H   LIG d   1       5.429  -6.731  -4.303  0.00  0.00     0.065 H 
BRANCH  39  45
ATOM     45  C   LIG d   1       4.324  -9.091  -8.143  0.00  0.00    -0.038 C 
ATOM     46  H   LIG d   1       5.053  -9.377  -8.903  0.00  0.00     0.028 H 
ATOM     47  H   LIG d   1       4.205  -9.906  -7.429  0.00  0.00     0.028 H 
ATOM     48  H   LIG d   1       3.366  -8.883  -8.619  0.00  0.00     0.028 H 
ENDBRANCH  39  45
ENDBRANCH  27  35
ENDBRANCH   1  25
BRANCH  15  49
ATOM     49  C   LIG d   1       3.764  -2.005  -2.516  0.00  0.00    -0.042 C 
ATOM     50  H   LIG d   1       4.755  -2.448  -2.427  0.00  0.00     0.078 H 
ATOM     51  H   LIG d   1       3.670  -1.179  -1.810  0.00  0.00     0.078 H 
ATOM     52  H   LIG d   1       3.008  -2.758  -2.295  0.00  0.00     0.078 H 
ENDBRANCH  15  49
TORSDOF 4
ENDMDL
MODEL 5
REMARK VINA RESULT:      -7.3      6.410      9.375
REMARK  4 active torsions:
REMARK  status: ('A' for Active; 'I' for Inactive)
REMARK    1  A    between atoms: C_1  and  C_2 
REMARK    2  A    between atoms: C_5  and  N_9 
REMARK    3  A    between atoms: C_12  and  C_19 
REMARK    4  A    between atoms: N_33  and  C_34 
ROOT
ATOM      1  C   LIG d   1       6.900  -0.539  -7.311  0.00  0.00     0.052 C 
ATOM      2  H   LIG d   1       7.035  -1.478  -7.848  0.00  0.00     0.097 H 
ATOM      3  C   LIG d   1       6.052  -0.774  -6.083  0.00  0.00     0.074 A 
ATOM      4  C   LIG d   1       4.740  -0.446  -6.024  0.00  0.00    -0.008 A 
ATOM      5  C   LIG d   1       4.268  -0.811  -4.708  0.00  0.00     0.004 A 
ATOM      6  C   LIG d   1       3.021  -0.711  -4.081  0.00  0.00    -0.052 A 
ATOM      7  C   LIG d   1       2.935  -1.169  -2.790  0.00  0.00    -0.061 A 
ATOM      8  C   LIG d   1       4.025  -1.709  -2.126  0.00  0.00    -0.060 A 
ATOM      9  C   LIG d   1       5.269  -1.822  -2.721  0.00  0.00    -0.038 A 
ATOM     10  C   LIG d   1       5.387  -1.364  -4.031  0.00  0.00     0.047 A 
ATOM     11  N   LIG d   1       6.445  -1.325  -4.895  0.00  0.00    -0.353 N 
ATOM     12  H   LIG d   1       7.340  -1.641  -4.696  0.00  0.00     0.166 HD
ATOM     13  C   LIG d   1       3.991   0.178  -7.174  0.00  0.00     0.015 C 
ATOM     14  C   LIG d   1       4.840  -0.002  -8.441  0.00  0.00    -0.027 C 
ATOM     15  N   LIG d   1       6.218   0.433  -8.179  0.00  0.00     0.243 N 
ATOM     16  H   LIG d   1       2.166  -0.291  -4.590  0.00  0.00     0.062 H 
ATOM     17  H   LIG d   1       1.988  -1.106  -2.275  0.00  0.00     0.062 H 
ATOM     18  H   LIG d   1       3.899  -2.054  -1.111  0.00  0.00     0.062 H 
ATOM     19  H   LIG d   1       6.111  -2.245  -2.193  0.00  0.00     0.064 H 
ATOM     20  H   LIG d   1       3.028  -0.317  -7.301  0.00  0.00     0.037 H 
ATOM     21  H   LIG d   1       3.837   1.241  -6.981  0.00  0.00     0.037 H 
ATOM     22  H   LIG d   1       4.841  -1.053  -8.729  0.00  0.00     0.082 H 
ATOM     23  H   LIG d   1       4.418   0.596  -9.249  0.00  0.00     0.082 H 
ATOM     24  H   LIG d   1       6.202   1.334  -7.725  0.00  0.00     0.204 HD
ENDROOT
BRANCH   1  25
ATOM     25  C   LIG d   1       8.243   0.005  -6.900  0.00  0.00     0.079 A 
ATOM     26  C   LIG d   1       8.332   1.171  -6.118  0.00  0.00     0.269 A 
ATOM     27  N   LIG d   1       9.543   1.641  -5.761  0.00  0.00    -0.229 N 
ATOM     28  O   LIG d   1       7.319   1.751  -5.766  0.00  0.00    -0.267 OA
ATOM     29  C   LIG d   1      10.664   1.008  -6.150  0.00  0.00     0.333 A 
ATOM     30  N   LIG d   1      10.604  -0.112  -6.894  0.00  0.00    -0.320 N 
ATOM     31  O   LIG d   1      11.748   1.451  -5.822  0.00  0.00    -0.246 OA
ATOM     32  C   LIG d   1       9.391  -0.625  -7.280  0.00  0.00    -0.020 A 
ATOM     33  H   LIG d   1      11.422  -0.557  -7.164  0.00  0.00     0.169 HD
ATOM     34  O   LIG d   1       9.335  -1.746  -8.031  0.00  0.00    -0.861 OA
BRANCH  27  35
ATOM     35  C   LIG d   1       9.635   2.803  -4.981  0.00  0.00     0.056 A 
ATOM     36  C   LIG d   1       9.837   2.706  -3.610  0.00  0.00    -0.037 A 
ATOM     37  C   LIG d   1       9.928   3.851  -2.845  0.00  0.00    -0.056 A 
ATOM     38  H   LIG d   1       9.923   1.736  -3.144  0.00  0.00     0.064 H 
ATOM     39  C   LIG d   1       9.818   5.094  -3.441  0.00  0.00    -0.032 A 
ATOM     40  H   LIG d   1      10.085   3.776  -1.779  0.00  0.00     0.062 H 
ATOM     41  C   LIG d   1       9.612   5.194  -4.806  0.00  0.00     0.046 A 
ATOM     42  C   LIG d   1       9.525   4.051  -5.577  0.00  0.00    -0.019 A 
ATOM     43 CL   LIG d   1       9.468   6.756  -5.549  0.00  0.00    -0.083 Cl
ATOM     44  H   LIG d   1       9.368   4.129  -6.644  0.00  0.00     0.065 H 
BRANCH  39  45
ATOM     45  C   LIG d   1       9.919   6.343  -2.602  0.00  0.00    -0.038 C 
ATOM     46  H   LIG d   1       9.424   6.178  -1.645  0.00  0.00     0.028 H 
ATOM     47  H   LIG d   1      10.969   6.582  -2.431  0.00  0.00     0.028 H 
ATOM     48  H   LIG d   1       9.438   7.170  -3.122  0.00  0.00     0.028 H 
ENDBRANCH  39  45
ENDBRANCH  27  35
ENDBRANCH   1  25
BRANCH  15  49
ATOM     49  C   LIG d   1       6.947   0.545  -9.449  0.00  0.00    -0.042 C 
ATOM     50  H   LIG d   1       6.648  -0.266 -10.113  0.00  0.00     0.078 H 
ATOM     51  H   LIG d   1       6.713   1.502  -9.918  0.00  0.00     0.078 H 
ATOM     52  H   LIG d   1       8.018   0.485  -9.261  0.00  0.00     0.078 H 
ENDBRANCH  15  49
TORSDOF 4
ENDMDL
MODEL 6
REMARK VINA RESULT:      -7.2      2.567      3.670
REMARK  4 active torsions:
REMARK  status: ('A' for Active; 'I' for Inactive)
REMARK    1  A    between atoms: C_1  and  C_2 
REMARK    2  A    between atoms: C_5  and  N_9 
REMARK    3  A    between atoms: C_12  and  C_19 
REMARK    4  A    between atoms: N_33  and  C_34 
ROOT
ATOM      1  C   LIG d   1       5.017  -1.173  -7.783  0.00  0.00     0.052 C 
ATOM      2  H   LIG d   1       4.526  -0.450  -8.434  0.00  0.00     0.097 H 
ATOM      3  C   LIG d   1       4.802  -0.784  -6.340  0.00  0.00     0.074 A 
ATOM      4  C   LIG d   1       5.754  -0.178  -5.592  0.00  0.00    -0.008 A 
ATOM      5  C   LIG d   1       5.194   0.035  -4.277  0.00  0.00     0.004 A 
ATOM      6  C   LIG d   1       5.702   0.608  -3.107  0.00  0.00    -0.052 A 
ATOM      7  C   LIG d   1       4.867   0.642  -2.018  0.00  0.00    -0.061 A 
ATOM      8  C   LIG d   1       3.577   0.138  -2.062  0.00  0.00    -0.060 A 
ATOM      9  C   LIG d   1       3.047  -0.433  -3.206  0.00  0.00    -0.038 A 
ATOM     10  C   LIG d   1       3.873  -0.483  -4.327  0.00  0.00     0.047 A 
ATOM     11  N   LIG d   1       3.673  -0.967  -5.589  0.00  0.00    -0.353 N 
ATOM     12  H   LIG d   1       2.854  -1.380  -5.906  0.00  0.00     0.166 HD
ATOM     13  C   LIG d   1       7.120   0.176  -6.123  0.00  0.00     0.015 C 
ATOM     14  C   LIG d   1       7.065   0.092  -7.655  0.00  0.00    -0.027 C 
ATOM     15  N   LIG d   1       6.462  -1.185  -8.059  0.00  0.00     0.243 N 
ATOM     16  H   LIG d   1       6.706   1.003  -3.062  0.00  0.00     0.062 H 
ATOM     17  H   LIG d   1       5.227   1.076  -1.096  0.00  0.00     0.062 H 
ATOM     18  H   LIG d   1       2.965   0.192  -1.174  0.00  0.00     0.062 H 
ATOM     19  H   LIG d   1       2.040  -0.822  -3.228  0.00  0.00     0.064 H 
ATOM     20  H   LIG d   1       7.385   1.188  -5.818  0.00  0.00     0.037 H 
ATOM     21  H   LIG d   1       7.858  -0.530  -5.741  0.00  0.00     0.037 H 
ATOM     22  H   LIG d   1       6.464   0.914  -8.042  0.00  0.00     0.082 H 
ATOM     23  H   LIG d   1       8.076   0.158  -8.059  0.00  0.00     0.082 H 
ATOM     24  H   LIG d   1       6.895  -1.936  -7.542  0.00  0.00     0.204 HD
ENDROOT
BRANCH   1  25
ATOM     25  C   LIG d   1       4.443  -2.545  -8.027  0.00  0.00     0.079 A 
ATOM     26  C   LIG d   1       5.028  -3.678  -7.435  0.00  0.00     0.269 A 
ATOM     27  N   LIG d   1       4.500  -4.896  -7.666  0.00  0.00    -0.229 N 
ATOM     28  O   LIG d   1       6.007  -3.559  -6.717  0.00  0.00    -0.267 OA
ATOM     29  C   LIG d   1       3.423  -5.034  -8.460  0.00  0.00     0.333 A 
ATOM     30  N   LIG d   1       2.844  -3.963  -9.034  0.00  0.00    -0.320 N 
ATOM     31  O   LIG d   1       2.964  -6.142  -8.661  0.00  0.00    -0.246 OA
ATOM     32  C   LIG d   1       3.349  -2.705  -8.825  0.00  0.00    -0.020 A 
ATOM     33  H   LIG d   1       2.066  -4.081  -9.601  0.00  0.00     0.169 HD
ATOM     34  O   LIG d   1       2.769  -1.634  -9.406  0.00  0.00    -0.861 OA
BRANCH  27  35
ATOM     35  C   LIG d   1       5.080  -6.028  -7.077  0.00  0.00     0.056 A 
ATOM     36  C   LIG d   1       4.667  -6.445  -5.818  0.00  0.00    -0.037 A 
ATOM     37  C   LIG d   1       5.240  -7.562  -5.240  0.00  0.00    -0.056 A 
ATOM     38  H   LIG d   1       3.899  -5.899  -5.292  0.00  0.00     0.064 H 
ATOM     39  C   LIG d   1       6.223  -8.263  -5.913  0.00  0.00    -0.032 A 
ATOM     40  H   LIG d   1       4.919  -7.887  -4.262  0.00  0.00     0.062 H 
ATOM     41  C   LIG d   1       6.641  -7.846  -7.165  0.00  0.00     0.046 A 
ATOM     42  C   LIG d   1       6.067  -6.733  -7.750  0.00  0.00    -0.019 A 
ATOM     43 CL   LIG d   1       7.880  -8.726  -8.004  0.00  0.00    -0.083 Cl
ATOM     44  H   LIG d   1       6.390  -6.410  -8.730  0.00  0.00     0.065 H 
BRANCH  39  45
ATOM     45  C   LIG d   1       6.845  -9.482  -5.280  0.00  0.00    -0.038 C 
ATOM     46  H   LIG d   1       7.916  -9.492  -5.489  0.00  0.00     0.028 H 
ATOM     47  H   LIG d   1       6.686  -9.452  -4.202  0.00  0.00     0.028 H 
ATOM     48  H   LIG d   1       6.386 -10.380  -5.692  0.00  0.00     0.028 H 
ENDBRANCH  39  45
ENDBRANCH  27  35
ENDBRANCH   1  25
BRANCH  15  49
ATOM     49  C   LIG d   1       6.680  -1.398  -9.496  0.00  0.00    -0.042 C 
ATOM     50  H   LIG d   1       7.268  -0.575  -9.900  0.00  0.00     0.078 H 
ATOM     51  H   LIG d   1       7.218  -2.335  -9.646  0.00  0.00     0.078 H 
ATOM     52  H   LIG d   1       5.719  -1.446 -10.008  0.00  0.00     0.078 H 
ENDBRANCH  15  49
TORSDOF 4
ENDMDL
MODEL 7
REMARK VINA RESULT:      -7.1      6.399      9.119
REMARK  4 active torsions:
REMARK  status: ('A' for Active; 'I' for Inactive)
REMARK    1  A    between atoms: C_1  and  C_2 
REMARK    2  A    between atoms: C_5  and  N_9 
REMARK    3  A    between atoms: C_12  and  C_19 
REMARK    4  A    between atoms: N_33  and  C_34 
ROOT
ATOM      1  C   LIG d   1       5.484  -1.094  -7.934  0.00  0.00     0.052 C 
ATOM      2  H   LIG d   1       5.390  -2.152  -8.179  0.00  0.00     0.097 H 
ATOM      3  C   LIG d   1       5.075  -0.868  -6.497  0.00  0.00     0.074 A 
ATOM      4  C   LIG d   1       3.873  -0.354  -6.148  0.00  0.00    -0.008 A 
ATOM      5  C   LIG d   1       3.841  -0.282  -4.706  0.00  0.00     0.004 A 
ATOM      6  C   LIG d   1       2.876   0.159  -3.794  0.00  0.00    -0.052 A 
ATOM      7  C   LIG d   1       3.197   0.081  -2.462  0.00  0.00    -0.061 A 
ATOM      8  C   LIG d   1       4.416  -0.411  -2.026  0.00  0.00    -0.060 A 
ATOM      9  C   LIG d   1       5.390  -0.855  -2.903  0.00  0.00    -0.038 A 
ATOM     10  C   LIG d   1       5.093  -0.786  -4.263  0.00  0.00     0.047 A 
ATOM     11  N   LIG d   1       5.809  -1.131  -5.374  0.00  0.00    -0.353 N 
ATOM     12  H   LIG d   1       6.704  -1.506  -5.367  0.00  0.00     0.166 HD
ATOM     13  C   LIG d   1       2.819   0.039  -7.153  0.00  0.00     0.015 C 
ATOM     14  C   LIG d   1       3.195  -0.593  -8.501  0.00  0.00    -0.027 C 
ATOM     15  N   LIG d   1       4.602  -0.304  -8.807  0.00  0.00     0.243 N 
ATOM     16  H   LIG d   1       1.923   0.544  -4.125  0.00  0.00     0.062 H 
ATOM     17  H   LIG d   1       2.475   0.413  -1.730  0.00  0.00     0.062 H 
ATOM     18  H   LIG d   1       4.614  -0.450  -0.964  0.00  0.00     0.062 H 
ATOM     19  H   LIG d   1       6.336  -1.236  -2.550  0.00  0.00     0.064 H 
ATOM     20  H   LIG d   1       1.846  -0.330  -6.831  0.00  0.00     0.037 H 
ATOM     21  H   LIG d   1       2.789   1.125  -7.250  0.00  0.00     0.037 H 
ATOM     22  H   LIG d   1       3.052  -1.672  -8.447  0.00  0.00     0.082 H 
ATOM     23  H   LIG d   1       2.562  -0.180  -9.285  0.00  0.00     0.082 H 
ATOM     24  H   LIG d   1       4.780   0.679  -8.660  0.00  0.00     0.204 HD
ENDROOT
BRANCH   1  25
ATOM     25  C   LIG d   1       6.913  -0.656  -8.127  0.00  0.00     0.079 A 
ATOM     26  C   LIG d   1       7.269   0.697  -7.988  0.00  0.00     0.269 A 
ATOM     27  N   LIG d   1       8.552   1.068  -8.165  0.00  0.00    -0.229 N 
ATOM     28  O   LIG d   1       6.421   1.528  -7.709  0.00  0.00    -0.267 OA
ATOM     29  C   LIG d   1       9.490   0.156  -8.477  0.00  0.00     0.333 A 
ATOM     30  N   LIG d   1       9.174  -1.145  -8.610  0.00  0.00    -0.320 N 
ATOM     31  O   LIG d   1      10.642   0.511  -8.638  0.00  0.00    -0.246 OA
ATOM     32  C   LIG d   1       7.879  -1.566  -8.439  0.00  0.00    -0.020 A 
ATOM     33  H   LIG d   1       9.864  -1.789  -8.832  0.00  0.00     0.169 HD
ATOM     34  O   LIG d   1       7.565  -2.871  -8.577  0.00  0.00    -0.861 OA
BRANCH  27  35
ATOM     35  C   LIG d   1       8.911   2.416  -8.027  0.00  0.00     0.056 A 
ATOM     36  C   LIG d   1       9.430   2.878  -6.825  0.00  0.00    -0.037 A 
ATOM     37  C   LIG d   1       9.784   4.206  -6.692  0.00  0.00    -0.056 A 
ATOM     38  H   LIG d   1       9.559   2.199  -5.995  0.00  0.00     0.064 H 
ATOM     39  C   LIG d   1       9.620   5.077  -7.753  0.00  0.00    -0.032 A 
ATOM     40  H   LIG d   1      10.189   4.565  -5.757  0.00  0.00     0.062 H 
ATOM     41  C   LIG d   1       9.097   4.621  -8.951  0.00  0.00     0.046 A 
ATOM     42  C   LIG d   1       8.747   3.292  -9.091  0.00  0.00    -0.019 A 
ATOM     43 CL   LIG d   1       8.887   5.719 -10.279  0.00  0.00    -0.083 Cl
ATOM     44  H   LIG d   1       8.342   2.935 -10.027  0.00  0.00     0.065 H 
BRANCH  39  45
ATOM     45  C   LIG d   1      10.008   6.526  -7.605  0.00  0.00    -0.038 C 
ATOM     46  H   LIG d   1       9.152   7.095  -7.242  0.00  0.00     0.028 H 
ATOM     47  H   LIG d   1      10.829   6.612  -6.893  0.00  0.00     0.028 H 
ATOM     48  H   LIG d   1      10.322   6.919  -8.571  0.00  0.00     0.028 H 
ENDBRANCH  39  45
ENDBRANCH  27  35
ENDBRANCH   1  25
BRANCH  15  49
ATOM     49  C   LIG d   1       4.879  -0.641 -10.210  0.00  0.00    -0.042 C 
ATOM     50  H   LIG d   1       5.216  -1.675 -10.275  0.00  0.00     0.078 H 
ATOM     51  H   LIG d   1       3.969  -0.518 -10.799  0.00  0.00     0.078 H 
ATOM     52  H   LIG d   1       5.654   0.020 -10.597  0.00  0.00     0.078 H 
ENDBRANCH  15  49
TORSDOF 4
ENDMDL
MODEL 8
REMARK VINA RESULT:      -7.1      5.183      6.501
REMARK  4 active torsions:
REMARK  status: ('A' for Active; 'I' for Inactive)
REMARK    1  A    between atoms: C_1  and  C_2 
REMARK    2  A    between atoms: C_5  and  N_9 
REMARK    3  A    between atoms: C_12  and  C_19 
REMARK    4  A    between atoms: N_33  and  C_34 
ROOT
ATOM      1  C   LIG d   1       6.250  -0.205  -7.656  0.00  0.00     0.052 C 
ATOM      2  H   LIG d   1       6.776   0.747  -7.582  0.00  0.00     0.097 H 
ATOM      3  C   LIG d   1       5.486  -0.463  -6.379  0.00  0.00     0.074 A 
ATOM      4  C   LIG d   1       5.919  -1.318  -5.423  0.00  0.00    -0.008 A 
ATOM      5  C   LIG d   1       4.936  -1.308  -4.364  0.00  0.00     0.004 A 
ATOM      6  C   LIG d   1       4.847  -1.982  -3.141  0.00  0.00    -0.052 A 
ATOM      7  C   LIG d   1       3.743  -1.721  -2.368  0.00  0.00    -0.061 A 
ATOM      8  C   LIG d   1       2.756  -0.834  -2.766  0.00  0.00    -0.060 A 
ATOM      9  C   LIG d   1       2.819  -0.153  -3.969  0.00  0.00    -0.038 A 
ATOM     10  C   LIG d   1       3.927  -0.397  -4.776  0.00  0.00     0.047 A 
ATOM     11  N   LIG d   1       4.296   0.093  -5.997  0.00  0.00    -0.353 N 
ATOM     12  H   LIG d   1       3.790   0.738  -6.516  0.00  0.00     0.166 HD
ATOM     13  C   LIG d   1       7.207  -2.093  -5.530  0.00  0.00     0.015 C 
ATOM     14  C   LIG d   1       8.047  -1.457  -6.648  0.00  0.00    -0.027 C 
ATOM     15  N   LIG d   1       7.223  -1.291  -7.852  0.00  0.00     0.243 N 
ATOM     16  H   LIG d   1       5.610  -2.675  -2.822  0.00  0.00     0.062 H 
ATOM     17  H   LIG d   1       3.640  -2.225  -1.417  0.00  0.00     0.062 H 
ATOM     18  H   LIG d   1       1.910  -0.668  -2.116  0.00  0.00     0.062 H 
ATOM     19  H   LIG d   1       2.044   0.537  -4.268  0.00  0.00     0.064 H 
ATOM     20  H   LIG d   1       7.750  -2.042  -4.587  0.00  0.00     0.037 H 
ATOM     21  H   LIG d   1       6.993  -3.133  -5.777  0.00  0.00     0.037 H 
ATOM     22  H   LIG d   1       8.408  -0.482  -6.320  0.00  0.00     0.082 H 
ATOM     23  H   LIG d   1       8.896  -2.101  -6.876  0.00  0.00     0.082 H 
ATOM     24  H   LIG d   1       6.730  -2.151  -8.040  0.00  0.00     0.204 HD
ENDROOT
BRANCH   1  25
ATOM     25  C   LIG d   1       5.294  -0.165  -8.819  0.00  0.00     0.079 A 
ATOM     26  C   LIG d   1       4.575  -1.315  -9.190  0.00  0.00     0.269 A 
ATOM     27  N   LIG d   1       3.724  -1.259 -10.233  0.00  0.00    -0.229 N 
ATOM     28  O   LIG d   1       4.721  -2.356  -8.572  0.00  0.00    -0.267 OA
ATOM     29  C   LIG d   1       3.562  -0.115 -10.922  0.00  0.00     0.333 A 
ATOM     30  N   LIG d   1       4.235   0.999 -10.582  0.00  0.00    -0.320 N 
ATOM     31  O   LIG d   1       2.794  -0.086 -11.864  0.00  0.00    -0.246 OA
ATOM     32  C   LIG d   1       5.112   0.986  -9.526  0.00  0.00    -0.020 A 
ATOM     33  H   LIG d   1       4.104   1.816 -11.088  0.00  0.00     0.169 HD
ATOM     34  O   LIG d   1       5.789   2.104  -9.191  0.00  0.00    -0.861 OA
BRANCH  27  35
ATOM     35  C   LIG d   1       3.005  -2.403 -10.607  0.00  0.00     0.056 A 
ATOM     36  C   LIG d   1       1.691  -2.566 -10.188  0.00  0.00    -0.037 A 
ATOM     37  C   LIG d   1       0.985  -3.694 -10.558  0.00  0.00    -0.056 A 
ATOM     38  H   LIG d   1       1.221  -1.812  -9.575  0.00  0.00     0.064 H 
ATOM     39  C   LIG d   1       1.585  -4.662 -11.343  0.00  0.00    -0.032 A 
ATOM     40  H   LIG d   1      -0.037  -3.821 -10.233  0.00  0.00     0.062 H 
ATOM     41  C   LIG d   1       2.897  -4.505 -11.756  0.00  0.00     0.046 A 
ATOM     42  C   LIG d   1       3.606  -3.375 -11.394  0.00  0.00    -0.019 A 
ATOM     43 CL   LIG d   1       3.648  -5.725 -12.736  0.00  0.00    -0.083 Cl
ATOM     44  H   LIG d   1       4.629  -3.251 -11.720  0.00  0.00     0.065 H 
BRANCH  39  45
ATOM     45  C   LIG d   1       0.812  -5.891 -11.745  0.00  0.00    -0.038 C 
ATOM     46  H   LIG d   1      -0.228  -5.783 -11.434  0.00  0.00     0.028 H 
ATOM     47  H   LIG d   1       0.857  -6.011 -12.828  0.00  0.00     0.028 H 
ATOM     48  H   LIG d   1       1.245  -6.767 -11.264  0.00  0.00     0.028 H 
ENDBRANCH  39  45
ENDBRANCH  27  35
ENDBRANCH   1  25
BRANCH  15  49
ATOM     49  C   LIG d   1       8.086  -0.969  -8.997  0.00  0.00    -0.042 C 
ATOM     50  H   LIG d   1       8.774  -0.170  -8.720  0.00  0.00     0.078 H 
ATOM     51  H   LIG d   1       8.655  -1.855  -9.283  0.00  0.00     0.078 H 
ATOM     52  H   LIG d   1       7.472  -0.646  -9.837  0.00  0.00     0.078 H 
ENDBRANCH  15  49
TORSDOF 4
ENDMDL
MODEL 9
REMARK VINA RESULT:      -7.1      4.082      6.435
REMARK  4 active torsions:
REMARK  status: ('A' for Active; 'I' for Inactive)
REMARK    1  A    between atoms: C_1  and  C_2 
REMARK    2  A    between atoms: C_5  and  N_9 
REMARK    3  A    between atoms: C_12  and  C_19 
REMARK    4  A    between atoms: N_33  and  C_34 
ROOT
ATOM      1  C   LIG d   1       4.940  -1.295  -4.571  0.00  0.00     0.052 C 
ATOM      2  H   LIG d   1       5.506  -0.648  -3.902  0.00  0.00     0.097 H 
ATOM      3  C   LIG d   1       4.681  -0.577  -5.874  0.00  0.00     0.074 A 
ATOM      4  C   LIG d   1       3.487  -0.016  -6.179  0.00  0.00    -0.008 A 
ATOM      5  C   LIG d   1       3.613   0.570  -7.493  0.00  0.00     0.004 A 
ATOM      6  C   LIG d   1       2.723   1.271  -8.313  0.00  0.00    -0.052 A 
ATOM      7  C   LIG d   1       3.197   1.689  -9.532  0.00  0.00    -0.061 A 
ATOM      8  C   LIG d   1       4.496   1.437  -9.942  0.00  0.00    -0.060 A 
ATOM      9  C   LIG d   1       5.399   0.747  -9.152  0.00  0.00    -0.038 A 
ATOM     10  C   LIG d   1       4.945   0.309  -7.910  0.00  0.00     0.047 A 
ATOM     11  N   LIG d   1       5.558  -0.384  -6.905  0.00  0.00    -0.353 N 
ATOM     12  H   LIG d   1       6.477  -0.694  -6.920  0.00  0.00     0.166 HD
ATOM     13  C   LIG d   1       2.300  -0.044  -5.250  0.00  0.00     0.015 C 
ATOM     14  C   LIG d   1       2.804  -0.438  -3.854  0.00  0.00    -0.027 C 
ATOM     15  N   LIG d   1       3.649  -1.635  -3.953  0.00  0.00     0.243 N 
ATOM     16  H   LIG d   1       1.709   1.472  -8.002  0.00  0.00     0.062 H 
ATOM     17  H   LIG d   1       2.537   2.232 -10.191  0.00  0.00     0.062 H 
ATOM     18  H   LIG d   1       4.815   1.790 -10.912  0.00  0.00     0.062 H 
ATOM     19  H   LIG d   1       6.409   0.557  -9.484  0.00  0.00     0.064 H 
ATOM     20  H   LIG d   1       1.837   0.942  -5.211  0.00  0.00     0.037 H 
ATOM     21  H   LIG d   1       1.574  -0.779  -5.600  0.00  0.00     0.037 H 
ATOM     22  H   LIG d   1       3.387   0.382  -3.435  0.00  0.00     0.082 H 
ATOM     23  H   LIG d   1       1.953  -0.648  -3.206  0.00  0.00     0.082 H 
ATOM     24  H   LIG d   1       3.180  -2.328  -4.517  0.00  0.00     0.204 HD
ENDROOT
BRANCH   1  25
ATOM     25  C   LIG d   1       5.722  -2.556  -4.836  0.00  0.00     0.079 A 
ATOM     26  C   LIG d   1       7.083  -2.636  -4.493  0.00  0.00     0.269 A 
ATOM     27  N   LIG d   1       7.764  -3.773  -4.737  0.00  0.00    -0.229 N 
ATOM     28  O   LIG d   1       7.642  -1.684  -3.977  0.00  0.00    -0.267 OA
ATOM     29  C   LIG d   1       7.153  -4.825  -5.310  0.00  0.00     0.333 A 
ATOM     30  N   LIG d   1       5.850  -4.773  -5.643  0.00  0.00    -0.320 N 
ATOM     31  O   LIG d   1       7.786  -5.840  -5.528  0.00  0.00    -0.246 OA
ATOM     32  C   LIG d   1       5.119  -3.635  -5.411  0.00  0.00    -0.020 A 
ATOM     33  H   LIG d   1       5.426  -5.543  -6.052  0.00  0.00     0.169 HD
ATOM     34  O   LIG d   1       3.814  -3.585  -5.750  0.00  0.00    -0.861 OA
BRANCH  27  35
ATOM     35  C   LIG d   1       9.121  -3.857  -4.396  0.00  0.00     0.056 A 
ATOM     36  C   LIG d   1       9.495  -4.306  -3.136  0.00  0.00    -0.037 A 
ATOM     37  C   LIG d   1      10.833  -4.388  -2.803  0.00  0.00    -0.056 A 
ATOM     38  H   LIG d   1       8.741  -4.590  -2.418  0.00  0.00     0.064 H 
ATOM     39  C   LIG d   1      11.800  -4.024  -3.722  0.00  0.00    -0.032 A 
ATOM     40  H   LIG d   1      11.124  -4.738  -1.824  0.00  0.00     0.062 H 
ATOM     41  C   LIG d   1      11.430  -3.571  -4.977  0.00  0.00     0.046 A 
ATOM     42  C   LIG d   1      10.093  -3.492  -5.317  0.00  0.00    -0.019 A 
ATOM     43 CL   LIG d   1      12.647  -3.109  -6.124  0.00  0.00    -0.083 Cl
ATOM     44  H   LIG d   1       9.805  -3.142  -6.298  0.00  0.00     0.065 H 
BRANCH  39  45
ATOM     45  C   LIG d   1      13.259  -4.116  -3.355  0.00  0.00    -0.038 C 
ATOM     46  H   LIG d   1      13.822  -4.507  -4.203  0.00  0.00     0.028 H 
ATOM     47  H   LIG d   1      13.632  -3.124  -3.098  0.00  0.00     0.028 H 
ATOM     48  H   LIG d   1      13.378  -4.782  -2.502  0.00  0.00     0.028 H 
ENDBRANCH  39  45
ENDBRANCH  27  35
ENDBRANCH   1  25
BRANCH  15  49
ATOM     49  C   LIG d   1       3.882  -2.184  -2.610  0.00  0.00    -0.042 C 
ATOM     50  H   LIG d   1       4.950  -2.348  -2.466  0.00  0.00     0.078 H 
ATOM     51  H   LIG d   1       3.519  -1.479  -1.862  0.00  0.00     0.078 H 
ATOM     52  H   LIG d   1       3.352  -3.130  -2.506  0.00  0.00     0.078 H 
ENDBRANCH  15  49
TORSDOF 4
ENDMDL
