MODEL 1
REMARK VINA RESULT:      -6.4      0.000      0.000
REMARK  17 active torsions:
REMARK  status: ('A' for Active; 'I' for Inactive)
REMARK    1  A    between atoms: C_1  and  C_2 
REMARK    2  A    between atoms: C_2  and  C_3 
REMARK    3  A    between atoms: C_3  and  C_4 
REMARK    4  A    between atoms: C_4  and  C_5 
REMARK    5  A    between atoms: C_5  and  C_6 
REMARK    6  A    between atoms: C_6  and  C_8 
REMARK    7  A    between atoms: C_6  and  O_34 
REMARK    8  A    between atoms: C_9  and  C_10 
REMARK    9  A    between atoms: C_16  and  C_18 
REMARK   10  A    between atoms: C_18  and  C_19 
REMARK   11  A    between atoms: C_19  and  C_20 
REMARK   12  A    between atoms: C_20  and  C_21 
REMARK   13  A    between atoms: C_21  and  C_22 
REMARK   14  A    between atoms: C_22  and  C_23 
REMARK   15  A    between atoms: C_23  and  C_24 
REMARK       I    between atoms: C_24  and  N_26 
REMARK   16  A    between atoms: N_26  and  C_27 
REMARK   17  A    between atoms: C_27  and  C_28 
ROOT
ATOM      1  C   LIG d   1       3.622  -1.392  -2.650  0.00  0.00    -0.013 C 
ATOM      2  H   LIG d   1       2.623  -1.460  -2.218  0.00  0.00     0.035 H 
ATOM      3  C   LIG d   1       4.658  -0.993  -1.568  0.00  0.00    -0.039 C 
ATOM      4  C   LIG d   1       4.485   0.546  -1.497  0.00  0.00     0.007 C 
ATOM      5  C   LIG d   1       4.245   0.966  -2.937  0.00  0.00     0.137 C 
ATOM      6  O   LIG d   1       4.452   2.058  -3.407  0.00  0.00    -0.297 OA
ATOM      7  C   LIG d   1       3.693  -0.239  -3.673  0.00  0.00     0.024 C 
ATOM      8  H   LIG d   1       4.358  -0.510  -4.494  0.00  0.00     0.038 H 
ATOM      9  H   LIG d   1       4.415  -1.454  -0.611  0.00  0.00     0.028 H 
ATOM     10  H   LIG d   1       5.667  -1.255  -1.883  0.00  0.00     0.028 H 
ATOM     11  H   LIG d   1       3.627   0.804  -0.877  0.00  0.00     0.034 H 
ATOM     12  H   LIG d   1       5.391   1.013  -1.111  0.00  0.00     0.034 H 
ENDROOT
BRANCH   7  13
ATOM     13  C   LIG d   1       2.294   0.068  -4.213  0.00  0.00    -0.043 C 
ATOM     14  H   LIG d   1       1.746  -0.864  -4.352  0.00  0.00     0.027 H 
ATOM     15  H   LIG d   1       1.762   0.699  -3.502  0.00  0.00     0.027 H 
BRANCH  13  16
ATOM     16  C   LIG d   1       2.413   0.795  -5.553  0.00  0.00    -0.052 C 
ATOM     17  H   LIG d   1       1.421   0.934  -5.982  0.00  0.00     0.026 H 
ATOM     18  H   LIG d   1       2.880   1.768  -5.399  0.00  0.00     0.026 H 
BRANCH  16  19
ATOM     19  C   LIG d   1       3.270  -0.036  -6.510  0.00  0.00    -0.053 C 
ATOM     20  H   LIG d   1       4.309   0.285  -6.438  0.00  0.00     0.026 H 
ATOM     21  H   LIG d   1       3.196  -1.090  -6.243  0.00  0.00     0.026 H 
BRANCH  19  22
ATOM     22  C   LIG d   1       2.774   0.163  -7.944  0.00  0.00    -0.053 C 
ATOM     23  H   LIG d   1       3.353  -0.467  -8.619  0.00  0.00     0.026 H 
ATOM     24  H   LIG d   1       1.721  -0.111  -8.005  0.00  0.00     0.026 H 
BRANCH  22  25
ATOM     25  C   LIG d   1       2.943   1.630  -8.343  0.00  0.00    -0.045 C 
ATOM     26  H   LIG d   1       1.963   2.078  -8.507  0.00  0.00     0.027 H 
ATOM     27  H   LIG d   1       3.459   2.167  -7.546  0.00  0.00     0.027 H 
BRANCH  25  28
ATOM     28  C   LIG d   1       3.765   1.716  -9.631  0.00  0.00     0.024 C 
ATOM     29  H   LIG d   1       3.304   1.095 -10.399  0.00  0.00     0.036 H 
ATOM     30  H   LIG d   1       3.797   2.751  -9.972  0.00  0.00     0.036 H 
BRANCH  28  31
ATOM     31  C   LIG d   1       5.167   1.230  -9.366  0.00  0.00     0.213 C 
ATOM     32  O   LIG d   1       5.648   0.359 -10.060  0.00  0.00    -0.276 OA
ATOM     33  N   LIG d   1       5.887   1.763  -8.359  0.00  0.00    -0.310 N 
ATOM     34  H   LIG d   1       5.502   2.459  -7.804  0.00  0.00     0.149 HD
BRANCH  33  35
ATOM     35  C   LIG d   1       7.249   1.290  -8.102  0.00  0.00     0.054 C 
ATOM     36  H   LIG d   1       7.417   0.357  -8.639  0.00  0.00     0.053 H 
ATOM     37  H   LIG d   1       7.963   2.039  -8.443  0.00  0.00     0.053 H 
BRANCH  35  38
ATOM     38  C   LIG d   1       7.430   1.059  -6.624  0.00  0.00     0.058 A 
ATOM     39  N   LIG d   1       7.946   2.013  -5.874  0.00  0.00    -0.258 NA
ATOM     40  C   LIG d   1       8.118   1.857  -4.576  0.00  0.00     0.028 A 
ATOM     41  C   LIG d   1       7.769   0.673  -3.953  0.00  0.00    -0.044 A 
ATOM     42  H   LIG d   1       8.541   2.662  -3.993  0.00  0.00     0.083 H 
ATOM     43  C   LIG d   1       7.228  -0.355  -4.710  0.00  0.00    -0.059 A 
ATOM     44  H   LIG d   1       7.916   0.551  -2.891  0.00  0.00     0.063 H 
ATOM     45  C   LIG d   1       7.057  -0.152  -6.071  0.00  0.00    -0.039 A 
ATOM     46  H   LIG d   1       6.946  -1.290  -4.251  0.00  0.00     0.062 H 
ATOM     47  H   LIG d   1       6.639  -0.930  -6.691  0.00  0.00     0.064 H 
ENDBRANCH  35  38
ENDBRANCH  33  35
ENDBRANCH  28  31
ENDBRANCH  25  28
ENDBRANCH  22  25
ENDBRANCH  19  22
ENDBRANCH  16  19
ENDBRANCH  13  16
ENDBRANCH   7  13
BRANCH   1  48
ATOM     48  C   LIG d   1       4.009  -2.697  -3.296  0.00  0.00    -0.082 C 
ATOM     49  C   LIG d   1       4.612  -2.700  -4.459  0.00  0.00    -0.059 C 
ATOM     50  H   LIG d   1       4.832  -1.766  -4.955  0.00  0.00     0.059 H 
ATOM     51  H   LIG d   1       3.790  -3.631  -2.800  0.00  0.00     0.057 H 
BRANCH  49  52
ATOM     52  C   LIG d   1       5.000  -4.005  -5.105  0.00  0.00     0.073 C 
ATOM     53  H   LIG d   1       5.156  -4.759  -4.335  0.00  0.00     0.064 H 
BRANCH  52  54
ATOM     54  C   LIG d   1       6.291  -3.815  -5.903  0.00  0.00    -0.023 C 
ATOM     55  H   LIG d   1       6.608  -2.773  -5.840  0.00  0.00     0.029 H 
ATOM     56  H   LIG d   1       6.117  -4.079  -6.946  0.00  0.00     0.029 H 
BRANCH  54  57
ATOM     57  C   LIG d   1       7.385  -4.715  -5.326  0.00  0.00    -0.050 C 
ATOM     58  H   LIG d   1       8.066  -5.016  -6.121  0.00  0.00     0.027 H 
ATOM     59  H   LIG d   1       6.930  -5.603  -4.885  0.00  0.00     0.027 H 
BRANCH  57  60
ATOM     60  C   LIG d   1       8.160  -3.953  -4.251  0.00  0.00    -0.053 C 
ATOM     61  H   LIG d   1       7.460  -3.524  -3.532  0.00  0.00     0.026 H 
ATOM     62  H   LIG d   1       8.736  -3.154  -4.717  0.00  0.00     0.026 H 
BRANCH  60  63
ATOM     63  C   LIG d   1       9.110  -4.911  -3.529  0.00  0.00    -0.056 C 
ATOM     64  H   LIG d   1       9.566  -5.585  -4.254  0.00  0.00     0.026 H 
ATOM     65  H   LIG d   1       8.551  -5.491  -2.795  0.00  0.00     0.026 H 
BRANCH  63  66
ATOM     66  C   LIG d   1      10.203  -4.108  -2.820  0.00  0.00    -0.065 C 
ATOM     67  H   LIG d   1      10.983  -4.786  -2.472  0.00  0.00     0.023 H 
ATOM     68  H   LIG d   1      10.632  -3.386  -3.515  0.00  0.00     0.023 H 
ATOM     69  H   LIG d   1       9.772  -3.582  -1.969  0.00  0.00     0.023 H 
ENDBRANCH  63  66
ENDBRANCH  60  63
ENDBRANCH  57  60
ENDBRANCH  54  57
ENDBRANCH  52  54
BRANCH  52  70
ATOM     70  O   LIG d   1       3.956  -4.429  -5.983  0.00  0.00    -0.388 OA
ATOM     71  H   LIG d   1       3.125  -4.641  -5.534  0.00  0.00     0.210 HD
ENDBRANCH  52  70
ENDBRANCH  49  52
ENDBRANCH   1  48
TORSDOF 17
ENDMDL
MODEL 2
REMARK VINA RESULT:      -6.3      1.543      2.700
REMARK  17 active torsions:
REMARK  status: ('A' for Active; 'I' for Inactive)
REMARK    1  A    between atoms: C_1  and  C_2 
REMARK    2  A    between atoms: C_2  and  C_3 
REMARK    3  A    between atoms: C_3  and  C_4 
REMARK    4  A    between atoms: C_4  and  C_5 
REMARK    5  A    between atoms: C_5  and  C_6 
REMARK    6  A    between atoms: C_6  and  C_8 
REMARK    7  A    between atoms: C_6  and  O_34 
REMARK    8  A    between atoms: C_9  and  C_10 
REMARK    9  A    between atoms: C_16  and  C_18 
REMARK   10  A    between atoms: C_18  and  C_19 
REMARK   11  A    between atoms: C_19  and  C_20 
REMARK   12  A    between atoms: C_20  and  C_21 
REMARK   13  A    between atoms: C_21  and  C_22 
REMARK   14  A    between atoms: C_22  and  C_23 
REMARK   15  A    between atoms: C_23  and  C_24 
REMARK       I    between atoms: C_24  and  N_26 
REMARK   16  A    between atoms: N_26  and  C_27 
REMARK   17  A    between atoms: C_27  and  C_28 
ROOT
ATOM      1  C   LIG d   1       3.707  -1.460  -2.622  0.00  0.00    -0.013 C 
ATOM      2  H   LIG d   1       2.739  -1.616  -2.144  0.00  0.00     0.035 H 
ATOM      3  C   LIG d   1       4.757  -0.990  -1.583  0.00  0.00    -0.039 C 
ATOM      4  C   LIG d   1       4.462   0.527  -1.477  0.00  0.00     0.007 C 
ATOM      5  C   LIG d   1       4.118   0.945  -2.896  0.00  0.00     0.137 C 
ATOM      6  O   LIG d   1       4.211   2.057  -3.356  0.00  0.00    -0.297 OA
ATOM      7  C   LIG d   1       3.633  -0.292  -3.627  0.00  0.00     0.024 C 
ATOM      8  H   LIG d   1       4.277  -0.495  -4.483  0.00  0.00     0.038 H 
ATOM      9  H   LIG d   1       4.600  -1.483  -0.624  0.00  0.00     0.028 H 
ATOM     10  H   LIG d   1       5.768  -1.164  -1.949  0.00  0.00     0.028 H 
ATOM     11  H   LIG d   1       3.616   0.705  -0.813  0.00  0.00     0.034 H 
ATOM     12  H   LIG d   1       5.343   1.063  -1.125  0.00  0.00     0.034 H 
ENDROOT
BRANCH   7  13
ATOM     13  C   LIG d   1       2.188  -0.095  -4.094  0.00  0.00    -0.043 C 
ATOM     14  H   LIG d   1       1.721  -1.068  -4.248  0.00  0.00     0.027 H 
ATOM     15  H   LIG d   1       1.634   0.458  -3.336  0.00  0.00     0.027 H 
BRANCH  13  16
ATOM     16  C   LIG d   1       2.180   0.689  -5.407  0.00  0.00    -0.052 C 
ATOM     17  H   LIG d   1       1.187   0.642  -5.853  0.00  0.00     0.026 H 
ATOM     18  H   LIG d   1       2.440   1.729  -5.211  0.00  0.00     0.026 H 
BRANCH  16  19
ATOM     19  C   LIG d   1       3.201   0.082  -6.370  0.00  0.00    -0.053 C 
ATOM     20  H   LIG d   1       4.133   0.645  -6.314  0.00  0.00     0.026 H 
ATOM     21  H   LIG d   1       3.388  -0.957  -6.096  0.00  0.00     0.026 H 
BRANCH  19  22
ATOM     22  C   LIG d   1       2.655   0.141  -7.799  0.00  0.00    -0.053 C 
ATOM     23  H   LIG d   1       3.115  -0.646  -8.396  0.00  0.00     0.026 H 
ATOM     24  H   LIG d   1       1.575   0.000  -7.780  0.00  0.00     0.026 H 
BRANCH  22  25
ATOM     25  C   LIG d   1       2.981   1.504  -8.412  0.00  0.00    -0.045 C 
ATOM     26  H   LIG d   1       2.069   1.956  -8.801  0.00  0.00     0.027 H 
ATOM     27  H   LIG d   1       3.412   2.154  -7.649  0.00  0.00     0.027 H 
BRANCH  25  28
ATOM     28  C   LIG d   1       3.986   1.322  -9.552  0.00  0.00     0.024 C 
ATOM     29  H   LIG d   1       3.995   0.278  -9.865  0.00  0.00     0.036 H 
ATOM     30  H   LIG d   1       3.697   1.952 -10.394  0.00  0.00     0.036 H 
BRANCH  28  31
ATOM     31  C   LIG d   1       5.361   1.717  -9.078  0.00  0.00     0.213 C 
ATOM     32  O   LIG d   1       5.773   2.840  -9.279  0.00  0.00    -0.276 OA
ATOM     33  N   LIG d   1       6.134   0.822  -8.431  0.00  0.00    -0.310 N 
ATOM     34  H   LIG d   1       5.805  -0.076  -8.271  0.00  0.00     0.149 HD
BRANCH  33  35
ATOM     35  C   LIG d   1       7.470   1.206  -7.970  0.00  0.00     0.054 C 
ATOM     36  H   LIG d   1       8.212   0.546  -8.417  0.00  0.00     0.053 H 
ATOM     37  H   LIG d   1       7.674   2.235  -8.266  0.00  0.00     0.053 H 
BRANCH  35  38
ATOM     38  C   LIG d   1       7.536   1.093  -6.469  0.00  0.00     0.058 A 
ATOM     39  N   LIG d   1       8.005   2.100  -5.760  0.00  0.00    -0.258 NA
ATOM     40  C   LIG d   1       8.076   2.048  -4.444  0.00  0.00     0.028 A 
ATOM     41  C   LIG d   1       7.666   0.921  -3.757  0.00  0.00    -0.044 A 
ATOM     42  H   LIG d   1       8.464   2.895  -3.896  0.00  0.00     0.083 H 
ATOM     43  C   LIG d   1       7.171  -0.161  -4.470  0.00  0.00    -0.059 A 
ATOM     44  H   LIG d   1       7.730   0.883  -2.681  0.00  0.00     0.063 H 
ATOM     45  C   LIG d   1       7.106  -0.067  -5.852  0.00  0.00    -0.039 A 
ATOM     46  H   LIG d   1       6.843  -1.055  -3.961  0.00  0.00     0.062 H 
ATOM     47  H   LIG d   1       6.726  -0.890  -6.438  0.00  0.00     0.064 H 
ENDBRANCH  35  38
ENDBRANCH  33  35
ENDBRANCH  28  31
ENDBRANCH  25  28
ENDBRANCH  22  25
ENDBRANCH  19  22
ENDBRANCH  16  19
ENDBRANCH  13  16
ENDBRANCH   7  13
BRANCH   1  48
ATOM     48  C   LIG d   1       4.168  -2.720  -3.307  0.00  0.00    -0.082 C 
ATOM     49  C   LIG d   1       4.520  -2.688  -4.569  0.00  0.00    -0.059 C 
ATOM     50  H   LIG d   1       4.479  -1.758  -5.118  0.00  0.00     0.059 H 
ATOM     51  H   LIG d   1       4.210  -3.649  -2.759  0.00  0.00     0.057 H 
BRANCH  49  52
ATOM     52  C   LIG d   1       4.982  -3.947  -5.256  0.00  0.00     0.073 C 
ATOM     53  H   LIG d   1       5.573  -4.544  -4.561  0.00  0.00     0.064 H 
BRANCH  52  54
ATOM     54  C   LIG d   1       5.838  -3.581  -6.470  0.00  0.00    -0.023 C 
ATOM     55  H   LIG d   1       6.129  -4.490  -6.997  0.00  0.00     0.029 H 
ATOM     56  H   LIG d   1       6.730  -3.051  -6.140  0.00  0.00     0.029 H 
BRANCH  54  57
ATOM     57  C   LIG d   1       5.031  -2.684  -7.411  0.00  0.00    -0.050 C 
ATOM     58  H   LIG d   1       5.525  -1.717  -7.504  0.00  0.00     0.027 H 
ATOM     59  H   LIG d   1       4.029  -2.541  -7.006  0.00  0.00     0.027 H 
BRANCH  57  60
ATOM     60  C   LIG d   1       4.935  -3.343  -8.788  0.00  0.00    -0.053 C 
ATOM     61  H   LIG d   1       3.971  -3.844  -8.885  0.00  0.00     0.026 H 
ATOM     62  H   LIG d   1       5.736  -4.074  -8.897  0.00  0.00     0.026 H 
BRANCH  60  63
ATOM     63  C   LIG d   1       5.068  -2.275  -9.875  0.00  0.00    -0.056 C 
ATOM     64  H   LIG d   1       6.031  -2.384 -10.375  0.00  0.00     0.026 H 
ATOM     65  H   LIG d   1       5.004  -1.286  -9.423  0.00  0.00     0.026 H 
BRANCH  63  66
ATOM     66  C   LIG d   1       3.941  -2.444 -10.897  0.00  0.00    -0.065 C 
ATOM     67  H   LIG d   1       3.015  -2.041 -10.485  0.00  0.00     0.023 H 
ATOM     68  H   LIG d   1       4.196  -1.909 -11.811  0.00  0.00     0.023 H 
ATOM     69  H   LIG d   1       3.809  -3.503 -11.119  0.00  0.00     0.023 H 
ENDBRANCH  63  66
ENDBRANCH  60  63
ENDBRANCH  57  60
ENDBRANCH  54  57
ENDBRANCH  52  54
BRANCH  52  70
ATOM     70  O   LIG d   1       3.845  -4.700  -5.684  0.00  0.00    -0.388 OA
ATOM     71  H   LIG d   1       3.031  -4.182  -5.749  0.00  0.00     0.210 HD
ENDBRANCH  52  70
ENDBRANCH  49  52
ENDBRANCH   1  48
TORSDOF 17
ENDMDL
MODEL 3
REMARK VINA RESULT:      -6.0      2.570      6.432
REMARK  17 active torsions:
REMARK  status: ('A' for Active; 'I' for Inactive)
REMARK    1  A    between atoms: C_1  and  C_2 
REMARK    2  A    between atoms: C_2  and  C_3 
REMARK    3  A    between atoms: C_3  and  C_4 
REMARK    4  A    between atoms: C_4  and  C_5 
REMARK    5  A    between atoms: C_5  and  C_6 
REMARK    6  A    between atoms: C_6  and  C_8 
REMARK    7  A    between atoms: C_6  and  O_34 
REMARK    8  A    between atoms: C_9  and  C_10 
REMARK    9  A    between atoms: C_16  and  C_18 
REMARK   10  A    between atoms: C_18  and  C_19 
REMARK   11  A    between atoms: C_19  and  C_20 
REMARK   12  A    between atoms: C_20  and  C_21 
REMARK   13  A    between atoms: C_21  and  C_22 
REMARK   14  A    between atoms: C_22  and  C_23 
REMARK   15  A    between atoms: C_23  and  C_24 
REMARK       I    between atoms: C_24  and  N_26 
REMARK   16  A    between atoms: N_26  and  C_27 
REMARK   17  A    between atoms: C_27  and  C_28 
ROOT
ATOM      1  C   LIG d   1       3.710   0.237  -8.071  0.00  0.00    -0.013 C 
ATOM      2  H   LIG d   1       3.462  -0.541  -8.793  0.00  0.00     0.035 H 
ATOM      3  C   LIG d   1       2.969   1.555  -8.414  0.00  0.00    -0.039 C 
ATOM      4  C   LIG d   1       3.872   2.164  -9.516  0.00  0.00     0.007 C 
ATOM      5  C   LIG d   1       5.286   1.830  -9.074  0.00  0.00     0.137 C 
ATOM      6  O   LIG d   1       6.291   2.421  -9.386  0.00  0.00    -0.297 OA
ATOM      7  C   LIG d   1       5.202   0.615  -8.171  0.00  0.00     0.024 C 
ATOM      8  H   LIG d   1       5.592   0.858  -7.182  0.00  0.00     0.038 H 
ATOM      9  H   LIG d   1       1.971   1.349  -8.801  0.00  0.00     0.028 H 
ATOM     10  H   LIG d   1       2.922   2.211  -7.545  0.00  0.00     0.028 H 
ATOM     11  H   LIG d   1       3.657   1.705 -10.481  0.00  0.00     0.034 H 
ATOM     12  H   LIG d   1       3.734   3.244  -9.568  0.00  0.00     0.034 H 
ENDROOT
BRANCH   7  13
ATOM     13  C   LIG d   1       5.995  -0.546  -8.776  0.00  0.00    -0.043 C 
ATOM     14  H   LIG d   1       5.308  -1.333  -9.088  0.00  0.00     0.027 H 
ATOM     15  H   LIG d   1       6.557  -0.191  -9.639  0.00  0.00     0.027 H 
BRANCH  13  16
ATOM     16  C   LIG d   1       6.964  -1.101  -7.730  0.00  0.00    -0.052 C 
ATOM     17  H   LIG d   1       7.959  -0.690  -7.900  0.00  0.00     0.026 H 
ATOM     18  H   LIG d   1       6.622  -0.822  -6.733  0.00  0.00     0.026 H 
BRANCH  16  19
ATOM     19  C   LIG d   1       7.016  -2.626  -7.841  0.00  0.00    -0.053 C 
ATOM     20  H   LIG d   1       6.225  -2.969  -8.508  0.00  0.00     0.026 H 
ATOM     21  H   LIG d   1       7.984  -2.929  -8.241  0.00  0.00     0.026 H 
BRANCH  19  22
ATOM     22  C   LIG d   1       6.819  -3.246  -6.456  0.00  0.00    -0.053 C 
ATOM     23  H   LIG d   1       6.956  -4.326  -6.520  0.00  0.00     0.026 H 
ATOM     24  H   LIG d   1       7.548  -2.827  -5.763  0.00  0.00     0.026 H 
BRANCH  22  25
ATOM     25  C   LIG d   1       5.406  -2.940  -5.956  0.00  0.00    -0.045 C 
ATOM     26  H   LIG d   1       5.463  -2.401  -5.011  0.00  0.00     0.027 H 
ATOM     27  H   LIG d   1       4.884  -2.327  -6.693  0.00  0.00     0.027 H 
BRANCH  25  28
ATOM     28  C   LIG d   1       4.642  -4.250  -5.751  0.00  0.00     0.024 C 
ATOM     29  H   LIG d   1       5.343  -5.041  -5.482  0.00  0.00     0.036 H 
ATOM     30  H   LIG d   1       3.913  -4.123  -4.951  0.00  0.00     0.036 H 
BRANCH  28  31
ATOM     31  C   LIG d   1       3.931  -4.623  -7.026  0.00  0.00     0.213 C 
ATOM     32  O   LIG d   1       3.649  -5.782  -7.248  0.00  0.00    -0.276 OA
ATOM     33  N   LIG d   1       3.607  -3.669  -7.921  0.00  0.00    -0.310 N 
ATOM     34  H   LIG d   1       3.832  -2.741  -7.745  0.00  0.00     0.149 HD
BRANCH  33  35
ATOM     35  C   LIG d   1       2.915  -4.031  -9.160  0.00  0.00     0.054 C 
ATOM     36  H   LIG d   1       3.493  -4.786  -9.692  0.00  0.00     0.053 H 
ATOM     37  H   LIG d   1       1.929  -4.429  -8.923  0.00  0.00     0.053 H 
BRANCH  35  38
ATOM     38  C   LIG d   1       2.766  -2.808 -10.029  0.00  0.00     0.058 A 
ATOM     39  N   LIG d   1       3.766  -2.432 -10.802  0.00  0.00    -0.258 NA
ATOM     40  C   LIG d   1       3.678  -1.373 -11.582  0.00  0.00     0.028 A 
ATOM     41  C   LIG d   1       2.527  -0.608 -11.609  0.00  0.00    -0.044 A 
ATOM     42  H   LIG d   1       4.517  -1.098 -12.205  0.00  0.00     0.083 H 
ATOM     43  C   LIG d   1       1.456  -0.969 -10.806  0.00  0.00    -0.059 A 
ATOM     44  H   LIG d   1       2.464   0.261 -12.248  0.00  0.00     0.063 H 
ATOM     45  C   LIG d   1       1.584  -2.092 -10.003  0.00  0.00    -0.039 A 
ATOM     46  H   LIG d   1       0.545  -0.391 -10.806  0.00  0.00     0.062 H 
ATOM     47  H   LIG d   1       0.770  -2.403  -9.365  0.00  0.00     0.064 H 
ENDBRANCH  35  38
ENDBRANCH  33  35
ENDBRANCH  28  31
ENDBRANCH  25  28
ENDBRANCH  22  25
ENDBRANCH  19  22
ENDBRANCH  16  19
ENDBRANCH  13  16
ENDBRANCH   7  13
BRANCH   1  48
ATOM     48  C   LIG d   1       3.370  -0.211  -6.673  0.00  0.00    -0.082 C 
ATOM     49  C   LIG d   1       2.766   0.610  -5.850  0.00  0.00    -0.059 C 
ATOM     50  H   LIG d   1       2.511   1.609  -6.174  0.00  0.00     0.059 H 
ATOM     51  H   LIG d   1       3.624  -1.209  -6.349  0.00  0.00     0.057 H 
BRANCH  49  52
ATOM     52  C   LIG d   1       2.425   0.162  -4.452  0.00  0.00     0.073 C 
ATOM     53  H   LIG d   1       1.348   0.226  -4.303  0.00  0.00     0.064 H 
BRANCH  52  54
ATOM     54  C   LIG d   1       3.135   1.065  -3.440  0.00  0.00    -0.023 C 
ATOM     55  H   LIG d   1       2.408   1.726  -2.970  0.00  0.00     0.029 H 
ATOM     56  H   LIG d   1       3.891   1.661  -3.952  0.00  0.00     0.029 H 
BRANCH  54  57
ATOM     57  C   LIG d   1       3.806   0.202  -2.370  0.00  0.00    -0.050 C 
ATOM     58  H   LIG d   1       3.677  -0.851  -2.618  0.00  0.00     0.027 H 
ATOM     59  H   LIG d   1       3.347   0.404  -1.401  0.00  0.00     0.027 H 
BRANCH  57  60
ATOM     60  C   LIG d   1       5.297   0.533  -2.307  0.00  0.00    -0.053 C 
ATOM     61  H   LIG d   1       5.637   0.488  -1.271  0.00  0.00     0.026 H 
ATOM     62  H   LIG d   1       5.463   1.536  -2.700  0.00  0.00     0.026 H 
BRANCH  60  63
ATOM     63  C   LIG d   1       6.081  -0.478  -3.145  0.00  0.00    -0.056 C 
ATOM     64  H   LIG d   1       5.408  -1.264  -3.488  0.00  0.00     0.026 H 
ATOM     65  H   LIG d   1       6.873  -0.916  -2.538  0.00  0.00     0.026 H 
BRANCH  63  66
ATOM     66  C   LIG d   1       6.697   0.230  -4.354  0.00  0.00    -0.065 C 
ATOM     67  H   LIG d   1       7.581   0.785  -4.039  0.00  0.00     0.023 H 
ATOM     68  H   LIG d   1       6.980  -0.510  -5.103  0.00  0.00     0.023 H 
ATOM     69  H   LIG d   1       5.969   0.920  -4.780  0.00  0.00     0.023 H 
ENDBRANCH  63  66
ENDBRANCH  60  63
ENDBRANCH  57  60
ENDBRANCH  54  57
ENDBRANCH  52  54
BRANCH  52  70
ATOM     70  O   LIG d   1       2.853  -1.188  -4.268  0.00  0.00    -0.388 OA
ATOM     71  H   LIG d   1       3.691  -1.399  -4.704  0.00  0.00     0.210 HD
ENDBRANCH  52  70
ENDBRANCH  49  52
ENDBRANCH   1  48
TORSDOF 17
ENDMDL
MODEL 4
REMARK VINA RESULT:      -6.0      2.719      5.023
REMARK  17 active torsions:
REMARK  status: ('A' for Active; 'I' for Inactive)
REMARK    1  A    between atoms: C_1  and  C_2 
REMARK    2  A    between atoms: C_2  and  C_3 
REMARK    3  A    between atoms: C_3  and  C_4 
REMARK    4  A    between atoms: C_4  and  C_5 
REMARK    5  A    between atoms: C_5  and  C_6 
REMARK    6  A    between atoms: C_6  and  C_8 
REMARK    7  A    between atoms: C_6  and  O_34 
REMARK    8  A    between atoms: C_9  and  C_10 
REMARK    9  A    between atoms: C_16  and  C_18 
REMARK   10  A    between atoms: C_18  and  C_19 
REMARK   11  A    between atoms: C_19  and  C_20 
REMARK   12  A    between atoms: C_20  and  C_21 
REMARK   13  A    between atoms: C_21  and  C_22 
REMARK   14  A    between atoms: C_22  and  C_23 
REMARK   15  A    between atoms: C_23  and  C_24 
REMARK       I    between atoms: C_24  and  N_26 
REMARK   16  A    between atoms: N_26  and  C_27 
REMARK   17  A    between atoms: C_27  and  C_28 
ROOT
ATOM      1  C   LIG d   1       6.682  -2.668  -5.058  0.00  0.00    -0.013 C 
ATOM      2  H   LIG d   1       7.467  -2.844  -4.322  0.00  0.00     0.035 H 
ATOM      3  C   LIG d   1       7.268  -2.681  -6.493  0.00  0.00    -0.039 C 
ATOM      4  C   LIG d   1       7.842  -1.248  -6.629  0.00  0.00     0.007 C 
ATOM      5  C   LIG d   1       6.837  -0.368  -5.905  0.00  0.00     0.137 C 
ATOM      6  O   LIG d   1       6.656   0.811  -6.088  0.00  0.00    -0.297 OA
ATOM      7  C   LIG d   1       6.106  -1.245  -4.906  0.00  0.00     0.024 C 
ATOM      8  H   LIG d   1       5.038  -1.250  -5.128  0.00  0.00     0.038 H 
ATOM      9  H   LIG d   1       8.060  -3.425  -6.582  0.00  0.00     0.028 H 
ATOM     10  H   LIG d   1       6.485  -2.856  -7.230  0.00  0.00     0.028 H 
ATOM     11  H   LIG d   1       8.819  -1.182  -6.151  0.00  0.00     0.034 H 
ATOM     12  H   LIG d   1       7.910  -0.963  -7.679  0.00  0.00     0.034 H 
ENDROOT
BRANCH   7  13
ATOM     13  C   LIG d   1       6.343  -0.734  -3.483  0.00  0.00    -0.043 C 
ATOM     14  H   LIG d   1       7.415  -0.649  -3.301  0.00  0.00     0.027 H 
ATOM     15  H   LIG d   1       5.876   0.244  -3.367  0.00  0.00     0.027 H 
BRANCH  13  16
ATOM     16  C   LIG d   1       5.732  -1.715  -2.481  0.00  0.00    -0.052 C 
ATOM     17  H   LIG d   1       5.547  -2.670  -2.972  0.00  0.00     0.026 H 
ATOM     18  H   LIG d   1       6.421  -1.862  -1.650  0.00  0.00     0.026 H 
BRANCH  16  19
ATOM     19  C   LIG d   1       4.412  -1.149  -1.954  0.00  0.00    -0.053 C 
ATOM     20  H   LIG d   1       3.615  -1.359  -2.668  0.00  0.00     0.026 H 
ATOM     21  H   LIG d   1       4.173  -1.612  -0.997  0.00  0.00     0.026 H 
BRANCH  19  22
ATOM     22  C   LIG d   1       4.542   0.365  -1.770  0.00  0.00    -0.053 C 
ATOM     23  H   LIG d   1       4.441   0.611  -0.712  0.00  0.00     0.026 H 
ATOM     24  H   LIG d   1       5.518   0.692  -2.127  0.00  0.00     0.026 H 
BRANCH  22  25
ATOM     25  C   LIG d   1       3.444   1.072  -2.566  0.00  0.00    -0.045 C 
ATOM     26  H   LIG d   1       2.731   1.525  -1.878  0.00  0.00     0.027 H 
ATOM     27  H   LIG d   1       3.889   1.848  -3.190  0.00  0.00     0.027 H 
BRANCH  25  28
ATOM     28  C   LIG d   1       2.723   0.056  -3.453  0.00  0.00     0.024 C 
ATOM     29  H   LIG d   1       3.247  -0.899  -3.412  0.00  0.00     0.036 H 
ATOM     30  H   LIG d   1       1.701  -0.075  -3.098  0.00  0.00     0.036 H 
BRANCH  28  31
ATOM     31  C   LIG d   1       2.701   0.556  -4.875  0.00  0.00     0.213 C 
ATOM     32  O   LIG d   1       2.474   1.726  -5.103  0.00  0.00    -0.276 OA
ATOM     33  N   LIG d   1       2.933  -0.296  -5.893  0.00  0.00    -0.310 N 
ATOM     34  H   LIG d   1       3.114  -1.232  -5.711  0.00  0.00     0.149 HD
BRANCH  33  35
ATOM     35  C   LIG d   1       2.912   0.190  -7.274  0.00  0.00     0.054 C 
ATOM     36  H   LIG d   1       1.897   0.128  -7.666  0.00  0.00     0.053 H 
ATOM     37  H   LIG d   1       3.248   1.227  -7.300  0.00  0.00     0.053 H 
BRANCH  35  38
ATOM     38  C   LIG d   1       3.830  -0.655  -8.119  0.00  0.00     0.058 A 
ATOM     39  N   LIG d   1       4.766  -0.076  -8.844  0.00  0.00    -0.258 NA
ATOM     40  C   LIG d   1       5.595  -0.776  -9.594  0.00  0.00     0.028 A 
ATOM     41  C   LIG d   1       5.503  -2.154  -9.653  0.00  0.00    -0.044 A 
ATOM     42  H   LIG d   1       6.352  -0.267 -10.172  0.00  0.00     0.083 H 
ATOM     43  C   LIG d   1       4.527  -2.799  -8.908  0.00  0.00    -0.059 A 
ATOM     44  H   LIG d   1       6.182  -2.721 -10.272  0.00  0.00     0.063 H 
ATOM     45  C   LIG d   1       3.677  -2.029  -8.128  0.00  0.00    -0.039 A 
ATOM     46  H   LIG d   1       4.431  -3.873  -8.935  0.00  0.00     0.062 H 
ATOM     47  H   LIG d   1       2.906  -2.498  -7.535  0.00  0.00     0.064 H 
ENDBRANCH  35  38
ENDBRANCH  33  35
ENDBRANCH  28  31
ENDBRANCH  25  28
ENDBRANCH  22  25
ENDBRANCH  19  22
ENDBRANCH  16  19
ENDBRANCH  13  16
ENDBRANCH   7  13
BRANCH   1  48
ATOM     48  C   LIG d   1       5.591  -3.698  -4.923  0.00  0.00    -0.082 C 
ATOM     49  C   LIG d   1       5.453  -4.630  -5.835  0.00  0.00    -0.059 C 
ATOM     50  H   LIG d   1       6.122  -4.659  -6.683  0.00  0.00     0.059 H 
ATOM     51  H   LIG d   1       4.923  -3.670  -4.076  0.00  0.00     0.057 H 
BRANCH  49  52
ATOM     52  C   LIG d   1       4.363  -5.661  -5.700  0.00  0.00     0.073 C 
ATOM     53  H   LIG d   1       4.181  -5.862  -4.645  0.00  0.00     0.064 H 
BRANCH  52  54
ATOM     54  C   LIG d   1       4.794  -6.953  -6.399  0.00  0.00    -0.023 C 
ATOM     55  H   LIG d   1       5.384  -6.709  -7.282  0.00  0.00     0.029 H 
ATOM     56  H   LIG d   1       3.910  -7.517  -6.697  0.00  0.00     0.029 H 
BRANCH  54  57
ATOM     57  C   LIG d   1       5.636  -7.795  -5.440  0.00  0.00    -0.050 C 
ATOM     58  H   LIG d   1       6.088  -7.148  -4.688  0.00  0.00     0.027 H 
ATOM     59  H   LIG d   1       6.423  -8.304  -5.998  0.00  0.00     0.027 H 
BRANCH  57  60
ATOM     60  C   LIG d   1       4.746  -8.831  -4.752  0.00  0.00    -0.053 C 
ATOM     61  H   LIG d   1       4.252  -9.444  -5.507  0.00  0.00     0.026 H 
ATOM     62  H   LIG d   1       3.994  -8.321  -4.150  0.00  0.00     0.026 H 
BRANCH  60  63
ATOM     63  C   LIG d   1       5.601  -9.723  -3.851  0.00  0.00    -0.056 C 
ATOM     64  H   LIG d   1       6.086  -9.111  -3.090  0.00  0.00     0.026 H 
ATOM     65  H   LIG d   1       6.360 -10.224  -4.451  0.00  0.00     0.026 H 
BRANCH  63  66
ATOM     66  C   LIG d   1       4.712 -10.769  -3.175  0.00  0.00    -0.065 C 
ATOM     67  H   LIG d   1       3.921 -10.266  -2.618  0.00  0.00     0.023 H 
ATOM     68  H   LIG d   1       4.269 -11.414  -3.934  0.00  0.00     0.023 H 
ATOM     69  H   LIG d   1       5.313 -11.369  -2.492  0.00  0.00     0.023 H 
ENDBRANCH  63  66
ENDBRANCH  60  63
ENDBRANCH  57  60
ENDBRANCH  54  57
ENDBRANCH  52  54
BRANCH  52  70
ATOM     70  O   LIG d   1       3.166  -5.169  -6.305  0.00  0.00    -0.388 OA
ATOM     71  H   LIG d   1       2.383  -5.709  -6.127  0.00  0.00     0.210 HD
ENDBRANCH  52  70
ENDBRANCH  49  52
ENDBRANCH   1  48
TORSDOF 17
ENDMDL
MODEL 5
REMARK VINA RESULT:      -6.0      3.116      5.945
REMARK  17 active torsions:
REMARK  status: ('A' for Active; 'I' for Inactive)
REMARK    1  A    between atoms: C_1  and  C_2 
REMARK    2  A    between atoms: C_2  and  C_3 
REMARK    3  A    between atoms: C_3  and  C_4 
REMARK    4  A    between atoms: C_4  and  C_5 
REMARK    5  A    between atoms: C_5  and  C_6 
REMARK    6  A    between atoms: C_6  and  C_8 
REMARK    7  A    between atoms: C_6  and  O_34 
REMARK    8  A    between atoms: C_9  and  C_10 
REMARK    9  A    between atoms: C_16  and  C_18 
REMARK   10  A    between atoms: C_18  and  C_19 
REMARK   11  A    between atoms: C_19  and  C_20 
REMARK   12  A    between atoms: C_20  and  C_21 
REMARK   13  A    between atoms: C_21  and  C_22 
REMARK   14  A    between atoms: C_22  and  C_23 
REMARK   15  A    between atoms: C_23  and  C_24 
REMARK       I    between atoms: C_24  and  N_26 
REMARK   16  A    between atoms: N_26  and  C_27 
REMARK   17  A    between atoms: C_27  and  C_28 
ROOT
ATOM      1  C   LIG d   1       3.441   0.452  -7.876  0.00  0.00    -0.013 C 
ATOM      2  H   LIG d   1       2.971  -0.220  -8.594  0.00  0.00     0.035 H 
ATOM      3  C   LIG d   1       2.806   1.864  -7.955  0.00  0.00    -0.039 C 
ATOM      4  C   LIG d   1       3.545   2.491  -9.164  0.00  0.00     0.007 C 
ATOM      5  C   LIG d   1       4.969   1.978  -9.044  0.00  0.00     0.137 C 
ATOM      6  O   LIG d   1       5.958   2.497  -9.503  0.00  0.00    -0.297 OA
ATOM      7  C   LIG d   1       4.920   0.691  -8.244  0.00  0.00     0.024 C 
ATOM      8  H   LIG d   1       5.518   0.793  -7.337  0.00  0.00     0.038 H 
ATOM      9  H   LIG d   1       1.735   1.796  -8.149  0.00  0.00     0.028 H 
ATOM     10  H   LIG d   1       3.002   2.429  -7.045  0.00  0.00     0.028 H 
ATOM     11  H   LIG d   1       3.098   2.156 -10.100  0.00  0.00     0.034 H 
ATOM     12  H   LIG d   1       3.526   3.579  -9.099  0.00  0.00     0.034 H 
ENDROOT
BRANCH   7  13
ATOM     13  C   LIG d   1       5.443  -0.475  -9.087  0.00  0.00    -0.043 C 
ATOM     14  H   LIG d   1       6.077  -0.089  -9.886  0.00  0.00     0.027 H 
ATOM     15  H   LIG d   1       6.023  -1.148  -8.456  0.00  0.00     0.027 H 
BRANCH  13  16
ATOM     16  C   LIG d   1       4.263  -1.234  -9.694  0.00  0.00    -0.052 C 
ATOM     17  H   LIG d   1       4.476  -2.303  -9.689  0.00  0.00     0.026 H 
ATOM     18  H   LIG d   1       3.365  -1.041  -9.107  0.00  0.00     0.026 H 
BRANCH  16  19
ATOM     19  C   LIG d   1       4.041  -0.766 -11.134  0.00  0.00    -0.053 C 
ATOM     20  H   LIG d   1       4.487   0.219 -11.268  0.00  0.00     0.026 H 
ATOM     21  H   LIG d   1       4.506  -1.472 -11.822  0.00  0.00     0.026 H 
BRANCH  19  22
ATOM     22  C   LIG d   1       2.539  -0.688 -11.420  0.00  0.00    -0.053 C 
ATOM     23  H   LIG d   1       2.212   0.350 -11.362  0.00  0.00     0.026 H 
ATOM     24  H   LIG d   1       2.339  -1.078 -12.418  0.00  0.00     0.026 H 
BRANCH  22  25
ATOM     25  C   LIG d   1       1.780  -1.521 -10.386  0.00  0.00    -0.045 C 
ATOM     26  H   LIG d   1       2.462  -1.830  -9.595  0.00  0.00     0.027 H 
ATOM     27  H   LIG d   1       0.974  -0.922  -9.957  0.00  0.00     0.027 H 
BRANCH  25  28
ATOM     28  C   LIG d   1       1.188  -2.759 -11.063  0.00  0.00     0.024 C 
ATOM     29  H   LIG d   1       0.140  -2.862 -10.781  0.00  0.00     0.036 H 
ATOM     30  H   LIG d   1       1.264  -2.652 -12.145  0.00  0.00     0.036 H 
BRANCH  28  31
ATOM     31  C   LIG d   1       1.948  -3.984 -10.625  0.00  0.00     0.213 C 
ATOM     32  O   LIG d   1       2.184  -4.869 -11.420  0.00  0.00    -0.276 OA
ATOM     33  N   LIG d   1       2.368  -4.096  -9.349  0.00  0.00    -0.310 N 
ATOM     34  H   LIG d   1       2.180  -3.389  -8.712  0.00  0.00     0.149 HD
BRANCH  33  35
ATOM     35  C   LIG d   1       3.107  -5.287  -8.923  0.00  0.00     0.054 C 
ATOM     36  H   LIG d   1       2.418  -6.123  -8.811  0.00  0.00     0.053 H 
ATOM     37  H   LIG d   1       3.859  -5.534  -9.672  0.00  0.00     0.053 H 
BRANCH  35  38
ATOM     38  C   LIG d   1       3.784  -5.014  -7.604  0.00  0.00     0.058 A 
ATOM     39  N   LIG d   1       3.898  -5.982  -6.718  0.00  0.00    -0.258 NA
ATOM     40  C   LIG d   1       4.487  -5.790  -5.553  0.00  0.00     0.028 A 
ATOM     41  C   LIG d   1       5.002  -4.553  -5.216  0.00  0.00    -0.044 A 
ATOM     42  H   LIG d   1       4.565  -6.609  -4.853  0.00  0.00     0.083 H 
ATOM     43  C   LIG d   1       4.896  -3.508  -6.122  0.00  0.00    -0.059 A 
ATOM     44  H   LIG d   1       5.479  -4.401  -4.260  0.00  0.00     0.063 H 
ATOM     45  C   LIG d   1       4.274  -3.749  -7.338  0.00  0.00    -0.039 A 
ATOM     46  H   LIG d   1       5.288  -2.530  -5.886  0.00  0.00     0.062 H 
ATOM     47  H   LIG d   1       4.175  -2.959  -8.067  0.00  0.00     0.064 H 
ENDBRANCH  35  38
ENDBRANCH  33  35
ENDBRANCH  28  31
ENDBRANCH  25  28
ENDBRANCH  22  25
ENDBRANCH  19  22
ENDBRANCH  16  19
ENDBRANCH  13  16
ENDBRANCH   7  13
BRANCH   1  48
ATOM     48  C   LIG d   1       3.325  -0.101  -6.479  0.00  0.00    -0.082 C 
ATOM     49  C   LIG d   1       2.639   0.549  -5.571  0.00  0.00    -0.059 C 
ATOM     50  H   LIG d   1       2.156   1.481  -5.824  0.00  0.00     0.059 H 
ATOM     51  H   LIG d   1       3.807  -1.033  -6.226  0.00  0.00     0.057 H 
BRANCH  49  52
ATOM     52  C   LIG d   1       2.523  -0.004  -4.175  0.00  0.00     0.073 C 
ATOM     53  H   LIG d   1       1.471  -0.076  -3.899  0.00  0.00     0.064 H 
BRANCH  52  54
ATOM     54  C   LIG d   1       3.245   0.924  -3.197  0.00  0.00    -0.023 C 
ATOM     55  H   LIG d   1       2.521   1.368  -2.513  0.00  0.00     0.029 H 
ATOM     56  H   LIG d   1       3.752   1.714  -3.752  0.00  0.00     0.029 H 
BRANCH  54  57
ATOM     57  C   LIG d   1       4.275   0.123  -2.398  0.00  0.00    -0.050 C 
ATOM     58  H   LIG d   1       4.209  -0.930  -2.673  0.00  0.00     0.027 H 
ATOM     59  H   LIG d   1       4.073   0.231  -1.332  0.00  0.00     0.027 H 
BRANCH  57  60
ATOM     60  C   LIG d   1       5.679   0.644  -2.706  0.00  0.00    -0.053 C 
ATOM     61  H   LIG d   1       6.155   0.977  -1.783  0.00  0.00     0.026 H 
ATOM     62  H   LIG d   1       5.611   1.481  -3.401  0.00  0.00     0.026 H 
BRANCH  60  63
ATOM     63  C   LIG d   1       6.513  -0.474  -3.335  0.00  0.00    -0.056 C 
ATOM     64  H   LIG d   1       6.082  -1.440  -3.071  0.00  0.00     0.026 H 
ATOM     65  H   LIG d   1       7.535  -0.418  -2.962  0.00  0.00     0.026 H 
BRANCH  63  66
ATOM     66  C   LIG d   1       6.515  -0.315  -4.857  0.00  0.00    -0.065 C 
ATOM     67  H   LIG d   1       7.375  -0.838  -5.275  0.00  0.00     0.023 H 
ATOM     68  H   LIG d   1       5.598  -0.736  -5.268  0.00  0.00     0.023 H 
ATOM     69  H   LIG d   1       6.575   0.744  -5.111  0.00  0.00     0.023 H 
ENDBRANCH  63  66
ENDBRANCH  60  63
ENDBRANCH  57  60
ENDBRANCH  54  57
ENDBRANCH  52  54
BRANCH  52  70
ATOM     70  O   LIG d   1       3.117  -1.303  -4.126  0.00  0.00    -0.388 OA
ATOM     71  H   LIG d   1       3.519  -1.520  -3.273  0.00  0.00     0.210 HD
ENDBRANCH  52  70
ENDBRANCH  49  52
ENDBRANCH   1  48
TORSDOF 17
ENDMDL
MODEL 6
REMARK VINA RESULT:      -5.9      3.940      7.582
REMARK  17 active torsions:
REMARK  status: ('A' for Active; 'I' for Inactive)
REMARK    1  A    between atoms: C_1  and  C_2 
REMARK    2  A    between atoms: C_2  and  C_3 
REMARK    3  A    between atoms: C_3  and  C_4 
REMARK    4  A    between atoms: C_4  and  C_5 
REMARK    5  A    between atoms: C_5  and  C_6 
REMARK    6  A    between atoms: C_6  and  C_8 
REMARK    7  A    between atoms: C_6  and  O_34 
REMARK    8  A    between atoms: C_9  and  C_10 
REMARK    9  A    between atoms: C_16  and  C_18 
REMARK   10  A    between atoms: C_18  and  C_19 
REMARK   11  A    between atoms: C_19  and  C_20 
REMARK   12  A    between atoms: C_20  and  C_21 
REMARK   13  A    between atoms: C_21  and  C_22 
REMARK   14  A    between atoms: C_22  and  C_23 
REMARK   15  A    between atoms: C_23  and  C_24 
REMARK       I    between atoms: C_24  and  N_26 
REMARK   16  A    between atoms: N_26  and  C_27 
REMARK   17  A    between atoms: C_27  and  C_28 
ROOT
ATOM      1  C   LIG d   1       3.180   0.481  -8.356  0.00  0.00    -0.013 C 
ATOM      2  H   LIG d   1       3.059  -0.446  -8.917  0.00  0.00     0.035 H 
ATOM      3  C   LIG d   1       2.657   1.688  -9.176  0.00  0.00    -0.039 C 
ATOM      4  C   LIG d   1       3.852   1.993 -10.114  0.00  0.00     0.007 C 
ATOM      5  C   LIG d   1       5.080   1.753  -9.252  0.00  0.00     0.137 C 
ATOM      6  O   LIG d   1       6.175   2.233  -9.418  0.00  0.00    -0.297 OA
ATOM      7  C   LIG d   1       4.676   0.797  -8.147  0.00  0.00     0.024 C 
ATOM      8  H   LIG d   1       4.825   1.268  -7.174  0.00  0.00     0.038 H 
ATOM      9  H   LIG d   1       1.774   1.410  -9.752  0.00  0.00     0.028 H 
ATOM     10  H   LIG d   1       2.448   2.537  -8.527  0.00  0.00     0.028 H 
ATOM     11  H   LIG d   1       3.849   1.316 -10.968  0.00  0.00     0.034 H 
ATOM     12  H   LIG d   1       3.819   3.030 -10.448  0.00  0.00     0.034 H 
ENDROOT
BRANCH   7  13
ATOM     13  C   LIG d   1       5.499  -0.490  -8.236  0.00  0.00    -0.043 C 
ATOM     14  H   LIG d   1       6.491  -0.261  -8.626  0.00  0.00     0.027 H 
ATOM     15  H   LIG d   1       5.592  -0.932  -7.244  0.00  0.00     0.027 H 
BRANCH  13  16
ATOM     16  C   LIG d   1       4.800  -1.478  -9.172  0.00  0.00    -0.052 C 
ATOM     17  H   LIG d   1       3.868  -1.043  -9.531  0.00  0.00     0.026 H 
ATOM     18  H   LIG d   1       5.448  -1.697 -10.020  0.00  0.00     0.026 H 
BRANCH  16  19
ATOM     19  C   LIG d   1       4.500  -2.772  -8.413  0.00  0.00    -0.053 C 
ATOM     20  H   LIG d   1       3.452  -3.039  -8.552  0.00  0.00     0.026 H 
ATOM     21  H   LIG d   1       5.132  -3.573  -8.796  0.00  0.00     0.026 H 
BRANCH  19  22
ATOM     22  C   LIG d   1       4.780  -2.568  -6.923  0.00  0.00    -0.053 C 
ATOM     23  H   LIG d   1       5.119  -1.546  -6.754  0.00  0.00     0.026 H 
ATOM     24  H   LIG d   1       3.869  -2.748  -6.354  0.00  0.00     0.026 H 
BRANCH  22  25
ATOM     25  C   LIG d   1       5.865  -3.546  -6.470  0.00  0.00    -0.045 C 
ATOM     26  H   LIG d   1       6.054  -4.272  -7.260  0.00  0.00     0.027 H 
ATOM     27  H   LIG d   1       6.783  -2.997  -6.254  0.00  0.00     0.027 H 
BRANCH  25  28
ATOM     28  C   LIG d   1       5.400  -4.276  -5.208  0.00  0.00     0.024 C 
ATOM     29  H   LIG d   1       6.255  -4.453  -4.555  0.00  0.00     0.036 H 
ATOM     30  H   LIG d   1       4.665  -3.663  -4.685  0.00  0.00     0.036 H 
BRANCH  28  31
ATOM     31  C   LIG d   1       4.777  -5.593  -5.589  0.00  0.00     0.213 C 
ATOM     32  O   LIG d   1       3.613  -5.639  -5.928  0.00  0.00    -0.276 OA
ATOM     33  N   LIG d   1       5.512  -6.722  -5.556  0.00  0.00    -0.310 N 
ATOM     34  H   LIG d   1       6.443  -6.686  -5.285  0.00  0.00     0.149 HD
BRANCH  33  35
ATOM     35  C   LIG d   1       4.906  -8.003  -5.927  0.00  0.00     0.054 C 
ATOM     36  H   LIG d   1       3.873  -7.841  -6.232  0.00  0.00     0.053 H 
ATOM     37  H   LIG d   1       5.464  -8.443  -6.753  0.00  0.00     0.053 H 
BRANCH  35  38
ATOM     38  C   LIG d   1       4.941  -8.937  -4.745  0.00  0.00     0.058 A 
ATOM     39  N   LIG d   1       3.811  -9.378  -4.229  0.00  0.00    -0.258 NA
ATOM     40  C   LIG d   1       3.794 -10.201  -3.199  0.00  0.00     0.028 A 
ATOM     41  C   LIG d   1       4.972 -10.626  -2.613  0.00  0.00    -0.044 A 
ATOM     42  H   LIG d   1       2.848 -10.544  -2.805  0.00  0.00     0.083 H 
ATOM     43  C   LIG d   1       6.180 -10.179  -3.125  0.00  0.00    -0.059 A 
ATOM     44  H   LIG d   1       4.950 -11.296  -1.767  0.00  0.00     0.063 H 
ATOM     45  C   LIG d   1       6.159  -9.318  -4.212  0.00  0.00    -0.039 A 
ATOM     46  H   LIG d   1       7.116 -10.493  -2.688  0.00  0.00     0.062 H 
ATOM     47  H   LIG d   1       7.081  -8.951  -4.637  0.00  0.00     0.064 H 
ENDBRANCH  35  38
ENDBRANCH  33  35
ENDBRANCH  28  31
ENDBRANCH  25  28
ENDBRANCH  22  25
ENDBRANCH  19  22
ENDBRANCH  16  19
ENDBRANCH  13  16
ENDBRANCH   7  13
BRANCH   1  48
ATOM     48  C   LIG d   1       2.468   0.394  -7.031  0.00  0.00    -0.082 C 
ATOM     49  C   LIG d   1       3.090   0.731  -5.928  0.00  0.00    -0.059 C 
ATOM     50  H   LIG d   1       4.115   1.071  -5.969  0.00  0.00     0.059 H 
ATOM     51  H   LIG d   1       1.444   0.055  -6.990  0.00  0.00     0.057 H 
BRANCH  49  52
ATOM     52  C   LIG d   1       2.378   0.644  -4.603  0.00  0.00     0.073 C 
ATOM     53  H   LIG d   1       1.430   1.179  -4.665  0.00  0.00     0.064 H 
BRANCH  52  54
ATOM     54  C   LIG d   1       3.250   1.272  -3.514  0.00  0.00    -0.023 C 
ATOM     55  H   LIG d   1       2.750   2.154  -3.111  0.00  0.00     0.029 H 
ATOM     56  H   LIG d   1       4.210   1.562  -3.939  0.00  0.00     0.029 H 
BRANCH  54  57
ATOM     57  C   LIG d   1       3.474   0.257  -2.392  0.00  0.00    -0.050 C 
ATOM     58  H   LIG d   1       2.930  -0.660  -2.616  0.00  0.00     0.027 H 
ATOM     59  H   LIG d   1       3.113   0.671  -1.450  0.00  0.00     0.027 H 
BRANCH  57  60
ATOM     60  C   LIG d   1       4.967  -0.051  -2.274  0.00  0.00    -0.053 C 
ATOM     61  H   LIG d   1       5.293   0.113  -1.246  0.00  0.00     0.026 H 
ATOM     62  H   LIG d   1       5.527   0.604  -2.941  0.00  0.00     0.026 H 
BRANCH  60  63
ATOM     63  C   LIG d   1       5.220  -1.510  -2.661  0.00  0.00    -0.056 C 
ATOM     64  H   LIG d   1       6.085  -1.886  -2.115  0.00  0.00     0.026 H 
ATOM     65  H   LIG d   1       5.411  -1.573  -3.733  0.00  0.00     0.026 H 
BRANCH  63  66
ATOM     66  C   LIG d   1       3.991  -2.351  -2.312  0.00  0.00    -0.065 C 
ATOM     67  H   LIG d   1       3.710  -2.959  -3.172  0.00  0.00     0.023 H 
ATOM     68  H   LIG d   1       4.222  -3.000  -1.467  0.00  0.00     0.023 H 
ATOM     69  H   LIG d   1       3.163  -1.692  -2.048  0.00  0.00     0.023 H 
ENDBRANCH  63  66
ENDBRANCH  60  63
ENDBRANCH  57  60
ENDBRANCH  54  57
ENDBRANCH  52  54
BRANCH  52  70
ATOM     70  O   LIG d   1       2.132  -0.727  -4.284  0.00  0.00    -0.388 OA
ATOM     71  H   LIG d   1       2.837  -1.144  -3.771  0.00  0.00     0.210 HD
ENDBRANCH  52  70
ENDBRANCH  49  52
ENDBRANCH   1  48
TORSDOF 17
ENDMDL
MODEL 7
REMARK VINA RESULT:      -5.8      2.697      6.122
REMARK  17 active torsions:
REMARK  status: ('A' for Active; 'I' for Inactive)
REMARK    1  A    between atoms: C_1  and  C_2 
REMARK    2  A    between atoms: C_2  and  C_3 
REMARK    3  A    between atoms: C_3  and  C_4 
REMARK    4  A    between atoms: C_4  and  C_5 
REMARK    5  A    between atoms: C_5  and  C_6 
REMARK    6  A    between atoms: C_6  and  C_8 
REMARK    7  A    between atoms: C_6  and  O_34 
REMARK    8  A    between atoms: C_9  and  C_10 
REMARK    9  A    between atoms: C_16  and  C_18 
REMARK   10  A    between atoms: C_18  and  C_19 
REMARK   11  A    between atoms: C_19  and  C_20 
REMARK   12  A    between atoms: C_20  and  C_21 
REMARK   13  A    between atoms: C_21  and  C_22 
REMARK   14  A    between atoms: C_22  and  C_23 
REMARK   15  A    between atoms: C_23  and  C_24 
REMARK       I    between atoms: C_24  and  N_26 
REMARK   16  A    between atoms: N_26  and  C_27 
REMARK   17  A    between atoms: C_27  and  C_28 
ROOT
ATOM      1  C   LIG d   1       6.562  -1.891  -6.039  0.00  0.00    -0.013 C 
ATOM      2  H   LIG d   1       6.810  -1.738  -7.090  0.00  0.00     0.035 H 
ATOM      3  C   LIG d   1       7.273  -3.155  -5.491  0.00  0.00    -0.039 C 
ATOM      4  C   LIG d   1       6.339  -4.294  -5.971  0.00  0.00     0.007 C 
ATOM      5  C   LIG d   1       4.940  -3.722  -5.827  0.00  0.00     0.137 C 
ATOM      6  O   LIG d   1       3.918  -4.353  -5.699  0.00  0.00    -0.297 OA
ATOM      7  C   LIG d   1       5.062  -2.211  -5.877  0.00  0.00     0.024 C 
ATOM      8  H   LIG d   1       4.686  -1.776  -4.949  0.00  0.00     0.038 H 
ATOM      9  H   LIG d   1       8.267  -3.259  -5.926  0.00  0.00     0.028 H 
ATOM     10  H   LIG d   1       7.325  -3.129  -4.403  0.00  0.00     0.028 H 
ATOM     11  H   LIG d   1       6.544  -4.540  -7.013  0.00  0.00     0.034 H 
ATOM     12  H   LIG d   1       6.457  -5.175  -5.340  0.00  0.00     0.034 H 
ENDROOT
BRANCH   7  13
ATOM     13  C   LIG d   1       4.278  -1.658  -7.069  0.00  0.00    -0.043 C 
ATOM     14  H   LIG d   1       4.971  -1.388  -7.866  0.00  0.00     0.027 H 
ATOM     15  H   LIG d   1       3.585  -2.417  -7.432  0.00  0.00     0.027 H 
BRANCH  13  16
ATOM     16  C   LIG d   1       3.494  -0.419  -6.633  0.00  0.00    -0.052 C 
ATOM     17  H   LIG d   1       2.748  -0.701  -5.891  0.00  0.00     0.026 H 
ATOM     18  H   LIG d   1       4.179   0.311  -6.200  0.00  0.00     0.026 H 
BRANCH  16  19
ATOM     19  C   LIG d   1       2.796   0.197  -7.848  0.00  0.00    -0.053 C 
ATOM     20  H   LIG d   1       3.328  -0.089  -8.756  0.00  0.00     0.026 H 
ATOM     21  H   LIG d   1       1.769  -0.165  -7.899  0.00  0.00     0.026 H 
BRANCH  19  22
ATOM     22  C   LIG d   1       2.794   1.722  -7.718  0.00  0.00    -0.053 C 
ATOM     23  H   LIG d   1       1.791   2.062  -7.460  0.00  0.00     0.026 H 
ATOM     24  H   LIG d   1       3.492   2.020  -6.936  0.00  0.00     0.026 H 
BRANCH  22  25
ATOM     25  C   LIG d   1       3.220   2.347  -9.047  0.00  0.00    -0.045 C 
ATOM     26  H   LIG d   1       2.686   1.864  -9.864  0.00  0.00     0.027 H 
ATOM     27  H   LIG d   1       2.986   3.413  -9.040  0.00  0.00     0.027 H 
BRANCH  25  28
ATOM     28  C   LIG d   1       4.727   2.159  -9.240  0.00  0.00     0.024 C 
ATOM     29  H   LIG d   1       5.161   3.081  -9.626  0.00  0.00     0.036 H 
ATOM     30  H   LIG d   1       5.187   1.913  -8.283  0.00  0.00     0.036 H 
BRANCH  28  31
ATOM     31  C   LIG d   1       4.972   1.039 -10.218  0.00  0.00     0.213 C 
ATOM     32  O   LIG d   1       5.888   0.265 -10.036  0.00  0.00    -0.276 OA
ATOM     33  N   LIG d   1       4.175   0.897 -11.295  0.00  0.00    -0.310 N 
ATOM     34  H   LIG d   1       3.442   1.517 -11.441  0.00  0.00     0.149 HD
BRANCH  33  35
ATOM     35  C   LIG d   1       4.414  -0.191 -12.245  0.00  0.00     0.054 C 
ATOM     36  H   LIG d   1       4.775   0.221 -13.187  0.00  0.00     0.053 H 
ATOM     37  H   LIG d   1       5.160  -0.873 -11.837  0.00  0.00     0.053 H 
BRANCH  35  38
ATOM     38  C   LIG d   1       3.128  -0.941 -12.485  0.00  0.00     0.058 A 
ATOM     39  N   LIG d   1       2.999  -1.682 -13.567  0.00  0.00    -0.258 NA
ATOM     40  C   LIG d   1       1.894  -2.360 -13.815  0.00  0.00     0.028 A 
ATOM     41  C   LIG d   1       0.822  -2.307 -12.946  0.00  0.00    -0.044 A 
ATOM     42  H   LIG d   1       1.826  -2.959 -14.711  0.00  0.00     0.083 H 
ATOM     43  C   LIG d   1       0.919  -1.533 -11.799  0.00  0.00    -0.059 A 
ATOM     44  H   LIG d   1      -0.081  -2.860 -13.157  0.00  0.00     0.063 H 
ATOM     45  C   LIG d   1       2.098  -0.839 -11.569  0.00  0.00    -0.039 A 
ATOM     46  H   LIG d   1       0.097  -1.472 -11.102  0.00  0.00     0.062 H 
ATOM     47  H   LIG d   1       2.208  -0.228 -10.687  0.00  0.00     0.064 H 
ENDBRANCH  35  38
ENDBRANCH  33  35
ENDBRANCH  28  31
ENDBRANCH  25  28
ENDBRANCH  22  25
ENDBRANCH  19  22
ENDBRANCH  16  19
ENDBRANCH  13  16
ENDBRANCH   7  13
BRANCH   1  48
ATOM     48  C   LIG d   1       6.936  -0.679  -5.225  0.00  0.00    -0.082 C 
ATOM     49  C   LIG d   1       6.266  -0.389  -4.137  0.00  0.00    -0.059 C 
ATOM     50  H   LIG d   1       5.446  -1.018  -3.823  0.00  0.00     0.059 H 
ATOM     51  H   LIG d   1       7.756  -0.051  -5.538  0.00  0.00     0.057 H 
BRANCH  49  52
ATOM     52  C   LIG d   1       6.640   0.823  -3.322  0.00  0.00     0.073 C 
ATOM     53  H   LIG d   1       7.343   0.533  -2.541  0.00  0.00     0.064 H 
BRANCH  52  54
ATOM     54  C   LIG d   1       5.382   1.415  -2.683  0.00  0.00    -0.023 C 
ATOM     55  H   LIG d   1       4.784   1.911  -3.448  0.00  0.00     0.029 H 
ATOM     56  H   LIG d   1       5.668   2.139  -1.920  0.00  0.00     0.029 H 
BRANCH  54  57
ATOM     57  C   LIG d   1       4.561   0.296  -2.041  0.00  0.00    -0.050 C 
ATOM     58  H   LIG d   1       4.458   0.486  -0.973  0.00  0.00     0.027 H 
ATOM     59  H   LIG d   1       5.067  -0.659  -2.190  0.00  0.00     0.027 H 
BRANCH  57  60
ATOM     60  C   LIG d   1       3.175   0.244  -2.686  0.00  0.00    -0.053 C 
ATOM     61  H   LIG d   1       3.185   0.815  -3.615  0.00  0.00     0.026 H 
ATOM     62  H   LIG d   1       2.442   0.674  -2.004  0.00  0.00     0.026 H 
BRANCH  60  63
ATOM     63  C   LIG d   1       2.804  -1.210  -2.983  0.00  0.00    -0.056 C 
ATOM     64  H   LIG d   1       2.812  -1.373  -4.061  0.00  0.00     0.026 H 
ATOM     65  H   LIG d   1       1.808  -1.417  -2.592  0.00  0.00     0.026 H 
BRANCH  63  66
ATOM     66  C   LIG d   1       3.818  -2.142  -2.318  0.00  0.00    -0.065 C 
ATOM     67  H   LIG d   1       4.825  -1.753  -2.473  0.00  0.00     0.023 H 
ATOM     68  H   LIG d   1       3.611  -2.201  -1.249  0.00  0.00     0.023 H 
ATOM     69  H   LIG d   1       3.741  -3.136  -2.759  0.00  0.00     0.023 H 
ENDBRANCH  63  66
ENDBRANCH  60  63
ENDBRANCH  57  60
ENDBRANCH  54  57
ENDBRANCH  52  54
BRANCH  52  70
ATOM     70  O   LIG d   1       7.247   1.798  -4.171  0.00  0.00    -0.388 OA
ATOM     71  H   LIG d   1       6.732   2.006  -4.964  0.00  0.00     0.210 HD
ENDBRANCH  52  70
ENDBRANCH  49  52
ENDBRANCH   1  48
TORSDOF 17
ENDMDL
MODEL 8
REMARK VINA RESULT:      -5.7      4.297      7.736
REMARK  17 active torsions:
REMARK  status: ('A' for Active; 'I' for Inactive)
REMARK    1  A    between atoms: C_1  and  C_2 
REMARK    2  A    between atoms: C_2  and  C_3 
REMARK    3  A    between atoms: C_3  and  C_4 
REMARK    4  A    between atoms: C_4  and  C_5 
REMARK    5  A    between atoms: C_5  and  C_6 
REMARK    6  A    between atoms: C_6  and  C_8 
REMARK    7  A    between atoms: C_6  and  O_34 
REMARK    8  A    between atoms: C_9  and  C_10 
REMARK    9  A    between atoms: C_16  and  C_18 
REMARK   10  A    between atoms: C_18  and  C_19 
REMARK   11  A    between atoms: C_19  and  C_20 
REMARK   12  A    between atoms: C_20  and  C_21 
REMARK   13  A    between atoms: C_21  and  C_22 
REMARK   14  A    between atoms: C_22  and  C_23 
REMARK   15  A    between atoms: C_23  and  C_24 
REMARK       I    between atoms: C_24  and  N_26 
REMARK   16  A    between atoms: N_26  and  C_27 
REMARK   17  A    between atoms: C_27  and  C_28 
ROOT
ATOM      1  C   LIG d   1       2.695   0.999  -8.432  0.00  0.00    -0.013 C 
ATOM      2  H   LIG d   1       1.629   1.218  -8.492  0.00  0.00     0.035 H 
ATOM      3  C   LIG d   1       3.529   2.282  -8.678  0.00  0.00    -0.039 C 
ATOM      4  C   LIG d   1       3.543   2.377 -10.224  0.00  0.00     0.007 C 
ATOM      5  C   LIG d   1       3.658   0.936 -10.690  0.00  0.00     0.137 C 
ATOM      6  O   LIG d   1       4.093   0.560 -11.751  0.00  0.00    -0.297 OA
ATOM      7  C   LIG d   1       3.120   0.057  -9.577  0.00  0.00     0.024 C 
ATOM      8  H   LIG d   1       3.899  -0.623  -9.231  0.00  0.00     0.038 H 
ATOM      9  H   LIG d   1       3.039   3.152  -8.241  0.00  0.00     0.028 H 
ATOM     10  H   LIG d   1       4.540   2.168  -8.288  0.00  0.00     0.028 H 
ATOM     11  H   LIG d   1       2.616   2.821 -10.586  0.00  0.00     0.034 H 
ATOM     12  H   LIG d   1       4.402   2.956 -10.563  0.00  0.00     0.034 H 
ENDROOT
BRANCH   7  13
ATOM     13  C   LIG d   1       1.912  -0.741 -10.073  0.00  0.00    -0.043 C 
ATOM     14  H   LIG d   1       1.016  -0.407  -9.549  0.00  0.00     0.027 H 
ATOM     15  H   LIG d   1       1.786  -0.582 -11.144  0.00  0.00     0.027 H 
BRANCH  13  16
ATOM     16  C   LIG d   1       2.137  -2.229  -9.801  0.00  0.00    -0.052 C 
ATOM     17  H   LIG d   1       2.286  -2.386  -8.733  0.00  0.00     0.026 H 
ATOM     18  H   LIG d   1       1.267  -2.796 -10.132  0.00  0.00     0.026 H 
BRANCH  16  19
ATOM     19  C   LIG d   1       3.375  -2.705 -10.564  0.00  0.00    -0.053 C 
ATOM     20  H   LIG d   1       3.070  -3.368 -11.374  0.00  0.00     0.026 H 
ATOM     21  H   LIG d   1       3.901  -1.845 -10.978  0.00  0.00     0.026 H 
BRANCH  19  22
ATOM     22  C   LIG d   1       4.303  -3.461  -9.611  0.00  0.00    -0.053 C 
ATOM     23  H   LIG d   1       4.898  -4.178 -10.176  0.00  0.00     0.026 H 
ATOM     24  H   LIG d   1       4.965  -2.753  -9.111  0.00  0.00     0.026 H 
BRANCH  22  25
ATOM     25  C   LIG d   1       3.467  -4.202  -8.566  0.00  0.00    -0.045 C 
ATOM     26  H   LIG d   1       3.613  -3.741  -7.590  0.00  0.00     0.027 H 
ATOM     27  H   LIG d   1       2.413  -4.149  -8.839  0.00  0.00     0.027 H 
BRANCH  25  28
ATOM     28  C   LIG d   1       3.905  -5.667  -8.509  0.00  0.00     0.024 C 
ATOM     29  H   LIG d   1       3.136  -6.294  -8.961  0.00  0.00     0.036 H 
ATOM     30  H   LIG d   1       4.840  -5.788  -9.056  0.00  0.00     0.036 H 
BRANCH  28  31
ATOM     31  C   LIG d   1       4.107  -6.076  -7.073  0.00  0.00     0.213 C 
ATOM     32  O   LIG d   1       3.582  -5.442  -6.182  0.00  0.00    -0.276 OA
ATOM     33  N   LIG d   1       4.870  -7.147  -6.777  0.00  0.00    -0.310 N 
ATOM     34  H   LIG d   1       5.290  -7.655  -7.489  0.00  0.00     0.149 HD
BRANCH  33  35
ATOM     35  C   LIG d   1       5.065  -7.545  -5.381  0.00  0.00     0.054 C 
ATOM     36  H   LIG d   1       6.120  -7.459  -5.123  0.00  0.00     0.053 H 
ATOM     37  H   LIG d   1       4.480  -6.894  -4.733  0.00  0.00     0.053 H 
BRANCH  35  38
ATOM     38  C   LIG d   1       4.617  -8.972  -5.197  0.00  0.00     0.058 A 
ATOM     39  N   LIG d   1       4.010  -9.325  -4.081  0.00  0.00    -0.258 NA
ATOM     40  C   LIG d   1       3.595 -10.560  -3.878  0.00  0.00     0.028 A 
ATOM     41  C   LIG d   1       3.793 -11.538  -4.835  0.00  0.00    -0.044 A 
ATOM     42  H   LIG d   1       3.099 -10.811  -2.952  0.00  0.00     0.083 H 
ATOM     43  C   LIG d   1       4.432 -11.206  -6.020  0.00  0.00    -0.059 A 
ATOM     44  H   LIG d   1       3.454 -12.548  -4.661  0.00  0.00     0.063 H 
ATOM     45  C   LIG d   1       4.849  -9.895  -6.199  0.00  0.00    -0.039 A 
ATOM     46  H   LIG d   1       4.600 -11.948  -6.784  0.00  0.00     0.062 H 
ATOM     47  H   LIG d   1       5.349  -9.601  -7.109  0.00  0.00     0.064 H 
ENDBRANCH  35  38
ENDBRANCH  33  35
ENDBRANCH  28  31
ENDBRANCH  25  28
ENDBRANCH  22  25
ENDBRANCH  19  22
ENDBRANCH  16  19
ENDBRANCH  13  16
ENDBRANCH   7  13
BRANCH   1  48
ATOM     48  C   LIG d   1       3.037   0.394  -7.095  0.00  0.00    -0.082 C 
ATOM     49  C   LIG d   1       3.997  -0.494  -7.003  0.00  0.00    -0.059 C 
ATOM     50  H   LIG d   1       4.543  -0.792  -7.887  0.00  0.00     0.059 H 
ATOM     51  H   LIG d   1       2.492   0.692  -6.212  0.00  0.00     0.057 H 
BRANCH  49  52
ATOM     52  C   LIG d   1       4.340  -1.098  -5.667  0.00  0.00     0.073 C 
ATOM     53  H   LIG d   1       3.629  -0.750  -4.917  0.00  0.00     0.064 H 
BRANCH  52  54
ATOM     54  C   LIG d   1       5.755  -0.677  -5.264  0.00  0.00    -0.023 C 
ATOM     55  H   LIG d   1       5.925   0.357  -5.563  0.00  0.00     0.029 H 
ATOM     56  H   LIG d   1       6.481  -1.322  -5.758  0.00  0.00     0.029 H 
BRANCH  54  57
ATOM     57  C   LIG d   1       5.912  -0.801  -3.748  0.00  0.00    -0.050 C 
ATOM     58  H   LIG d   1       6.953  -0.631  -3.475  0.00  0.00     0.027 H 
ATOM     59  H   LIG d   1       5.615  -1.802  -3.432  0.00  0.00     0.027 H 
BRANCH  57  60
ATOM     60  C   LIG d   1       5.027   0.236  -3.056  0.00  0.00    -0.053 C 
ATOM     61  H   LIG d   1       4.253   0.573  -3.747  0.00  0.00     0.026 H 
ATOM     62  H   LIG d   1       5.636   1.087  -2.750  0.00  0.00     0.026 H 
BRANCH  60  63
ATOM     63  C   LIG d   1       4.372  -0.391  -1.823  0.00  0.00    -0.056 C 
ATOM     64  H   LIG d   1       3.461   0.155  -1.579  0.00  0.00     0.026 H 
ATOM     65  H   LIG d   1       5.063  -0.342  -0.981  0.00  0.00     0.026 H 
BRANCH  63  66
ATOM     66  C   LIG d   1       4.028  -1.853  -2.117  0.00  0.00    -0.065 C 
ATOM     67  H   LIG d   1       2.951  -1.998  -2.021  0.00  0.00     0.023 H 
ATOM     68  H   LIG d   1       4.340  -2.103  -3.130  0.00  0.00     0.023 H 
ATOM     69  H   LIG d   1       4.546  -2.497  -1.406  0.00  0.00     0.023 H 
ENDBRANCH  63  66
ENDBRANCH  60  63
ENDBRANCH  57  60
ENDBRANCH  54  57
ENDBRANCH  52  54
BRANCH  52  70
ATOM     70  O   LIG d   1       4.275  -2.523  -5.758  0.00  0.00    -0.388 OA
ATOM     71  H   LIG d   1       3.997  -2.849  -6.625  0.00  0.00     0.210 HD
ENDBRANCH  52  70
ENDBRANCH  49  52
ENDBRANCH   1  48
TORSDOF 17
ENDMDL
MODEL 9
REMARK VINA RESULT:      -5.7      2.359      6.123
REMARK  17 active torsions:
REMARK  status: ('A' for Active; 'I' for Inactive)
REMARK    1  A    between atoms: C_1  and  C_2 
REMARK    2  A    between atoms: C_2  and  C_3 
REMARK    3  A    between atoms: C_3  and  C_4 
REMARK    4  A    between atoms: C_4  and  C_5 
REMARK    5  A    between atoms: C_5  and  C_6 
REMARK    6  A    between atoms: C_6  and  C_8 
REMARK    7  A    between atoms: C_6  and  O_34 
REMARK    8  A    between atoms: C_9  and  C_10 
REMARK    9  A    between atoms: C_16  and  C_18 
REMARK   10  A    between atoms: C_18  and  C_19 
REMARK   11  A    between atoms: C_19  and  C_20 
REMARK   12  A    between atoms: C_20  and  C_21 
REMARK   13  A    between atoms: C_21  and  C_22 
REMARK   14  A    between atoms: C_22  and  C_23 
REMARK   15  A    between atoms: C_23  and  C_24 
REMARK       I    between atoms: C_24  and  N_26 
REMARK   16  A    between atoms: N_26  and  C_27 
REMARK   17  A    between atoms: C_27  and  C_28 
ROOT
ATOM      1  C   LIG d   1       7.460   1.041  -4.343  0.00  0.00    -0.013 C 
ATOM      2  H   LIG d   1       6.924   1.483  -5.184  0.00  0.00     0.035 H 
ATOM      3  C   LIG d   1       8.443   2.066  -3.724  0.00  0.00    -0.039 C 
ATOM      4  C   LIG d   1       9.665   1.967  -4.672  0.00  0.00     0.007 C 
ATOM      5  C   LIG d   1       9.756   0.491  -5.018  0.00  0.00     0.137 C 
ATOM      6  O   LIG d   1      10.744  -0.099  -5.382  0.00  0.00    -0.297 OA
ATOM      7  C   LIG d   1       8.374  -0.104  -4.825  0.00  0.00     0.024 C 
ATOM      8  H   LIG d   1       8.411  -0.894  -4.073  0.00  0.00     0.038 H 
ATOM      9  H   LIG d   1       8.019   3.070  -3.743  0.00  0.00     0.028 H 
ATOM     10  H   LIG d   1       8.716   1.778  -2.709  0.00  0.00     0.028 H 
ATOM     11  H   LIG d   1       9.497   2.559  -5.571  0.00  0.00     0.034 H 
ATOM     12  H   LIG d   1      10.570   2.295  -4.162  0.00  0.00     0.034 H 
ENDROOT
BRANCH   7  13
ATOM     13  C   LIG d   1       7.853  -0.667  -6.150  0.00  0.00    -0.043 C 
ATOM     14  H   LIG d   1       6.817  -0.361  -6.292  0.00  0.00     0.027 H 
ATOM     15  H   LIG d   1       8.461  -0.285  -6.970  0.00  0.00     0.027 H 
BRANCH  13  16
ATOM     16  C   LIG d   1       7.935  -2.194  -6.122  0.00  0.00    -0.052 C 
ATOM     17  H   LIG d   1       7.132  -2.613  -6.728  0.00  0.00     0.026 H 
ATOM     18  H   LIG d   1       8.897  -2.514  -6.523  0.00  0.00     0.026 H 
BRANCH  16  19
ATOM     19  C   LIG d   1       7.795  -2.686  -4.680  0.00  0.00    -0.053 C 
ATOM     20  H   LIG d   1       8.532  -3.466  -4.489  0.00  0.00     0.026 H 
ATOM     21  H   LIG d   1       7.960  -1.855  -3.994  0.00  0.00     0.026 H 
BRANCH  19  22
ATOM     22  C   LIG d   1       6.389  -3.251  -4.467  0.00  0.00    -0.053 C 
ATOM     23  H   LIG d   1       6.294  -3.611  -3.442  0.00  0.00     0.026 H 
ATOM     24  H   LIG d   1       5.652  -2.469  -4.648  0.00  0.00     0.026 H 
BRANCH  22  25
ATOM     25  C   LIG d   1       6.153  -4.409  -5.438  0.00  0.00    -0.045 C 
ATOM     26  H   LIG d   1       6.800  -4.293  -6.307  0.00  0.00     0.027 H 
ATOM     27  H   LIG d   1       6.379  -5.353  -4.941  0.00  0.00     0.027 H 
BRANCH  25  28
ATOM     28  C   LIG d   1       4.690  -4.408  -5.887  0.00  0.00     0.024 C 
ATOM     29  H   LIG d   1       4.265  -5.402  -5.743  0.00  0.00     0.036 H 
ATOM     30  H   LIG d   1       4.129  -3.684  -5.295  0.00  0.00     0.036 H 
BRANCH  28  31
ATOM     31  C   LIG d   1       4.611  -4.034  -7.345  0.00  0.00     0.213 C 
ATOM     32  O   LIG d   1       5.610  -4.060  -8.032  0.00  0.00    -0.276 OA
ATOM     33  N   LIG d   1       3.431  -3.672  -7.885  0.00  0.00    -0.310 N 
ATOM     34  H   LIG d   1       2.632  -3.651  -7.336  0.00  0.00     0.149 HD
BRANCH  33  35
ATOM     35  C   LIG d   1       3.355  -3.309  -9.302  0.00  0.00     0.054 C 
ATOM     36  H   LIG d   1       4.214  -3.722  -9.830  0.00  0.00     0.053 H 
ATOM     37  H   LIG d   1       2.437  -3.710  -9.731  0.00  0.00     0.053 H 
BRANCH  35  38
ATOM     38  C   LIG d   1       3.357  -1.808  -9.437  0.00  0.00     0.058 A 
ATOM     39  N   LIG d   1       4.468  -1.187  -9.782  0.00  0.00    -0.258 NA
ATOM     40  C   LIG d   1       4.515   0.125  -9.918  0.00  0.00     0.028 A 
ATOM     41  C   LIG d   1       3.393   0.900  -9.691  0.00  0.00    -0.044 A 
ATOM     42  H   LIG d   1       5.442   0.598 -10.205  0.00  0.00     0.083 H 
ATOM     43  C   LIG d   1       2.208   0.282  -9.322  0.00  0.00    -0.059 A 
ATOM     44  H   LIG d   1       3.439   1.973  -9.800  0.00  0.00     0.063 H 
ATOM     45  C   LIG d   1       2.196  -1.099  -9.194  0.00  0.00    -0.039 A 
ATOM     46  H   LIG d   1       1.316   0.862  -9.138  0.00  0.00     0.062 H 
ATOM     47  H   LIG d   1       1.291  -1.613  -8.909  0.00  0.00     0.064 H 
ENDBRANCH  35  38
ENDBRANCH  33  35
ENDBRANCH  28  31
ENDBRANCH  25  28
ENDBRANCH  22  25
ENDBRANCH  19  22
ENDBRANCH  16  19
ENDBRANCH  13  16
ENDBRANCH   7  13
BRANCH   1  48
ATOM     48  C   LIG d   1       6.491   0.542  -3.302  0.00  0.00    -0.082 C 
ATOM     49  C   LIG d   1       5.578   1.347  -2.818  0.00  0.00    -0.059 C 
ATOM     50  H   LIG d   1       5.519   2.368  -3.165  0.00  0.00     0.059 H 
ATOM     51  H   LIG d   1       6.549  -0.478  -2.955  0.00  0.00     0.057 H 
BRANCH  49  52
ATOM     52  C   LIG d   1       4.608   0.849  -1.777  0.00  0.00     0.073 C 
ATOM     53  H   LIG d   1       4.990   1.083  -0.784  0.00  0.00     0.064 H 
BRANCH  52  54
ATOM     54  C   LIG d   1       4.443  -0.665  -1.918  0.00  0.00    -0.023 C 
ATOM     55  H   LIG d   1       4.430  -1.123  -0.929  0.00  0.00     0.029 H 
ATOM     56  H   LIG d   1       5.275  -1.070  -2.495  0.00  0.00     0.029 H 
BRANCH  54  57
ATOM     57  C   LIG d   1       3.128  -0.970  -2.638  0.00  0.00    -0.050 C 
ATOM     58  H   LIG d   1       2.519  -0.067  -2.682  0.00  0.00     0.027 H 
ATOM     59  H   LIG d   1       2.587  -1.745  -2.094  0.00  0.00     0.027 H 
BRANCH  57  60
ATOM     60  C   LIG d   1       3.423  -1.456  -4.058  0.00  0.00    -0.053 C 
ATOM     61  H   LIG d   1       2.713  -2.238  -4.330  0.00  0.00     0.026 H 
ATOM     62  H   LIG d   1       4.436  -1.855  -4.101  0.00  0.00     0.026 H 
BRANCH  60  63
ATOM     63  C   LIG d   1       3.295  -0.286  -5.036  0.00  0.00    -0.056 C 
ATOM     64  H   LIG d   1       3.541   0.644  -4.523  0.00  0.00     0.026 H 
ATOM     65  H   LIG d   1       2.272  -0.236  -5.408  0.00  0.00     0.026 H 
BRANCH  63  66
ATOM     66  C   LIG d   1       4.256  -0.494  -6.208  0.00  0.00    -0.065 C 
ATOM     67  H   LIG d   1       5.284  -0.430  -5.851  0.00  0.00     0.023 H 
ATOM     68  H   LIG d   1       4.084  -1.475  -6.650  0.00  0.00     0.023 H 
ATOM     69  H   LIG d   1       4.084   0.278  -6.959  0.00  0.00     0.023 H 
ENDBRANCH  63  66
ENDBRANCH  60  63
ENDBRANCH  57  60
ENDBRANCH  54  57
ENDBRANCH  52  54
BRANCH  52  70
ATOM     70  O   LIG d   1       3.343   1.486  -1.963  0.00  0.00    -0.388 OA
ATOM     71  H   LIG d   1       2.866   1.191  -2.751  0.00  0.00     0.210 HD
ENDBRANCH  52  70
ENDBRANCH  49  52
ENDBRANCH   1  48
TORSDOF 17
ENDMDL
