MODEL 1
REMARK VINA RESULT:      -7.4      0.000      0.000
REMARK  4 active torsions:
REMARK  status: ('A' for Active; 'I' for Inactive)
REMARK    1  A    between atoms: C_4  and  C_8 
REMARK    2  A    between atoms: C_15  and  O_19 
REMARK    3  A    between atoms: O_19  and  C_20 
REMARK    4  A    between atoms: C_20  and  C_22 
ROOT
ATOM      1  C   LIG d   1       5.875  -0.772  -5.698  0.00  0.00    -0.005 C 
ATOM      2  C   LIG d   1       6.798   0.222  -5.643  0.00  0.00     0.176 A 
ATOM      3  C   LIG d   1       7.802   0.533  -6.672  0.00  0.00     0.232 A 
ATOM      4  O   LIG d   1       7.981  -0.035  -7.735  0.00  0.00    -0.283 OA
ATOM      5  C   LIG d   1       8.542   1.686  -6.128  0.00  0.00     0.068 A 
ATOM      6  C   LIG d   1       9.608   2.448  -6.608  0.00  0.00    -0.044 A 
ATOM      7  C   LIG d   1      10.092   3.487  -5.864  0.00  0.00    -0.018 A 
ATOM      8  C   LIG d   1       9.532   3.778  -4.623  0.00  0.00     0.136 A 
ATOM      9  C   LIG d   1       8.475   3.029  -4.133  0.00  0.00     0.024 A 
ATOM     10  C   LIG d   1       7.966   1.974  -4.880  0.00  0.00     0.143 A 
ATOM     11  O   LIG d   1       6.961   1.107  -4.632  0.00  0.00    -0.451 OA
ATOM     12  H   LIG d   1       5.834  -1.424  -6.558  0.00  0.00     0.066 H 
ATOM     13  H   LIG d   1      10.045   2.222  -7.569  0.00  0.00     0.063 H 
ATOM     14  H   LIG d   1      10.913   4.081  -6.238  0.00  0.00     0.065 H 
ATOM     15  H   LIG d   1       8.045   3.266  -3.171  0.00  0.00     0.069 H 
ENDROOT
BRANCH   1  16
ATOM     16  C   LIG d   1       4.932  -0.961  -4.587  0.00  0.00     0.015 A 
ATOM     17  C   LIG d   1       3.610  -0.510  -4.701  0.00  0.00     0.050 A 
ATOM     18  C   LIG d   1       2.732  -0.692  -3.653  0.00  0.00    -0.043 A 
ATOM     19 CL   LIG d   1       3.079   0.273  -6.156  0.00  0.00    -0.083 Cl
ATOM     20  C   LIG d   1       3.154  -1.317  -2.491  0.00  0.00    -0.059 A 
ATOM     21  H   LIG d   1       1.713  -0.346  -3.738  0.00  0.00     0.063 H 
ATOM     22  C   LIG d   1       4.457  -1.765  -2.370  0.00  0.00    -0.043 A 
ATOM     23  H   LIG d   1       2.460  -1.456  -1.674  0.00  0.00     0.062 H 
ATOM     24  C   LIG d   1       5.348  -1.598  -3.411  0.00  0.00     0.050 A 
ATOM     25  H   LIG d   1       4.777  -2.252  -1.461  0.00  0.00     0.063 H 
ATOM     26 CL   LIG d   1       6.981  -2.168  -3.260  0.00  0.00    -0.083 Cl
ENDBRANCH   1  16
BRANCH   8  27
ATOM     27  O   LIG d   1      10.023   4.809  -3.889  0.00  0.00    -0.422 OA
BRANCH  27  28
ATOM     28  C   LIG d   1      10.561   4.528  -2.683  0.00  0.00     0.351 C 
ATOM     29  O   LIG d   1      11.021   3.424  -2.464  0.00  0.00    -0.244 OA
BRANCH  28  30
ATOM     30  C   LIG d   1      10.591   5.553  -1.639  0.00  0.00     0.097 A 
ATOM     31  S   LIG d   1      11.521   5.580  -0.116  0.00  0.00    -0.090 SA
ATOM     32  C   LIG d   1      10.977   7.110   0.493  0.00  0.00    -0.024 A 
ATOM     33  C   LIG d   1      10.115   7.538  -0.467  0.00  0.00    -0.054 A 
ATOM     34  H   LIG d   1      11.254   7.601   1.414  0.00  0.00     0.069 H 
ATOM     35  C   LIG d   1       9.901   6.755  -1.571  0.00  0.00    -0.041 A 
ATOM     36  H   LIG d   1       9.606   8.484  -0.360  0.00  0.00     0.062 H 
ATOM     37  H   LIG d   1       9.224   7.059  -2.356  0.00  0.00     0.063 H 
ENDBRANCH  28  30
ENDBRANCH  27  28
ENDBRANCH   8  27
TORSDOF 4
ENDMDL
MODEL 2
REMARK VINA RESULT:      -7.4      0.058      1.748
REMARK  4 active torsions:
REMARK  status: ('A' for Active; 'I' for Inactive)
REMARK    1  A    between atoms: C_4  and  C_8 
REMARK    2  A    between atoms: C_15  and  O_19 
REMARK    3  A    between atoms: O_19  and  C_20 
REMARK    4  A    between atoms: C_20  and  C_22 
ROOT
ATOM      1  C   LIG d   1       5.835  -0.768  -5.703  0.00  0.00    -0.005 C 
ATOM      2  C   LIG d   1       6.771   0.213  -5.642  0.00  0.00     0.176 A 
ATOM      3  C   LIG d   1       7.781   0.515  -6.668  0.00  0.00     0.232 A 
ATOM      4  O   LIG d   1       7.954  -0.051  -7.733  0.00  0.00    -0.283 OA
ATOM      5  C   LIG d   1       8.537   1.656  -6.118  0.00  0.00     0.068 A 
ATOM      6  C   LIG d   1       9.613   2.405  -6.593  0.00  0.00    -0.044 A 
ATOM      7  C   LIG d   1      10.111   3.434  -5.844  0.00  0.00    -0.018 A 
ATOM      8  C   LIG d   1       9.553   3.727  -4.602  0.00  0.00     0.136 A 
ATOM      9  C   LIG d   1       8.485   2.991  -4.117  0.00  0.00     0.024 A 
ATOM     10  C   LIG d   1       7.963   1.946  -4.870  0.00  0.00     0.143 A 
ATOM     11  O   LIG d   1       6.945   1.092  -4.626  0.00  0.00    -0.451 OA
ATOM     12  H   LIG d   1       5.786  -1.415  -6.566  0.00  0.00     0.066 H 
ATOM     13  H   LIG d   1      10.049   2.177  -7.555  0.00  0.00     0.063 H 
ATOM     14  H   LIG d   1      10.940   4.018  -6.213  0.00  0.00     0.065 H 
ATOM     15  H   LIG d   1       8.057   3.230  -3.154  0.00  0.00     0.069 H 
ENDROOT
BRANCH   1  16
ATOM     16  C   LIG d   1       4.888  -0.948  -4.594  0.00  0.00     0.015 A 
ATOM     17  C   LIG d   1       5.299  -1.581  -3.413  0.00  0.00     0.050 A 
ATOM     18  C   LIG d   1       4.403  -1.746  -2.377  0.00  0.00    -0.043 A 
ATOM     19 CL   LIG d   1       6.929  -2.155  -3.254  0.00  0.00    -0.083 Cl
ATOM     20  C   LIG d   1       3.102  -1.289  -2.502  0.00  0.00    -0.059 A 
ATOM     21  H   LIG d   1       4.717  -2.232  -1.466  0.00  0.00     0.063 H 
ATOM     22  C   LIG d   1       2.688  -0.662  -3.664  0.00  0.00    -0.043 A 
ATOM     23  H   LIG d   1       2.406  -1.421  -1.686  0.00  0.00     0.062 H 
ATOM     24  C   LIG d   1       3.572  -0.483  -4.709  0.00  0.00     0.050 A 
ATOM     25  H   LIG d   1       1.672  -0.308  -3.753  0.00  0.00     0.063 H 
ATOM     26 CL   LIG d   1       3.052   0.310  -6.163  0.00  0.00    -0.083 Cl
ENDBRANCH   1  16
BRANCH   8  27
ATOM     27  O   LIG d   1      10.058   4.748  -3.863  0.00  0.00    -0.422 OA
BRANCH  27  28
ATOM     28  C   LIG d   1      10.522   4.466  -2.627  0.00  0.00     0.351 C 
ATOM     29  O   LIG d   1      10.899   3.341  -2.361  0.00  0.00    -0.244 OA
BRANCH  28  30
ATOM     30  C   LIG d   1      10.572   5.514  -1.608  0.00  0.00     0.097 A 
ATOM     31  S   LIG d   1      11.517   5.568  -0.095  0.00  0.00    -0.090 SA
ATOM     32  C   LIG d   1      10.994   7.117   0.484  0.00  0.00    -0.024 A 
ATOM     33  C   LIG d   1      10.127   7.531  -0.477  0.00  0.00    -0.054 A 
ATOM     34  H   LIG d   1      11.285   7.627   1.390  0.00  0.00     0.069 H 
ATOM     35  C   LIG d   1       9.893   6.724  -1.561  0.00  0.00    -0.041 A 
ATOM     36  H   LIG d   1       9.627   8.484  -0.388  0.00  0.00     0.062 H 
ATOM     37  H   LIG d   1       9.211   7.016  -2.346  0.00  0.00     0.063 H 
ENDBRANCH  28  30
ENDBRANCH  27  28
ENDBRANCH   8  27
TORSDOF 4
ENDMDL
MODEL 3
REMARK VINA RESULT:      -7.2      5.532      8.466
REMARK  4 active torsions:
REMARK  status: ('A' for Active; 'I' for Inactive)
REMARK    1  A    between atoms: C_4  and  C_8 
REMARK    2  A    between atoms: C_15  and  O_19 
REMARK    3  A    between atoms: O_19  and  C_20 
REMARK    4  A    between atoms: C_20  and  C_22 
ROOT
ATOM      1  C   LIG d   1       6.246  -2.280  -3.766  0.00  0.00    -0.005 C 
ATOM      2  C   LIG d   1       5.875  -2.654  -5.017  0.00  0.00     0.176 A 
ATOM      3  C   LIG d   1       6.326  -3.856  -5.734  0.00  0.00     0.232 A 
ATOM      4  O   LIG d   1       7.100  -4.713  -5.341  0.00  0.00    -0.283 OA
ATOM      5  C   LIG d   1       5.633  -3.793  -7.034  0.00  0.00     0.068 A 
ATOM      6  C   LIG d   1       5.632  -4.622  -8.156  0.00  0.00    -0.044 A 
ATOM      7  C   LIG d   1       4.865  -4.300  -9.240  0.00  0.00    -0.018 A 
ATOM      8  C   LIG d   1       4.095  -3.139  -9.231  0.00  0.00     0.136 A 
ATOM      9  C   LIG d   1       4.087  -2.306  -8.125  0.00  0.00     0.024 A 
ATOM     10  C   LIG d   1       4.856  -2.623  -7.011  0.00  0.00     0.143 A 
ATOM     11  O   LIG d   1       5.020  -1.990  -5.830  0.00  0.00    -0.451 OA
ATOM     12  H   LIG d   1       6.938  -2.889  -3.203  0.00  0.00     0.066 H 
ATOM     13  H   LIG d   1       6.232  -5.520  -8.166  0.00  0.00     0.063 H 
ATOM     14  H   LIG d   1       4.860  -4.943 -10.107  0.00  0.00     0.065 H 
ATOM     15  H   LIG d   1       3.483  -1.411  -8.127  0.00  0.00     0.069 H 
ENDROOT
BRANCH   1  16
ATOM     16  C   LIG d   1       5.707  -1.046  -3.178  0.00  0.00     0.015 A 
ATOM     17  C   LIG d   1       4.526  -1.082  -2.426  0.00  0.00     0.050 A 
ATOM     18  C   LIG d   1       4.028   0.082  -1.878  0.00  0.00    -0.043 A 
ATOM     19 CL   LIG d   1       3.693  -2.584  -2.183  0.00  0.00    -0.083 Cl
ATOM     20  C   LIG d   1       4.690   1.282  -2.071  0.00  0.00    -0.059 A 
ATOM     21  H   LIG d   1       3.118   0.058  -1.297  0.00  0.00     0.063 H 
ATOM     22  C   LIG d   1       5.858   1.327  -2.812  0.00  0.00    -0.043 A 
ATOM     23  H   LIG d   1       4.294   2.190  -1.638  0.00  0.00     0.062 H 
ATOM     24  C   LIG d   1       6.375   0.172  -3.362  0.00  0.00     0.050 A 
ATOM     25  H   LIG d   1       6.368   2.267  -2.957  0.00  0.00     0.063 H 
ATOM     26 CL   LIG d   1       7.843   0.229  -4.286  0.00  0.00    -0.083 Cl
ENDBRANCH   1  16
BRANCH   8  27
ATOM     27  O   LIG d   1       3.340  -2.826 -10.315  0.00  0.00    -0.422 OA
BRANCH  27  28
ATOM     28  C   LIG d   1       2.399  -1.868 -10.176  0.00  0.00     0.351 C 
ATOM     29  O   LIG d   1       1.223  -2.174 -10.127  0.00  0.00    -0.244 OA
BRANCH  28  30
ATOM     30  C   LIG d   1       2.793  -0.462 -10.083  0.00  0.00     0.097 A 
ATOM     31  S   LIG d   1       3.944   0.452 -11.096  0.00  0.00    -0.090 SA
ATOM     32  C   LIG d   1       3.808   1.995 -10.315  0.00  0.00    -0.024 A 
ATOM     33  C   LIG d   1       2.909   1.762  -9.322  0.00  0.00    -0.054 A 
ATOM     34  H   LIG d   1       4.317   2.916 -10.557  0.00  0.00     0.069 H 
ATOM     35  C   LIG d   1       2.375   0.507  -9.183  0.00  0.00    -0.041 A 
ATOM     36  H   LIG d   1       2.621   2.557  -8.650  0.00  0.00     0.062 H 
ATOM     37  H   LIG d   1       1.659   0.282  -8.407  0.00  0.00     0.063 H 
ENDBRANCH  28  30
ENDBRANCH  27  28
ENDBRANCH   8  27
TORSDOF 4
ENDMDL
MODEL 4
REMARK VINA RESULT:      -7.1      7.219     11.346
REMARK  4 active torsions:
REMARK  status: ('A' for Active; 'I' for Inactive)
REMARK    1  A    between atoms: C_4  and  C_8 
REMARK    2  A    between atoms: C_15  and  O_19 
REMARK    3  A    between atoms: O_19  and  C_20 
REMARK    4  A    between atoms: C_20  and  C_22 
ROOT
ATOM      1  C   LIG d   1       5.832  -1.769  -4.620  0.00  0.00    -0.005 C 
ATOM      2  C   LIG d   1       5.894  -3.092  -4.916  0.00  0.00     0.176 A 
ATOM      3  C   LIG d   1       7.107  -3.924  -4.927  0.00  0.00     0.232 A 
ATOM      4  O   LIG d   1       8.249  -3.580  -4.678  0.00  0.00    -0.283 OA
ATOM      5  C   LIG d   1       6.630  -5.267  -5.306  0.00  0.00     0.068 A 
ATOM      6  C   LIG d   1       7.274  -6.490  -5.493  0.00  0.00    -0.044 A 
ATOM      7  C   LIG d   1       6.550  -7.594  -5.848  0.00  0.00    -0.018 A 
ATOM      8  C   LIG d   1       5.174  -7.496  -6.035  0.00  0.00     0.136 A 
ATOM      9  C   LIG d   1       4.522  -6.287  -5.855  0.00  0.00     0.024 A 
ATOM     10  C   LIG d   1       5.242  -5.157  -5.488  0.00  0.00     0.143 A 
ATOM     11  O   LIG d   1       4.850  -3.886  -5.254  0.00  0.00    -0.451 OA
ATOM     12  H   LIG d   1       6.731  -1.230  -4.362  0.00  0.00     0.066 H 
ATOM     13  H   LIG d   1       8.342  -6.567  -5.351  0.00  0.00     0.063 H 
ATOM     14  H   LIG d   1       7.048  -8.542  -5.987  0.00  0.00     0.065 H 
ATOM     15  H   LIG d   1       3.453  -6.224  -5.999  0.00  0.00     0.069 H 
ENDROOT
BRANCH   1  16
ATOM     16  C   LIG d   1       4.540  -1.069  -4.651  0.00  0.00     0.015 A 
ATOM     17  C   LIG d   1       4.126  -0.404  -5.813  0.00  0.00     0.050 A 
ATOM     18  C   LIG d   1       2.911   0.249  -5.832  0.00  0.00    -0.043 A 
ATOM     19 CL   LIG d   1       5.138  -0.403  -7.222  0.00  0.00    -0.083 Cl
ATOM     20  C   LIG d   1       2.103   0.250  -4.709  0.00  0.00    -0.059 A 
ATOM     21  H   LIG d   1       2.591   0.762  -6.726  0.00  0.00     0.063 H 
ATOM     22  C   LIG d   1       2.503  -0.405  -3.557  0.00  0.00    -0.043 A 
ATOM     23  H   LIG d   1       1.152   0.763  -4.732  0.00  0.00     0.062 H 
ATOM     24  C   LIG d   1       3.712  -1.070  -3.521  0.00  0.00     0.050 A 
ATOM     25  H   LIG d   1       1.865  -0.400  -2.686  0.00  0.00     0.063 H 
ATOM     26 CL   LIG d   1       4.208  -1.896  -2.077  0.00  0.00    -0.083 Cl
ENDBRANCH   1  16
BRANCH   8  27
ATOM     27  O   LIG d   1       4.465  -8.597  -6.393  0.00  0.00    -0.422 OA
BRANCH  27  28
ATOM     28  C   LIG d   1       4.389  -9.616  -5.511  0.00  0.00     0.351 C 
ATOM     29  O   LIG d   1       3.972  -9.417  -4.386  0.00  0.00    -0.244 OA
BRANCH  28  30
ATOM     30  C   LIG d   1       4.810 -10.960  -5.908  0.00  0.00     0.097 A 
ATOM     31  S   LIG d   1       6.456 -11.579  -6.213  0.00  0.00    -0.090 SA
ATOM     32  C   LIG d   1       6.047 -13.215  -6.617  0.00  0.00    -0.024 A 
ATOM     33  C   LIG d   1       4.692 -13.232  -6.513  0.00  0.00    -0.054 A 
ATOM     34  H   LIG d   1       6.709 -14.024  -6.889  0.00  0.00     0.069 H 
ATOM     35  C   LIG d   1       4.034 -12.084  -6.150  0.00  0.00    -0.041 A 
ATOM     36  H   LIG d   1       4.141 -14.138  -6.713  0.00  0.00     0.062 H 
ATOM     37  H   LIG d   1       2.959 -12.056  -6.056  0.00  0.00     0.063 H 
ENDBRANCH  28  30
ENDBRANCH  27  28
ENDBRANCH   8  27
TORSDOF 4
ENDMDL
MODEL 5
REMARK VINA RESULT:      -7.1      6.022     10.205
REMARK  4 active torsions:
REMARK  status: ('A' for Active; 'I' for Inactive)
REMARK    1  A    between atoms: C_4  and  C_8 
REMARK    2  A    between atoms: C_15  and  O_19 
REMARK    3  A    between atoms: O_19  and  C_20 
REMARK    4  A    between atoms: C_20  and  C_22 
ROOT
ATOM      1  C   LIG d   1       4.688  -0.464  -5.906  0.00  0.00    -0.005 C 
ATOM      2  C   LIG d   1       4.662  -1.784  -6.223  0.00  0.00     0.176 A 
ATOM      3  C   LIG d   1       4.712  -2.353  -7.578  0.00  0.00     0.232 A 
ATOM      4  O   LIG d   1       4.785  -1.753  -8.637  0.00  0.00    -0.283 OA
ATOM      5  C   LIG d   1       4.656  -3.811  -7.369  0.00  0.00     0.068 A 
ATOM      6  C   LIG d   1       4.666  -4.901  -8.240  0.00  0.00    -0.044 A 
ATOM      7  C   LIG d   1       4.606  -6.172  -7.741  0.00  0.00    -0.018 A 
ATOM      8  C   LIG d   1       4.525  -6.380  -6.366  0.00  0.00     0.136 A 
ATOM      9  C   LIG d   1       4.513  -5.307  -5.490  0.00  0.00     0.024 A 
ATOM     10  C   LIG d   1       4.579  -4.009  -5.981  0.00  0.00     0.143 A 
ATOM     11  O   LIG d   1       4.585  -2.815  -5.349  0.00  0.00    -0.451 OA
ATOM     12  H   LIG d   1       4.751   0.278  -6.688  0.00  0.00     0.066 H 
ATOM     13  H   LIG d   1       4.726  -4.741  -9.306  0.00  0.00     0.063 H 
ATOM     14  H   LIG d   1       4.618  -7.016  -8.414  0.00  0.00     0.065 H 
ATOM     15  H   LIG d   1       4.454  -5.480  -4.426  0.00  0.00     0.069 H 
ENDROOT
BRANCH   1  16
ATOM     16  C   LIG d   1       4.630  -0.046  -4.498  0.00  0.00     0.015 A 
ATOM     17  C   LIG d   1       5.806   0.048  -3.743  0.00  0.00     0.050 A 
ATOM     18  C   LIG d   1       5.742   0.441  -2.422  0.00  0.00    -0.043 A 
ATOM     19 CL   LIG d   1       7.338  -0.328  -4.466  0.00  0.00    -0.083 Cl
ATOM     20  C   LIG d   1       4.521   0.742  -1.844  0.00  0.00    -0.059 A 
ATOM     21  H   LIG d   1       6.647   0.515  -1.838  0.00  0.00     0.063 H 
ATOM     22  C   LIG d   1       3.354   0.652  -2.583  0.00  0.00    -0.043 A 
ATOM     23  H   LIG d   1       4.479   1.050  -0.808  0.00  0.00     0.062 H 
ATOM     24  C   LIG d   1       3.399   0.266  -3.907  0.00  0.00     0.050 A 
ATOM     25  H   LIG d   1       2.406   0.889  -2.123  0.00  0.00     0.063 H 
ATOM     26 CL   LIG d   1       1.935   0.161  -4.834  0.00  0.00    -0.083 Cl
ENDBRANCH   1  16
BRANCH   8  27
ATOM     27  O   LIG d   1       4.461  -7.646  -5.881  0.00  0.00    -0.422 OA
BRANCH  27  28
ATOM     28  C   LIG d   1       5.570  -8.163  -5.311  0.00  0.00     0.351 C 
ATOM     29  O   LIG d   1       6.666  -7.726  -5.607  0.00  0.00    -0.244 OA
BRANCH  28  30
ATOM     30  C   LIG d   1       5.454  -9.248  -4.337  0.00  0.00     0.097 A 
ATOM     31  S   LIG d   1       6.746 -10.135  -3.482  0.00  0.00    -0.090 SA
ATOM     32  C   LIG d   1       5.752 -11.210  -2.552  0.00  0.00    -0.024 A 
ATOM     33  C   LIG d   1       4.490 -10.865  -2.924  0.00  0.00    -0.054 A 
ATOM     34  H   LIG d   1       6.061 -11.971  -1.851  0.00  0.00     0.069 H 
ATOM     35  C   LIG d   1       4.313  -9.860  -3.840  0.00  0.00    -0.041 A 
ATOM     36  H   LIG d   1       3.639 -11.377  -2.502  0.00  0.00     0.062 H 
ATOM     37  H   LIG d   1       3.327  -9.557  -4.161  0.00  0.00     0.063 H 
ENDBRANCH  28  30
ENDBRANCH  27  28
ENDBRANCH   8  27
TORSDOF 4
ENDMDL
MODEL 6
REMARK VINA RESULT:      -7.1      1.590      2.050
REMARK  4 active torsions:
REMARK  status: ('A' for Active; 'I' for Inactive)
REMARK    1  A    between atoms: C_4  and  C_8 
REMARK    2  A    between atoms: C_15  and  O_19 
REMARK    3  A    between atoms: O_19  and  C_20 
REMARK    4  A    between atoms: C_20  and  C_22 
ROOT
ATOM      1  C   LIG d   1       4.774  -0.961  -6.330  0.00  0.00    -0.005 C 
ATOM      2  C   LIG d   1       5.823  -0.131  -6.565  0.00  0.00     0.176 A 
ATOM      3  C   LIG d   1       6.389   0.202  -7.880  0.00  0.00     0.232 A 
ATOM      4  O   LIG d   1       6.027  -0.200  -8.972  0.00  0.00    -0.283 OA
ATOM      5  C   LIG d   1       7.494   1.132  -7.582  0.00  0.00     0.068 A 
ATOM      6  C   LIG d   1       8.417   1.805  -8.383  0.00  0.00    -0.044 A 
ATOM      7  C   LIG d   1       9.346   2.627  -7.808  0.00  0.00    -0.018 A 
ATOM      8  C   LIG d   1       9.380   2.783  -6.425  0.00  0.00     0.136 A 
ATOM      9  C   LIG d   1       8.471   2.120  -5.617  0.00  0.00     0.024 A 
ATOM     10  C   LIG d   1       7.516   1.286  -6.186  0.00  0.00     0.143 A 
ATOM     11  O   LIG d   1       6.536   0.542  -5.630  0.00  0.00    -0.451 OA
ATOM     12  H   LIG d   1       4.276  -1.448  -7.155  0.00  0.00     0.066 H 
ATOM     13  H   LIG d   1       8.394   1.682  -9.455  0.00  0.00     0.063 H 
ATOM     14  H   LIG d   1      10.058   3.151  -8.428  0.00  0.00     0.065 H 
ATOM     15  H   LIG d   1       8.504   2.251  -4.546  0.00  0.00     0.069 H 
ENDROOT
BRANCH   1  16
ATOM     16  C   LIG d   1       4.319  -1.197  -4.953  0.00  0.00     0.015 A 
ATOM     17  C   LIG d   1       3.287  -0.419  -4.410  0.00  0.00     0.050 A 
ATOM     18  C   LIG d   1       2.866  -0.648  -3.116  0.00  0.00    -0.043 A 
ATOM     19 CL   LIG d   1       2.542   0.826  -5.361  0.00  0.00    -0.083 Cl
ATOM     20  C   LIG d   1       3.460  -1.641  -2.356  0.00  0.00    -0.059 A 
ATOM     21  H   LIG d   1       2.071  -0.051  -2.695  0.00  0.00     0.063 H 
ATOM     22  C   LIG d   1       4.479  -2.414  -2.885  0.00  0.00    -0.043 A 
ATOM     23  H   LIG d   1       3.124  -1.815  -1.343  0.00  0.00     0.062 H 
ATOM     24  C   LIG d   1       4.909  -2.204  -4.179  0.00  0.00     0.050 A 
ATOM     25  H   LIG d   1       4.935  -3.186  -2.284  0.00  0.00     0.063 H 
ATOM     26 CL   LIG d   1       6.183  -3.179  -4.842  0.00  0.00    -0.083 Cl
ENDBRANCH   1  16
BRANCH   8  27
ATOM     27  O   LIG d   1      10.310   3.597  -5.863  0.00  0.00    -0.422 OA
BRANCH  27  28
ATOM     28  C   LIG d   1       9.941   4.855  -5.545  0.00  0.00     0.351 C 
ATOM     29  O   LIG d   1       9.590   5.626  -6.417  0.00  0.00    -0.244 OA
BRANCH  28  30
ATOM     30  C   LIG d   1       9.962   5.292  -4.148  0.00  0.00     0.097 A 
ATOM     31  S   LIG d   1      10.550   4.421  -2.705  0.00  0.00    -0.090 SA
ATOM     32  C   LIG d   1      10.210   5.634  -1.513  0.00  0.00    -0.024 A 
ATOM     33  C   LIG d   1       9.664   6.642  -2.243  0.00  0.00    -0.054 A 
ATOM     34  H   LIG d   1      10.387   5.595  -0.449  0.00  0.00     0.069 H 
ATOM     35  C   LIG d   1       9.526   6.489  -3.599  0.00  0.00    -0.041 A 
ATOM     36  H   LIG d   1       9.343   7.553  -1.760  0.00  0.00     0.062 H 
ATOM     37  H   LIG d   1       9.097   7.267  -4.213  0.00  0.00     0.063 H 
ENDBRANCH  28  30
ENDBRANCH  27  28
ENDBRANCH   8  27
TORSDOF 4
ENDMDL
MODEL 7
REMARK VINA RESULT:      -6.9      6.660      9.447
REMARK  4 active torsions:
REMARK  status: ('A' for Active; 'I' for Inactive)
REMARK    1  A    between atoms: C_4  and  C_8 
REMARK    2  A    between atoms: C_15  and  O_19 
REMARK    3  A    between atoms: O_19  and  C_20 
REMARK    4  A    between atoms: C_20  and  C_22 
ROOT
ATOM      1  C   LIG d   1       5.358  -9.723  -5.434  0.00  0.00    -0.005 C 
ATOM      2  C   LIG d   1       5.062  -8.478  -5.886  0.00  0.00     0.176 A 
ATOM      3  C   LIG d   1       4.504  -8.143  -7.205  0.00  0.00     0.232 A 
ATOM      4  O   LIG d   1       4.214  -8.908  -8.109  0.00  0.00    -0.283 OA
ATOM      5  C   LIG d   1       4.372  -6.674  -7.188  0.00  0.00     0.068 A 
ATOM      6  C   LIG d   1       3.912  -5.747  -8.123  0.00  0.00    -0.044 A 
ATOM      7  C   LIG d   1       3.904  -4.415  -7.815  0.00  0.00    -0.018 A 
ATOM      8  C   LIG d   1       4.365  -3.983  -6.574  0.00  0.00     0.136 A 
ATOM      9  C   LIG d   1       4.826  -4.892  -5.636  0.00  0.00     0.024 A 
ATOM     10  C   LIG d   1       4.834  -6.250  -5.932  0.00  0.00     0.143 A 
ATOM     11  O   LIG d   1       5.225  -7.319  -5.205  0.00  0.00    -0.451 OA
ATOM     12  H   LIG d   1       5.186 -10.582  -6.065  0.00  0.00     0.066 H 
ATOM     13  H   LIG d   1       3.558  -6.081  -9.087  0.00  0.00     0.063 H 
ATOM     14  H   LIG d   1       3.544  -3.698  -8.537  0.00  0.00     0.065 H 
ATOM     15  H   LIG d   1       5.177  -4.546  -4.676  0.00  0.00     0.069 H 
ENDROOT
BRANCH   1  16
ATOM     16  C   LIG d   1       5.913  -9.901  -4.085  0.00  0.00     0.015 A 
ATOM     17  C   LIG d   1       5.081 -10.293  -3.027  0.00  0.00     0.050 A 
ATOM     18  C   LIG d   1       5.611 -10.458  -1.764  0.00  0.00    -0.043 A 
ATOM     19 CL   LIG d   1       3.391 -10.570  -3.305  0.00  0.00    -0.083 Cl
ATOM     20  C   LIG d   1       6.960 -10.237  -1.540  0.00  0.00    -0.059 A 
ATOM     21  H   LIG d   1       4.973 -10.760  -0.948  0.00  0.00     0.063 H 
ATOM     22  C   LIG d   1       7.788  -9.850  -2.579  0.00  0.00    -0.043 A 
ATOM     23  H   LIG d   1       7.368 -10.368  -0.548  0.00  0.00     0.062 H 
ATOM     24  C   LIG d   1       7.277  -9.687  -3.850  0.00  0.00     0.050 A 
ATOM     25  H   LIG d   1       8.838  -9.681  -2.395  0.00  0.00     0.063 H 
ATOM     26 CL   LIG d   1       8.320  -9.208  -5.153  0.00  0.00    -0.083 Cl
ENDBRANCH   1  16
BRANCH   8  27
ATOM     27  O   LIG d   1       4.358  -2.658  -6.280  0.00  0.00    -0.422 OA
BRANCH  27  28
ATOM     28  C   LIG d   1       5.330  -2.183  -5.472  0.00  0.00     0.351 C 
ATOM     29  O   LIG d   1       6.489  -2.202  -5.838  0.00  0.00    -0.244 OA
BRANCH  28  30
ATOM     30  C   LIG d   1       4.988  -1.646  -4.154  0.00  0.00     0.097 A 
ATOM     31  S   LIG d   1       5.285  -0.015  -3.493  0.00  0.00    -0.090 SA
ATOM     32  C   LIG d   1       4.580  -0.238  -1.924  0.00  0.00    -0.024 A 
ATOM     33  C   LIG d   1       4.154  -1.529  -1.956  0.00  0.00    -0.054 A 
ATOM     34  H   LIG d   1       4.501   0.475  -1.117  0.00  0.00     0.069 H 
ATOM     35  C   LIG d   1       4.354  -2.272  -3.091  0.00  0.00    -0.041 A 
ATOM     36  H   LIG d   1       3.665  -1.963  -1.096  0.00  0.00     0.062 H 
ATOM     37  H   LIG d   1       4.031  -3.300  -3.156  0.00  0.00     0.063 H 
ENDBRANCH  28  30
ENDBRANCH  27  28
ENDBRANCH   8  27
TORSDOF 4
ENDMDL
MODEL 8
REMARK VINA RESULT:      -6.9      2.083      3.114
REMARK  4 active torsions:
REMARK  status: ('A' for Active; 'I' for Inactive)
REMARK    1  A    between atoms: C_4  and  C_8 
REMARK    2  A    between atoms: C_15  and  O_19 
REMARK    3  A    between atoms: O_19  and  C_20 
REMARK    4  A    between atoms: C_20  and  C_22 
ROOT
ATOM      1  C   LIG d   1       5.535  -0.653  -5.916  0.00  0.00    -0.005 C 
ATOM      2  C   LIG d   1       6.554   0.244  -5.899  0.00  0.00     0.176 A 
ATOM      3  C   LIG d   1       7.416   0.599  -7.037  0.00  0.00     0.232 A 
ATOM      4  O   LIG d   1       7.371   0.161  -8.173  0.00  0.00    -0.283 OA
ATOM      5  C   LIG d   1       8.347   1.606  -6.494  0.00  0.00     0.068 A 
ATOM      6  C   LIG d   1       9.400   2.331  -7.052  0.00  0.00    -0.044 A 
ATOM      7  C   LIG d   1      10.098   3.220  -6.284  0.00  0.00    -0.018 A 
ATOM      8  C   LIG d   1       9.767   3.394  -4.942  0.00  0.00     0.136 A 
ATOM      9  C   LIG d   1       8.725   2.680  -4.374  0.00  0.00     0.024 A 
ATOM     10  C   LIG d   1       8.002   1.777  -5.144  0.00  0.00     0.143 A 
ATOM     11  O   LIG d   1       6.961   0.974  -4.834  0.00  0.00    -0.451 OA
ATOM     12  H   LIG d   1       5.296  -1.182  -6.826  0.00  0.00     0.066 H 
ATOM     13  H   LIG d   1       9.660   2.195  -8.092  0.00  0.00     0.063 H 
ATOM     14  H   LIG d   1      10.910   3.785  -6.717  0.00  0.00     0.065 H 
ATOM     15  H   LIG d   1       8.474   2.826  -3.334  0.00  0.00     0.069 H 
ENDROOT
BRANCH   1  16
ATOM     16  C   LIG d   1       4.759  -0.904  -4.694  0.00  0.00     0.015 A 
ATOM     17  C   LIG d   1       5.313  -1.657  -3.650  0.00  0.00     0.050 A 
ATOM     18  C   LIG d   1       4.576  -1.887  -2.506  0.00  0.00    -0.043 A 
ATOM     19 CL   LIG d   1       6.919  -2.297  -3.794  0.00  0.00    -0.083 Cl
ATOM     20  C   LIG d   1       3.294  -1.377  -2.389  0.00  0.00    -0.059 A 
ATOM     21  H   LIG d   1       5.000  -2.466  -1.700  0.00  0.00     0.063 H 
ATOM     22  C   LIG d   1       2.740  -0.632  -3.415  0.00  0.00    -0.043 A 
ATOM     23  H   LIG d   1       2.723  -1.561  -1.490  0.00  0.00     0.062 H 
ATOM     24  C   LIG d   1       3.464  -0.386  -4.564  0.00  0.00     0.050 A 
ATOM     25  H   LIG d   1       1.740  -0.238  -3.315  0.00  0.00     0.063 H 
ATOM     26 CL   LIG d   1       2.769   0.554  -5.847  0.00  0.00    -0.083 Cl
ENDBRANCH   1  16
BRANCH   8  27
ATOM     27  O   LIG d   1      10.469   4.276  -4.186  0.00  0.00    -0.422 OA
BRANCH  27  28
ATOM     28  C   LIG d   1       9.952   5.510  -4.007  0.00  0.00     0.351 C 
ATOM     29  O   LIG d   1       9.419   5.799  -2.953  0.00  0.00    -0.244 OA
BRANCH  28  30
ATOM     30  C   LIG d   1      10.032   6.500  -5.082  0.00  0.00     0.097 A 
ATOM     31  S   LIG d   1      11.371   6.822  -6.217  0.00  0.00    -0.090 SA
ATOM     32  C   LIG d   1      10.642   8.110  -7.120  0.00  0.00    -0.024 A 
ATOM     33  C   LIG d   1       9.425   8.253  -6.531  0.00  0.00    -0.054 A 
ATOM     34  H   LIG d   1      11.056   8.667  -7.948  0.00  0.00     0.069 H 
ATOM     35  C   LIG d   1       9.089   7.437  -5.481  0.00  0.00    -0.041 A 
ATOM     36  H   LIG d   1       8.731   9.001  -6.886  0.00  0.00     0.062 H 
ATOM     37  H   LIG d   1       8.133   7.518  -4.986  0.00  0.00     0.063 H 
ENDBRANCH  28  30
ENDBRANCH  27  28
ENDBRANCH   8  27
TORSDOF 4
ENDMDL
MODEL 9
REMARK VINA RESULT:      -6.8      2.055      2.483
REMARK  4 active torsions:
REMARK  status: ('A' for Active; 'I' for Inactive)
REMARK    1  A    between atoms: C_4  and  C_8 
REMARK    2  A    between atoms: C_15  and  O_19 
REMARK    3  A    between atoms: O_19  and  C_20 
REMARK    4  A    between atoms: C_20  and  C_22 
ROOT
ATOM      1  C   LIG d   1       5.753  -0.744  -5.829  0.00  0.00    -0.005 C 
ATOM      2  C   LIG d   1       6.710   0.218  -5.798  0.00  0.00     0.176 A 
ATOM      3  C   LIG d   1       7.658   0.534  -6.878  0.00  0.00     0.232 A 
ATOM      4  O   LIG d   1       7.752  -0.001  -7.969  0.00  0.00    -0.283 OA
ATOM      5  C   LIG d   1       8.470   1.643  -6.343  0.00  0.00     0.068 A 
ATOM      6  C   LIG d   1       9.528   2.388  -6.863  0.00  0.00    -0.044 A 
ATOM      7  C   LIG d   1      10.092   3.384  -6.116  0.00  0.00    -0.018 A 
ATOM      8  C   LIG d   1       9.621   3.648  -4.833  0.00  0.00     0.136 A 
ATOM      9  C   LIG d   1       8.571   2.915  -4.303  0.00  0.00     0.024 A 
ATOM     10  C   LIG d   1       7.982   1.904  -5.052  0.00  0.00     0.143 A 
ATOM     11  O   LIG d   1       6.965   1.061  -4.770  0.00  0.00    -0.451 OA
ATOM     12  H   LIG d   1       5.636  -1.363  -6.706  0.00  0.00     0.066 H 
ATOM     13  H   LIG d   1       9.897   2.183  -7.857  0.00  0.00     0.063 H 
ATOM     14  H   LIG d   1      10.908   3.964  -6.521  0.00  0.00     0.065 H 
ATOM     15  H   LIG d   1       8.210   3.131  -3.308  0.00  0.00     0.069 H 
ENDROOT
BRANCH   1  16
ATOM     16  C   LIG d   1       4.875  -0.943  -4.667  0.00  0.00     0.015 A 
ATOM     17  C   LIG d   1       3.561  -0.455  -4.686  0.00  0.00     0.050 A 
ATOM     18  C   LIG d   1       2.744  -0.647  -3.591  0.00  0.00    -0.043 A 
ATOM     19 CL   LIG d   1       2.964   0.387  -6.081  0.00  0.00    -0.083 Cl
ATOM     20  C   LIG d   1       3.219  -1.317  -2.477  0.00  0.00    -0.059 A 
ATOM     21  H   LIG d   1       1.732  -0.272  -3.602  0.00  0.00     0.063 H 
ATOM     22  C   LIG d   1       4.515  -1.803  -2.450  0.00  0.00    -0.043 A 
ATOM     23  H   LIG d   1       2.573  -1.464  -1.623  0.00  0.00     0.062 H 
ATOM     24  C   LIG d   1       5.344  -1.626  -3.539  0.00  0.00     0.050 A 
ATOM     25  H   LIG d   1       4.876  -2.325  -1.577  0.00  0.00     0.063 H 
ATOM     26 CL   LIG d   1       6.967  -2.242  -3.506  0.00  0.00    -0.083 Cl
ENDBRANCH   1  16
BRANCH   8  27
ATOM     27  O   LIG d   1      10.191   4.635  -4.097  0.00  0.00    -0.422 OA
BRANCH  27  28
ATOM     28  C   LIG d   1      10.961   5.539  -4.740  0.00  0.00     0.351 C 
ATOM     29  O   LIG d   1      12.141   5.313  -4.923  0.00  0.00    -0.244 OA
BRANCH  28  30
ATOM     30  C   LIG d   1      10.374   6.793  -5.216  0.00  0.00     0.097 A 
ATOM     31  S   LIG d   1      10.293   8.378  -4.401  0.00  0.00    -0.090 SA
ATOM     32  C   LIG d   1       9.460   9.264  -5.637  0.00  0.00    -0.024 A 
ATOM     33  C   LIG d   1       9.270   8.335  -6.610  0.00  0.00    -0.054 A 
ATOM     34  H   LIG d   1       9.162  10.302  -5.632  0.00  0.00     0.069 H 
ATOM     35  C   LIG d   1       9.730   7.058  -6.416  0.00  0.00    -0.041 A 
ATOM     36  H   LIG d   1       8.761   8.600  -7.525  0.00  0.00     0.062 H 
ATOM     37  H   LIG d   1       9.598   6.291  -7.165  0.00  0.00     0.063 H 
ENDBRANCH  28  30
ENDBRANCH  27  28
ENDBRANCH   8  27
TORSDOF 4
ENDMDL
MODEL 10
REMARK VINA RESULT:      -6.7      6.879     10.872
REMARK  4 active torsions:
REMARK  status: ('A' for Active; 'I' for Inactive)
REMARK    1  A    between atoms: C_4  and  C_8 
REMARK    2  A    between atoms: C_15  and  O_19 
REMARK    3  A    between atoms: O_19  and  C_20 
REMARK    4  A    between atoms: C_20  and  C_22 
ROOT
ATOM      1  C   LIG d   1       4.794   0.054  -6.278  0.00  0.00    -0.005 C 
ATOM      2  C   LIG d   1       4.188  -0.213  -7.463  0.00  0.00     0.176 A 
ATOM      3  C   LIG d   1       4.510   0.399  -8.761  0.00  0.00     0.232 A 
ATOM      4  O   LIG d   1       5.361   1.239  -8.998  0.00  0.00    -0.283 OA
ATOM      5  C   LIG d   1       3.573  -0.231  -9.709  0.00  0.00     0.068 A 
ATOM      6  C   LIG d   1       3.365  -0.088 -11.081  0.00  0.00    -0.044 A 
ATOM      7  C   LIG d   1       2.401  -0.831 -11.705  0.00  0.00    -0.018 A 
ATOM      8  C   LIG d   1       1.620  -1.720 -10.971  0.00  0.00     0.136 A 
ATOM      9  C   LIG d   1       1.816  -1.871  -9.608  0.00  0.00     0.024 A 
ATOM     10  C   LIG d   1       2.796  -1.129  -8.960  0.00  0.00     0.143 A 
ATOM     11  O   LIG d   1       3.178  -1.092  -7.665  0.00  0.00    -0.451 OA
ATOM     12  H   LIG d   1       5.594   0.778  -6.231  0.00  0.00     0.066 H 
ATOM     13  H   LIG d   1       3.967   0.603 -11.651  0.00  0.00     0.063 H 
ATOM     14  H   LIG d   1       2.243  -0.724 -12.767  0.00  0.00     0.065 H 
ATOM     15  H   LIG d   1       1.208  -2.567  -9.049  0.00  0.00     0.069 H 
ENDROOT
BRANCH   1  16
ATOM     16  C   LIG d   1       4.360  -0.642  -5.058  0.00  0.00     0.015 A 
ATOM     17  C   LIG d   1       3.265  -0.164  -4.326  0.00  0.00     0.050 A 
ATOM     18  C   LIG d   1       2.865  -0.824  -3.183  0.00  0.00    -0.043 A 
ATOM     19 CL   LIG d   1       2.415   1.254  -4.855  0.00  0.00    -0.083 Cl
ATOM     20  C   LIG d   1       3.542  -1.955  -2.759  0.00  0.00    -0.059 A 
ATOM     21  H   LIG d   1       2.022  -0.458  -2.617  0.00  0.00     0.063 H 
ATOM     22  C   LIG d   1       4.624  -2.434  -3.476  0.00  0.00    -0.043 A 
ATOM     23  H   LIG d   1       3.223  -2.467  -1.862  0.00  0.00     0.062 H 
ATOM     24  C   LIG d   1       5.034  -1.791  -4.626  0.00  0.00     0.050 A 
ATOM     25  H   LIG d   1       5.145  -3.317  -3.138  0.00  0.00     0.063 H 
ATOM     26 CL   LIG d   1       6.387  -2.398  -5.528  0.00  0.00    -0.083 Cl
ENDBRANCH   1  16
BRANCH   8  27
ATOM     27  O   LIG d   1       0.663  -2.449 -11.598  0.00  0.00    -0.422 OA
BRANCH  27  28
ATOM     28  C   LIG d   1       0.831  -3.786 -11.671  0.00  0.00     0.351 C 
ATOM     29  O   LIG d   1       1.812  -4.247 -12.220  0.00  0.00    -0.244 OA
BRANCH  28  30
ATOM     30  C   LIG d   1      -0.169  -4.682 -11.088  0.00  0.00     0.097 A 
ATOM     31  S   LIG d   1      -1.937  -4.708 -11.335  0.00  0.00    -0.090 SA
ATOM     32  C   LIG d   1      -2.325  -6.044 -10.300  0.00  0.00    -0.024 A 
ATOM     33  C   LIG d   1      -1.114  -6.414  -9.804  0.00  0.00    -0.054 A 
ATOM     34  H   LIG d   1      -3.294  -6.474 -10.095  0.00  0.00     0.069 H 
ATOM     35  C   LIG d   1       0.008  -5.729 -10.194  0.00  0.00    -0.041 A 
ATOM     36  H   LIG d   1      -1.038  -7.239  -9.111  0.00  0.00     0.062 H 
ATOM     37  H   LIG d   1       0.987  -5.992  -9.824  0.00  0.00     0.063 H 
ENDBRANCH  28  30
ENDBRANCH  27  28
ENDBRANCH   8  27
TORSDOF 4
ENDMDL
