MODEL 1
REMARK VINA RESULT:      -7.3      0.000      0.000
REMARK  3 active torsions:
REMARK  status: ('A' for Active; 'I' for Inactive)
REMARK    1  A    between atoms: C_11  and  C_18 
REMARK    2  A    between atoms: CA_13  and  C_16 
REMARK    3  A    between atoms: C_22  and  O_24 
ROOT
ATOM      1  C   LIG d   1       4.037   0.998 -10.813  0.00  0.00    -0.061 A 
ATOM      2  C   LIG d   1       3.554   2.153 -10.219  0.00  0.00    -0.060 A 
ATOM      3  C   LIG d   1       3.253   2.219  -8.871  0.00  0.00    -0.038 A 
ATOM      4  C   LIG d   1       3.456   1.062  -8.120  0.00  0.00     0.047 A 
ATOM      5  C   LIG d   1       3.949  -0.119  -8.733  0.00  0.00     0.004 A 
ATOM      6  C   LIG d   1       4.246  -0.157 -10.100  0.00  0.00    -0.052 A 
ATOM      7  C   LIG d   1       4.036  -1.106  -7.680  0.00  0.00    -0.008 A 
ATOM      8  C   LIG d   1       3.616  -0.513  -6.540  0.00  0.00     0.074 A 
ATOM      9  N   LIG d   1       3.266   0.785  -6.796  0.00  0.00    -0.353 N 
ATOM     10  H   LIG d   1       2.934   1.415  -6.137  0.00  0.00     0.166 HD
ATOM     11  C   LIG d   1       3.565  -1.227  -5.211  0.00  0.00     0.045 C 
ATOM     12  H   LIG d   1       2.535  -1.500  -4.980  0.00  0.00     0.097 H 
ATOM     13  CA  LIG d   1       4.024  -3.252  -6.474  0.00  0.00     0.023 C 
ATOM     14  HA  LIG d   1       2.942  -3.379  -6.503  0.00  0.00     0.092 H 
ATOM     15  C   LIG d   1       4.489  -2.543  -7.752  0.00  0.00     0.023 C 
ATOM     16  H   LIG d   1       4.255   1.005 -11.870  0.00  0.00     0.062 H 
ATOM     17  H   LIG d   1       3.410   3.031 -10.830  0.00  0.00     0.062 H 
ATOM     18  H   LIG d   1       2.877   3.125  -8.419  0.00  0.00     0.064 H 
ATOM     19  H   LIG d   1       4.622  -1.052 -10.572  0.00  0.00     0.062 H 
ATOM     20  H   LIG d   1       4.049  -3.025  -8.625  0.00  0.00     0.037 H 
ATOM     21  H   LIG d   1       5.576  -2.583  -7.816  0.00  0.00     0.037 H 
ATOM     22  N   LIG d   1       4.399  -2.446  -5.293  0.00  0.00     0.243 N 
ATOM     23  H1  LIG d   1       4.264  -3.006  -4.444  0.00  0.00     0.203 HD
ATOM     24  H2  LIG d   1       5.387  -2.174  -5.370  0.00  0.00     0.203 HD
ENDROOT
BRANCH  11  25
ATOM     25  C   LIG d   1       4.108  -0.327  -4.130  0.00  0.00     0.010 A 
ATOM     26  C   LIG d   1       5.434   0.059  -4.154  0.00  0.00    -0.011 A 
ATOM     27  C   LIG d   1       5.932   0.888  -3.159  0.00  0.00     0.117 A 
ATOM     28  H   LIG d   1       6.082  -0.284  -4.946  0.00  0.00     0.066 H 
ATOM     29  C   LIG d   1       5.097   1.327  -2.143  0.00  0.00    -0.020 A 
ATOM     30  C   LIG d   1       3.770   0.938  -2.123  0.00  0.00    -0.058 A 
ATOM     31  H   LIG d   1       5.482   1.972  -1.368  0.00  0.00     0.065 H 
ATOM     32  C   LIG d   1       3.276   0.117  -3.119  0.00  0.00    -0.053 A 
ATOM     33  H   LIG d   1       3.120   1.280  -1.332  0.00  0.00     0.062 H 
ATOM     34  H   LIG d   1       2.238  -0.182  -3.104  0.00  0.00     0.062 H 
BRANCH  27  35
ATOM     35  O   LIG d   1       7.236   1.269  -3.181  0.00  0.00    -0.507 OA
ATOM     36  H   LIG d   1       7.434   1.958  -3.828  0.00  0.00     0.292 HD
ENDBRANCH  27  35
ENDBRANCH  11  25
BRANCH  13  37
ATOM     37  C   LIG d   1       4.687  -4.602  -6.377  0.00  0.00     0.090 C 
ATOM     38  O   LIG d   1       5.767  -4.783  -6.886  0.00  0.00    -0.544 OA
ATOM     39  OXT LIG d   1       4.076  -5.603  -5.724  0.00  0.00    -0.544 OA
ENDBRANCH  13  37
TORSDOF 3
ENDMDL
MODEL 2
REMARK VINA RESULT:      -7.3      2.054      5.314
REMARK  3 active torsions:
REMARK  status: ('A' for Active; 'I' for Inactive)
REMARK    1  A    between atoms: C_11  and  C_18 
REMARK    2  A    between atoms: CA_13  and  C_16 
REMARK    3  A    between atoms: C_22  and  O_24 
ROOT
ATOM      1  C   LIG d   1       4.486  -0.375  -1.301  0.00  0.00    -0.061 A 
ATOM      2  C   LIG d   1       4.703   0.923  -1.734  0.00  0.00    -0.060 A 
ATOM      3  C   LIG d   1       4.890   1.234  -3.069  0.00  0.00    -0.038 A 
ATOM      4  C   LIG d   1       4.852   0.177  -3.976  0.00  0.00     0.047 A 
ATOM      5  C   LIG d   1       4.630  -1.152  -3.528  0.00  0.00     0.004 A 
ATOM      6  C   LIG d   1       4.444  -1.437  -2.171  0.00  0.00    -0.052 A 
ATOM      7  C   LIG d   1       4.652  -1.980  -4.712  0.00  0.00    -0.008 A 
ATOM      8  C   LIG d   1       4.873  -1.163  -5.767  0.00  0.00     0.074 A 
ATOM      9  N   LIG d   1       4.994   0.129  -5.333  0.00  0.00    -0.353 N 
ATOM     10  H   LIG d   1       5.156   0.897  -5.904  0.00  0.00     0.166 HD
ATOM     11  C   LIG d   1       4.960  -1.661  -7.190  0.00  0.00     0.045 C 
ATOM     12  H   LIG d   1       6.003  -1.694  -7.504  0.00  0.00     0.097 H 
ATOM     13  CA  LIG d   1       4.975  -3.893  -6.228  0.00  0.00     0.023 C 
ATOM     14  HA  LIG d   1       6.060  -3.811  -6.265  0.00  0.00     0.092 H 
ATOM     15  C   LIG d   1       4.479  -3.473  -4.838  0.00  0.00     0.023 C 
ATOM     16  H   LIG d   1       4.346  -0.558  -0.246  0.00  0.00     0.062 H 
ATOM     17  H   LIG d   1       4.726   1.719  -1.005  0.00  0.00     0.062 H 
ATOM     18  H   LIG d   1       5.058   2.250  -3.395  0.00  0.00     0.064 H 
ATOM     19  H   LIG d   1       4.274  -2.445  -1.823  0.00  0.00     0.062 H 
ATOM     20  H   LIG d   1       5.062  -3.978  -4.068  0.00  0.00     0.037 H 
ATOM     21  H   LIG d   1       3.426  -3.731  -4.734  0.00  0.00     0.037 H 
ATOM     22  N   LIG d   1       4.373  -3.018  -7.256  0.00  0.00     0.243 N 
ATOM     23  H1  LIG d   1       4.550  -3.417  -8.185  0.00  0.00     0.203 HD
ATOM     24  H2  LIG d   1       3.361  -2.956  -7.096  0.00  0.00     0.203 HD
ENDROOT
BRANCH  11  25
ATOM     25  C   LIG d   1       4.184  -0.741  -8.097  0.00  0.00     0.010 A 
ATOM     26  C   LIG d   1       4.793   0.379  -8.629  0.00  0.00    -0.011 A 
ATOM     27  C   LIG d   1       4.079   1.225  -9.464  0.00  0.00     0.117 A 
ATOM     28  H   LIG d   1       5.825   0.595  -8.396  0.00  0.00     0.066 H 
ATOM     29  C   LIG d   1       2.753   0.945  -9.763  0.00  0.00    -0.020 A 
ATOM     30  C   LIG d   1       2.148  -0.177  -9.228  0.00  0.00    -0.058 A 
ATOM     31  H   LIG d   1       2.195   1.602 -10.413  0.00  0.00     0.065 H 
ATOM     32  C   LIG d   1       2.864  -1.021  -8.401  0.00  0.00    -0.053 A 
ATOM     33  H   LIG d   1       1.117  -0.395  -9.460  0.00  0.00     0.062 H 
ATOM     34  H   LIG d   1       2.391  -1.899  -7.987  0.00  0.00     0.062 H 
BRANCH  27  35
ATOM     35  O   LIG d   1       4.676   2.327  -9.989  0.00  0.00    -0.507 OA
ATOM     36  H   LIG d   1       4.366   3.161  -9.612  0.00  0.00     0.292 HD
ENDBRANCH  27  35
ENDBRANCH  11  25
BRANCH  13  37
ATOM     37  C   LIG d   1       4.568  -5.319  -6.498  0.00  0.00     0.090 C 
ATOM     38  O   LIG d   1       3.532  -5.748  -6.049  0.00  0.00    -0.544 OA
ATOM     39  OXT LIG d   1       5.357  -6.112  -7.239  0.00  0.00    -0.544 OA
ENDBRANCH  13  37
TORSDOF 3
ENDMDL
MODEL 3
REMARK VINA RESULT:      -7.2      3.610      6.055
REMARK  3 active torsions:
REMARK  status: ('A' for Active; 'I' for Inactive)
REMARK    1  A    between atoms: C_11  and  C_18 
REMARK    2  A    between atoms: CA_13  and  C_16 
REMARK    3  A    between atoms: C_22  and  O_24 
ROOT
ATOM      1  C   LIG d   1      10.340  -6.400  -3.404  0.00  0.00    -0.061 A 
ATOM      2  C   LIG d   1      10.864  -5.304  -2.737  0.00  0.00    -0.060 A 
ATOM      3  C   LIG d   1      10.257  -4.062  -2.768  0.00  0.00    -0.038 A 
ATOM      4  C   LIG d   1       9.082  -3.951  -3.509  0.00  0.00     0.047 A 
ATOM      5  C   LIG d   1       8.549  -5.075  -4.192  0.00  0.00     0.004 A 
ATOM      6  C   LIG d   1       9.185  -6.321  -4.142  0.00  0.00    -0.052 A 
ATOM      7  C   LIG d   1       7.347  -4.610  -4.845  0.00  0.00    -0.008 A 
ATOM      8  C   LIG d   1       7.211  -3.299  -4.546  0.00  0.00     0.074 A 
ATOM      9  N   LIG d   1       8.246  -2.897  -3.747  0.00  0.00    -0.353 N 
ATOM     10  H   LIG d   1       8.368  -1.999  -3.401  0.00  0.00     0.166 HD
ATOM     11  C   LIG d   1       6.062  -2.455  -5.047  0.00  0.00     0.045 C 
ATOM     12  H   LIG d   1       6.402  -1.825  -5.869  0.00  0.00     0.097 H 
ATOM     13  CA  LIG d   1       5.513  -4.349  -6.467  0.00  0.00     0.023 C 
ATOM     14  HA  LIG d   1       6.117  -3.850  -7.224  0.00  0.00     0.092 H 
ATOM     15  C   LIG d   1       6.378  -5.370  -5.717  0.00  0.00     0.023 C 
ATOM     16  H   LIG d   1      10.857  -7.346  -3.343  0.00  0.00     0.062 H 
ATOM     17  H   LIG d   1      11.776  -5.426  -2.172  0.00  0.00     0.062 H 
ATOM     18  H   LIG d   1      10.675  -3.215  -2.244  0.00  0.00     0.064 H 
ATOM     19  H   LIG d   1       8.784  -7.181  -4.658  0.00  0.00     0.062 H 
ATOM     20  H   LIG d   1       6.926  -5.986  -6.429  0.00  0.00     0.037 H 
ATOM     21  H   LIG d   1       5.741  -6.000  -5.096  0.00  0.00     0.037 H 
ATOM     22  N   LIG d   1       4.983  -3.351  -5.515  0.00  0.00     0.243 N 
ATOM     23  H1  LIG d   1       4.258  -2.792  -5.981  0.00  0.00     0.203 HD
ATOM     24  H2  LIG d   1       4.574  -3.838  -4.708  0.00  0.00     0.203 HD
ENDROOT
BRANCH  11  25
ATOM     25  C   LIG d   1       5.541  -1.593  -3.926  0.00  0.00     0.010 A 
ATOM     26  C   LIG d   1       5.816  -0.239  -3.911  0.00  0.00    -0.011 A 
ATOM     27  C   LIG d   1       5.335   0.553  -2.879  0.00  0.00     0.117 A 
ATOM     28  H   LIG d   1       6.403   0.201  -4.702  0.00  0.00     0.066 H 
ATOM     29  C   LIG d   1       4.579  -0.016  -1.865  0.00  0.00    -0.020 A 
ATOM     30  C   LIG d   1       4.307  -1.371  -1.884  0.00  0.00    -0.058 A 
ATOM     31  H   LIG d   1       4.204   0.599  -1.060  0.00  0.00     0.065 H 
ATOM     32  C   LIG d   1       4.783  -2.157  -2.916  0.00  0.00    -0.053 A 
ATOM     33  H   LIG d   1       3.719  -1.813  -1.095  0.00  0.00     0.062 H 
ATOM     34  H   LIG d   1       4.565  -3.215  -2.932  0.00  0.00     0.062 H 
BRANCH  27  35
ATOM     35  O   LIG d   1       5.604   1.885  -2.862  0.00  0.00    -0.507 OA
ATOM     36  H   LIG d   1       5.062   2.404  -3.472  0.00  0.00     0.292 HD
ENDBRANCH  27  35
ENDBRANCH  11  25
BRANCH  13  37
ATOM     37  C   LIG d   1       4.360  -5.057  -7.131  0.00  0.00     0.090 C 
ATOM     38  O   LIG d   1       4.420  -5.344  -8.303  0.00  0.00    -0.544 OA
ATOM     39  OXT LIG d   1       3.266  -5.370  -6.419  0.00  0.00    -0.544 OA
ENDBRANCH  13  37
TORSDOF 3
ENDMDL
MODEL 4
REMARK VINA RESULT:      -6.9      2.769      4.260
REMARK  3 active torsions:
REMARK  status: ('A' for Active; 'I' for Inactive)
REMARK    1  A    between atoms: C_11  and  C_18 
REMARK    2  A    between atoms: CA_13  and  C_16 
REMARK    3  A    between atoms: C_22  and  O_24 
ROOT
ATOM      1  C   LIG d   1       2.025  -1.158 -12.040  0.00  0.00    -0.061 A 
ATOM      2  C   LIG d   1       1.325  -2.148 -11.369  0.00  0.00    -0.060 A 
ATOM      3  C   LIG d   1       1.618  -2.502 -10.064  0.00  0.00    -0.038 A 
ATOM      4  C   LIG d   1       2.660  -1.818  -9.442  0.00  0.00     0.047 A 
ATOM      5  C   LIG d   1       3.375  -0.806 -10.134  0.00  0.00     0.004 A 
ATOM      6  C   LIG d   1       3.056  -0.467 -11.454  0.00  0.00    -0.052 A 
ATOM      7  C   LIG d   1       4.368  -0.315  -9.206  0.00  0.00    -0.008 A 
ATOM      8  C   LIG d   1       4.220  -1.012  -8.057  0.00  0.00     0.074 A 
ATOM      9  N   LIG d   1       3.200  -1.914  -8.191  0.00  0.00    -0.353 N 
ATOM     10  H   LIG d   1       2.903  -2.528  -7.501  0.00  0.00     0.166 HD
ATOM     11  C   LIG d   1       5.081  -0.781  -6.837  0.00  0.00     0.045 C 
ATOM     12  H   LIG d   1       5.824  -1.575  -6.758  0.00  0.00     0.097 H 
ATOM     13  CA  LIG d   1       6.448   0.620  -8.278  0.00  0.00     0.023 C 
ATOM     14  HA  LIG d   1       7.045  -0.276  -8.443  0.00  0.00     0.092 H 
ATOM     15  C   LIG d   1       5.412   0.756  -9.401  0.00  0.00     0.023 C 
ATOM     16  H   LIG d   1       1.751  -0.923 -13.059  0.00  0.00     0.062 H 
ATOM     17  H   LIG d   1       0.523  -2.658 -11.881  0.00  0.00     0.062 H 
ATOM     18  H   LIG d   1       1.066  -3.275  -9.551  0.00  0.00     0.064 H 
ATOM     19  H   LIG d   1       3.596   0.302 -11.986  0.00  0.00     0.062 H 
ATOM     20  H   LIG d   1       5.896   0.629 -10.369  0.00  0.00     0.037 H 
ATOM     21  H   LIG d   1       4.944   1.739  -9.347  0.00  0.00     0.037 H 
ATOM     22  N   LIG d   1       5.759   0.527  -6.974  0.00  0.00     0.243 N 
ATOM     23  H1  LIG d   1       6.447   0.631  -6.219  0.00  0.00     0.203 HD
ATOM     24  H2  LIG d   1       5.060   1.277  -6.906  0.00  0.00     0.203 HD
ENDROOT
BRANCH  11  25
ATOM     25  C   LIG d   1       4.217  -0.766  -5.602  0.00  0.00     0.010 A 
ATOM     26  C   LIG d   1       4.408  -1.712  -4.615  0.00  0.00    -0.011 A 
ATOM     27  C   LIG d   1       3.613  -1.698  -3.479  0.00  0.00     0.117 A 
ATOM     28  H   LIG d   1       5.177  -2.462  -4.727  0.00  0.00     0.066 H 
ATOM     29  C   LIG d   1       2.627  -0.733  -3.337  0.00  0.00    -0.020 A 
ATOM     30  C   LIG d   1       2.439   0.213  -4.328  0.00  0.00    -0.058 A 
ATOM     31  H   LIG d   1       2.006  -0.719  -2.454  0.00  0.00     0.065 H 
ATOM     32  C   LIG d   1       3.237   0.198  -5.457  0.00  0.00    -0.053 A 
ATOM     33  H   LIG d   1       1.672   0.964  -4.218  0.00  0.00     0.062 H 
ATOM     34  H   LIG d   1       3.092   0.940  -6.228  0.00  0.00     0.062 H 
BRANCH  27  35
ATOM     35  O   LIG d   1       3.799  -2.628  -2.505  0.00  0.00    -0.507 OA
ATOM     36  H   LIG d   1       3.076  -2.679  -1.866  0.00  0.00     0.292 HD
ENDBRANCH  27  35
ENDBRANCH  11  25
BRANCH  13  37
ATOM     37  C   LIG d   1       7.347   1.830  -8.272  0.00  0.00     0.090 C 
ATOM     38  O   LIG d   1       8.113   2.010  -7.356  0.00  0.00    -0.544 OA
ATOM     39  OXT LIG d   1       7.298   2.706  -9.288  0.00  0.00    -0.544 OA
ENDBRANCH  13  37
TORSDOF 3
ENDMDL
MODEL 5
REMARK VINA RESULT:      -6.8      1.606      1.831
REMARK  3 active torsions:
REMARK  status: ('A' for Active; 'I' for Inactive)
REMARK    1  A    between atoms: C_11  and  C_18 
REMARK    2  A    between atoms: CA_13  and  C_16 
REMARK    3  A    between atoms: C_22  and  O_24 
ROOT
ATOM      1  C   LIG d   1       4.153   1.543 -10.290  0.00  0.00    -0.061 A 
ATOM      2  C   LIG d   1       3.127   2.069  -9.522  0.00  0.00    -0.060 A 
ATOM      3  C   LIG d   1       2.791   1.550  -8.285  0.00  0.00    -0.038 A 
ATOM      4  C   LIG d   1       3.533   0.460  -7.834  0.00  0.00     0.047 A 
ATOM      5  C   LIG d   1       4.582  -0.077  -8.626  0.00  0.00     0.004 A 
ATOM      6  C   LIG d   1       4.900   0.470  -9.874  0.00  0.00    -0.052 A 
ATOM      7  C   LIG d   1       5.129  -1.179  -7.866  0.00  0.00    -0.008 A 
ATOM      8  C   LIG d   1       4.427  -1.257  -6.713  0.00  0.00     0.074 A 
ATOM      9  N   LIG d   1       3.470  -0.280  -6.688  0.00  0.00    -0.353 N 
ATOM     10  H   LIG d   1       2.841  -0.133  -5.963  0.00  0.00     0.166 HD
ATOM     11  C   LIG d   1       4.707  -2.290  -5.648  0.00  0.00     0.045 C 
ATOM     12  H   LIG d   1       3.955  -3.079  -5.695  0.00  0.00     0.097 H 
ATOM     13  CA  LIG d   1       6.179  -3.327  -7.280  0.00  0.00     0.023 C 
ATOM     14  HA  LIG d   1       5.317  -3.938  -7.546  0.00  0.00     0.092 H 
ATOM     15  C   LIG d   1       6.256  -2.117  -8.220  0.00  0.00     0.023 C 
ATOM     16  H   LIG d   1       4.370   1.990 -11.249  0.00  0.00     0.062 H 
ATOM     17  H   LIG d   1       2.573   2.914  -9.901  0.00  0.00     0.062 H 
ATOM     18  H   LIG d   1       1.990   1.968  -7.694  0.00  0.00     0.064 H 
ATOM     19  H   LIG d   1       5.698   0.067 -10.480  0.00  0.00     0.062 H 
ATOM     20  H   LIG d   1       6.154  -2.443  -9.254  0.00  0.00     0.037 H 
ATOM     21  H   LIG d   1       7.211  -1.611  -8.084  0.00  0.00     0.037 H 
ATOM     22  N   LIG d   1       6.050  -2.864  -5.883  0.00  0.00     0.243 N 
ATOM     23  H1  LIG d   1       6.193  -3.659  -5.249  0.00  0.00     0.203 HD
ATOM     24  H2  LIG d   1       6.760  -2.146  -5.698  0.00  0.00     0.203 HD
ENDROOT
BRANCH  11  25
ATOM     25  C   LIG d   1       4.676  -1.639  -4.289  0.00  0.00     0.010 A 
ATOM     26  C   LIG d   1       5.261  -0.402  -4.103  0.00  0.00    -0.011 A 
ATOM     27  C   LIG d   1       5.232   0.197  -2.852  0.00  0.00     0.117 A 
ATOM     28  H   LIG d   1       5.740   0.099  -4.931  0.00  0.00     0.066 H 
ATOM     29  C   LIG d   1       4.615  -0.448  -1.791  0.00  0.00    -0.020 A 
ATOM     30  C   LIG d   1       4.030  -1.687  -1.982  0.00  0.00    -0.058 A 
ATOM     31  H   LIG d   1       4.591   0.015  -0.816  0.00  0.00     0.065 H 
ATOM     32  C   LIG d   1       4.057  -2.278  -3.231  0.00  0.00    -0.053 A 
ATOM     33  H   LIG d   1       3.550  -2.189  -1.156  0.00  0.00     0.062 H 
ATOM     34  H   LIG d   1       3.596  -3.244  -3.379  0.00  0.00     0.062 H 
BRANCH  27  35
ATOM     35  O   LIG d   1       5.807   1.414  -2.667  0.00  0.00    -0.507 OA
ATOM     36  H   LIG d   1       6.692   1.377  -2.280  0.00  0.00     0.292 HD
ENDBRANCH  27  35
ENDBRANCH  11  25
BRANCH  13  37
ATOM     37  C   LIG d   1       7.437  -4.147  -7.411  0.00  0.00     0.090 C 
ATOM     38  O   LIG d   1       8.064  -4.131  -8.443  0.00  0.00    -0.544 OA
ATOM     39  OXT LIG d   1       7.860  -4.895  -6.381  0.00  0.00    -0.544 OA
ENDBRANCH  13  37
TORSDOF 3
ENDMDL
MODEL 6
REMARK VINA RESULT:      -6.7      2.755      3.516
REMARK  3 active torsions:
REMARK  status: ('A' for Active; 'I' for Inactive)
REMARK    1  A    between atoms: C_11  and  C_18 
REMARK    2  A    between atoms: CA_13  and  C_16 
REMARK    3  A    between atoms: C_22  and  O_24 
ROOT
ATOM      1  C   LIG d   1       3.278   0.898 -10.275  0.00  0.00    -0.061 A 
ATOM      2  C   LIG d   1       2.175   0.277  -9.710  0.00  0.00    -0.060 A 
ATOM      3  C   LIG d   1       2.260  -0.454  -8.539  0.00  0.00    -0.038 A 
ATOM      4  C   LIG d   1       3.515  -0.546  -7.941  0.00  0.00     0.047 A 
ATOM      5  C   LIG d   1       4.642   0.091  -8.524  0.00  0.00     0.004 A 
ATOM      6  C   LIG d   1       4.526   0.825  -9.709  0.00  0.00    -0.052 A 
ATOM      7  C   LIG d   1       5.759  -0.205  -7.656  0.00  0.00    -0.008 A 
ATOM      8  C   LIG d   1       5.288  -0.965  -6.642  0.00  0.00     0.074 A 
ATOM      9  N   LIG d   1       3.945  -1.174  -6.806  0.00  0.00    -0.353 N 
ATOM     10  H   LIG d   1       3.382  -1.689  -6.207  0.00  0.00     0.166 HD
ATOM     11  C   LIG d   1       6.161  -1.476  -5.521  0.00  0.00     0.045 C 
ATOM     12  H   LIG d   1       6.383  -2.532  -5.681  0.00  0.00     0.097 H 
ATOM     13  CA  LIG d   1       8.035  -0.679  -6.846  0.00  0.00     0.023 C 
ATOM     14  HA  LIG d   1       8.077  -1.692  -7.245  0.00  0.00     0.092 H 
ATOM     15  C   LIG d   1       7.205   0.205  -7.785  0.00  0.00     0.023 C 
ATOM     16  H   LIG d   1       3.151   1.456 -11.191  0.00  0.00     0.062 H 
ATOM     17  H   LIG d   1       1.218   0.369 -10.200  0.00  0.00     0.062 H 
ATOM     18  H   LIG d   1       1.394  -0.933  -8.108  0.00  0.00     0.064 H 
ATOM     19  H   LIG d   1       5.379   1.312 -10.158  0.00  0.00     0.062 H 
ATOM     20  H   LIG d   1       7.537   0.068  -8.814  0.00  0.00     0.037 H 
ATOM     21  H   LIG d   1       7.318   1.249  -7.496  0.00  0.00     0.037 H 
ATOM     22  N   LIG d   1       7.418  -0.696  -5.504  0.00  0.00     0.243 N 
ATOM     23  H1  LIG d   1       8.071  -1.123  -4.836  0.00  0.00     0.203 HD
ATOM     24  H2  LIG d   1       7.213   0.268  -5.214  0.00  0.00     0.203 HD
ENDROOT
BRANCH  11  25
ATOM     25  C   LIG d   1       5.449  -1.300  -4.204  0.00  0.00     0.010 A 
ATOM     26  C   LIG d   1       5.555  -0.107  -3.515  0.00  0.00    -0.011 A 
ATOM     27  C   LIG d   1       4.900   0.054  -2.304  0.00  0.00     0.117 A 
ATOM     28  H   LIG d   1       6.147   0.699  -3.921  0.00  0.00     0.066 H 
ATOM     29  C   LIG d   1       4.140  -0.984  -1.785  0.00  0.00    -0.020 A 
ATOM     30  C   LIG d   1       4.037  -2.176  -2.478  0.00  0.00    -0.058 A 
ATOM     31  H   LIG d   1       3.628  -0.861  -0.842  0.00  0.00     0.065 H 
ATOM     32  C   LIG d   1       4.686  -2.332  -3.687  0.00  0.00    -0.053 A 
ATOM     33  H   LIG d   1       3.445  -2.984  -2.074  0.00  0.00     0.062 H 
ATOM     34  H   LIG d   1       4.601  -3.262  -4.229  0.00  0.00     0.062 H 
BRANCH  27  35
ATOM     35  O   LIG d   1       5.003   1.227  -1.625  0.00  0.00    -0.507 OA
ATOM     36  H   LIG d   1       4.767   2.006  -2.147  0.00  0.00     0.292 HD
ENDBRANCH  27  35
ENDBRANCH  11  25
BRANCH  13  37
ATOM     37  C   LIG d   1       9.433  -0.125  -6.736  0.00  0.00     0.090 C 
ATOM     38  O   LIG d   1       9.959  -0.021  -5.654  0.00  0.00    -0.544 OA
ATOM     39  OXT LIG d   1      10.093   0.253  -7.842  0.00  0.00    -0.544 OA
ENDBRANCH  13  37
TORSDOF 3
ENDMDL
MODEL 7
REMARK VINA RESULT:      -6.6      2.095      5.135
REMARK  3 active torsions:
REMARK  status: ('A' for Active; 'I' for Inactive)
REMARK    1  A    between atoms: C_11  and  C_18 
REMARK    2  A    between atoms: CA_13  and  C_16 
REMARK    3  A    between atoms: C_22  and  O_24 
ROOT
ATOM      1  C   LIG d   1       3.161   2.206  -9.526  0.00  0.00    -0.061 A 
ATOM      2  C   LIG d   1       3.900   1.602 -10.530  0.00  0.00    -0.060 A 
ATOM      3  C   LIG d   1       4.593   0.422 -10.328  0.00  0.00    -0.038 A 
ATOM      4  C   LIG d   1       4.519  -0.145  -9.057  0.00  0.00     0.047 A 
ATOM      5  C   LIG d   1       3.761   0.479  -8.031  0.00  0.00     0.004 A 
ATOM      6  C   LIG d   1       3.070   1.672  -8.264  0.00  0.00    -0.052 A 
ATOM      7  C   LIG d   1       3.902  -0.365  -6.865  0.00  0.00    -0.008 A 
ATOM      8  C   LIG d   1       4.694  -1.403  -7.216  0.00  0.00     0.074 A 
ATOM      9  N   LIG d   1       5.067  -1.278  -8.526  0.00  0.00    -0.353 N 
ATOM     10  H   LIG d   1       5.636  -1.900  -9.007  0.00  0.00     0.166 HD
ATOM     11  C   LIG d   1       5.072  -2.509  -6.260  0.00  0.00     0.045 C 
ATOM     12  H   LIG d   1       6.095  -2.361  -5.914  0.00  0.00     0.097 H 
ATOM     13  CA  LIG d   1       4.078  -1.122  -4.529  0.00  0.00     0.023 C 
ATOM     14  HA  LIG d   1       5.086  -0.739  -4.374  0.00  0.00     0.092 H 
ATOM     15  C   LIG d   1       3.321  -0.191  -5.484  0.00  0.00     0.023 C 
ATOM     16  H   LIG d   1       2.640   3.128  -9.742  0.00  0.00     0.062 H 
ATOM     17  H   LIG d   1       3.936   2.068 -11.503  0.00  0.00     0.062 H 
ATOM     18  H   LIG d   1       5.166  -0.040 -11.118  0.00  0.00     0.064 H 
ATOM     19  H   LIG d   1       2.491   2.151  -7.488  0.00  0.00     0.062 H 
ATOM     20  H   LIG d   1       3.436   0.844  -5.162  0.00  0.00     0.037 H 
ATOM     21  H   LIG d   1       2.265  -0.460  -5.493  0.00  0.00     0.037 H 
ATOM     22  N   LIG d   1       4.144  -2.480  -5.108  0.00  0.00     0.243 N 
ATOM     23  H1  LIG d   1       4.475  -3.138  -4.391  0.00  0.00     0.203 HD
ATOM     24  H2  LIG d   1       3.207  -2.760  -5.422  0.00  0.00     0.203 HD
ENDROOT
BRANCH  11  25
ATOM     25  C   LIG d   1       4.958  -3.842  -6.956  0.00  0.00     0.010 A 
ATOM     26  C   LIG d   1       3.777  -4.198  -7.575  0.00  0.00    -0.011 A 
ATOM     27  C   LIG d   1       3.673  -5.424  -8.215  0.00  0.00     0.117 A 
ATOM     28  H   LIG d   1       2.935  -3.523  -7.563  0.00  0.00     0.066 H 
ATOM     29  C   LIG d   1       4.756  -6.290  -8.231  0.00  0.00    -0.020 A 
ATOM     30  C   LIG d   1       5.937  -5.929  -7.609  0.00  0.00    -0.058 A 
ATOM     31  H   LIG d   1       4.679  -7.245  -8.729  0.00  0.00     0.065 H 
ATOM     32  C   LIG d   1       6.039  -4.704  -6.977  0.00  0.00    -0.053 A 
ATOM     33  H   LIG d   1       6.780  -6.603  -7.621  0.00  0.00     0.062 H 
ATOM     34  H   LIG d   1       6.963  -4.422  -6.495  0.00  0.00     0.062 H 
BRANCH  27  35
ATOM     35  O   LIG d   1       2.511  -5.777  -8.827  0.00  0.00    -0.507 OA
ATOM     36  H   LIG d   1       2.600  -6.514  -9.445  0.00  0.00     0.292 HD
ENDBRANCH  27  35
ENDBRANCH  11  25
BRANCH  13  37
ATOM     37  C   LIG d   1       3.355  -1.186  -3.208  0.00  0.00     0.090 C 
ATOM     38  O   LIG d   1       2.721  -0.234  -2.820  0.00  0.00    -0.544 OA
ATOM     39  OXT LIG d   1       3.415  -2.301  -2.464  0.00  0.00    -0.544 OA
ENDBRANCH  13  37
TORSDOF 3
ENDMDL
MODEL 8
REMARK VINA RESULT:      -6.6      4.490      6.810
REMARK  3 active torsions:
REMARK  status: ('A' for Active; 'I' for Inactive)
REMARK    1  A    between atoms: C_11  and  C_18 
REMARK    2  A    between atoms: CA_13  and  C_16 
REMARK    3  A    between atoms: C_22  and  O_24 
ROOT
ATOM      1  C   LIG d   1       3.599   0.801  -2.380  0.00  0.00    -0.061 A 
ATOM      2  C   LIG d   1       2.968  -0.412  -2.603  0.00  0.00    -0.060 A 
ATOM      3  C   LIG d   1       3.605  -1.471  -3.223  0.00  0.00    -0.038 A 
ATOM      4  C   LIG d   1       4.925  -1.270  -3.623  0.00  0.00     0.047 A 
ATOM      5  C   LIG d   1       5.566  -0.024  -3.394  0.00  0.00     0.004 A 
ATOM      6  C   LIG d   1       4.897   1.030  -2.763  0.00  0.00    -0.052 A 
ATOM      7  C   LIG d   1       6.903  -0.162  -3.925  0.00  0.00    -0.008 A 
ATOM      8  C   LIG d   1       7.008  -1.415  -4.425  0.00  0.00     0.074 A 
ATOM      9  N   LIG d   1       5.827  -2.083  -4.248  0.00  0.00    -0.353 N 
ATOM     10  H   LIG d   1       5.656  -2.997  -4.524  0.00  0.00     0.166 HD
ATOM     11  C   LIG d   1       8.268  -1.942  -5.068  0.00  0.00     0.045 C 
ATOM     12  H   LIG d   1       8.153  -1.946  -6.152  0.00  0.00     0.097 H 
ATOM     13  CA  LIG d   1       9.075   0.348  -4.967  0.00  0.00     0.023 C 
ATOM     14  HA  LIG d   1       8.682   0.443  -5.979  0.00  0.00     0.092 H 
ATOM     15  C   LIG d   1       8.025   0.845  -3.965  0.00  0.00     0.023 C 
ATOM     16  H   LIG d   1       3.051   1.593  -1.890  0.00  0.00     0.062 H 
ATOM     17  H   LIG d   1       1.945  -0.535  -2.280  0.00  0.00     0.062 H 
ATOM     18  H   LIG d   1       3.103  -2.413  -3.391  0.00  0.00     0.064 H 
ATOM     19  H   LIG d   1       5.380   1.980  -2.585  0.00  0.00     0.062 H 
ATOM     20  H   LIG d   1       7.640   1.814  -4.281  0.00  0.00     0.037 H 
ATOM     21  H   LIG d   1       8.477   0.931  -2.977  0.00  0.00     0.037 H 
ATOM     22  N   LIG d   1       9.398  -1.066  -4.688  0.00  0.00     0.243 N 
ATOM     23  H1  LIG d   1      10.230  -1.336  -5.227  0.00  0.00     0.203 HD
ATOM     24  H2  LIG d   1       9.589  -1.178  -3.685  0.00  0.00     0.203 HD
ENDROOT
BRANCH  11  25
ATOM     25  C   LIG d   1       8.539  -3.342  -4.579  0.00  0.00     0.010 A 
ATOM     26  C   LIG d   1       9.222  -3.541  -3.395  0.00  0.00    -0.011 A 
ATOM     27  C   LIG d   1       9.470  -4.829  -2.947  0.00  0.00     0.117 A 
ATOM     28  H   LIG d   1       9.561  -2.693  -2.819  0.00  0.00     0.066 H 
ATOM     29  C   LIG d   1       9.033  -5.916  -3.689  0.00  0.00    -0.020 A 
ATOM     30  C   LIG d   1       8.350  -5.713  -4.874  0.00  0.00    -0.058 A 
ATOM     31  H   LIG d   1       9.225  -6.920  -3.342  0.00  0.00     0.065 H 
ATOM     32  C   LIG d   1       8.100  -4.427  -5.315  0.00  0.00    -0.053 A 
ATOM     33  H   LIG d   1       8.010  -6.558  -5.451  0.00  0.00     0.062 H 
ATOM     34  H   LIG d   1       7.562  -4.270  -6.239  0.00  0.00     0.062 H 
BRANCH  27  35
ATOM     35  O   LIG d   1      10.141  -5.027  -1.781  0.00  0.00    -0.507 OA
ATOM     36  H   LIG d   1      10.654  -4.262  -1.487  0.00  0.00     0.292 HD
ENDBRANCH  27  35
ENDBRANCH  11  25
BRANCH  13  37
ATOM     37  C   LIG d   1      10.329   1.174  -4.835  0.00  0.00     0.090 C 
ATOM     38  O   LIG d   1      11.239   1.021  -5.613  0.00  0.00    -0.544 OA
ATOM     39  OXT LIG d   1      10.433   2.082  -3.852  0.00  0.00    -0.544 OA
ENDBRANCH  13  37
TORSDOF 3
ENDMDL
MODEL 9
REMARK VINA RESULT:      -6.6      2.559      6.054
REMARK  3 active torsions:
REMARK  status: ('A' for Active; 'I' for Inactive)
REMARK    1  A    between atoms: C_11  and  C_18 
REMARK    2  A    between atoms: CA_13  and  C_16 
REMARK    3  A    between atoms: C_22  and  O_24 
ROOT
ATOM      1  C   LIG d   1       7.795  -5.268  -5.205  0.00  0.00    -0.061 A 
ATOM      2  C   LIG d   1       7.135  -5.746  -6.326  0.00  0.00    -0.060 A 
ATOM      3  C   LIG d   1       6.095  -5.055  -6.921  0.00  0.00    -0.038 A 
ATOM      4  C   LIG d   1       5.729  -3.842  -6.341  0.00  0.00     0.047 A 
ATOM      5  C   LIG d   1       6.407  -3.357  -5.192  0.00  0.00     0.004 A 
ATOM      6  C   LIG d   1       7.456  -4.078  -4.611  0.00  0.00    -0.052 A 
ATOM      7  C   LIG d   1       5.780  -2.096  -4.863  0.00  0.00    -0.008 A 
ATOM      8  C   LIG d   1       4.806  -1.884  -5.776  0.00  0.00     0.074 A 
ATOM      9  N   LIG d   1       4.769  -2.925  -6.664  0.00  0.00    -0.353 N 
ATOM     10  H   LIG d   1       4.154  -3.002  -7.410  0.00  0.00     0.166 HD
ATOM     11  C   LIG d   1       3.923  -0.659  -5.769  0.00  0.00     0.045 C 
ATOM     12  H   LIG d   1       2.942  -0.916  -5.368  0.00  0.00     0.097 H 
ATOM     13  CA  LIG d   1       4.902  -0.176  -3.598  0.00  0.00     0.023 C 
ATOM     14  HA  LIG d   1       4.045  -0.709  -3.186  0.00  0.00     0.092 H 
ATOM     15  C   LIG d   1       6.085  -1.143  -3.735  0.00  0.00     0.023 C 
ATOM     16  H   LIG d   1       8.600  -5.852  -4.784  0.00  0.00     0.062 H 
ATOM     17  H   LIG d   1       7.445  -6.689  -6.750  0.00  0.00     0.062 H 
ATOM     18  H   LIG d   1       5.589  -5.437  -7.795  0.00  0.00     0.064 H 
ATOM     19  H   LIG d   1       7.976  -3.714  -3.738  0.00  0.00     0.062 H 
ATOM     20  H   LIG d   1       6.220  -1.699  -2.808  0.00  0.00     0.037 H 
ATOM     21  H   LIG d   1       6.990  -0.580  -3.964  0.00  0.00     0.037 H 
ATOM     22  N   LIG d   1       4.555   0.377  -4.923  0.00  0.00     0.243 N 
ATOM     23  H1  LIG d   1       3.901   1.160  -4.802  0.00  0.00     0.203 HD
ATOM     24  H2  LIG d   1       5.410   0.713  -5.383  0.00  0.00     0.203 HD
ENDROOT
BRANCH  11  25
ATOM     25  C   LIG d   1       3.776  -0.131  -7.173  0.00  0.00     0.010 A 
ATOM     26  C   LIG d   1       4.868   0.405  -7.828  0.00  0.00    -0.011 A 
ATOM     27  C   LIG d   1       4.731   0.890  -9.120  0.00  0.00     0.117 A 
ATOM     28  H   LIG d   1       5.827   0.446  -7.334  0.00  0.00     0.066 H 
ATOM     29  C   LIG d   1       3.498   0.835  -9.752  0.00  0.00    -0.020 A 
ATOM     30  C   LIG d   1       2.408   0.298  -9.093  0.00  0.00    -0.058 A 
ATOM     31  H   LIG d   1       3.389   1.212 -10.758  0.00  0.00     0.065 H 
ATOM     32  C   LIG d   1       2.549  -0.189  -7.808  0.00  0.00    -0.053 A 
ATOM     33  H   LIG d   1       1.448   0.256  -9.585  0.00  0.00     0.062 H 
ATOM     34  H   LIG d   1       1.696  -0.612  -7.296  0.00  0.00     0.062 H 
BRANCH  27  35
ATOM     35  O   LIG d   1       5.804   1.417  -9.766  0.00  0.00    -0.507 OA
ATOM     36  H   LIG d   1       6.087   2.275  -9.423  0.00  0.00     0.292 HD
ENDBRANCH  27  35
ENDBRANCH  11  25
BRANCH  13  37
ATOM     37  C   LIG d   1       5.280   0.956  -2.677  0.00  0.00     0.090 C 
ATOM     38  O   LIG d   1       6.058   1.802  -3.047  0.00  0.00    -0.544 OA
ATOM     39  OXT LIG d   1       4.750   1.024  -1.445  0.00  0.00    -0.544 OA
ENDBRANCH  13  37
TORSDOF 3
ENDMDL
MODEL 10
REMARK VINA RESULT:      -6.4      3.095      4.946
REMARK  3 active torsions:
REMARK  status: ('A' for Active; 'I' for Inactive)
REMARK    1  A    between atoms: C_11  and  C_18 
REMARK    2  A    between atoms: CA_13  and  C_16 
REMARK    3  A    between atoms: C_22  and  O_24 
ROOT
ATOM      1  C   LIG d   1       2.137  -4.954 -10.308  0.00  0.00    -0.061 A 
ATOM      2  C   LIG d   1       2.809  -5.846  -9.488  0.00  0.00    -0.060 A 
ATOM      3  C   LIG d   1       3.627  -5.427  -8.455  0.00  0.00    -0.038 A 
ATOM      4  C   LIG d   1       3.755  -4.052  -8.268  0.00  0.00     0.047 A 
ATOM      5  C   LIG d   1       3.067  -3.141  -9.112  0.00  0.00     0.004 A 
ATOM      6  C   LIG d   1       2.244  -3.595 -10.149  0.00  0.00    -0.052 A 
ATOM      7  C   LIG d   1       3.420  -1.820  -8.643  0.00  0.00    -0.008 A 
ATOM      8  C   LIG d   1       4.260  -1.979  -7.595  0.00  0.00     0.074 A 
ATOM      9  N   LIG d   1       4.465  -3.313  -7.366  0.00  0.00    -0.353 N 
ATOM     10  H   LIG d   1       5.030  -3.678  -6.666  0.00  0.00     0.166 HD
ATOM     11  C   LIG d   1       4.849  -0.819  -6.829  0.00  0.00     0.045 C 
ATOM     12  H   LIG d   1       5.887  -0.671  -7.128  0.00  0.00     0.097 H 
ATOM     13  CA  LIG d   1       3.937   0.586  -8.590  0.00  0.00     0.023 C 
ATOM     14  HA  LIG d   1       4.916   0.490  -9.058  0.00  0.00     0.092 H 
ATOM     15  C   LIG d   1       2.990  -0.473  -9.168  0.00  0.00     0.023 C 
ATOM     16  H   LIG d   1       1.511  -5.340 -11.099  0.00  0.00     0.062 H 
ATOM     17  H   LIG d   1       2.687  -6.905  -9.660  0.00  0.00     0.062 H 
ATOM     18  H   LIG d   1       4.145  -6.132  -7.822  0.00  0.00     0.064 H 
ATOM     19  H   LIG d   1       1.717  -2.907 -10.794  0.00  0.00     0.062 H 
ATOM     20  H   LIG d   1       3.044  -0.466 -10.256  0.00  0.00     0.037 H 
ATOM     21  H   LIG d   1       1.970  -0.263  -8.847  0.00  0.00     0.037 H 
ATOM     22  N   LIG d   1       4.063   0.398  -7.130  0.00  0.00     0.243 N 
ATOM     23  H1  LIG d   1       4.535   1.214  -6.722  0.00  0.00     0.203 HD
ATOM     24  H2  LIG d   1       3.126   0.304  -6.719  0.00  0.00     0.203 HD
ENDROOT
BRANCH  11  25
ATOM     25  C   LIG d   1       4.780  -1.101  -5.350  0.00  0.00     0.010 A 
ATOM     26  C   LIG d   1       3.621  -0.835  -4.649  0.00  0.00    -0.011 A 
ATOM     27  C   LIG d   1       3.559  -1.096  -3.288  0.00  0.00     0.117 A 
ATOM     28  H   LIG d   1       2.762  -0.426  -5.160  0.00  0.00     0.066 H 
ATOM     29  C   LIG d   1       4.662  -1.623  -2.634  0.00  0.00    -0.020 A 
ATOM     30  C   LIG d   1       5.821  -1.887  -3.340  0.00  0.00    -0.058 A 
ATOM     31  H   LIG d   1       4.617  -1.826  -1.575  0.00  0.00     0.065 H 
ATOM     32  C   LIG d   1       5.878  -1.631  -4.697  0.00  0.00    -0.053 A 
ATOM     33  H   LIG d   1       6.680  -2.297  -2.831  0.00  0.00     0.062 H 
ATOM     34  H   LIG d   1       6.783  -1.843  -5.247  0.00  0.00     0.062 H 
BRANCH  27  35
ATOM     35  O   LIG d   1       2.418  -0.835  -2.596  0.00  0.00    -0.507 OA
ATOM     36  H   LIG d   1       1.696  -1.451  -2.781  0.00  0.00     0.292 HD
ENDBRANCH  27  35
ENDBRANCH  11  25
BRANCH  13  37
ATOM     37  C   LIG d   1       3.382   1.961  -8.862  0.00  0.00     0.090 C 
ATOM     38  O   LIG d   1       2.793   2.558  -7.992  0.00  0.00    -0.544 OA
ATOM     39  OXT LIG d   1       3.543   2.522 -10.070  0.00  0.00    -0.544 OA
ENDBRANCH  13  37
TORSDOF 3
ENDMDL
