MODEL 1
REMARK VINA RESULT:      -7.8      0.000      0.000
REMARK  7 active torsions:
REMARK  status: ('A' for Active; 'I' for Inactive)
REMARK    1  A    between atoms: C_4  and  N_7 
REMARK    2  A    between atoms: N_10  and  C_13 
REMARK    3  A    between atoms: C_13  and  C_14 
REMARK    4  A    between atoms: C_16  and  C_19 
REMARK    5  A    between atoms: C_19  and  C_20 
REMARK    6  A    between atoms: C_26  and  C_28 
REMARK    7  A    between atoms: C_28  and  C_29 
REMARK       I    between atoms: C_29  and  N_31 
ROOT
ATOM      1  C   LIG d   1       4.658  -0.512  -7.644  0.00  0.00     0.008 C 
ATOM      2  H   LIG d   1       5.328  -0.054  -8.373  0.00  0.00     0.036 H 
ATOM      3  C   LIG d   1       3.979  -1.732  -8.270  0.00  0.00    -0.030 C 
ATOM      4  N   LIG d   1       3.206  -1.316  -9.447  0.00  0.00     0.227 N 
ATOM      5  C   LIG d   1       2.134  -0.400  -9.041  0.00  0.00    -0.033 C 
ATOM      6  C   LIG d   1       2.743   0.872  -8.446  0.00  0.00    -0.009 C 
ATOM      7  C   LIG d   1       3.590   0.502  -7.225  0.00  0.00    -0.020 C 
ATOM      8  H   LIG d   1       4.072   1.398  -6.831  0.00  0.00     0.031 H 
ATOM      9  H   LIG d   1       4.736  -2.456  -8.569  0.00  0.00     0.082 H 
ATOM     10  H   LIG d   1       3.309  -2.189  -7.540  0.00  0.00     0.082 H 
ATOM     11  H   LIG d   1       3.818  -0.850 -10.101  0.00  0.00     0.201 HD
ATOM     12  H   LIG d   1       1.531  -0.141  -9.912  0.00  0.00     0.081 H 
ATOM     13  H   LIG d   1       1.504  -0.885  -8.296  0.00  0.00     0.081 H 
ATOM     14  H   LIG d   1       3.372   1.357  -9.192  0.00  0.00     0.032 H 
ATOM     15  H   LIG d   1       1.945   1.550  -8.144  0.00  0.00     0.032 H 
ATOM     16  H   LIG d   1       2.804  -2.131  -9.888  0.00  0.00     0.201 HD
ENDROOT
BRANCH   1  17
ATOM     17  C   LIG d   1       5.460  -0.947  -6.416  0.00  0.00     0.001 C 
ATOM     18  H   LIG d   1       5.740  -1.995  -6.519  0.00  0.00     0.033 H 
ATOM     19  H   LIG d   1       4.852  -0.819  -5.520  0.00  0.00     0.033 H 
BRANCH  17  20
ATOM     20  C   LIG d   1       6.704  -0.104  -6.304  0.00  0.00     0.084 A 
ATOM     21  C   LIG d   1       7.768  -0.318  -5.409  0.00  0.00     0.005 A 
ATOM     22  C   LIG d   1       8.689   0.643  -5.617  0.00  0.00     0.151 A 
ATOM     23  H   LIG d   1       7.836  -1.115  -4.684  0.00  0.00     0.067 H 
ATOM     24  O   LIG d   1       8.239   1.445  -6.594  0.00  0.00    -0.358 OA
ATOM     25  N   LIG d   1       6.983   0.949  -7.018  0.00  0.00    -0.083 NA
BRANCH  22  26
ATOM     26  C   LIG d   1       9.992   0.797  -4.875  0.00  0.00     0.060 C 
ATOM     27  H   LIG d   1      10.811   0.445  -5.503  0.00  0.00     0.051 H 
ATOM     28  H   LIG d   1       9.960   0.210  -3.958  0.00  0.00     0.051 H 
BRANCH  26  29
ATOM     29  N   LIG d   1      10.203   2.213  -4.545  0.00  0.00    -0.292 N 
ATOM     30  C   LIG d   1       9.070   2.748  -3.778  0.00  0.00     0.015 C 
ATOM     31  C   LIG d   1       9.241   4.262  -3.611  0.00  0.00     0.025 C 
ATOM     32  H   LIG d   1       9.039   2.275  -2.796  0.00  0.00     0.044 H 
ATOM     33  H   LIG d   1       8.142   2.544  -4.310  0.00  0.00     0.044 H 
ATOM     34  N   LIG d   1      10.566   4.521  -3.027  0.00  0.00    -0.328 N 
ATOM     35  H   LIG d   1       8.467   4.647  -2.947  0.00  0.00     0.048 H 
ATOM     36  H   LIG d   1       9.169   4.748  -4.583  0.00  0.00     0.048 H 
ATOM     37  C   LIG d   1      11.740   3.906  -3.665  0.00  0.00     0.025 C 
ATOM     38  C   LIG d   1      11.470   2.402  -3.827  0.00  0.00     0.015 C 
ATOM     39  H   LIG d   1      11.903   4.360  -4.643  0.00  0.00     0.048 H 
ATOM     40  H   LIG d   1      12.619   4.057  -3.037  0.00  0.00     0.048 H 
ATOM     41  H   LIG d   1      11.406   1.934  -2.844  0.00  0.00     0.044 H 
ATOM     42  H   LIG d   1      12.281   1.947  -4.394  0.00  0.00     0.044 H 
BRANCH  34  43
ATOM     43  C   LIG d   1      10.706   5.332  -1.898  0.00  0.00     0.030 A 
ATOM     44  C   LIG d   1      11.608   4.985  -0.899  0.00  0.00    -0.041 A 
ATOM     45  C   LIG d   1      11.744   5.790   0.215  0.00  0.00    -0.060 A 
ATOM     46  H   LIG d   1      12.200   4.088  -0.993  0.00  0.00     0.064 H 
ATOM     47  C   LIG d   1      10.984   6.940   0.337  0.00  0.00    -0.062 A 
ATOM     48  H   LIG d   1      12.444   5.522   0.992  0.00  0.00     0.062 H 
ATOM     49  C   LIG d   1      10.087   7.287  -0.656  0.00  0.00    -0.060 A 
ATOM     50  H   LIG d   1      11.090   7.565   1.211  0.00  0.00     0.062 H 
ATOM     51  C   LIG d   1       9.945   6.488  -1.772  0.00  0.00    -0.041 A 
ATOM     52  H   LIG d   1       9.496   8.186  -0.557  0.00  0.00     0.062 H 
ATOM     53  H   LIG d   1       9.244   6.760  -2.548  0.00  0.00     0.064 H 
ENDBRANCH  34  43
ENDBRANCH  26  29
ENDBRANCH  22  26
ENDBRANCH  17  20
ENDBRANCH   1  17
BRANCH   7  54
ATOM     54  C   LIG d   1       2.694  -0.114  -6.149  0.00  0.00     0.028 C 
ATOM     55  H   LIG d   1       1.662  -0.125  -6.498  0.00  0.00     0.036 H 
ATOM     56  H   LIG d   1       3.020  -1.133  -5.944  0.00  0.00     0.036 H 
BRANCH  54  57
ATOM     57  C   LIG d   1       2.788   0.706  -4.888  0.00  0.00     0.216 C 
ATOM     58  O   LIG d   1       2.621   1.906  -4.930  0.00  0.00    -0.276 OA
ATOM     59  N   LIG d   1       3.059   0.105  -3.712  0.00  0.00    -0.301 N 
ATOM     60  C   LIG d   1       3.154   0.890  -2.473  0.00  0.00     0.015 C 
ATOM     61  C   LIG d   1       3.270  -1.348  -3.645  0.00  0.00     0.015 C 
ATOM     62  C   LIG d   1       4.490   0.592  -1.797  0.00  0.00    -0.037 C 
ATOM     63  H   LIG d   1       3.095   1.953  -2.709  0.00  0.00     0.046 H 
ATOM     64  H   LIG d   1       2.340   0.616  -1.804  0.00  0.00     0.046 H 
ATOM     65  C   LIG d   1       4.633  -0.918  -1.596  0.00  0.00    -0.050 C 
ATOM     66  H   LIG d   1       4.529   1.092  -0.829  0.00  0.00     0.028 H 
ATOM     67  H   LIG d   1       5.303   0.954  -2.426  0.00  0.00     0.028 H 
ATOM     68  C   LIG d   1       4.612  -1.619  -2.956  0.00  0.00    -0.037 C 
ATOM     69  H   LIG d   1       3.806  -1.283  -0.986  0.00  0.00     0.027 H 
ATOM     70  H   LIG d   1       5.576  -1.131  -1.093  0.00  0.00     0.027 H 
ATOM     71  H   LIG d   1       4.737  -2.694  -2.813  0.00  0.00     0.028 H 
ATOM     72  H   LIG d   1       5.423  -1.237  -3.576  0.00  0.00     0.028 H 
ATOM     73  H   LIG d   1       2.466  -1.808  -3.073  0.00  0.00     0.046 H 
ATOM     74  H   LIG d   1       3.288  -1.761  -4.654  0.00  0.00     0.046 H 
ENDBRANCH  54  57
ENDBRANCH   7  54
TORSDOF 7
ENDMDL
MODEL 2
REMARK VINA RESULT:      -7.7      1.498      1.880
REMARK  7 active torsions:
REMARK  status: ('A' for Active; 'I' for Inactive)
REMARK    1  A    between atoms: C_4  and  N_7 
REMARK    2  A    between atoms: N_10  and  C_13 
REMARK    3  A    between atoms: C_13  and  C_14 
REMARK    4  A    between atoms: C_16  and  C_19 
REMARK    5  A    between atoms: C_19  and  C_20 
REMARK    6  A    between atoms: C_26  and  C_28 
REMARK    7  A    between atoms: C_28  and  C_29 
REMARK       I    between atoms: C_29  and  N_31 
ROOT
ATOM      1  C   LIG d   1       4.968   0.274  -8.683  0.00  0.00     0.008 C 
ATOM      2  H   LIG d   1       5.138   1.077  -9.401  0.00  0.00     0.036 H 
ATOM      3  C   LIG d   1       4.675  -1.028  -9.432  0.00  0.00    -0.030 C 
ATOM      4  N   LIG d   1       3.478  -0.858 -10.264  0.00  0.00     0.227 N 
ATOM      5  C   LIG d   1       2.312  -0.592  -9.412  0.00  0.00    -0.033 C 
ATOM      6  C   LIG d   1       2.515   0.728  -8.664  0.00  0.00    -0.009 C 
ATOM      7  C   LIG d   1       3.772   0.627  -7.795  0.00  0.00    -0.020 C 
ATOM      8  H   LIG d   1       3.953   1.583  -7.303  0.00  0.00     0.031 H 
ATOM      9  H   LIG d   1       5.525  -1.282 -10.065  0.00  0.00     0.082 H 
ATOM     10  H   LIG d   1       4.506  -1.830  -8.713  0.00  0.00     0.082 H 
ATOM     11  H   LIG d   1       3.616  -0.085 -10.897  0.00  0.00     0.201 HD
ATOM     12  H   LIG d   1       1.419  -0.523 -10.033  0.00  0.00     0.081 H 
ATOM     13  H   LIG d   1       2.194  -1.403  -8.695  0.00  0.00     0.081 H 
ATOM     14  H   LIG d   1       2.633   1.539  -9.381  0.00  0.00     0.032 H 
ATOM     15  H   LIG d   1       1.650   0.923  -8.031  0.00  0.00     0.032 H 
ATOM     16  H   LIG d   1       3.319  -1.701 -10.797  0.00  0.00     0.201 HD
ENDROOT
BRANCH   1  17
ATOM     17  C   LIG d   1       6.215   0.094  -7.814  0.00  0.00     0.001 C 
ATOM     18  H   LIG d   1       6.724  -0.828  -8.097  0.00  0.00     0.033 H 
ATOM     19  H   LIG d   1       5.923   0.042  -6.765  0.00  0.00     0.033 H 
BRANCH  17  20
ATOM     20  C   LIG d   1       7.143   1.263  -8.021  0.00  0.00     0.084 A 
ATOM     21  C   LIG d   1       8.155   1.679  -7.136  0.00  0.00     0.005 A 
ATOM     22  C   LIG d   1       8.764   2.754  -7.673  0.00  0.00     0.151 A 
ATOM     23  H   LIG d   1       8.401   1.218  -6.192  0.00  0.00     0.067 H 
ATOM     24  O   LIG d   1       8.171   3.025  -8.846  0.00  0.00    -0.358 OA
ATOM     25  N   LIG d   1       7.151   2.063  -9.048  0.00  0.00    -0.083 NA
BRANCH  22  26
ATOM     26  C   LIG d   1       9.905   3.524  -7.060  0.00  0.00     0.060 C 
ATOM     27  H   LIG d   1      10.142   4.384  -7.687  0.00  0.00     0.051 H 
ATOM     28  H   LIG d   1      10.780   2.879  -6.984  0.00  0.00     0.051 H 
BRANCH  26  29
ATOM     29  N   LIG d   1       9.519   3.987  -5.720  0.00  0.00    -0.292 N 
ATOM     30  C   LIG d   1      10.194   3.203  -4.677  0.00  0.00     0.015 C 
ATOM     31  C   LIG d   1       9.631   3.592  -3.306  0.00  0.00     0.025 C 
ATOM     32  H   LIG d   1      11.265   3.409  -4.703  0.00  0.00     0.044 H 
ATOM     33  H   LIG d   1      10.023   2.142  -4.853  0.00  0.00     0.044 H 
ATOM     34  N   LIG d   1       9.737   5.051  -3.154  0.00  0.00    -0.328 N 
ATOM     35  H   LIG d   1      10.206   3.100  -2.521  0.00  0.00     0.048 H 
ATOM     36  H   LIG d   1       8.586   3.293  -3.242  0.00  0.00     0.048 H 
ATOM     37  C   LIG d   1       9.200   5.904  -4.226  0.00  0.00     0.025 C 
ATOM     38  C   LIG d   1       9.785   5.424  -5.564  0.00  0.00     0.015 C 
ATOM     39  H   LIG d   1       8.113   5.822  -4.247  0.00  0.00     0.048 H 
ATOM     40  H   LIG d   1       9.488   6.940  -4.049  0.00  0.00     0.048 H 
ATOM     41  H   LIG d   1      10.861   5.599  -5.577  0.00  0.00     0.044 H 
ATOM     42  H   LIG d   1       9.317   5.971  -6.381  0.00  0.00     0.044 H 
BRANCH  34  43
ATOM     43  C   LIG d   1      10.329   5.613  -2.021  0.00  0.00     0.030 A 
ATOM     44  C   LIG d   1       9.869   6.826  -1.523  0.00  0.00    -0.041 A 
ATOM     45  C   LIG d   1      10.456   7.377  -0.401  0.00  0.00    -0.060 A 
ATOM     46  H   LIG d   1       9.054   7.336  -2.013  0.00  0.00     0.064 H 
ATOM     47  C   LIG d   1      11.501   6.724   0.227  0.00  0.00    -0.062 A 
ATOM     48  H   LIG d   1      10.099   8.320  -0.014  0.00  0.00     0.062 H 
ATOM     49  C   LIG d   1      11.961   5.516  -0.266  0.00  0.00    -0.060 A 
ATOM     50  H   LIG d   1      11.961   7.160   1.101  0.00  0.00     0.062 H 
ATOM     51  C   LIG d   1      11.379   4.959  -1.387  0.00  0.00    -0.041 A 
ATOM     52  H   LIG d   1      12.777   5.009   0.228  0.00  0.00     0.062 H 
ATOM     53  H   LIG d   1      11.738   4.015  -1.771  0.00  0.00     0.064 H 
ENDBRANCH  34  43
ENDBRANCH  26  29
ENDBRANCH  22  26
ENDBRANCH  17  20
ENDBRANCH   1  17
BRANCH   7  54
ATOM     54  C   LIG d   1       3.579  -0.464  -6.740  0.00  0.00     0.028 C 
ATOM     55  H   LIG d   1       2.786  -1.141  -7.058  0.00  0.00     0.036 H 
ATOM     56  H   LIG d   1       4.507  -1.022  -6.620  0.00  0.00     0.036 H 
BRANCH  54  57
ATOM     57  C   LIG d   1       3.201   0.170  -5.426  0.00  0.00     0.216 C 
ATOM     58  O   LIG d   1       2.739   1.291  -5.404  0.00  0.00    -0.276 OA
ATOM     59  N   LIG d   1       3.375  -0.510  -4.276  0.00  0.00    -0.301 N 
ATOM     60  C   LIG d   1       3.010   0.094  -2.986  0.00  0.00     0.015 C 
ATOM     61  C   LIG d   1       3.937  -1.867  -4.285  0.00  0.00     0.015 C 
ATOM     62  C   LIG d   1       4.212   0.025  -2.047  0.00  0.00    -0.037 C 
ATOM     63  H   LIG d   1       2.726   1.136  -3.138  0.00  0.00     0.046 H 
ATOM     64  H   LIG d   1       2.177  -0.454  -2.548  0.00  0.00     0.046 H 
ATOM     65  C   LIG d   1       4.698  -1.422  -1.948  0.00  0.00    -0.050 C 
ATOM     66  H   LIG d   1       3.924   0.380  -1.057  0.00  0.00     0.028 H 
ATOM     67  H   LIG d   1       5.013   0.652  -2.439  0.00  0.00     0.028 H 
ATOM     68  C   LIG d   1       5.135  -1.911  -3.331  0.00  0.00    -0.037 C 
ATOM     69  H   LIG d   1       3.888  -2.052  -1.579  0.00  0.00     0.027 H 
ATOM     70  H   LIG d   1       5.542  -1.477  -1.261  0.00  0.00     0.027 H 
ATOM     71  H   LIG d   1       5.503  -2.935  -3.255  0.00  0.00     0.028 H 
ATOM     72  H   LIG d   1       5.927  -1.267  -3.711  0.00  0.00     0.028 H 
ATOM     73  H   LIG d   1       3.181  -2.579  -3.956  0.00  0.00     0.046 H 
ATOM     74  H   LIG d   1       4.265  -2.119  -5.294  0.00  0.00     0.046 H 
ENDBRANCH  54  57
ENDBRANCH   7  54
TORSDOF 7
ENDMDL
MODEL 3
REMARK VINA RESULT:      -7.3      3.860      4.786
REMARK  7 active torsions:
REMARK  status: ('A' for Active; 'I' for Inactive)
REMARK    1  A    between atoms: C_4  and  N_7 
REMARK    2  A    between atoms: N_10  and  C_13 
REMARK    3  A    between atoms: C_13  and  C_14 
REMARK    4  A    between atoms: C_16  and  C_19 
REMARK    5  A    between atoms: C_19  and  C_20 
REMARK    6  A    between atoms: C_26  and  C_28 
REMARK    7  A    between atoms: C_28  and  C_29 
REMARK       I    between atoms: C_29  and  N_31 
ROOT
ATOM      1  C   LIG d   1       4.625  -0.701  -7.788  0.00  0.00     0.008 C 
ATOM      2  H   LIG d   1       5.272  -0.254  -8.544  0.00  0.00     0.036 H 
ATOM      3  C   LIG d   1       3.899  -1.907  -8.388  0.00  0.00    -0.030 C 
ATOM      4  N   LIG d   1       3.085  -1.475  -9.531  0.00  0.00     0.227 N 
ATOM      5  C   LIG d   1       2.047  -0.541  -9.078  0.00  0.00    -0.033 C 
ATOM      6  C   LIG d   1       2.703   0.719  -8.507  0.00  0.00    -0.009 C 
ATOM      7  C   LIG d   1       3.594   0.330  -7.323  0.00  0.00    -0.020 C 
ATOM      8  H   LIG d   1       4.108   1.216  -6.948  0.00  0.00     0.031 H 
ATOM      9  H   LIG d   1       4.629  -2.644  -8.720  0.00  0.00     0.082 H 
ATOM     10  H   LIG d   1       3.252  -2.354  -7.631  0.00  0.00     0.082 H 
ATOM     11  H   LIG d   1       3.676  -1.018 -10.209  0.00  0.00     0.201 HD
ATOM     12  H   LIG d   1       1.412  -0.269  -9.922  0.00  0.00     0.081 H 
ATOM     13  H   LIG d   1       1.441  -1.017  -8.308  0.00  0.00     0.081 H 
ATOM     14  H   LIG d   1       3.309   1.195  -9.277  0.00  0.00     0.032 H 
ATOM     15  H   LIG d   1       1.930   1.410  -8.170  0.00  0.00     0.032 H 
ATOM     16  H   LIG d   1       2.650  -2.281  -9.956  0.00  0.00     0.201 HD
ENDROOT
BRANCH   1  17
ATOM     17  C   LIG d   1       5.470  -1.154  -6.596  0.00  0.00     0.001 C 
ATOM     18  H   LIG d   1       5.977  -2.086  -6.844  0.00  0.00     0.033 H 
ATOM     19  H   LIG d   1       4.825  -1.310  -5.731  0.00  0.00     0.033 H 
BRANCH  17  20
ATOM     20  C   LIG d   1       6.494  -0.096  -6.276  0.00  0.00     0.084 A 
ATOM     21  C   LIG d   1       7.593   0.258  -7.079  0.00  0.00     0.005 A 
ATOM     22  C   LIG d   1       8.269   1.241  -6.454  0.00  0.00     0.151 A 
ATOM     23  H   LIG d   1       7.850  -0.181  -8.031  0.00  0.00     0.067 H 
ATOM     24  O   LIG d   1       7.642   1.506  -5.298  0.00  0.00    -0.358 OA
ATOM     25  N   LIG d   1       6.516   0.652  -5.210  0.00  0.00    -0.083 NA
BRANCH  22  26
ATOM     26  C   LIG d   1       9.517   1.918  -6.958  0.00  0.00     0.060 C 
ATOM     27  H   LIG d   1       9.943   1.335  -7.775  0.00  0.00     0.051 H 
ATOM     28  H   LIG d   1      10.243   1.993  -6.149  0.00  0.00     0.051 H 
BRANCH  26  29
ATOM     29  N   LIG d   1       9.182   3.265  -7.442  0.00  0.00    -0.292 N 
ATOM     30  C   LIG d   1      10.215   4.236  -7.055  0.00  0.00     0.015 C 
ATOM     31  C   LIG d   1       9.743   5.648  -7.416  0.00  0.00     0.025 C 
ATOM     32  H   LIG d   1      11.140   4.014  -7.587  0.00  0.00     0.044 H 
ATOM     33  H   LIG d   1      10.388   4.173  -5.981  0.00  0.00     0.044 H 
ATOM     34  N   LIG d   1       9.373   5.668  -8.840  0.00  0.00    -0.328 N 
ATOM     35  H   LIG d   1      10.550   6.360  -7.238  0.00  0.00     0.048 H 
ATOM     36  H   LIG d   1       8.877   5.912  -6.810  0.00  0.00     0.048 H 
ATOM     37  C   LIG d   1       8.441   4.640  -9.331  0.00  0.00     0.025 C 
ATOM     38  C   LIG d   1       8.968   3.263  -8.895  0.00  0.00     0.015 C 
ATOM     39  H   LIG d   1       7.453   4.810  -8.904  0.00  0.00     0.048 H 
ATOM     40  H   LIG d   1       8.386   4.686 -10.419  0.00  0.00     0.048 H 
ATOM     41  H   LIG d   1       9.911   3.055  -9.402  0.00  0.00     0.044 H 
ATOM     42  H   LIG d   1       8.238   2.498  -9.155  0.00  0.00     0.044 H 
BRANCH  34  43
ATOM     43  C   LIG d   1       9.888   6.638  -9.702  0.00  0.00     0.030 A 
ATOM     44  C   LIG d   1      10.632   7.697  -9.194  0.00  0.00    -0.041 A 
ATOM     45  C   LIG d   1      11.141   8.654 -10.049  0.00  0.00    -0.060 A 
ATOM     46  H   LIG d   1      10.811   7.771  -8.132  0.00  0.00     0.064 H 
ATOM     47  C   LIG d   1      10.911   8.560 -11.410  0.00  0.00    -0.062 A 
ATOM     48  H   LIG d   1      11.719   9.476  -9.655  0.00  0.00     0.062 H 
ATOM     49  C   LIG d   1      10.172   7.507 -11.918  0.00  0.00    -0.060 A 
ATOM     50  H   LIG d   1      11.307   9.312 -12.077  0.00  0.00     0.062 H 
ATOM     51  C   LIG d   1       9.660   6.547 -11.069  0.00  0.00    -0.041 A 
ATOM     52  H   LIG d   1       9.995   7.438 -12.982  0.00  0.00     0.062 H 
ATOM     53  H   LIG d   1       9.083   5.725 -11.466  0.00  0.00     0.064 H 
ENDBRANCH  34  43
ENDBRANCH  26  29
ENDBRANCH  22  26
ENDBRANCH  17  20
ENDBRANCH   1  17
BRANCH   7  54
ATOM     54  C   LIG d   1       2.733  -0.273  -6.211  0.00  0.00     0.028 C 
ATOM     55  H   LIG d   1       1.699  -0.338  -6.548  0.00  0.00     0.036 H 
ATOM     56  H   LIG d   1       3.100  -1.269  -5.967  0.00  0.00     0.036 H 
BRANCH  54  57
ATOM     57  C   LIG d   1       2.808   0.604  -4.988  0.00  0.00     0.216 C 
ATOM     58  O   LIG d   1       2.621   1.798  -5.084  0.00  0.00    -0.276 OA
ATOM     59  N   LIG d   1       3.082   0.060  -3.785  0.00  0.00    -0.301 N 
ATOM     60  C   LIG d   1       3.157   0.901  -2.582  0.00  0.00     0.015 C 
ATOM     61  C   LIG d   1       3.316  -1.384  -3.652  0.00  0.00     0.015 C 
ATOM     62  C   LIG d   1       4.495   0.655  -1.887  0.00  0.00    -0.037 C 
ATOM     63  H   LIG d   1       3.082   1.951  -2.865  0.00  0.00     0.046 H 
ATOM     64  H   LIG d   1       2.344   0.644  -1.905  0.00  0.00     0.046 H 
ATOM     65  C   LIG d   1       4.660  -0.842  -1.618  0.00  0.00    -0.050 C 
ATOM     66  H   LIG d   1       4.521   1.199  -0.942  0.00  0.00     0.028 H 
ATOM     67  H   LIG d   1       5.305   1.001  -2.528  0.00  0.00     0.028 H 
ATOM     68  C   LIG d   1       4.658  -1.603  -2.946  0.00  0.00    -0.037 C 
ATOM     69  H   LIG d   1       3.836  -1.193  -0.997  0.00  0.00     0.027 H 
ATOM     70  H   LIG d   1       5.604  -1.017  -1.102  0.00  0.00     0.027 H 
ATOM     71  H   LIG d   1       4.799  -2.668  -2.755  0.00  0.00     0.028 H 
ATOM     72  H   LIG d   1       5.466  -1.236  -3.578  0.00  0.00     0.028 H 
ATOM     73  H   LIG d   1       2.516  -1.832  -3.064  0.00  0.00     0.046 H 
ATOM     74  H   LIG d   1       3.345  -1.842  -4.641  0.00  0.00     0.046 H 
ENDBRANCH  54  57
ENDBRANCH   7  54
TORSDOF 7
ENDMDL
MODEL 4
REMARK VINA RESULT:      -7.2      7.565     10.811
REMARK  7 active torsions:
REMARK  status: ('A' for Active; 'I' for Inactive)
REMARK    1  A    between atoms: C_4  and  N_7 
REMARK    2  A    between atoms: N_10  and  C_13 
REMARK    3  A    between atoms: C_13  and  C_14 
REMARK    4  A    between atoms: C_16  and  C_19 
REMARK    5  A    between atoms: C_19  and  C_20 
REMARK    6  A    between atoms: C_26  and  C_28 
REMARK    7  A    between atoms: C_28  and  C_29 
REMARK       I    between atoms: C_29  and  N_31 
ROOT
ATOM      1  C   LIG d   1       7.540  -4.695  -5.870  0.00  0.00     0.008 C 
ATOM      2  H   LIG d   1       8.105  -5.587  -5.594  0.00  0.00     0.036 H 
ATOM      3  C   LIG d   1       8.359  -3.857  -6.854  0.00  0.00    -0.030 C 
ATOM      4  N   LIG d   1       9.625  -3.457  -6.226  0.00  0.00     0.227 N 
ATOM      5  C   LIG d   1       9.356  -2.600  -5.065  0.00  0.00    -0.033 C 
ATOM      6  C   LIG d   1       8.576  -3.391  -4.012  0.00  0.00    -0.009 C 
ATOM      7  C   LIG d   1       7.251  -3.865  -4.617  0.00  0.00    -0.020 C 
ATOM      8  H   LIG d   1       6.717  -4.478  -3.889  0.00  0.00     0.031 H 
ATOM      9  H   LIG d   1       8.567  -4.444  -7.748  0.00  0.00     0.082 H 
ATOM     10  H   LIG d   1       7.794  -2.965  -7.130  0.00  0.00     0.082 H 
ATOM     11  H   LIG d   1      10.126  -4.280  -5.928  0.00  0.00     0.201 HD
ATOM     12  H   LIG d   1      10.301  -2.261  -4.639  0.00  0.00     0.081 H 
ATOM     13  H   LIG d   1       8.770  -1.736  -5.379  0.00  0.00     0.081 H 
ATOM     14  H   LIG d   1       9.162  -4.254  -3.699  0.00  0.00     0.032 H 
ATOM     15  H   LIG d   1       8.376  -2.753  -3.152  0.00  0.00     0.032 H 
ATOM     16  H   LIG d   1      10.185  -2.949  -6.896  0.00  0.00     0.201 HD
ENDROOT
BRANCH   1  17
ATOM     17  C   LIG d   1       6.221  -5.109  -6.526  0.00  0.00     0.001 C 
ATOM     18  H   LIG d   1       6.389  -5.307  -7.584  0.00  0.00     0.033 H 
ATOM     19  H   LIG d   1       5.493  -4.305  -6.417  0.00  0.00     0.033 H 
BRANCH  17  20
ATOM     20  C   LIG d   1       5.698  -6.355  -5.859  0.00  0.00     0.084 A 
ATOM     21  C   LIG d   1       6.424  -7.540  -5.642  0.00  0.00     0.005 A 
ATOM     22  C   LIG d   1       5.614  -8.419  -5.020  0.00  0.00     0.151 A 
ATOM     23  H   LIG d   1       7.452  -7.716  -5.923  0.00  0.00     0.067 H 
ATOM     24  O   LIG d   1       4.419  -7.833  -4.849  0.00  0.00    -0.358 OA
ATOM     25  N   LIG d   1       4.498  -6.523  -5.383  0.00  0.00    -0.083 NA
BRANCH  22  26
ATOM     26  C   LIG d   1       5.981  -9.818  -4.598  0.00  0.00     0.060 C 
ATOM     27  H   LIG d   1       6.744 -10.212  -5.270  0.00  0.00     0.051 H 
ATOM     28  H   LIG d   1       5.098 -10.454  -4.639  0.00  0.00     0.051 H 
BRANCH  26  29
ATOM     29  N   LIG d   1       6.505  -9.794  -3.225  0.00  0.00    -0.292 N 
ATOM     30  C   LIG d   1       6.435 -11.127  -2.611  0.00  0.00     0.015 C 
ATOM     31  C   LIG d   1       6.817 -11.024  -1.131  0.00  0.00     0.025 C 
ATOM     32  H   LIG d   1       7.127 -11.798  -3.120  0.00  0.00     0.044 H 
ATOM     33  H   LIG d   1       5.421 -11.514  -2.699  0.00  0.00     0.044 H 
ATOM     34  N   LIG d   1       8.126 -10.360  -1.031  0.00  0.00    -0.328 N 
ATOM     35  H   LIG d   1       6.879 -12.022  -0.698  0.00  0.00     0.048 H 
ATOM     36  H   LIG d   1       6.068 -10.437  -0.600  0.00  0.00     0.048 H 
ATOM     37  C   LIG d   1       8.313  -9.080  -1.732  0.00  0.00     0.025 C 
ATOM     38  C   LIG d   1       7.874  -9.262  -3.194  0.00  0.00     0.015 C 
ATOM     39  H   LIG d   1       7.705  -8.311  -1.257  0.00  0.00     0.048 H 
ATOM     40  H   LIG d   1       9.365  -8.794  -1.697  0.00  0.00     0.048 H 
ATOM     41  H   LIG d   1       8.546  -9.960  -3.694  0.00  0.00     0.044 H 
ATOM     42  H   LIG d   1       7.903  -8.300  -3.703  0.00  0.00     0.044 H 
BRANCH  34  43
ATOM     43  C   LIG d   1       9.162 -10.928  -0.286  0.00  0.00     0.030 A 
ATOM     44  C   LIG d   1      10.052 -10.113   0.404  0.00  0.00    -0.041 A 
ATOM     45  C   LIG d   1      11.075 -10.678   1.140  0.00  0.00    -0.060 A 
ATOM     46  H   LIG d   1       9.943  -9.039   0.364  0.00  0.00     0.064 H 
ATOM     47  C   LIG d   1      11.215 -12.053   1.191  0.00  0.00    -0.062 A 
ATOM     48  H   LIG d   1      11.766 -10.045   1.676  0.00  0.00     0.062 H 
ATOM     49  C   LIG d   1      10.330 -12.866   0.506  0.00  0.00    -0.060 A 
ATOM     50  H   LIG d   1      12.018 -12.492   1.763  0.00  0.00     0.062 H 
ATOM     51  C   LIG d   1       9.306 -12.308  -0.232  0.00  0.00    -0.041 A 
ATOM     52  H   LIG d   1      10.443 -13.940   0.549  0.00  0.00     0.062 H 
ATOM     53  H   LIG d   1       8.615 -12.944  -0.766  0.00  0.00     0.064 H 
ENDBRANCH  34  43
ENDBRANCH  26  29
ENDBRANCH  22  26
ENDBRANCH  17  20
ENDBRANCH   1  17
BRANCH   7  54
ATOM     54  C   LIG d   1       6.397  -2.653  -4.992  0.00  0.00     0.028 C 
ATOM     55  H   LIG d   1       7.010  -1.753  -4.960  0.00  0.00     0.036 H 
ATOM     56  H   LIG d   1       5.998  -2.786  -5.997  0.00  0.00     0.036 H 
BRANCH  54  57
ATOM     57  C   LIG d   1       5.259  -2.519  -4.013  0.00  0.00     0.216 C 
ATOM     58  O   LIG d   1       4.342  -3.312  -4.036  0.00  0.00    -0.276 OA
ATOM     59  N   LIG d   1       5.260  -1.517  -3.111  0.00  0.00    -0.301 N 
ATOM     60  C   LIG d   1       4.158  -1.373  -2.150  0.00  0.00     0.015 C 
ATOM     61  C   LIG d   1       6.361  -0.545  -3.073  0.00  0.00     0.015 C 
ATOM     62  C   LIG d   1       3.599   0.045  -2.242  0.00  0.00    -0.037 C 
ATOM     63  H   LIG d   1       3.371  -2.091  -2.386  0.00  0.00     0.046 H 
ATOM     64  H   LIG d   1       4.527  -1.552  -1.141  0.00  0.00     0.046 H 
ATOM     65  C   LIG d   1       4.735   1.052  -2.051  0.00  0.00    -0.050 C 
ATOM     66  H   LIG d   1       2.848   0.193  -1.466  0.00  0.00     0.028 H 
ATOM     67  H   LIG d   1       3.144   0.191  -3.222  0.00  0.00     0.028 H 
ATOM     68  C   LIG d   1       5.774   0.868  -3.160  0.00  0.00    -0.037 C 
ATOM     69  H   LIG d   1       5.205   0.889  -1.082  0.00  0.00     0.027 H 
ATOM     70  H   LIG d   1       4.334   2.065  -2.095  0.00  0.00     0.027 H 
ATOM     71  H   LIG d   1       6.572   1.601  -3.036  0.00  0.00     0.028 H 
ATOM     72  H   LIG d   1       5.299   1.006  -4.131  0.00  0.00     0.028 H 
ATOM     73  H   LIG d   1       6.914  -0.655  -2.141  0.00  0.00     0.046 H 
ATOM     74  H   LIG d   1       7.028  -0.715  -3.919  0.00  0.00     0.046 H 
ENDBRANCH  54  57
ENDBRANCH   7  54
TORSDOF 7
ENDMDL
MODEL 5
REMARK VINA RESULT:      -7.2      1.989      4.787
REMARK  7 active torsions:
REMARK  status: ('A' for Active; 'I' for Inactive)
REMARK    1  A    between atoms: C_4  and  N_7 
REMARK    2  A    between atoms: N_10  and  C_13 
REMARK    3  A    between atoms: C_13  and  C_14 
REMARK    4  A    between atoms: C_16  and  C_19 
REMARK    5  A    between atoms: C_19  and  C_20 
REMARK    6  A    between atoms: C_26  and  C_28 
REMARK    7  A    between atoms: C_28  and  C_29 
REMARK       I    between atoms: C_29  and  N_31 
ROOT
ATOM      1  C   LIG d   1       6.330   0.260  -3.572  0.00  0.00     0.008 C 
ATOM      2  H   LIG d   1       7.153  -0.087  -2.947  0.00  0.00     0.036 H 
ATOM      3  C   LIG d   1       5.490   1.274  -2.794  0.00  0.00    -0.030 C 
ATOM      4  N   LIG d   1       4.949   0.641  -1.584  0.00  0.00     0.227 N 
ATOM      5  C   LIG d   1       4.046  -0.455  -1.957  0.00  0.00    -0.033 C 
ATOM      6  C   LIG d   1       4.832  -1.536  -2.702  0.00  0.00    -0.009 C 
ATOM      7  C   LIG d   1       5.451  -0.930  -3.965  0.00  0.00    -0.020 C 
ATOM      8  H   LIG d   1       6.059  -1.682  -4.470  0.00  0.00     0.031 H 
ATOM      9  H   LIG d   1       6.113   2.122  -2.512  0.00  0.00     0.082 H 
ATOM     10  H   LIG d   1       4.667   1.621  -3.420  0.00  0.00     0.082 H 
ATOM     11  H   LIG d   1       5.708   0.278  -1.028  0.00  0.00     0.201 HD
ATOM     12  H   LIG d   1       3.606  -0.883  -1.056  0.00  0.00     0.081 H 
ATOM     13  H   LIG d   1       3.255  -0.072  -2.600  0.00  0.00     0.081 H 
ATOM     14  H   LIG d   1       5.623  -1.920  -2.059  0.00  0.00     0.032 H 
ATOM     15  H   LIG d   1       4.160  -2.348  -2.979  0.00  0.00     0.032 H 
ATOM     16  H   LIG d   1       4.440   1.327  -1.047  0.00  0.00     0.201 HD
ENDROOT
BRANCH   1  17
ATOM     17  C   LIG d   1       6.891   0.921  -4.833  0.00  0.00     0.001 C 
ATOM     18  H   LIG d   1       6.206   1.699  -5.169  0.00  0.00     0.033 H 
ATOM     19  H   LIG d   1       7.003   0.171  -5.617  0.00  0.00     0.033 H 
BRANCH  17  20
ATOM     20  C   LIG d   1       8.233   1.531  -4.525  0.00  0.00     0.084 A 
ATOM     21  C   LIG d   1       8.541   2.904  -4.554  0.00  0.00     0.005 A 
ATOM     22  C   LIG d   1       9.838   3.048  -4.219  0.00  0.00     0.151 A 
ATOM     23  H   LIG d   1       7.858   3.702  -4.799  0.00  0.00     0.067 H 
ATOM     24  O   LIG d   1      10.347   1.827  -3.992  0.00  0.00    -0.358 OA
ATOM     25  N   LIG d   1       9.311   0.882  -4.186  0.00  0.00    -0.083 NA
BRANCH  22  26
ATOM     26  C   LIG d   1      10.589   4.351  -4.125  0.00  0.00     0.060 C 
ATOM     27  H   LIG d   1      10.363   4.965  -4.997  0.00  0.00     0.051 H 
ATOM     28  H   LIG d   1      11.660   4.152  -4.090  0.00  0.00     0.051 H 
BRANCH  26  29
ATOM     29  N   LIG d   1      10.182   5.064  -2.906  0.00  0.00    -0.292 N 
ATOM     30  C   LIG d   1      11.257   5.049  -1.904  0.00  0.00     0.015 C 
ATOM     31  C   LIG d   1      10.733   5.638  -0.590  0.00  0.00     0.025 C 
ATOM     32  H   LIG d   1      12.096   5.646  -2.262  0.00  0.00     0.044 H 
ATOM     33  H   LIG d   1      11.584   4.023  -1.738  0.00  0.00     0.044 H 
ATOM     34  N   LIG d   1      10.160   6.964  -0.869  0.00  0.00    -0.328 N 
ATOM     35  H   LIG d   1      11.554   5.737   0.120  0.00  0.00     0.048 H 
ATOM     36  H   LIG d   1       9.963   4.987  -0.178  0.00  0.00     0.048 H 
ATOM     37  C   LIG d   1       9.170   7.081  -1.951  0.00  0.00     0.025 C 
ATOM     38  C   LIG d   1       9.760   6.436  -3.216  0.00  0.00     0.015 C 
ATOM     39  H   LIG d   1       8.254   6.565  -1.666  0.00  0.00     0.048 H 
ATOM     40  H   LIG d   1       8.958   8.134  -2.141  0.00  0.00     0.048 H 
ATOM     41  H   LIG d   1      10.620   7.014  -3.555  0.00  0.00     0.044 H 
ATOM     42  H   LIG d   1       9.003   6.416  -3.999  0.00  0.00     0.044 H 
BRANCH  34  43
ATOM     43  C   LIG d   1      10.541   8.081  -0.122  0.00  0.00     0.030 A 
ATOM     44  C   LIG d   1      10.023   9.334  -0.429  0.00  0.00    -0.041 A 
ATOM     45  C   LIG d   1      10.402  10.436   0.313  0.00  0.00    -0.060 A 
ATOM     46  H   LIG d   1       9.326   9.445  -1.245  0.00  0.00     0.064 H 
ATOM     47  C   LIG d   1      11.295  10.294   1.359  0.00  0.00    -0.062 A 
ATOM     48  H   LIG d   1      10.000  11.409   0.075  0.00  0.00     0.062 H 
ATOM     49  C   LIG d   1      11.812   9.048   1.667  0.00  0.00    -0.060 A 
ATOM     50  H   LIG d   1      11.593  11.158   1.934  0.00  0.00     0.062 H 
ATOM     51  C   LIG d   1      11.438   7.943   0.930  0.00  0.00    -0.041 A 
ATOM     52  H   LIG d   1      12.509   8.942   2.485  0.00  0.00     0.062 H 
ATOM     53  H   LIG d   1      11.841   6.970   1.171  0.00  0.00     0.064 H 
ENDBRANCH  34  43
ENDBRANCH  26  29
ENDBRANCH  22  26
ENDBRANCH  17  20
ENDBRANCH   1  17
BRANCH   7  54
ATOM     54  C   LIG d   1       4.338  -0.456  -4.902  0.00  0.00     0.028 C 
ATOM     55  H   LIG d   1       3.371  -0.613  -4.426  0.00  0.00     0.036 H 
ATOM     56  H   LIG d   1       4.470   0.604  -5.117  0.00  0.00     0.036 H 
BRANCH  54  57
ATOM     57  C   LIG d   1       4.397  -1.239  -6.188  0.00  0.00     0.216 C 
ATOM     58  O   LIG d   1       5.110  -2.217  -6.272  0.00  0.00    -0.276 OA
ATOM     59  N   LIG d   1       3.657  -0.853  -7.247  0.00  0.00    -0.301 N 
ATOM     60  C   LIG d   1       3.703  -1.607  -8.508  0.00  0.00     0.015 C 
ATOM     61  C   LIG d   1       2.792   0.331  -7.164  0.00  0.00     0.015 C 
ATOM     62  C   LIG d   1       4.030  -0.647  -9.650  0.00  0.00    -0.037 C 
ATOM     63  H   LIG d   1       4.475  -2.375  -8.446  0.00  0.00     0.046 H 
ATOM     64  H   LIG d   1       2.736  -2.072  -8.692  0.00  0.00     0.046 H 
ATOM     65  C   LIG d   1       3.028   0.509  -9.645  0.00  0.00    -0.050 C 
ATOM     66  H   LIG d   1       3.970  -1.176 -10.601  0.00  0.00     0.028 H 
ATOM     67  H   LIG d   1       5.038  -0.255  -9.514  0.00  0.00     0.028 H 
ATOM     68  C   LIG d   1       3.135   1.273  -8.323  0.00  0.00    -0.037 C 
ATOM     69  H   LIG d   1       2.018   0.114  -9.755  0.00  0.00     0.027 H 
ATOM     70  H   LIG d   1       3.246   1.184 -10.472  0.00  0.00     0.027 H 
ATOM     71  H   LIG d   1       2.436   2.111  -8.330  0.00  0.00     0.028 H 
ATOM     72  H   LIG d   1       4.151   1.647  -8.200  0.00  0.00     0.028 H 
ATOM     73  H   LIG d   1       1.748   0.028  -7.236  0.00  0.00     0.046 H 
ATOM     74  H   LIG d   1       2.963   0.842  -6.216  0.00  0.00     0.046 H 
ENDBRANCH  54  57
ENDBRANCH   7  54
TORSDOF 7
ENDMDL
MODEL 6
REMARK VINA RESULT:      -7.0      1.861      2.922
REMARK  7 active torsions:
REMARK  status: ('A' for Active; 'I' for Inactive)
REMARK    1  A    between atoms: C_4  and  N_7 
REMARK    2  A    between atoms: N_10  and  C_13 
REMARK    3  A    between atoms: C_13  and  C_14 
REMARK    4  A    between atoms: C_16  and  C_19 
REMARK    5  A    between atoms: C_19  and  C_20 
REMARK    6  A    between atoms: C_26  and  C_28 
REMARK    7  A    between atoms: C_28  and  C_29 
REMARK       I    between atoms: C_29  and  N_31 
ROOT
ATOM      1  C   LIG d   1       7.455  -0.063  -7.132  0.00  0.00     0.008 C 
ATOM      2  H   LIG d   1       8.075   0.782  -7.433  0.00  0.00     0.036 H 
ATOM      3  C   LIG d   1       7.819  -1.288  -7.974  0.00  0.00    -0.030 C 
ATOM      4  N   LIG d   1       7.588  -0.997  -9.394  0.00  0.00     0.227 N 
ATOM      5  C   LIG d   1       6.161  -0.738  -9.623  0.00  0.00    -0.033 C 
ATOM      6  C   LIG d   1       5.734   0.510  -8.845  0.00  0.00    -0.009 C 
ATOM      7  C   LIG d   1       5.980   0.281  -7.351  0.00  0.00    -0.020 C 
ATOM      8  H   LIG d   1       5.730   1.187  -6.798  0.00  0.00     0.031 H 
ATOM      9  H   LIG d   1       8.869  -1.536  -7.820  0.00  0.00     0.082 H 
ATOM     10  H   LIG d   1       7.200  -2.133  -7.671  0.00  0.00     0.082 H 
ATOM     11  H   LIG d   1       8.125  -0.185  -9.661  0.00  0.00     0.201 HD
ATOM     12  H   LIG d   1       5.989  -0.578 -10.688  0.00  0.00     0.081 H 
ATOM     13  H   LIG d   1       5.578  -1.594  -9.286  0.00  0.00     0.081 H 
ATOM     14  H   LIG d   1       6.317   1.366  -9.182  0.00  0.00     0.032 H 
ATOM     15  H   LIG d   1       4.675   0.699  -9.015  0.00  0.00     0.032 H 
ATOM     16  H   LIG d   1       7.879  -1.788  -9.950  0.00  0.00     0.201 HD
ENDROOT
BRANCH   1  17
ATOM     17  C   LIG d   1       7.695  -0.370  -5.652  0.00  0.00     0.001 C 
ATOM     18  H   LIG d   1       8.509  -1.089  -5.558  0.00  0.00     0.033 H 
ATOM     19  H   LIG d   1       6.788  -0.789  -5.216  0.00  0.00     0.033 H 
BRANCH  17  20
ATOM     20  C   LIG d   1       8.062   0.900  -4.929  0.00  0.00     0.084 A 
ATOM     21  C   LIG d   1       8.904   1.915  -5.419  0.00  0.00     0.005 A 
ATOM     22  C   LIG d   1       8.983   2.881  -4.484  0.00  0.00     0.151 A 
ATOM     23  H   LIG d   1       9.399   1.919  -6.378  0.00  0.00     0.067 H 
ATOM     24  O   LIG d   1       8.234   2.506  -3.436  0.00  0.00    -0.358 OA
ATOM     25  N   LIG d   1       7.655   1.251  -3.743  0.00  0.00    -0.083 NA
BRANCH  22  26
ATOM     26  C   LIG d   1       9.780   4.155  -4.591  0.00  0.00     0.060 C 
ATOM     27  H   LIG d   1       9.311   4.818  -5.319  0.00  0.00     0.051 H 
ATOM     28  H   LIG d   1      10.795   3.923  -4.914  0.00  0.00     0.051 H 
BRANCH  26  29
ATOM     29  N   LIG d   1       9.822   4.818  -3.281  0.00  0.00    -0.292 N 
ATOM     30  C   LIG d   1      11.113   4.593  -2.617  0.00  0.00     0.015 C 
ATOM     31  C   LIG d   1      11.051   5.142  -1.188  0.00  0.00     0.025 C 
ATOM     32  H   LIG d   1      11.900   5.105  -3.170  0.00  0.00     0.044 H 
ATOM     33  H   LIG d   1      11.324   3.524  -2.588  0.00  0.00     0.044 H 
ATOM     34  N   LIG d   1      10.617   6.546  -1.245  0.00  0.00    -0.328 N 
ATOM     35  H   LIG d   1      12.038   5.082  -0.729  0.00  0.00     0.048 H 
ATOM     36  H   LIG d   1      10.336   4.562  -0.604  0.00  0.00     0.048 H 
ATOM     37  C   LIG d   1       9.400   6.869  -2.006  0.00  0.00     0.025 C 
ATOM     38  C   LIG d   1       9.530   6.253  -3.408  0.00  0.00     0.015 C 
ATOM     39  H   LIG d   1       8.531   6.452  -1.498  0.00  0.00     0.048 H 
ATOM     40  H   LIG d   1       9.296   7.951  -2.088  0.00  0.00     0.048 H 
ATOM     41  H   LIG d   1      10.340   6.742  -3.950  0.00  0.00     0.044 H 
ATOM     42  H   LIG d   1       8.595   6.387  -3.951  0.00  0.00     0.044 H 
BRANCH  34  43
ATOM     43  C   LIG d   1      11.340   7.547  -0.591  0.00  0.00     0.030 A 
ATOM     44  C   LIG d   1      12.298   8.279  -1.281  0.00  0.00    -0.041 A 
ATOM     45  C   LIG d   1      13.010   9.268  -0.631  0.00  0.00    -0.060 A 
ATOM     46  H   LIG d   1      12.486   8.074  -2.324  0.00  0.00     0.064 H 
ATOM     47  C   LIG d   1      12.770   9.531   0.706  0.00  0.00    -0.062 A 
ATOM     48  H   LIG d   1      13.754   9.837  -1.167  0.00  0.00     0.062 H 
ATOM     49  C   LIG d   1      11.816   8.804   1.395  0.00  0.00    -0.060 A 
ATOM     50  H   LIG d   1      13.331  10.301   1.212  0.00  0.00     0.062 H 
ATOM     51  C   LIG d   1      11.101   7.814   0.752  0.00  0.00    -0.041 A 
ATOM     52  H   LIG d   1      11.631   9.012   2.439  0.00  0.00     0.062 H 
ATOM     53  H   LIG d   1      10.356   7.247   1.290  0.00  0.00     0.064 H 
ENDBRANCH  34  43
ENDBRANCH  26  29
ENDBRANCH  22  26
ENDBRANCH  17  20
ENDBRANCH   1  17
BRANCH   7  54
ATOM     54  C   LIG d   1       5.107  -0.876  -6.861  0.00  0.00     0.028 C 
ATOM     55  H   LIG d   1       4.623  -1.353  -7.713  0.00  0.00     0.036 H 
ATOM     56  H   LIG d   1       5.727  -1.605  -6.340  0.00  0.00     0.036 H 
BRANCH  54  57
ATOM     57  C   LIG d   1       4.056  -0.347  -5.918  0.00  0.00     0.216 C 
ATOM     58  O   LIG d   1       3.342   0.572  -6.259  0.00  0.00    -0.276 OA
ATOM     59  N   LIG d   1       3.909  -0.897  -4.697  0.00  0.00    -0.301 N 
ATOM     60  C   LIG d   1       2.889  -0.394  -3.766  0.00  0.00     0.015 C 
ATOM     61  C   LIG d   1       4.769  -2.008  -4.267  0.00  0.00     0.015 C 
ATOM     62  C   LIG d   1       3.556  -0.048  -2.436  0.00  0.00    -0.037 C 
ATOM     63  H   LIG d   1       2.424   0.500  -4.183  0.00  0.00     0.046 H 
ATOM     64  H   LIG d   1       2.133  -1.160  -3.603  0.00  0.00     0.046 H 
ATOM     65  C   LIG d   1       4.328  -1.265  -1.923  0.00  0.00    -0.050 C 
ATOM     66  H   LIG d   1       2.794   0.233  -1.708  0.00  0.00     0.028 H 
ATOM     67  H   LIG d   1       4.244   0.785  -2.583  0.00  0.00     0.028 H 
ATOM     68  C   LIG d   1       5.419  -1.640  -2.929  0.00  0.00    -0.037 C 
ATOM     69  H   LIG d   1       3.643  -2.104  -1.801  0.00  0.00     0.027 H 
ATOM     70  H   LIG d   1       4.786  -1.027  -0.963  0.00  0.00     0.027 H 
ATOM     71  H   LIG d   1       5.984  -2.493  -2.552  0.00  0.00     0.028 H 
ATOM     72  H   LIG d   1       6.090  -0.793  -3.072  0.00  0.00     0.028 H 
ATOM     73  H   LIG d   1       4.169  -2.910  -4.146  0.00  0.00     0.046 H 
ATOM     74  H   LIG d   1       5.544  -2.180  -5.014  0.00  0.00     0.046 H 
ENDBRANCH  54  57
ENDBRANCH   7  54
TORSDOF 7
ENDMDL
MODEL 7
REMARK VINA RESULT:      -6.8      3.324      9.786
REMARK  7 active torsions:
REMARK  status: ('A' for Active; 'I' for Inactive)
REMARK    1  A    between atoms: C_4  and  N_7 
REMARK    2  A    between atoms: N_10  and  C_13 
REMARK    3  A    between atoms: C_13  and  C_14 
REMARK    4  A    between atoms: C_16  and  C_19 
REMARK    5  A    between atoms: C_19  and  C_20 
REMARK    6  A    between atoms: C_26  and  C_28 
REMARK    7  A    between atoms: C_28  and  C_29 
REMARK       I    between atoms: C_29  and  N_31 
ROOT
ATOM      1  C   LIG d   1      11.007   5.596  -3.126  0.00  0.00     0.008 C 
ATOM      2  H   LIG d   1      10.374   4.711  -3.054  0.00  0.00     0.036 H 
ATOM      3  C   LIG d   1      12.064   5.560  -2.021  0.00  0.00    -0.030 C 
ATOM      4  N   LIG d   1      11.405   5.538  -0.709  0.00  0.00     0.227 N 
ATOM      5  C   LIG d   1      10.638   6.775  -0.516  0.00  0.00    -0.033 C 
ATOM      6  C   LIG d   1       9.525   6.857  -1.564  0.00  0.00    -0.009 C 
ATOM      7  C   LIG d   1      10.148   6.853  -2.963  0.00  0.00    -0.020 C 
ATOM      8  H   LIG d   1       9.357   6.854  -3.714  0.00  0.00     0.031 H 
ATOM      9  H   LIG d   1      12.678   4.666  -2.134  0.00  0.00     0.082 H 
ATOM     10  H   LIG d   1      12.697   6.446  -2.094  0.00  0.00     0.082 H 
ATOM     11  H   LIG d   1      10.783   4.745  -0.659  0.00  0.00     0.201 HD
ATOM     12  H   LIG d   1      10.198   6.776   0.481  0.00  0.00     0.081 H 
ATOM     13  H   LIG d   1      11.300   7.633  -0.621  0.00  0.00     0.081 H 
ATOM     14  H   LIG d   1       8.862   5.998  -1.459  0.00  0.00     0.032 H 
ATOM     15  H   LIG d   1       8.958   7.776  -1.420  0.00  0.00     0.032 H 
ATOM     16  H   LIG d   1      12.104   5.460   0.015  0.00  0.00     0.201 HD
ENDROOT
BRANCH   1  17
ATOM     17  C   LIG d   1      11.696   5.621  -4.492  0.00  0.00     0.001 C 
ATOM     18  H   LIG d   1      12.676   5.153  -4.412  0.00  0.00     0.033 H 
ATOM     19  H   LIG d   1      11.812   6.654  -4.822  0.00  0.00     0.033 H 
BRANCH  17  20
ATOM     20  C   LIG d   1      10.858   4.865  -5.491  0.00  0.00     0.084 A 
ATOM     21  C   LIG d   1      10.665   3.472  -5.517  0.00  0.00     0.005 A 
ATOM     22  C   LIG d   1       9.855   3.182  -6.555  0.00  0.00     0.151 A 
ATOM     23  H   LIG d   1      11.089   2.759  -4.827  0.00  0.00     0.067 H 
ATOM     24  O   LIG d   1       9.546   4.332  -7.174  0.00  0.00    -0.358 OA
ATOM     25  N   LIG d   1      10.188   5.385  -6.478  0.00  0.00    -0.083 NA
BRANCH  22  26
ATOM     26  C   LIG d   1       9.386   1.807  -6.956  0.00  0.00     0.060 C 
ATOM     27  H   LIG d   1      10.207   1.266  -7.427  0.00  0.00     0.051 H 
ATOM     28  H   LIG d   1       8.558   1.895  -7.658  0.00  0.00     0.051 H 
BRANCH  26  29
ATOM     29  N   LIG d   1       8.940   1.075  -5.762  0.00  0.00    -0.292 N 
ATOM     30  C   LIG d   1       7.955   1.856  -5.003  0.00  0.00     0.015 C 
ATOM     31  C   LIG d   1       7.653   1.144  -3.680  0.00  0.00     0.025 C 
ATOM     32  H   LIG d   1       7.037   1.948  -5.584  0.00  0.00     0.044 H 
ATOM     33  H   LIG d   1       8.358   2.848  -4.798  0.00  0.00     0.044 H 
ATOM     34  N   LIG d   1       7.255  -0.241  -3.976  0.00  0.00    -0.328 N 
ATOM     35  H   LIG d   1       6.840   1.656  -3.165  0.00  0.00     0.048 H 
ATOM     36  H   LIG d   1       8.544   1.141  -3.054  0.00  0.00     0.048 H 
ATOM     37  C   LIG d   1       8.129  -1.047  -4.842  0.00  0.00     0.025 C 
ATOM     38  C   LIG d   1       8.410  -0.246  -6.124  0.00  0.00     0.015 C 
ATOM     39  H   LIG d   1       9.065  -1.255  -4.324  0.00  0.00     0.048 H 
ATOM     40  H   LIG d   1       7.631  -1.984  -5.096  0.00  0.00     0.048 H 
ATOM     41  H   LIG d   1       7.485  -0.125  -6.689  0.00  0.00     0.044 H 
ATOM     42  H   LIG d   1       9.141  -0.779  -6.731  0.00  0.00     0.044 H 
BRANCH  34  43
ATOM     43  C   LIG d   1       6.080  -0.778  -3.445  0.00  0.00     0.030 A 
ATOM     44  C   LIG d   1       5.308  -0.030  -2.564  0.00  0.00    -0.041 A 
ATOM     45  C   LIG d   1       4.146  -0.564  -2.043  0.00  0.00    -0.060 A 
ATOM     46  H   LIG d   1       5.616   0.966  -2.288  0.00  0.00     0.064 H 
ATOM     47  C   LIG d   1       3.750  -1.842  -2.395  0.00  0.00    -0.062 A 
ATOM     48  H   LIG d   1       3.546   0.016  -1.358  0.00  0.00     0.062 H 
ATOM     49  C   LIG d   1       4.516  -2.588  -3.272  0.00  0.00    -0.060 A 
ATOM     50  H   LIG d   1       2.844  -2.259  -1.982  0.00  0.00     0.062 H 
ATOM     51  C   LIG d   1       5.678  -2.061  -3.798  0.00  0.00    -0.041 A 
ATOM     52  H   LIG d   1       4.203  -3.585  -3.546  0.00  0.00     0.062 H 
ATOM     53  H   LIG d   1       6.276  -2.644  -4.483  0.00  0.00     0.064 H 
ENDBRANCH  34  43
ENDBRANCH  26  29
ENDBRANCH  22  26
ENDBRANCH  17  20
ENDBRANCH   1  17
BRANCH   7  54
ATOM     54  C   LIG d   1      11.022   8.096  -3.137  0.00  0.00     0.028 C 
ATOM     55  H   LIG d   1      11.159   8.582  -2.171  0.00  0.00     0.036 H 
ATOM     56  H   LIG d   1      11.992   7.806  -3.539  0.00  0.00     0.036 H 
BRANCH  54  57
ATOM     57  C   LIG d   1      10.350   9.052  -4.089  0.00  0.00     0.216 C 
ATOM     58  O   LIG d   1      10.340   8.818  -5.278  0.00  0.00    -0.276 OA
ATOM     59  N   LIG d   1       9.760  10.169  -3.617  0.00  0.00    -0.301 N 
ATOM     60  C   LIG d   1       9.100  11.111  -4.532  0.00  0.00     0.015 C 
ATOM     61  C   LIG d   1       9.767  10.470  -2.179  0.00  0.00     0.015 C 
ATOM     62  C   LIG d   1       9.667  12.510  -4.299  0.00  0.00    -0.037 C 
ATOM     63  H   LIG d   1       9.287  10.810  -5.563  0.00  0.00     0.046 H 
ATOM     64  H   LIG d   1       8.028  11.118  -4.339  0.00  0.00     0.046 H 
ATOM     65  C   LIG d   1       9.532  12.873  -2.819  0.00  0.00    -0.050 C 
ATOM     66  H   LIG d   1       9.116  13.232  -4.902  0.00  0.00     0.028 H 
ATOM     67  H   LIG d   1      10.719  12.525  -4.583  0.00  0.00     0.028 H 
ATOM     68  C   LIG d   1      10.332  11.879  -1.973  0.00  0.00    -0.037 C 
ATOM     69  H   LIG d   1       8.482  12.833  -2.529  0.00  0.00     0.027 H 
ATOM     70  H   LIG d   1       9.916  13.880  -2.654  0.00  0.00     0.027 H 
ATOM     71  H   LIG d   1      10.255  12.152  -0.920  0.00  0.00     0.028 H 
ATOM     72  H   LIG d   1      11.378  11.900  -2.279  0.00  0.00     0.028 H 
ATOM     73  H   LIG d   1       8.751  10.423  -1.790  0.00  0.00     0.046 H 
ATOM     74  H   LIG d   1      10.394   9.746  -1.658  0.00  0.00     0.046 H 
ENDBRANCH  54  57
ENDBRANCH   7  54
TORSDOF 7
ENDMDL
MODEL 8
REMARK VINA RESULT:      -6.8      5.812     12.840
REMARK  7 active torsions:
REMARK  status: ('A' for Active; 'I' for Inactive)
REMARK    1  A    between atoms: C_4  and  N_7 
REMARK    2  A    between atoms: N_10  and  C_13 
REMARK    3  A    between atoms: C_13  and  C_14 
REMARK    4  A    between atoms: C_16  and  C_19 
REMARK    5  A    between atoms: C_19  and  C_20 
REMARK    6  A    between atoms: C_26  and  C_28 
REMARK    7  A    between atoms: C_28  and  C_29 
REMARK       I    between atoms: C_29  and  N_31 
ROOT
ATOM      1  C   LIG d   1       3.538   0.118  -9.321  0.00  0.00     0.008 C 
ATOM      2  H   LIG d   1       3.809  -0.149 -10.343  0.00  0.00     0.036 H 
ATOM      3  C   LIG d   1       3.653   1.633  -9.142  0.00  0.00    -0.030 C 
ATOM      4  N   LIG d   1       5.034   2.057  -9.406  0.00  0.00     0.227 N 
ATOM      5  C   LIG d   1       5.939   1.448  -8.424  0.00  0.00    -0.033 C 
ATOM      6  C   LIG d   1       5.912  -0.075  -8.577  0.00  0.00    -0.009 C 
ATOM      7  C   LIG d   1       4.485  -0.580  -8.342  0.00  0.00    -0.020 C 
ATOM      8  H   LIG d   1       4.449  -1.658  -8.505  0.00  0.00     0.031 H 
ATOM      9  H   LIG d   1       2.980   2.134  -9.837  0.00  0.00     0.082 H 
ATOM     10  H   LIG d   1       3.381   1.900  -8.119  0.00  0.00     0.082 H 
ATOM     11  H   LIG d   1       5.301   1.768 -10.335  0.00  0.00     0.201 HD
ATOM     12  H   LIG d   1       6.953   1.812  -8.591  0.00  0.00     0.081 H 
ATOM     13  H   LIG d   1       5.618   1.718  -7.418  0.00  0.00     0.081 H 
ATOM     14  H   LIG d   1       6.232  -0.345  -9.582  0.00  0.00     0.032 H 
ATOM     15  H   LIG d   1       6.583  -0.526  -7.845  0.00  0.00     0.032 H 
ATOM     16  H   LIG d   1       5.093   3.063  -9.339  0.00  0.00     0.201 HD
ENDROOT
BRANCH   1  17
ATOM     17  C   LIG d   1       2.099  -0.322  -9.043  0.00  0.00     0.001 C 
ATOM     18  H   LIG d   1       1.453   0.555  -9.007  0.00  0.00     0.033 H 
ATOM     19  H   LIG d   1       2.057  -0.844  -8.087  0.00  0.00     0.033 H 
BRANCH  17  20
ATOM     20  C   LIG d   1       1.635  -1.244 -10.141  0.00  0.00     0.084 A 
ATOM     21  C   LIG d   1       1.760  -2.645 -10.149  0.00  0.00     0.005 A 
ATOM     22  C   LIG d   1       1.227  -3.106 -11.297  0.00  0.00     0.151 A 
ATOM     23  H   LIG d   1       2.204  -3.247  -9.370  0.00  0.00     0.067 H 
ATOM     24  O   LIG d   1       0.785  -2.053 -12.002  0.00  0.00    -0.358 OA
ATOM     25  N   LIG d   1       1.049  -0.884 -11.246  0.00  0.00    -0.083 NA
BRANCH  22  26
ATOM     26  C   LIG d   1       1.149  -4.550 -11.721  0.00  0.00     0.060 C 
ATOM     27  H   LIG d   1       2.104  -5.038 -11.529  0.00  0.00     0.051 H 
ATOM     28  H   LIG d   1       0.921  -4.605 -12.785  0.00  0.00     0.051 H 
BRANCH  26  29
ATOM     29  N   LIG d   1       0.091  -5.227 -10.958  0.00  0.00    -0.292 N 
ATOM     30  C   LIG d   1      -1.233  -4.946 -11.529  0.00  0.00     0.015 C 
ATOM     31  C   LIG d   1      -2.315  -5.516 -10.606  0.00  0.00     0.025 C 
ATOM     32  H   LIG d   1      -1.311  -5.412 -12.512  0.00  0.00     0.044 H 
ATOM     33  H   LIG d   1      -1.366  -3.869 -11.624  0.00  0.00     0.044 H 
ATOM     34  N   LIG d   1      -2.027  -6.940 -10.371  0.00  0.00    -0.328 N 
ATOM     35  H   LIG d   1      -3.291  -5.414 -11.079  0.00  0.00     0.048 H 
ATOM     36  H   LIG d   1      -2.305  -4.981  -9.657  0.00  0.00     0.048 H 
ATOM     37  C   LIG d   1      -0.676  -7.312  -9.923  0.00  0.00     0.025 C 
ATOM     38  C   LIG d   1       0.343  -6.672 -10.879  0.00  0.00     0.015 C 
ATOM     39  H   LIG d   1      -0.513  -6.946  -8.910  0.00  0.00     0.048 H 
ATOM     40  H   LIG d   1      -0.569  -8.398  -9.945  0.00  0.00     0.048 H 
ATOM     41  H   LIG d   1       0.243  -7.114 -11.871  0.00  0.00     0.044 H 
ATOM     42  H   LIG d   1       1.351  -6.846 -10.503  0.00  0.00     0.044 H 
BRANCH  34  43
ATOM     43  C   LIG d   1      -3.011  -7.912 -10.565  0.00  0.00     0.030 A 
ATOM     44  C   LIG d   1      -4.266  -7.548 -11.040  0.00  0.00    -0.041 A 
ATOM     45  C   LIG d   1      -5.236  -8.512 -11.232  0.00  0.00    -0.060 A 
ATOM     46  H   LIG d   1      -4.481  -6.513 -11.258  0.00  0.00     0.064 H 
ATOM     47  C   LIG d   1      -4.960  -9.838 -10.952  0.00  0.00    -0.062 A 
ATOM     48  H   LIG d   1      -6.210  -8.229 -11.600  0.00  0.00     0.062 H 
ATOM     49  C   LIG d   1      -3.712 -10.203 -10.480  0.00  0.00    -0.060 A 
ATOM     50  H   LIG d   1      -5.722 -10.589 -11.098  0.00  0.00     0.062 H 
ATOM     51  C   LIG d   1      -2.738  -9.245 -10.286  0.00  0.00    -0.041 A 
ATOM     52  H   LIG d   1      -3.501 -11.240 -10.264  0.00  0.00     0.062 H 
ATOM     53  H   LIG d   1      -1.763  -9.531  -9.919  0.00  0.00     0.064 H 
ENDBRANCH  34  43
ENDBRANCH  26  29
ENDBRANCH  22  26
ENDBRANCH  17  20
ENDBRANCH   1  17
BRANCH   7  54
ATOM     54  C   LIG d   1       4.061  -0.265  -6.906  0.00  0.00     0.028 C 
ATOM     55  H   LIG d   1       4.600   0.614  -6.553  0.00  0.00     0.036 H 
ATOM     56  H   LIG d   1       2.989  -0.070  -6.878  0.00  0.00     0.036 H 
BRANCH  54  57
ATOM     57  C   LIG d   1       4.381  -1.440  -6.019  0.00  0.00     0.216 C 
ATOM     58  O   LIG d   1       4.375  -2.564  -6.474  0.00  0.00    -0.276 OA
ATOM     59  N   LIG d   1       4.674  -1.241  -4.718  0.00  0.00    -0.301 N 
ATOM     60  C   LIG d   1       4.989  -2.377  -3.839  0.00  0.00     0.015 C 
ATOM     61  C   LIG d   1       4.681   0.113  -4.150  0.00  0.00     0.015 C 
ATOM     62  C   LIG d   1       4.079  -2.325  -2.614  0.00  0.00    -0.037 C 
ATOM     63  H   LIG d   1       4.823  -3.311  -4.376  0.00  0.00     0.046 H 
ATOM     64  H   LIG d   1       6.028  -2.316  -3.521  0.00  0.00     0.046 H 
ATOM     65  C   LIG d   1       4.208  -0.956  -1.942  0.00  0.00    -0.050 C 
ATOM     66  H   LIG d   1       4.369  -3.104  -1.909  0.00  0.00     0.028 H 
ATOM     67  H   LIG d   1       3.046  -2.482  -2.924  0.00  0.00     0.028 H 
ATOM     68  C   LIG d   1       3.768   0.137  -2.920  0.00  0.00    -0.037 C 
ATOM     69  H   LIG d   1       5.246  -0.789  -1.655  0.00  0.00     0.027 H 
ATOM     70  H   LIG d   1       3.575  -0.925  -1.055  0.00  0.00     0.027 H 
ATOM     71  H   LIG d   1       3.838   1.110  -2.433  0.00  0.00     0.028 H 
ATOM     72  H   LIG d   1       2.738  -0.043  -3.228  0.00  0.00     0.028 H 
ATOM     73  H   LIG d   1       5.695   0.383  -3.857  0.00  0.00     0.046 H 
ATOM     74  H   LIG d   1       4.312   0.822  -4.892  0.00  0.00     0.046 H 
ENDBRANCH  54  57
ENDBRANCH   7  54
TORSDOF 7
ENDMDL
MODEL 9
REMARK VINA RESULT:      -6.7      5.862     10.376
REMARK  7 active torsions:
REMARK  status: ('A' for Active; 'I' for Inactive)
REMARK    1  A    between atoms: C_4  and  N_7 
REMARK    2  A    between atoms: N_10  and  C_13 
REMARK    3  A    between atoms: C_13  and  C_14 
REMARK    4  A    between atoms: C_16  and  C_19 
REMARK    5  A    between atoms: C_19  and  C_20 
REMARK    6  A    between atoms: C_26  and  C_28 
REMARK    7  A    between atoms: C_28  and  C_29 
REMARK       I    between atoms: C_29  and  N_31 
ROOT
ATOM      1  C   LIG d   1       4.888  -1.576  -3.888  0.00  0.00     0.008 C 
ATOM      2  H   LIG d   1       4.439  -2.201  -3.115  0.00  0.00     0.036 H 
ATOM      3  C   LIG d   1       5.542  -0.354  -3.241  0.00  0.00    -0.030 C 
ATOM      4  N   LIG d   1       4.528   0.422  -2.516  0.00  0.00     0.227 N 
ATOM      5  C   LIG d   1       3.523   0.931  -3.457  0.00  0.00    -0.033 C 
ATOM      6  C   LIG d   1       2.791  -0.243  -4.111  0.00  0.00    -0.009 C 
ATOM      7  C   LIG d   1       3.803  -1.113  -4.863  0.00  0.00    -0.020 C 
ATOM      8  H   LIG d   1       3.295  -1.982  -5.283  0.00  0.00     0.031 H 
ATOM      9  H   LIG d   1       6.315  -0.680  -2.546  0.00  0.00     0.082 H 
ATOM     10  H   LIG d   1       5.991   0.270  -4.015  0.00  0.00     0.082 H 
ATOM     11  H   LIG d   1       4.080  -0.170  -1.832  0.00  0.00     0.201 HD
ATOM     12  H   LIG d   1       2.806   1.552  -2.920  0.00  0.00     0.081 H 
ATOM     13  H   LIG d   1       4.015   1.527  -4.225  0.00  0.00     0.081 H 
ATOM     14  H   LIG d   1       2.300  -0.839  -3.343  0.00  0.00     0.032 H 
ATOM     15  H   LIG d   1       2.047   0.137  -4.811  0.00  0.00     0.032 H 
ATOM     16  H   LIG d   1       4.973   1.197  -2.047  0.00  0.00     0.201 HD
ENDROOT
BRANCH   1  17
ATOM     17  C   LIG d   1       5.946  -2.382  -4.645  0.00  0.00     0.001 C 
ATOM     18  H   LIG d   1       6.816  -2.529  -4.005  0.00  0.00     0.033 H 
ATOM     19  H   LIG d   1       6.242  -1.840  -5.543  0.00  0.00     0.033 H 
BRANCH  17  20
ATOM     20  C   LIG d   1       5.375  -3.722  -5.031  0.00  0.00     0.084 A 
ATOM     21  C   LIG d   1       5.790  -4.512  -6.119  0.00  0.00     0.005 A 
ATOM     22  C   LIG d   1       5.042  -5.633  -6.131  0.00  0.00     0.151 A 
ATOM     23  H   LIG d   1       6.571  -4.264  -6.822  0.00  0.00     0.067 H 
ATOM     24  O   LIG d   1       4.180  -5.568  -5.104  0.00  0.00    -0.358 OA
ATOM     25  N   LIG d   1       4.414  -4.351  -4.418  0.00  0.00    -0.083 NA
BRANCH  22  26
ATOM     26  C   LIG d   1       5.148  -6.758  -7.127  0.00  0.00     0.060 C 
ATOM     27  H   LIG d   1       5.771  -6.445  -7.965  0.00  0.00     0.051 H 
ATOM     28  H   LIG d   1       4.154  -7.016  -7.492  0.00  0.00     0.051 H 
BRANCH  26  29
ATOM     29  N   LIG d   1       5.752  -7.930  -6.479  0.00  0.00    -0.292 N 
ATOM     30  C   LIG d   1       6.872  -7.535  -5.615  0.00  0.00     0.015 C 
ATOM     31  C   LIG d   1       7.586  -8.791  -5.104  0.00  0.00     0.025 C 
ATOM     32  H   LIG d   1       6.494  -6.962  -4.769  0.00  0.00     0.044 H 
ATOM     33  H   LIG d   1       7.572  -6.925  -6.185  0.00  0.00     0.044 H 
ATOM     34  N   LIG d   1       6.591  -9.669  -4.470  0.00  0.00    -0.328 N 
ATOM     35  H   LIG d   1       8.344  -8.510  -4.374  0.00  0.00     0.048 H 
ATOM     36  H   LIG d   1       8.053  -9.312  -5.940  0.00  0.00     0.048 H 
ATOM     37  C   LIG d   1       5.374 -10.003  -5.227  0.00  0.00     0.025 C 
ATOM     38  C   LIG d   1       4.745  -8.695  -5.731  0.00  0.00     0.015 C 
ATOM     39  H   LIG d   1       5.634 -10.639  -6.074  0.00  0.00     0.048 H 
ATOM     40  H   LIG d   1       4.670 -10.524  -4.578  0.00  0.00     0.048 H 
ATOM     41  H   LIG d   1       4.397  -8.105  -4.883  0.00  0.00     0.044 H 
ATOM     42  H   LIG d   1       3.904  -8.926  -6.384  0.00  0.00     0.044 H 
BRANCH  34  43
ATOM     43  C   LIG d   1       6.797 -10.175  -3.185  0.00  0.00     0.030 A 
ATOM     44  C   LIG d   1       7.669  -9.533  -2.315  0.00  0.00    -0.041 A 
ATOM     45  C   LIG d   1       7.869 -10.036  -1.044  0.00  0.00    -0.060 A 
ATOM     46  H   LIG d   1       8.191  -8.643  -2.632  0.00  0.00     0.064 H 
ATOM     47  C   LIG d   1       7.203 -11.178  -0.637  0.00  0.00    -0.062 A 
ATOM     48  H   LIG d   1       8.548  -9.538  -0.368  0.00  0.00     0.062 H 
ATOM     49  C   LIG d   1       6.333 -11.818  -1.501  0.00  0.00    -0.060 A 
ATOM     50  H   LIG d   1       7.364 -11.571   0.355  0.00  0.00     0.062 H 
ATOM     51  C   LIG d   1       6.128 -11.321  -2.772  0.00  0.00    -0.041 A 
ATOM     52  H   LIG d   1       5.813 -12.709  -1.179  0.00  0.00     0.062 H 
ATOM     53  H   LIG d   1       5.448 -11.822  -3.446  0.00  0.00     0.064 H 
ENDBRANCH  34  43
ENDBRANCH  26  29
ENDBRANCH  22  26
ENDBRANCH  17  20
ENDBRANCH   1  17
BRANCH   7  54
ATOM     54  C   LIG d   1       4.441  -0.297  -5.989  0.00  0.00     0.028 C 
ATOM     55  H   LIG d   1       4.164   0.751  -5.880  0.00  0.00     0.036 H 
ATOM     56  H   LIG d   1       5.525  -0.394  -5.939  0.00  0.00     0.036 H 
BRANCH  54  57
ATOM     57  C   LIG d   1       3.952  -0.810  -7.319  0.00  0.00     0.216 C 
ATOM     58  O   LIG d   1       3.966  -1.999  -7.554  0.00  0.00    -0.276 OA
ATOM     59  N   LIG d   1       3.498   0.055  -8.248  0.00  0.00    -0.301 N 
ATOM     60  C   LIG d   1       3.017  -0.429  -9.550  0.00  0.00     0.015 C 
ATOM     61  C   LIG d   1       3.478   1.499  -7.981  0.00  0.00     0.015 C 
ATOM     62  C   LIG d   1       3.758   0.312 -10.661  0.00  0.00    -0.037 C 
ATOM     63  H   LIG d   1       3.210  -1.499  -9.636  0.00  0.00     0.046 H 
ATOM     64  H   LIG d   1       1.948  -0.240  -9.638  0.00  0.00     0.046 H 
ATOM     65  C   LIG d   1       3.604   1.821 -10.456  0.00  0.00    -0.050 C 
ATOM     66  H   LIG d   1       3.340   0.033 -11.629  0.00  0.00     0.028 H 
ATOM     67  H   LIG d   1       4.814   0.047 -10.630  0.00  0.00     0.028 H 
ATOM     68  C   LIG d   1       4.220   2.219  -9.112  0.00  0.00    -0.037 C 
ATOM     69  H   LIG d   1       2.546   2.082 -10.461  0.00  0.00     0.027 H 
ATOM     70  H   LIG d   1       4.114   2.351 -11.260  0.00  0.00     0.027 H 
ATOM     71  H   LIG d   1       4.131   3.298  -8.977  0.00  0.00     0.028 H 
ATOM     72  H   LIG d   1       5.273   1.936  -9.096  0.00  0.00     0.028 H 
ATOM     73  H   LIG d   1       2.448   1.850  -7.939  0.00  0.00     0.046 H 
ATOM     74  H   LIG d   1       3.975   1.702  -7.032  0.00  0.00     0.046 H 
ENDBRANCH  54  57
ENDBRANCH   7  54
TORSDOF 7
ENDMDL
