MODEL 1
REMARK VINA RESULT:      -5.5      0.000      0.000
REMARK  18 active torsions:
REMARK  status: ('A' for Active; 'I' for Inactive)
REMARK    1  A    between atoms: C_1  and  C_2 
REMARK    2  A    between atoms: C_2  and  C_3 
REMARK    3  A    between atoms: C_2  and  C_4 
REMARK    4  A    between atoms: C_4  and  C_5 
REMARK    5  A    between atoms: C_5  and  C_6 
REMARK    6  A    between atoms: C_6  and  O_37 
REMARK    7  A    between atoms: C_7  and  O_36 
REMARK    8  A    between atoms: C_9  and  C_34 
REMARK    9  A    between atoms: C_9  and  C_35 
REMARK   10  A    between atoms: C_10  and  O_17 
REMARK   11  A    between atoms: C_12  and  C_15 
REMARK   12  A    between atoms: C_12  and  C_16 
REMARK   13  A    between atoms: O_17  and  C_18 
REMARK   14  A    between atoms: C_20  and  O_33 
REMARK   15  A    between atoms: C_22  and  O_32 
REMARK   16  A    between atoms: C_24  and  O_31 
REMARK   17  A    between atoms: C_26  and  C_29 
REMARK   18  A    between atoms: C_29  and  O_30 
ROOT
ATOM      1  C   LIG d   1       4.106  -0.560  -5.907  0.00  0.00     0.150 C 
ATOM      2  C   LIG d   1       3.119   0.045  -6.903  0.00  0.00     0.098 C 
ATOM      3  H   LIG d   1       2.188  -0.535  -6.877  0.00  0.00     0.063 H 
ATOM      4  C   LIG d   1       3.660   0.051  -8.325  0.00  0.00     0.021 C 
ATOM      5  C   LIG d   1       4.103  -1.323  -8.799  0.00  0.00     0.081 C 
ATOM      6  H   LIG d   1       4.648  -1.200  -9.751  0.00  0.00     0.061 H 
ATOM      7  C   LIG d   1       4.996  -2.086  -7.833  0.00  0.00     0.053 C 
ATOM      8  C   LIG d   1       4.544  -1.914  -6.407  0.00  0.00     0.175 C 
ATOM      9  O   LIG d   1       4.535  -2.867  -5.655  0.00  0.00    -0.294 OA
ENDROOT
BRANCH   5  10
ATOM     10  O   LIG d   1       2.938  -2.115  -9.084  0.00  0.00    -0.344 OA
BRANCH  10  11
ATOM     11  C   LIG d   1       2.857  -2.561 -10.439  0.00  0.00     0.188 C 
ATOM     12  H   LIG d   1       3.070  -3.630 -10.484  0.00  0.00     0.094 H 
ATOM     13  O   LIG d   1       3.811  -1.853 -11.233  0.00  0.00    -0.341 OA
ATOM     14  C   LIG d   1       3.832  -2.243 -12.608  0.00  0.00     0.113 C 
ATOM     15  C   LIG d   1       2.463  -1.967 -13.235  0.00  0.00     0.112 C 
ATOM     16  H   LIG d   1       4.057  -3.307 -12.680  0.00  0.00     0.065 H 
ATOM     17  C   LIG d   1       1.388  -2.724 -12.451  0.00  0.00     0.114 C 
ATOM     18  H   LIG d   1       2.256  -0.897 -13.199  0.00  0.00     0.065 H 
ATOM     19  C   LIG d   1       1.449  -2.298 -10.980  0.00  0.00     0.134 C 
ATOM     20  H   LIG d   1       1.567  -3.796 -12.528  0.00  0.00     0.065 H 
ATOM     21  H   LIG d   1       1.221  -1.235 -10.899  0.00  0.00     0.067 H 
BRANCH  14  22
ATOM     22  C   LIG d   1       4.905  -1.443 -13.349  0.00  0.00     0.073 C 
ATOM     23  H   LIG d   1       5.780  -1.328 -12.709  0.00  0.00     0.058 H 
ATOM     24  H   LIG d   1       5.187  -1.971 -14.260  0.00  0.00     0.058 H 
BRANCH  22  25
ATOM     25  O   LIG d   1       4.389  -0.153 -13.686  0.00  0.00    -0.392 OA
ATOM     26  H   LIG d   1       5.067   0.529 -13.783  0.00  0.00     0.209 HD
ENDBRANCH  22  25
ENDBRANCH  14  22
BRANCH  15  27
ATOM     27  O   LIG d   1       2.463  -2.407 -14.595  0.00  0.00    -0.387 OA
ATOM     28  H   LIG d   1       2.606  -1.699 -15.238  0.00  0.00     0.210 HD
ENDBRANCH  15  27
BRANCH  17  29
ATOM     29  O   LIG d   1       0.098  -2.415 -12.984  0.00  0.00    -0.386 OA
ATOM     30  H   LIG d   1      -0.171  -2.986 -13.717  0.00  0.00     0.210 HD
ENDBRANCH  17  29
BRANCH  19  31
ATOM     31  O   LIG d   1       0.498  -3.050 -10.225  0.00  0.00    -0.384 OA
ATOM     32  H   LIG d   1      -0.076  -2.510  -9.666  0.00  0.00     0.210 HD
ENDBRANCH  19  31
ENDBRANCH  10  11
ENDBRANCH   5  10
BRANCH   4  33
ATOM     33  C   LIG d   1       4.780   1.081  -8.479  0.00  0.00    -0.055 C 
ATOM     34  H   LIG d   1       5.312   1.182  -7.533  0.00  0.00     0.024 H 
ATOM     35  H   LIG d   1       5.472   0.752  -9.254  0.00  0.00     0.024 H 
ATOM     36  H   LIG d   1       4.352   2.044  -8.759  0.00  0.00     0.024 H 
ENDBRANCH   4  33
BRANCH   4  37
ATOM     37  C   LIG d   1       2.503   0.505  -9.251  0.00  0.00    -0.055 C 
ATOM     38  H   LIG d   1       2.351  -0.238 -10.033  0.00  0.00     0.024 H 
ATOM     39  H   LIG d   1       1.590   0.608  -8.665  0.00  0.00     0.024 H 
ATOM     40  H   LIG d   1       2.755   1.464  -9.704  0.00  0.00     0.024 H 
ENDBRANCH   4  37
BRANCH   7  41
ATOM     41  C   LIG d   1       6.460  -1.662  -7.980  0.00  0.00    -0.051 C 
ATOM     42  H   LIG d   1       6.649  -1.363  -9.011  0.00  0.00     0.024 H 
ATOM     43  H   LIG d   1       6.664  -0.823  -7.315  0.00  0.00     0.024 H 
ATOM     44  H   LIG d   1       7.108  -2.499  -7.720  0.00  0.00     0.024 H 
ENDBRANCH   7  41
BRANCH   7  45
ATOM     45  C   LIG d   1       4.908  -3.588  -8.181  0.00  0.00    -0.051 C 
ATOM     46  H   LIG d   1       5.158  -3.733  -9.232  0.00  0.00     0.024 H 
ATOM     47  H   LIG d   1       5.610  -4.146  -7.561  0.00  0.00     0.024 H 
ATOM     48  H   LIG d   1       3.896  -3.945  -7.995  0.00  0.00     0.024 H 
ENDBRANCH   7  45
BRANCH   2  49
ATOM     49  O   LIG d   1       2.815   1.389  -6.507  0.00  0.00    -0.388 OA
ATOM     50  H   LIG d   1       2.897   1.548  -5.557  0.00  0.00     0.210 HD
ENDBRANCH   2  49
BRANCH   1  51
ATOM     51  C   LIG d   1       3.395  -0.741  -4.555  0.00  0.00    -0.014 C 
ATOM     52  H   LIG d   1       3.770  -1.639  -4.064  0.00  0.00     0.030 H 
ATOM     53  H   LIG d   1       2.321  -0.838  -4.719  0.00  0.00     0.030 H 
BRANCH  51  54
ATOM     54  C   LIG d   1       3.666   0.476  -3.669  0.00  0.00    -0.048 C 
ATOM     55  H   LIG d   1       2.852   1.193  -3.775  0.00  0.00     0.027 H 
ATOM     56  H   LIG d   1       4.603   0.944  -3.971  0.00  0.00     0.027 H 
BRANCH  54  57
ATOM     57  C   LIG d   1       3.766   0.032  -2.207  0.00  0.00    -0.047 C 
ATOM     58  H   LIG d   1       2.781   0.091  -1.743  0.00  0.00     0.029 H 
BRANCH  57  59
ATOM     59  C   LIG d   1       4.275  -1.409  -2.146  0.00  0.00    -0.063 C 
ATOM     60  H   LIG d   1       5.365  -1.409  -2.126  0.00  0.00     0.023 H 
ATOM     61  H   LIG d   1       3.895  -1.891  -1.245  0.00  0.00     0.023 H 
ATOM     62  H   LIG d   1       3.927  -1.955  -3.024  0.00  0.00     0.023 H 
ENDBRANCH  57  59
BRANCH  57  63
ATOM     63  C   LIG d   1       4.738   0.949  -1.462  0.00  0.00    -0.063 C 
ATOM     64  H   LIG d   1       5.377   1.462  -2.180  0.00  0.00     0.023 H 
ATOM     65  H   LIG d   1       4.174   1.684  -0.887  0.00  0.00     0.023 H 
ATOM     66  H   LIG d   1       5.353   0.354  -0.787  0.00  0.00     0.023 H 
ENDBRANCH  57  63
ENDBRANCH  54  57
ENDBRANCH  51  54
ENDBRANCH   1  51
BRANCH   1  67
ATOM     67  O   LIG d   1       5.233   0.292  -5.714  0.00  0.00    -0.378 OA
ATOM     68  H   LIG d   1       6.062  -0.070  -6.056  0.00  0.00     0.211 HD
ENDBRANCH   1  67
TORSDOF 18
ENDMDL
MODEL 2
REMARK VINA RESULT:      -5.2      3.300      4.003
REMARK  18 active torsions:
REMARK  status: ('A' for Active; 'I' for Inactive)
REMARK    1  A    between atoms: C_1  and  C_2 
REMARK    2  A    between atoms: C_2  and  C_3 
REMARK    3  A    between atoms: C_2  and  C_4 
REMARK    4  A    between atoms: C_4  and  C_5 
REMARK    5  A    between atoms: C_5  and  C_6 
REMARK    6  A    between atoms: C_6  and  O_37 
REMARK    7  A    between atoms: C_7  and  O_36 
REMARK    8  A    between atoms: C_9  and  C_34 
REMARK    9  A    between atoms: C_9  and  C_35 
REMARK   10  A    between atoms: C_10  and  O_17 
REMARK   11  A    between atoms: C_12  and  C_15 
REMARK   12  A    between atoms: C_12  and  C_16 
REMARK   13  A    between atoms: O_17  and  C_18 
REMARK   14  A    between atoms: C_20  and  O_33 
REMARK   15  A    between atoms: C_22  and  O_32 
REMARK   16  A    between atoms: C_24  and  O_31 
REMARK   17  A    between atoms: C_26  and  C_29 
REMARK   18  A    between atoms: C_29  and  O_30 
ROOT
ATOM      1  C   LIG d   1       6.771  -0.917  -4.487  0.00  0.00     0.150 C 
ATOM      2  C   LIG d   1       5.500  -0.978  -5.330  0.00  0.00     0.098 C 
ATOM      3  H   LIG d   1       4.770  -1.624  -4.825  0.00  0.00     0.063 H 
ATOM      4  C   LIG d   1       5.756  -1.518  -6.729  0.00  0.00     0.021 C 
ATOM      5  C   LIG d   1       6.446  -2.872  -6.727  0.00  0.00     0.081 C 
ATOM      6  H   LIG d   1       6.760  -3.100  -7.760  0.00  0.00     0.061 H 
ATOM      7  C   LIG d   1       7.664  -2.978  -5.823  0.00  0.00     0.053 C 
ATOM      8  C   LIG d   1       7.447  -2.265  -4.515  0.00  0.00     0.175 C 
ATOM      9  O   LIG d   1       7.819  -2.775  -3.477  0.00  0.00    -0.294 OA
ENDROOT
BRANCH   5  10
ATOM     10  O   LIG d   1       5.493  -3.879  -6.350  0.00  0.00    -0.344 OA
BRANCH  10  11
ATOM     11  C   LIG d   1       5.241  -4.851  -7.367  0.00  0.00     0.188 C 
ATOM     12  H   LIG d   1       5.564  -5.833  -7.020  0.00  0.00     0.094 H 
ATOM     13  O   LIG d   1       5.963  -4.502  -8.549  0.00  0.00    -0.341 OA
ATOM     14  C   LIG d   1       5.801  -5.426  -9.627  0.00  0.00     0.113 C 
ATOM     15  C   LIG d   1       4.325  -5.485 -10.028  0.00  0.00     0.112 C 
ATOM     16  H   LIG d   1       6.132  -6.415  -9.310  0.00  0.00     0.065 H 
ATOM     17  C   LIG d   1       3.488  -5.887  -8.810  0.00  0.00     0.114 C 
ATOM     18  H   LIG d   1       4.005  -4.506 -10.384  0.00  0.00     0.065 H 
ATOM     19  C   LIG d   1       3.742  -4.887  -7.677  0.00  0.00     0.134 C 
ATOM     20  H   LIG d   1       3.774  -6.887  -8.485  0.00  0.00     0.065 H 
ATOM     21  H   LIG d   1       3.411  -3.895  -7.986  0.00  0.00     0.067 H 
BRANCH  14  22
ATOM     22  C   LIG d   1       6.638  -4.967 -10.823  0.00  0.00     0.073 C 
ATOM     23  H   LIG d   1       6.052  -4.281 -11.434  0.00  0.00     0.058 H 
ATOM     24  H   LIG d   1       7.535  -4.461 -10.466  0.00  0.00     0.058 H 
BRANCH  22  25
ATOM     25  O   LIG d   1       7.011  -6.103 -11.606  0.00  0.00    -0.392 OA
ATOM     26  H   LIG d   1       7.830  -6.528 -11.317  0.00  0.00     0.209 HD
ENDBRANCH  22  25
ENDBRANCH  14  22
BRANCH  15  27
ATOM     27  O   LIG d   1       4.151  -6.450 -11.068  0.00  0.00    -0.387 OA
ATOM     28  H   LIG d   1       3.869  -7.321 -10.753  0.00  0.00     0.210 HD
ENDBRANCH  15  27
BRANCH  17  29
ATOM     29  O   LIG d   1       2.101  -5.874  -9.156  0.00  0.00    -0.386 OA
ATOM     30  H   LIG d   1       1.518  -5.609  -8.432  0.00  0.00     0.210 HD
ENDBRANCH  17  29
BRANCH  19  31
ATOM     31  O   LIG d   1       3.022  -5.291  -6.512  0.00  0.00    -0.384 OA
ATOM     32  H   LIG d   1       2.529  -4.577  -6.087  0.00  0.00     0.210 HD
ENDBRANCH  19  31
ENDBRANCH  10  11
ENDBRANCH   5  10
BRANCH   4  33
ATOM     33  C   LIG d   1       6.526  -0.502  -7.573  0.00  0.00    -0.055 C 
ATOM     34  H   LIG d   1       6.973   0.248  -6.920  0.00  0.00     0.024 H 
ATOM     35  H   LIG d   1       7.310  -1.013  -8.132  0.00  0.00     0.024 H 
ATOM     36  H   LIG d   1       5.843  -0.016  -8.270  0.00  0.00     0.024 H 
ENDBRANCH   4  33
BRANCH   4  37
ATOM     37  C   LIG d   1       4.375  -1.707  -7.404  0.00  0.00    -0.055 C 
ATOM     38  H   LIG d   1       4.207  -0.903  -8.120  0.00  0.00     0.024 H 
ATOM     39  H   LIG d   1       4.353  -2.666  -7.923  0.00  0.00     0.024 H 
ATOM     40  H   LIG d   1       3.593  -1.687  -6.645  0.00  0.00     0.024 H 
ENDBRANCH   4  37
BRANCH   7  41
ATOM     41  C   LIG d   1       8.918  -2.441  -6.518  0.00  0.00    -0.051 C 
ATOM     42  H   LIG d   1       9.773  -3.064  -6.255  0.00  0.00     0.024 H 
ATOM     43  H   LIG d   1       8.772  -2.462  -7.598  0.00  0.00     0.024 H 
ATOM     44  H   LIG d   1       9.101  -1.416  -6.195  0.00  0.00     0.024 H 
ENDBRANCH   7  41
BRANCH   7  45
ATOM     45  C   LIG d   1       7.905  -4.472  -5.515  0.00  0.00    -0.051 C 
ATOM     46  H   LIG d   1       7.542  -4.701  -4.513  0.00  0.00     0.024 H 
ATOM     47  H   LIG d   1       7.372  -5.084  -6.243  0.00  0.00     0.024 H 
ATOM     48  H   LIG d   1       8.972  -4.687  -5.573  0.00  0.00     0.024 H 
ENDBRANCH   7  45
BRANCH   2  49
ATOM     49  O   LIG d   1       4.935   0.337  -5.426  0.00  0.00    -0.388 OA
ATOM     50  H   LIG d   1       4.804   0.772  -4.574  0.00  0.00     0.210 HD
ENDBRANCH   2  49
BRANCH   1  51
ATOM     51  C   LIG d   1       6.386  -0.589  -3.034  0.00  0.00    -0.014 C 
ATOM     52  H   LIG d   1       6.115   0.464  -2.959  0.00  0.00     0.030 H 
ATOM     53  H   LIG d   1       7.233  -0.794  -2.379  0.00  0.00     0.030 H 
BRANCH  51  54
ATOM     54  C   LIG d   1       5.196  -1.454  -2.614  0.00  0.00    -0.048 C 
ATOM     55  H   LIG d   1       5.530  -2.218  -1.912  0.00  0.00     0.027 H 
ATOM     56  H   LIG d   1       4.767  -1.934  -3.494  0.00  0.00     0.027 H 
BRANCH  54  57
ATOM     57  C   LIG d   1       4.136  -0.575  -1.945  0.00  0.00    -0.047 C 
ATOM     58  H   LIG d   1       3.931  -0.955  -0.944  0.00  0.00     0.029 H 
BRANCH  57  59
ATOM     59  C   LIG d   1       4.652   0.862  -1.851  0.00  0.00    -0.063 C 
ATOM     60  H   LIG d   1       3.935   1.469  -1.296  0.00  0.00     0.023 H 
ATOM     61  H   LIG d   1       5.611   0.871  -1.335  0.00  0.00     0.023 H 
ATOM     62  H   LIG d   1       4.775   1.271  -2.854  0.00  0.00     0.023 H 
ENDBRANCH  57  59
BRANCH  57  63
ATOM     63  C   LIG d   1       2.852  -0.603  -2.776  0.00  0.00    -0.063 C 
ATOM     64  H   LIG d   1       2.451   0.407  -2.860  0.00  0.00     0.023 H 
ATOM     65  H   LIG d   1       3.073  -0.990  -3.772  0.00  0.00     0.023 H 
ATOM     66  H   LIG d   1       2.119  -1.246  -2.291  0.00  0.00     0.023 H 
ENDBRANCH  57  63
ENDBRANCH  54  57
ENDBRANCH  51  54
ENDBRANCH   1  51
BRANCH   1  67
ATOM     67  O   LIG d   1       7.656   0.096  -4.959  0.00  0.00    -0.378 OA
ATOM     68  H   LIG d   1       7.379   0.995  -4.736  0.00  0.00     0.211 HD
ENDBRANCH   1  67
TORSDOF 18
ENDMDL
MODEL 3
REMARK VINA RESULT:      -5.1      1.996      2.994
REMARK  18 active torsions:
REMARK  status: ('A' for Active; 'I' for Inactive)
REMARK    1  A    between atoms: C_1  and  C_2 
REMARK    2  A    between atoms: C_2  and  C_3 
REMARK    3  A    between atoms: C_2  and  C_4 
REMARK    4  A    between atoms: C_4  and  C_5 
REMARK    5  A    between atoms: C_5  and  C_6 
REMARK    6  A    between atoms: C_6  and  O_37 
REMARK    7  A    between atoms: C_7  and  O_36 
REMARK    8  A    between atoms: C_9  and  C_34 
REMARK    9  A    between atoms: C_9  and  C_35 
REMARK   10  A    between atoms: C_10  and  O_17 
REMARK   11  A    between atoms: C_12  and  C_15 
REMARK   12  A    between atoms: C_12  and  C_16 
REMARK   13  A    between atoms: O_17  and  C_18 
REMARK   14  A    between atoms: C_20  and  O_33 
REMARK   15  A    between atoms: C_22  and  O_32 
REMARK   16  A    between atoms: C_24  and  O_31 
REMARK   17  A    between atoms: C_26  and  C_29 
REMARK   18  A    between atoms: C_29  and  O_30 
ROOT
ATOM      1  C   LIG d   1       5.789  -1.899  -3.870  0.00  0.00     0.150 C 
ATOM      2  C   LIG d   1       5.789  -0.766  -4.893  0.00  0.00     0.098 C 
ATOM      3  H   LIG d   1       4.763  -0.394  -5.011  0.00  0.00     0.063 H 
ATOM      4  C   LIG d   1       6.314  -1.210  -6.251  0.00  0.00     0.021 C 
ATOM      5  C   LIG d   1       5.578  -2.416  -6.808  0.00  0.00     0.081 C 
ATOM      6  H   LIG d   1       6.135  -2.783  -7.688  0.00  0.00     0.061 H 
ATOM      7  C   LIG d   1       5.401  -3.575  -5.838  0.00  0.00     0.053 C 
ATOM      8  C   LIG d   1       5.068  -3.090  -4.452  0.00  0.00     0.175 C 
ATOM      9  O   LIG d   1       4.219  -3.661  -3.798  0.00  0.00    -0.294 OA
ENDROOT
BRANCH   5  10
ATOM     10  O   LIG d   1       4.286  -1.997  -7.277  0.00  0.00    -0.344 OA
BRANCH  10  11
ATOM     11  C   LIG d   1       4.029  -2.326  -8.644  0.00  0.00     0.188 C 
ATOM     12  H   LIG d   1       3.351  -3.179  -8.692  0.00  0.00     0.094 H 
ATOM     13  O   LIG d   1       5.258  -2.658  -9.293  0.00  0.00    -0.341 OA
ATOM     14  C   LIG d   1       5.112  -3.030 -10.665  0.00  0.00     0.113 C 
ATOM     15  C   LIG d   1       4.516  -1.857 -11.449  0.00  0.00     0.112 C 
ATOM     16  H   LIG d   1       4.448  -3.891 -10.739  0.00  0.00     0.065 H 
ATOM     17  C   LIG d   1       3.174  -1.465 -10.825  0.00  0.00     0.114 C 
ATOM     18  H   LIG d   1       5.199  -1.008 -11.409  0.00  0.00     0.065 H 
ATOM     19  C   LIG d   1       3.390  -1.125  -9.347  0.00  0.00     0.134 C 
ATOM     20  H   LIG d   1       2.475  -2.297 -10.910  0.00  0.00     0.065 H 
ATOM     21  H   LIG d   1       4.051  -0.262  -9.264  0.00  0.00     0.067 H 
BRANCH  14  22
ATOM     22  C   LIG d   1       6.481  -3.389 -11.246  0.00  0.00     0.073 C 
ATOM     23  H   LIG d   1       7.124  -3.766 -10.452  0.00  0.00     0.058 H 
ATOM     24  H   LIG d   1       6.360  -4.156 -12.012  0.00  0.00     0.058 H 
BRANCH  22  25
ATOM     25  O   LIG d   1       7.072  -2.226 -11.827  0.00  0.00    -0.392 OA
ATOM     26  H   LIG d   1       6.776  -1.394 -11.431  0.00  0.00     0.209 HD
ENDBRANCH  22  25
ENDBRANCH  14  22
BRANCH  15  27
ATOM     27  O   LIG d   1       4.315  -2.244 -12.810  0.00  0.00    -0.387 OA
ATOM     28  H   LIG d   1       3.496  -2.736 -12.963  0.00  0.00     0.210 HD
ENDBRANCH  15  27
BRANCH  17  29
ATOM     29  O   LIG d   1       2.644  -0.324 -11.504  0.00  0.00    -0.386 OA
ATOM     30  H   LIG d   1       3.235   0.441 -11.507  0.00  0.00     0.210 HD
ENDBRANCH  17  29
BRANCH  19  31
ATOM     31  O   LIG d   1       2.134  -0.826  -8.736  0.00  0.00    -0.384 OA
ATOM     32  H   LIG d   1       1.378  -0.902  -9.333  0.00  0.00     0.210 HD
ENDBRANCH  19  31
ENDBRANCH  10  11
ENDBRANCH   5  10
BRANCH   4  33
ATOM     33  C   LIG d   1       7.823  -1.454  -6.198  0.00  0.00    -0.055 C 
ATOM     34  H   LIG d   1       8.292  -0.693  -5.574  0.00  0.00     0.024 H 
ATOM     35  H   LIG d   1       8.017  -2.441  -5.777  0.00  0.00     0.024 H 
ATOM     36  H   LIG d   1       8.235  -1.402  -7.206  0.00  0.00     0.024 H 
ENDBRANCH   4  33
BRANCH   4  37
ATOM     37  C   LIG d   1       6.084  -0.036  -7.234  0.00  0.00    -0.055 C 
ATOM     38  H   LIG d   1       5.016   0.078  -7.421  0.00  0.00     0.024 H 
ATOM     39  H   LIG d   1       6.477   0.883  -6.800  0.00  0.00     0.024 H 
ATOM     40  H   LIG d   1       6.597  -0.242  -8.174  0.00  0.00     0.024 H 
ENDBRANCH   4  37
BRANCH   7  41
ATOM     41  C   LIG d   1       6.647  -4.464  -5.805  0.00  0.00    -0.051 C 
ATOM     42  H   LIG d   1       6.807  -4.902  -6.790  0.00  0.00     0.024 H 
ATOM     43  H   LIG d   1       7.514  -3.863  -5.529  0.00  0.00     0.024 H 
ATOM     44  H   LIG d   1       6.507  -5.258  -5.072  0.00  0.00     0.024 H 
ENDBRANCH   7  41
BRANCH   7  45
ATOM     45  C   LIG d   1       4.223  -4.441  -6.334  0.00  0.00    -0.051 C 
ATOM     46  H   LIG d   1       3.440  -3.797  -6.735  0.00  0.00     0.024 H 
ATOM     47  H   LIG d   1       4.573  -5.116  -7.115  0.00  0.00     0.024 H 
ATOM     48  H   LIG d   1       3.825  -5.023  -5.503  0.00  0.00     0.024 H 
ENDBRANCH   7  45
BRANCH   2  49
ATOM     49  O   LIG d   1       6.598   0.311  -4.402  0.00  0.00    -0.388 OA
ATOM     50  H   LIG d   1       7.173   0.707  -5.071  0.00  0.00     0.210 HD
ENDBRANCH   2  49
BRANCH   1  51
ATOM     51  C   LIG d   1       5.032  -1.432  -2.615  0.00  0.00    -0.014 C 
ATOM     52  H   LIG d   1       5.601  -0.646  -2.119  0.00  0.00     0.030 H 
ATOM     53  H   LIG d   1       4.903  -2.273  -1.933  0.00  0.00     0.030 H 
BRANCH  51  54
ATOM     54  C   LIG d   1       3.659  -0.890  -3.019  0.00  0.00    -0.048 C 
ATOM     55  H   LIG d   1       2.882  -1.574  -2.678  0.00  0.00     0.027 H 
ATOM     56  H   LIG d   1       3.610  -0.798  -4.104  0.00  0.00     0.027 H 
BRANCH  54  57
ATOM     57  C   LIG d   1       3.444   0.484  -2.380  0.00  0.00    -0.047 C 
ATOM     58  H   LIG d   1       2.556   0.454  -1.747  0.00  0.00     0.029 H 
BRANCH  57  59
ATOM     59  C   LIG d   1       4.664   0.849  -1.531  0.00  0.00    -0.063 C 
ATOM     60  H   LIG d   1       5.328   1.493  -2.108  0.00  0.00     0.023 H 
ATOM     61  H   LIG d   1       4.338   1.372  -0.633  0.00  0.00     0.023 H 
ATOM     62  H   LIG d   1       5.195  -0.061  -1.249  0.00  0.00     0.023 H 
ENDBRANCH  57  59
BRANCH  57  63
ATOM     63  C   LIG d   1       3.254   1.533  -3.478  0.00  0.00    -0.063 C 
ATOM     64  H   LIG d   1       2.476   2.234  -3.179  0.00  0.00     0.023 H 
ATOM     65  H   LIG d   1       4.190   2.071  -3.630  0.00  0.00     0.023 H 
ATOM     66  H   LIG d   1       2.964   1.039  -4.405  0.00  0.00     0.023 H 
ENDBRANCH  57  63
ENDBRANCH  54  57
ENDBRANCH  51  54
ENDBRANCH   1  51
BRANCH   1  67
ATOM     67  O   LIG d   1       7.117  -2.254  -3.490  0.00  0.00    -0.378 OA
ATOM     68  H   LIG d   1       7.698  -1.496  -3.340  0.00  0.00     0.211 HD
ENDBRANCH   1  67
TORSDOF 18
ENDMDL
MODEL 4
REMARK VINA RESULT:      -5.0      1.488      1.912
REMARK  18 active torsions:
REMARK  status: ('A' for Active; 'I' for Inactive)
REMARK    1  A    between atoms: C_1  and  C_2 
REMARK    2  A    between atoms: C_2  and  C_3 
REMARK    3  A    between atoms: C_2  and  C_4 
REMARK    4  A    between atoms: C_4  and  C_5 
REMARK    5  A    between atoms: C_5  and  C_6 
REMARK    6  A    between atoms: C_6  and  O_37 
REMARK    7  A    between atoms: C_7  and  O_36 
REMARK    8  A    between atoms: C_9  and  C_34 
REMARK    9  A    between atoms: C_9  and  C_35 
REMARK   10  A    between atoms: C_10  and  O_17 
REMARK   11  A    between atoms: C_12  and  C_15 
REMARK   12  A    between atoms: C_12  and  C_16 
REMARK   13  A    between atoms: O_17  and  C_18 
REMARK   14  A    between atoms: C_20  and  O_33 
REMARK   15  A    between atoms: C_22  and  O_32 
REMARK   16  A    between atoms: C_24  and  O_31 
REMARK   17  A    between atoms: C_26  and  C_29 
REMARK   18  A    between atoms: C_29  and  O_30 
ROOT
ATOM      1  C   LIG d   1       4.813  -0.674  -6.092  0.00  0.00     0.150 C 
ATOM      2  C   LIG d   1       3.496  -0.364  -6.800  0.00  0.00     0.098 C 
ATOM      3  H   LIG d   1       2.759  -1.130  -6.531  0.00  0.00     0.063 H 
ATOM      4  C   LIG d   1       3.646  -0.330  -8.314  0.00  0.00     0.021 C 
ATOM      5  C   LIG d   1       4.256  -1.601  -8.880  0.00  0.00     0.081 C 
ATOM      6  H   LIG d   1       4.501  -1.422  -9.942  0.00  0.00     0.061 H 
ATOM      7  C   LIG d   1       5.512  -2.088  -8.176  0.00  0.00     0.053 C 
ATOM      8  C   LIG d   1       5.407  -1.929  -6.682  0.00  0.00     0.175 C 
ATOM      9  O   LIG d   1       5.804  -2.811  -5.949  0.00  0.00    -0.294 OA
ENDROOT
BRANCH   5  10
ATOM     10  O   LIG d   1       3.268  -2.645  -8.850  0.00  0.00    -0.344 OA
BRANCH  10  11
ATOM     11  C   LIG d   1       3.207  -3.422 -10.048  0.00  0.00     0.188 C 
ATOM     12  H   LIG d   1       4.165  -3.918 -10.208  0.00  0.00     0.094 H 
ATOM     13  O   LIG d   1       2.923  -2.567 -11.157  0.00  0.00    -0.341 OA
ATOM     14  C   LIG d   1       2.865  -3.242 -12.415  0.00  0.00     0.113 C 
ATOM     15  C   LIG d   1       1.746  -4.287 -12.381  0.00  0.00     0.112 C 
ATOM     16  H   LIG d   1       3.818  -3.737 -12.606  0.00  0.00     0.065 H 
ATOM     17  C   LIG d   1       2.003  -5.262 -11.229  0.00  0.00     0.114 C 
ATOM     18  H   LIG d   1       0.788  -3.789 -12.230  0.00  0.00     0.065 H 
ATOM     19  C   LIG d   1       2.102  -4.473  -9.919  0.00  0.00     0.134 C 
ATOM     20  H   LIG d   1       2.937  -5.796 -11.404  0.00  0.00     0.065 H 
ATOM     21  H   LIG d   1       1.151  -3.979  -9.719  0.00  0.00     0.067 H 
BRANCH  14  22
ATOM     22  C   LIG d   1       2.584  -2.229 -13.527  0.00  0.00     0.073 C 
ATOM     23  H   LIG d   1       2.941  -1.246 -13.220  0.00  0.00     0.058 H 
ATOM     24  H   LIG d   1       3.100  -2.536 -14.437  0.00  0.00     0.058 H 
BRANCH  22  25
ATOM     25  O   LIG d   1       1.178  -2.170 -13.772  0.00  0.00    -0.392 OA
ATOM     26  H   LIG d   1       0.917  -2.494 -14.645  0.00  0.00     0.209 HD
ENDBRANCH  22  25
ENDBRANCH  14  22
BRANCH  15  27
ATOM     27  O   LIG d   1       1.722  -5.003 -13.617  0.00  0.00    -0.387 OA
ATOM     28  H   LIG d   1       2.366  -5.724 -13.667  0.00  0.00     0.210 HD
ENDBRANCH  15  27
BRANCH  17  29
ATOM     29  O   LIG d   1       0.926  -6.197 -11.142  0.00  0.00    -0.386 OA
ATOM     30  H   LIG d   1       0.237  -6.066 -11.809  0.00  0.00     0.210 HD
ENDBRANCH  17  29
BRANCH  19  31
ATOM     31  O   LIG d   1       2.413  -5.364  -8.846  0.00  0.00    -0.384 OA
ATOM     32  H   LIG d   1       2.522  -4.928  -7.991  0.00  0.00     0.210 HD
ENDBRANCH  19  31
ENDBRANCH  10  11
ENDBRANCH   5  10
BRANCH   4  33
ATOM     33  C   LIG d   1       4.427   0.908  -8.757  0.00  0.00    -0.055 C 
ATOM     34  H   LIG d   1       5.222   1.111  -8.041  0.00  0.00     0.024 H 
ATOM     35  H   LIG d   1       4.859   0.731  -9.742  0.00  0.00     0.024 H 
ATOM     36  H   LIG d   1       3.754   1.764  -8.805  0.00  0.00     0.024 H 
ENDBRANCH   4  33
BRANCH   4  37
ATOM     37  C   LIG d   1       2.222  -0.199  -8.910  0.00  0.00    -0.055 C 
ATOM     38  H   LIG d   1       1.491  -0.176  -8.102  0.00  0.00     0.024 H 
ATOM     39  H   LIG d   1       2.154   0.723  -9.487  0.00  0.00     0.024 H 
ATOM     40  H   LIG d   1       2.019  -1.051  -9.559  0.00  0.00     0.024 H 
ENDBRANCH   4  37
BRANCH   7  41
ATOM     41  C   LIG d   1       6.757  -1.365  -8.700  0.00  0.00    -0.051 C 
ATOM     42  H   LIG d   1       6.473  -0.383  -9.079  0.00  0.00     0.024 H 
ATOM     43  H   LIG d   1       7.476  -1.248  -7.889  0.00  0.00     0.024 H 
ATOM     44  H   LIG d   1       7.205  -1.950  -9.503  0.00  0.00     0.024 H 
ENDBRANCH   7  41
BRANCH   7  45
ATOM     45  C   LIG d   1       5.683  -3.592  -8.482  0.00  0.00    -0.051 C 
ATOM     46  H   LIG d   1       6.662  -3.925  -8.135  0.00  0.00     0.024 H 
ATOM     47  H   LIG d   1       4.905  -4.157  -7.970  0.00  0.00     0.024 H 
ATOM     48  H   LIG d   1       5.604  -3.755  -9.557  0.00  0.00     0.024 H 
ENDBRANCH   7  45
BRANCH   2  49
ATOM     49  O   LIG d   1       3.004   0.904  -6.345  0.00  0.00    -0.388 OA
ATOM     50  H   LIG d   1       2.754   1.507  -7.058  0.00  0.00     0.210 HD
ENDBRANCH   2  49
BRANCH   1  51
ATOM     51  C   LIG d   1       4.525  -0.920  -4.600  0.00  0.00    -0.014 C 
ATOM     52  H   LIG d   1       4.700  -1.970  -4.365  0.00  0.00     0.030 H 
ATOM     53  H   LIG d   1       3.487  -0.668  -4.384  0.00  0.00     0.030 H 
BRANCH  51  54
ATOM     54  C   LIG d   1       5.450  -0.045  -3.752  0.00  0.00    -0.048 C 
ATOM     55  H   LIG d   1       5.406   0.984  -4.108  0.00  0.00     0.027 H 
ATOM     56  H   LIG d   1       6.472  -0.413  -3.831  0.00  0.00     0.027 H 
BRANCH  54  57
ATOM     57  C   LIG d   1       5.001  -0.098  -2.289  0.00  0.00    -0.047 C 
ATOM     58  H   LIG d   1       5.873  -0.013  -1.640  0.00  0.00     0.029 H 
BRANCH  57  59
ATOM     59  C   LIG d   1       4.041   1.060  -2.008  0.00  0.00    -0.063 C 
ATOM     60  H   LIG d   1       4.488   1.733  -1.276  0.00  0.00     0.023 H 
ATOM     61  H   LIG d   1       3.848   1.604  -2.932  0.00  0.00     0.023 H 
ATOM     62  H   LIG d   1       3.103   0.667  -1.615  0.00  0.00     0.023 H 
ENDBRANCH  57  59
BRANCH  57  63
ATOM     63  C   LIG d   1       4.291  -1.426  -2.021  0.00  0.00    -0.063 C 
ATOM     64  H   LIG d   1       4.583  -1.803  -1.041  0.00  0.00     0.023 H 
ATOM     65  H   LIG d   1       3.212  -1.271  -2.045  0.00  0.00     0.023 H 
ATOM     66  H   LIG d   1       4.571  -2.149  -2.787  0.00  0.00     0.023 H 
ENDBRANCH  57  63
ENDBRANCH  54  57
ENDBRANCH  51  54
ENDBRANCH   1  51
BRANCH   1  67
ATOM     67  O   LIG d   1       5.728   0.414  -6.202  0.00  0.00    -0.378 OA
ATOM     68  H   LIG d   1       5.737   0.833  -7.073  0.00  0.00     0.211 HD
ENDBRANCH   1  67
TORSDOF 18
ENDMDL
MODEL 5
REMARK VINA RESULT:      -4.8      2.037      7.731
REMARK  18 active torsions:
REMARK  status: ('A' for Active; 'I' for Inactive)
REMARK    1  A    between atoms: C_1  and  C_2 
REMARK    2  A    between atoms: C_2  and  C_3 
REMARK    3  A    between atoms: C_2  and  C_4 
REMARK    4  A    between atoms: C_4  and  C_5 
REMARK    5  A    between atoms: C_5  and  C_6 
REMARK    6  A    between atoms: C_6  and  O_37 
REMARK    7  A    between atoms: C_7  and  O_36 
REMARK    8  A    between atoms: C_9  and  C_34 
REMARK    9  A    between atoms: C_9  and  C_35 
REMARK   10  A    between atoms: C_10  and  O_17 
REMARK   11  A    between atoms: C_12  and  C_15 
REMARK   12  A    between atoms: C_12  and  C_16 
REMARK   13  A    between atoms: O_17  and  C_18 
REMARK   14  A    between atoms: C_20  and  O_33 
REMARK   15  A    between atoms: C_22  and  O_32 
REMARK   16  A    between atoms: C_24  and  O_31 
REMARK   17  A    between atoms: C_26  and  C_29 
REMARK   18  A    between atoms: C_29  and  O_30 
ROOT
ATOM      1  C   LIG d   1       2.713  -2.623 -10.104  0.00  0.00     0.150 C 
ATOM      2  C   LIG d   1       3.429  -3.367  -8.980  0.00  0.00     0.098 C 
ATOM      3  H   LIG d   1       2.726  -3.518  -8.150  0.00  0.00     0.063 H 
ATOM      4  C   LIG d   1       4.646  -2.612  -8.467  0.00  0.00     0.021 C 
ATOM      5  C   LIG d   1       4.326  -1.193  -8.031  0.00  0.00     0.081 C 
ATOM      6  H   LIG d   1       5.278  -0.663  -7.855  0.00  0.00     0.061 H 
ATOM      7  C   LIG d   1       3.503  -0.380  -9.019  0.00  0.00     0.053 C 
ATOM      8  C   LIG d   1       2.422  -1.212  -9.655  0.00  0.00     0.175 C 
ATOM      9  O   LIG d   1       1.311  -0.747  -9.810  0.00  0.00    -0.294 OA
ENDROOT
BRANCH   5  10
ATOM     10  O   LIG d   1       3.635  -1.237  -6.772  0.00  0.00    -0.344 OA
BRANCH  10  11
ATOM     11  C   LIG d   1       4.109  -0.287  -5.815  0.00  0.00     0.188 C 
ATOM     12  H   LIG d   1       4.058   0.716  -6.242  0.00  0.00     0.094 H 
ATOM     13  O   LIG d   1       5.463  -0.589  -5.473  0.00  0.00    -0.341 OA
ATOM     14  C   LIG d   1       6.046   0.320  -4.537  0.00  0.00     0.113 C 
ATOM     15  C   LIG d   1       5.254   0.280  -3.228  0.00  0.00     0.112 C 
ATOM     16  H   LIG d   1       6.019   1.330  -4.947  0.00  0.00     0.065 H 
ATOM     17  C   LIG d   1       3.790   0.627  -3.514  0.00  0.00     0.114 C 
ATOM     18  H   LIG d   1       5.314  -0.720  -2.797  0.00  0.00     0.065 H 
ATOM     19  C   LIG d   1       3.239  -0.351  -4.557  0.00  0.00     0.134 C 
ATOM     20  H   LIG d   1       3.725   1.645  -3.899  0.00  0.00     0.065 H 
ATOM     21  H   LIG d   1       3.259  -1.363  -4.153  0.00  0.00     0.067 H 
BRANCH  14  22
ATOM     22  C   LIG d   1       7.497  -0.084  -4.269  0.00  0.00     0.073 C 
ATOM     23  H   LIG d   1       7.917  -0.546  -5.162  0.00  0.00     0.058 H 
ATOM     24  H   LIG d   1       8.078   0.802  -4.010  0.00  0.00     0.058 H 
BRANCH  22  25
ATOM     25  O   LIG d   1       7.540  -1.015  -3.186  0.00  0.00    -0.392 OA
ATOM     26  H   LIG d   1       7.586  -1.940  -3.463  0.00  0.00     0.209 HD
ENDBRANCH  22  25
ENDBRANCH  14  22
BRANCH  15  27
ATOM     27  O   LIG d   1       5.799   1.229  -2.309  0.00  0.00    -0.387 OA
ATOM     28  H   LIG d   1       6.596   1.674  -2.630  0.00  0.00     0.210 HD
ENDBRANCH  15  27
BRANCH  17  29
ATOM     29  O   LIG d   1       3.027   0.521  -2.311  0.00  0.00    -0.386 OA
ATOM     30  H   LIG d   1       3.235  -0.261  -1.781  0.00  0.00     0.210 HD
ENDBRANCH  17  29
BRANCH  19  31
ATOM     31  O   LIG d   1       1.896   0.007  -4.886  0.00  0.00    -0.384 OA
ATOM     32  H   LIG d   1       1.505   0.659  -4.290  0.00  0.00     0.210 HD
ENDBRANCH  19  31
ENDBRANCH  10  11
ENDBRANCH   5  10
BRANCH   4  33
ATOM     33  C   LIG d   1       5.777  -2.637  -9.496  0.00  0.00    -0.055 C 
ATOM     34  H   LIG d   1       5.356  -2.559 -10.499  0.00  0.00     0.024 H 
ATOM     35  H   LIG d   1       6.450  -1.799  -9.317  0.00  0.00     0.024 H 
ATOM     36  H   LIG d   1       6.330  -3.572  -9.406  0.00  0.00     0.024 H 
ENDBRANCH   4  33
BRANCH   4  37
ATOM     37  C   LIG d   1       5.160  -3.371  -7.218  0.00  0.00    -0.055 C 
ATOM     38  H   LIG d   1       4.625  -3.023  -6.335  0.00  0.00     0.024 H 
ATOM     39  H   LIG d   1       4.990  -4.440  -7.348  0.00  0.00     0.024 H 
ATOM     40  H   LIG d   1       6.227  -3.185  -7.093  0.00  0.00     0.024 H 
ENDBRANCH   4  37
BRANCH   7  41
ATOM     41  C   LIG d   1       4.392   0.247 -10.096  0.00  0.00    -0.051 C 
ATOM     42  H   LIG d   1       4.370   1.333  -9.998  0.00  0.00     0.024 H 
ATOM     43  H   LIG d   1       5.416  -0.109  -9.974  0.00  0.00     0.024 H 
ATOM     44  H   LIG d   1       4.023  -0.036 -11.082  0.00  0.00     0.024 H 
ENDBRANCH   7  41
BRANCH   7  45
ATOM     45  C   LIG d   1       2.824   0.772  -8.246  0.00  0.00    -0.051 C 
ATOM     46  H   LIG d   1       3.583   1.370  -7.743  0.00  0.00     0.024 H 
ATOM     47  H   LIG d   1       2.270   1.400  -8.944  0.00  0.00     0.024 H 
ATOM     48  H   LIG d   1       2.138   0.358  -7.507  0.00  0.00     0.024 H 
ENDBRANCH   7  45
BRANCH   2  49
ATOM     49  O   LIG d   1       3.838  -4.657  -9.454  0.00  0.00    -0.388 OA
ATOM     50  H   LIG d   1       4.148  -4.659 -10.370  0.00  0.00     0.210 HD
ENDBRANCH   2  49
BRANCH   1  51
ATOM     51  C   LIG d   1       1.379  -3.332 -10.395  0.00  0.00    -0.014 C 
ATOM     52  H   LIG d   1       0.574  -2.598 -10.414  0.00  0.00     0.030 H 
ATOM     53  H   LIG d   1       1.182  -4.069  -9.616  0.00  0.00     0.030 H 
BRANCH  51  54
ATOM     54  C   LIG d   1       1.461  -4.035 -11.752  0.00  0.00    -0.048 C 
ATOM     55  H   LIG d   1       1.548  -5.111 -11.600  0.00  0.00     0.027 H 
ATOM     56  H   LIG d   1       2.333  -3.674 -12.296  0.00  0.00     0.027 H 
BRANCH  54  57
ATOM     57  C   LIG d   1       0.196  -3.735 -12.560  0.00  0.00    -0.047 C 
ATOM     58  H   LIG d   1       0.269  -4.213 -13.537  0.00  0.00     0.029 H 
BRANCH  57  59
ATOM     59  C   LIG d   1      -1.025  -4.278 -11.815  0.00  0.00    -0.063 C 
ATOM     60  H   LIG d   1      -0.766  -4.454 -10.771  0.00  0.00     0.023 H 
ATOM     61  H   LIG d   1      -1.837  -3.554 -11.872  0.00  0.00     0.023 H 
ATOM     62  H   LIG d   1      -1.342  -5.216 -12.273  0.00  0.00     0.023 H 
ENDBRANCH  57  59
BRANCH  57  63
ATOM     63  C   LIG d   1       0.053  -2.223 -12.739  0.00  0.00    -0.063 C 
ATOM     64  H   LIG d   1       0.329  -1.950 -13.758  0.00  0.00     0.023 H 
ATOM     65  H   LIG d   1      -0.982  -1.932 -12.553  0.00  0.00     0.023 H 
ATOM     66  H   LIG d   1       0.707  -1.710 -12.035  0.00  0.00     0.023 H 
ENDBRANCH  57  63
ENDBRANCH  54  57
ENDBRANCH  51  54
ENDBRANCH   1  51
BRANCH   1  67
ATOM     67  O   LIG d   1       3.492  -2.617 -11.298  0.00  0.00    -0.378 OA
ATOM     68  H   LIG d   1       4.444  -2.694 -11.147  0.00  0.00     0.211 HD
ENDBRANCH   1  67
TORSDOF 18
ENDMDL
MODEL 6
REMARK VINA RESULT:      -4.7     10.622     14.885
REMARK  18 active torsions:
REMARK  status: ('A' for Active; 'I' for Inactive)
REMARK    1  A    between atoms: C_1  and  C_2 
REMARK    2  A    between atoms: C_2  and  C_3 
REMARK    3  A    between atoms: C_2  and  C_4 
REMARK    4  A    between atoms: C_4  and  C_5 
REMARK    5  A    between atoms: C_5  and  C_6 
REMARK    6  A    between atoms: C_6  and  O_37 
REMARK    7  A    between atoms: C_7  and  O_36 
REMARK    8  A    between atoms: C_9  and  C_34 
REMARK    9  A    between atoms: C_9  and  C_35 
REMARK   10  A    between atoms: C_10  and  O_17 
REMARK   11  A    between atoms: C_12  and  C_15 
REMARK   12  A    between atoms: C_12  and  C_16 
REMARK   13  A    between atoms: O_17  and  C_18 
REMARK   14  A    between atoms: C_20  and  O_33 
REMARK   15  A    between atoms: C_22  and  O_32 
REMARK   16  A    between atoms: C_24  and  O_31 
REMARK   17  A    between atoms: C_26  and  C_29 
REMARK   18  A    between atoms: C_29  and  O_30 
ROOT
ATOM      1  C   LIG d   1      10.955   5.582  -2.443  0.00  0.00     0.150 C 
ATOM      2  C   LIG d   1      10.410   6.385  -1.265  0.00  0.00     0.098 C 
ATOM      3  H   LIG d   1       9.382   6.696  -1.492  0.00  0.00     0.063 H 
ATOM      4  C   LIG d   1      11.247   7.622  -0.969  0.00  0.00     0.021 C 
ATOM      5  C   LIG d   1      11.424   8.524  -2.178  0.00  0.00     0.081 C 
ATOM      6  H   LIG d   1      12.186   9.284  -1.932  0.00  0.00     0.061 H 
ATOM      7  C   LIG d   1      11.847   7.820  -3.457  0.00  0.00     0.053 C 
ATOM      8  C   LIG d   1      11.139   6.502  -3.625  0.00  0.00     0.175 C 
ATOM      9  O   LIG d   1      10.715   6.176  -4.715  0.00  0.00    -0.294 OA
ENDROOT
BRANCH   5  10
ATOM     10  O   LIG d   1      10.195   9.229  -2.416  0.00  0.00    -0.344 OA
BRANCH  10  11
ATOM     11  C   LIG d   1      10.348  10.646  -2.517  0.00  0.00     0.188 C 
ATOM     12  H   LIG d   1      11.016  10.882  -3.346  0.00  0.00     0.094 H 
ATOM     13  O   LIG d   1      10.900  11.154  -1.301  0.00  0.00    -0.341 OA
ATOM     14  C   LIG d   1      11.119  12.566  -1.304  0.00  0.00     0.113 C 
ATOM     15  C   LIG d   1       9.783  13.287  -1.503  0.00  0.00     0.112 C 
ATOM     16  H   LIG d   1      11.797  12.827  -2.116  0.00  0.00     0.065 H 
ATOM     17  C   LIG d   1       9.145  12.814  -2.812  0.00  0.00     0.114 C 
ATOM     18  H   LIG d   1       9.119  13.059  -0.670  0.00  0.00     0.065 H 
ATOM     19  C   LIG d   1       8.981  11.291  -2.765  0.00  0.00     0.134 C 
ATOM     20  H   LIG d   1       9.786  13.086  -3.650  0.00  0.00     0.065 H 
ATOM     21  H   LIG d   1       8.301  11.023  -1.957  0.00  0.00     0.067 H 
BRANCH  14  22
ATOM     22  C   LIG d   1      11.735  12.990   0.031  0.00  0.00     0.073 C 
ATOM     23  H   LIG d   1      12.425  12.220   0.373  0.00  0.00     0.058 H 
ATOM     24  H   LIG d   1      12.273  13.929  -0.100  0.00  0.00     0.058 H 
BRANCH  22  25
ATOM     25  O   LIG d   1      10.698  13.166   0.999  0.00  0.00    -0.392 OA
ATOM     26  H   LIG d   1      10.776  12.586   1.769  0.00  0.00     0.209 HD
ENDBRANCH  22  25
ENDBRANCH  14  22
BRANCH  15  27
ATOM     27  O   LIG d   1      10.006  14.698  -1.563  0.00  0.00    -0.387 OA
ATOM     28  H   LIG d   1       9.200  15.227  -1.483  0.00  0.00     0.210 HD
ENDBRANCH  15  27
BRANCH  17  29
ATOM     29  O   LIG d   1       7.864  13.427  -2.971  0.00  0.00    -0.386 OA
ATOM     30  H   LIG d   1       7.896  14.308  -3.369  0.00  0.00     0.210 HD
ENDBRANCH  17  29
BRANCH  19  31
ATOM     31  O   LIG d   1       8.453  10.828  -4.009  0.00  0.00    -0.384 OA
ATOM     32  H   LIG d   1       7.813  11.430  -4.412  0.00  0.00     0.210 HD
ENDBRANCH  19  31
ENDBRANCH  10  11
ENDBRANCH   5  10
BRANCH   4  33
ATOM     33  C   LIG d   1      12.595   7.234  -0.361  0.00  0.00    -0.055 C 
ATOM     34  H   LIG d   1      13.109   8.130  -0.014  0.00  0.00     0.024 H 
ATOM     35  H   LIG d   1      12.434   6.558   0.480  0.00  0.00     0.024 H 
ATOM     36  H   LIG d   1      13.204   6.735  -1.115  0.00  0.00     0.024 H 
ENDBRANCH   4  33
BRANCH   4  37
ATOM     37  C   LIG d   1      10.488   8.438   0.107  0.00  0.00    -0.055 C 
ATOM     38  H   LIG d   1       9.458   8.088   0.170  0.00  0.00     0.024 H 
ATOM     39  H   LIG d   1      10.976   8.307   1.073  0.00  0.00     0.024 H 
ATOM     40  H   LIG d   1      10.497   9.494  -0.164  0.00  0.00     0.024 H 
ENDBRANCH   4  37
BRANCH   7  41
ATOM     41  C   LIG d   1      13.365   7.615  -3.501  0.00  0.00    -0.051 C 
ATOM     42  H   LIG d   1      13.604   6.605  -3.169  0.00  0.00     0.024 H 
ATOM     43  H   LIG d   1      13.720   7.756  -4.522  0.00  0.00     0.024 H 
ATOM     44  H   LIG d   1      13.847   8.338  -2.844  0.00  0.00     0.024 H 
ENDBRANCH   7  41
BRANCH   7  45
ATOM     45  C   LIG d   1      11.464   8.721  -4.652  0.00  0.00    -0.051 C 
ATOM     46  H   LIG d   1      12.131   8.517  -5.490  0.00  0.00     0.024 H 
ATOM     47  H   LIG d   1      10.436   8.514  -4.947  0.00  0.00     0.024 H 
ATOM     48  H   LIG d   1      11.555   9.767  -4.361  0.00  0.00     0.024 H 
ENDBRANCH   7  45
BRANCH   2  49
ATOM     49  O   LIG d   1      10.374   5.549  -0.101  0.00  0.00    -0.388 OA
ATOM     50  H   LIG d   1      11.085   5.722   0.530  0.00  0.00     0.210 HD
ENDBRANCH   2  49
BRANCH   1  51
ATOM     51  C   LIG d   1       9.930   4.498  -2.818  0.00  0.00    -0.014 C 
ATOM     52  H   LIG d   1       9.598   4.651  -3.845  0.00  0.00     0.030 H 
ATOM     53  H   LIG d   1       9.073   4.560  -2.146  0.00  0.00     0.030 H 
BRANCH  51  54
ATOM     54  C   LIG d   1      10.578   3.118  -2.692  0.00  0.00    -0.048 C 
ATOM     55  H   LIG d   1      10.337   2.690  -1.719  0.00  0.00     0.027 H 
ATOM     56  H   LIG d   1      11.659   3.214  -2.788  0.00  0.00     0.027 H 
BRANCH  54  57
ATOM     57  C   LIG d   1      10.046   2.201  -3.797  0.00  0.00    -0.047 C 
ATOM     58  H   LIG d   1      10.418   1.189  -3.638  0.00  0.00     0.029 H 
BRANCH  57  59
ATOM     59  C   LIG d   1       8.517   2.195  -3.763  0.00  0.00    -0.063 C 
ATOM     60  H   LIG d   1       8.159   3.148  -3.372  0.00  0.00     0.023 H 
ATOM     61  H   LIG d   1       8.132   2.048  -4.772  0.00  0.00     0.023 H 
ATOM     62  H   LIG d   1       8.171   1.385  -3.120  0.00  0.00     0.023 H 
ENDBRANCH  57  59
BRANCH  57  63
ATOM     63  C   LIG d   1      10.525   2.713  -5.157  0.00  0.00    -0.063 C 
ATOM     64  H   LIG d   1       9.905   3.554  -5.468  0.00  0.00     0.023 H 
ATOM     65  H   LIG d   1      11.563   3.037  -5.078  0.00  0.00     0.023 H 
ATOM     66  H   LIG d   1      10.449   1.914  -5.893  0.00  0.00     0.023 H 
ENDBRANCH  57  63
ENDBRANCH  54  57
ENDBRANCH  51  54
ENDBRANCH   1  51
BRANCH   1  67
ATOM     67  O   LIG d   1      12.186   4.944  -2.109  0.00  0.00    -0.378 OA
ATOM     68  H   LIG d   1      12.129   4.360  -1.341  0.00  0.00     0.211 HD
ENDBRANCH   1  67
TORSDOF 18
ENDMDL
MODEL 7
REMARK VINA RESULT:      -4.6     10.294     14.826
REMARK  18 active torsions:
REMARK  status: ('A' for Active; 'I' for Inactive)
REMARK    1  A    between atoms: C_1  and  C_2 
REMARK    2  A    between atoms: C_2  and  C_3 
REMARK    3  A    between atoms: C_2  and  C_4 
REMARK    4  A    between atoms: C_4  and  C_5 
REMARK    5  A    between atoms: C_5  and  C_6 
REMARK    6  A    between atoms: C_6  and  O_37 
REMARK    7  A    between atoms: C_7  and  O_36 
REMARK    8  A    between atoms: C_9  and  C_34 
REMARK    9  A    between atoms: C_9  and  C_35 
REMARK   10  A    between atoms: C_10  and  O_17 
REMARK   11  A    between atoms: C_12  and  C_15 
REMARK   12  A    between atoms: C_12  and  C_16 
REMARK   13  A    between atoms: O_17  and  C_18 
REMARK   14  A    between atoms: C_20  and  O_33 
REMARK   15  A    between atoms: C_22  and  O_32 
REMARK   16  A    between atoms: C_24  and  O_31 
REMARK   17  A    between atoms: C_26  and  C_29 
REMARK   18  A    between atoms: C_29  and  O_30 
ROOT
ATOM      1  C   LIG d   1      10.751   4.865  -2.982  0.00  0.00     0.150 C 
ATOM      2  C   LIG d   1      10.842   5.347  -1.536  0.00  0.00     0.098 C 
ATOM      3  H   LIG d   1       9.849   5.683  -1.211  0.00  0.00     0.063 H 
ATOM      4  C   LIG d   1      11.832   6.491  -1.367  0.00  0.00     0.021 C 
ATOM      5  C   LIG d   1      11.551   7.663  -2.291  0.00  0.00     0.081 C 
ATOM      6  H   LIG d   1      12.409   8.355  -2.240  0.00  0.00     0.061 H 
ATOM      7  C   LIG d   1      11.316   7.299  -3.749  0.00  0.00     0.053 C 
ATOM      8  C   LIG d   1      10.489   6.048  -3.881  0.00  0.00     0.175 C 
ATOM      9  O   LIG d   1       9.610   5.988  -4.716  0.00  0.00    -0.294 OA
ENDROOT
BRANCH   5  10
ATOM     10  O   LIG d   1      10.407   8.381  -1.798  0.00  0.00    -0.344 OA
BRANCH  10  11
ATOM     11  C   LIG d   1      10.632   9.780  -1.618  0.00  0.00     0.188 C 
ATOM     12  H   LIG d   1      10.235  10.326  -2.474  0.00  0.00     0.094 H 
ATOM     13  O   LIG d   1      12.035  10.026  -1.507  0.00  0.00    -0.341 OA
ATOM     14  C   LIG d   1      12.376  11.405  -1.348  0.00  0.00     0.113 C 
ATOM     15  C   LIG d   1      11.743  11.940  -0.061  0.00  0.00     0.112 C 
ATOM     16  H   LIG d   1      12.000  11.972  -2.201  0.00  0.00     0.065 H 
ATOM     17  C   LIG d   1      10.226  11.738  -0.123  0.00  0.00     0.114 C 
ATOM     18  H   LIG d   1      12.148  11.401   0.795  0.00  0.00     0.065 H 
ATOM     19  C   LIG d   1       9.930  10.250  -0.342  0.00  0.00     0.134 C 
ATOM     20  H   LIG d   1       9.814  12.317  -0.950  0.00  0.00     0.065 H 
ATOM     21  H   LIG d   1      10.299   9.677   0.509  0.00  0.00     0.067 H 
BRANCH  14  22
ATOM     22  C   LIG d   1      13.897  11.551  -1.269  0.00  0.00     0.073 C 
ATOM     23  H   LIG d   1      14.368  10.745  -1.831  0.00  0.00     0.058 H 
ATOM     24  H   LIG d   1      14.192  12.511  -1.692  0.00  0.00     0.058 H 
BRANCH  22  25
ATOM     25  O   LIG d   1      14.310  11.484   0.097  0.00  0.00    -0.392 OA
ATOM     26  H   LIG d   1      14.915  10.755   0.290  0.00  0.00     0.209 HD
ENDBRANCH  22  25
ENDBRANCH  14  22
BRANCH  15  27
ATOM     27  O   LIG d   1      12.034  13.334   0.071  0.00  0.00    -0.387 OA
ATOM     28  H   LIG d   1      11.845  13.693   0.949  0.00  0.00     0.210 HD
ENDBRANCH  15  27
BRANCH  17  29
ATOM     29  O   LIG d   1       9.634  12.167   1.104  0.00  0.00    -0.386 OA
ATOM     30  H   LIG d   1       9.425  11.446   1.713  0.00  0.00     0.210 HD
ENDBRANCH  17  29
BRANCH  19  31
ATOM     31  O   LIG d   1       8.521  10.058  -0.473  0.00  0.00    -0.384 OA
ATOM     32  H   LIG d   1       7.990  10.639   0.088  0.00  0.00     0.210 HD
ENDBRANCH  19  31
ENDBRANCH  10  11
ENDBRANCH   5  10
BRANCH   4  33
ATOM     33  C   LIG d   1      13.270   5.994  -1.519  0.00  0.00    -0.055 C 
ATOM     34  H   LIG d   1      13.960   6.789  -1.241  0.00  0.00     0.024 H 
ATOM     35  H   LIG d   1      13.426   5.131  -0.871  0.00  0.00     0.024 H 
ATOM     36  H   LIG d   1      13.447   5.705  -2.556  0.00  0.00     0.024 H 
ENDBRANCH   4  33
BRANCH   4  37
ATOM     37  C   LIG d   1      11.687   7.007   0.087  0.00  0.00    -0.055 C 
ATOM     38  H   LIG d   1      10.743   7.541   0.191  0.00  0.00     0.024 H 
ATOM     39  H   LIG d   1      11.704   6.162   0.775  0.00  0.00     0.024 H 
ATOM     40  H   LIG d   1      12.513   7.680   0.318  0.00  0.00     0.024 H 
ENDBRANCH   4  37
BRANCH   7  41
ATOM     41  C   LIG d   1      12.641   7.141  -4.500  0.00  0.00    -0.051 C 
ATOM     42  H   LIG d   1      12.442   7.001  -5.562  0.00  0.00     0.024 H 
ATOM     43  H   LIG d   1      13.247   8.037  -4.359  0.00  0.00     0.024 H 
ATOM     44  H   LIG d   1      13.177   6.274  -4.113  0.00  0.00     0.024 H 
ENDBRANCH   7  41
BRANCH   7  45
ATOM     45  C   LIG d   1      10.538   8.455  -4.414  0.00  0.00    -0.051 C 
ATOM     46  H   LIG d   1      10.557   9.329  -3.763  0.00  0.00     0.024 H 
ATOM     47  H   LIG d   1      11.003   8.704  -5.369  0.00  0.00     0.024 H 
ATOM     48  H   LIG d   1       9.506   8.149  -4.583  0.00  0.00     0.024 H 
ENDBRANCH   7  45
BRANCH   2  49
ATOM     49  O   LIG d   1      11.236   4.252  -0.698  0.00  0.00    -0.388 OA
ATOM     50  H   LIG d   1      11.721   3.557  -1.162  0.00  0.00     0.210 HD
ENDBRANCH   2  49
BRANCH   1  51
ATOM     51  C   LIG d   1       9.572   3.885  -3.103  0.00  0.00    -0.014 C 
ATOM     52  H   LIG d   1       8.901   4.218  -3.895  0.00  0.00     0.030 H 
ATOM     53  H   LIG d   1       9.029   3.851  -2.158  0.00  0.00     0.030 H 
BRANCH  51  54
ATOM     54  C   LIG d   1      10.101   2.489  -3.436  0.00  0.00    -0.048 C 
ATOM     55  H   LIG d   1      10.162   1.895  -2.524  0.00  0.00     0.027 H 
ATOM     56  H   LIG d   1      11.093   2.572  -3.881  0.00  0.00     0.027 H 
BRANCH  54  57
ATOM     57  C   LIG d   1       9.154   1.806  -4.426  0.00  0.00    -0.047 C 
ATOM     58  H   LIG d   1       9.526   0.806  -4.651  0.00  0.00     0.029 H 
BRANCH  57  59
ATOM     59  C   LIG d   1       7.758   1.705  -3.809  0.00  0.00    -0.063 C 
ATOM     60  H   LIG d   1       7.610   2.527  -3.108  0.00  0.00     0.023 H 
ATOM     61  H   LIG d   1       7.008   1.759  -4.597  0.00  0.00     0.023 H 
ATOM     62  H   LIG d   1       7.662   0.756  -3.280  0.00  0.00     0.023 H 
ENDBRANCH  57  59
BRANCH  57  63
ATOM     63  C   LIG d   1       9.085   2.628  -5.714  0.00  0.00    -0.063 C 
ATOM     64  H   LIG d   1       8.862   3.667  -5.471  0.00  0.00     0.023 H 
ATOM     65  H   LIG d   1      10.044   2.574  -6.231  0.00  0.00     0.023 H 
ATOM     66  H   LIG d   1       8.302   2.229  -6.358  0.00  0.00     0.023 H 
ENDBRANCH  57  63
ENDBRANCH  54  57
ENDBRANCH  51  54
ENDBRANCH   1  51
BRANCH   1  67
ATOM     67  O   LIG d   1      11.943   4.189  -3.377  0.00  0.00    -0.378 OA
ATOM     68  H   LIG d   1      12.171   3.435  -2.817  0.00  0.00     0.211 HD
ENDBRANCH   1  67
TORSDOF 18
ENDMDL
MODEL 8
REMARK VINA RESULT:      -4.6      4.323      7.861
REMARK  18 active torsions:
REMARK  status: ('A' for Active; 'I' for Inactive)
REMARK    1  A    between atoms: C_1  and  C_2 
REMARK    2  A    between atoms: C_2  and  C_3 
REMARK    3  A    between atoms: C_2  and  C_4 
REMARK    4  A    between atoms: C_4  and  C_5 
REMARK    5  A    between atoms: C_5  and  C_6 
REMARK    6  A    between atoms: C_6  and  O_37 
REMARK    7  A    between atoms: C_7  and  O_36 
REMARK    8  A    between atoms: C_9  and  C_34 
REMARK    9  A    between atoms: C_9  and  C_35 
REMARK   10  A    between atoms: C_10  and  O_17 
REMARK   11  A    between atoms: C_12  and  C_15 
REMARK   12  A    between atoms: C_12  and  C_16 
REMARK   13  A    between atoms: O_17  and  C_18 
REMARK   14  A    between atoms: C_20  and  O_33 
REMARK   15  A    between atoms: C_22  and  O_32 
REMARK   16  A    between atoms: C_24  and  O_31 
REMARK   17  A    between atoms: C_26  and  C_29 
REMARK   18  A    between atoms: C_29  and  O_30 
ROOT
ATOM      1  C   LIG d   1       4.955  -1.177  -6.068  0.00  0.00     0.150 C 
ATOM      2  C   LIG d   1       5.101  -2.594  -5.519  0.00  0.00     0.098 C 
ATOM      3  H   LIG d   1       5.230  -2.541  -4.430  0.00  0.00     0.063 H 
ATOM      4  C   LIG d   1       6.288  -3.331  -6.123  0.00  0.00     0.021 C 
ATOM      5  C   LIG d   1       7.597  -2.575  -5.973  0.00  0.00     0.081 C 
ATOM      6  H   LIG d   1       8.359  -3.079  -6.593  0.00  0.00     0.061 H 
ATOM      7  C   LIG d   1       7.550  -1.108  -6.372  0.00  0.00     0.053 C 
ATOM      8  C   LIG d   1       6.270  -0.453  -5.924  0.00  0.00     0.175 C 
ATOM      9  O   LIG d   1       6.296   0.663  -5.448  0.00  0.00    -0.294 OA
ENDROOT
BRANCH   5  10
ATOM     10  O   LIG d   1       8.037  -2.674  -4.608  0.00  0.00    -0.344 OA
BRANCH  10  11
ATOM     11  C   LIG d   1       9.379  -3.145  -4.464  0.00  0.00     0.188 C 
ATOM     12  H   LIG d   1      10.044  -2.300  -4.280  0.00  0.00     0.094 H 
ATOM     13  O   LIG d   1       9.780  -3.815  -5.660  0.00  0.00    -0.341 OA
ATOM     14  C   LIG d   1      11.122  -4.306  -5.632  0.00  0.00     0.113 C 
ATOM     15  C   LIG d   1      11.267  -5.326  -4.500  0.00  0.00     0.112 C 
ATOM     16  H   LIG d   1      11.809  -3.477  -5.464  0.00  0.00     0.065 H 
ATOM     17  C   LIG d   1      10.881  -4.665  -3.174  0.00  0.00     0.114 C 
ATOM     18  H   LIG d   1      10.610  -6.175  -4.689  0.00  0.00     0.065 H 
ATOM     19  C   LIG d   1       9.454  -4.119  -3.285  0.00  0.00     0.134 C 
ATOM     20  H   LIG d   1      11.569  -3.847  -2.960  0.00  0.00     0.065 H 
ATOM     21  H   LIG d   1       8.760  -4.944  -3.450  0.00  0.00     0.067 H 
BRANCH  14  22
ATOM     22  C   LIG d   1      11.449  -4.976  -6.969  0.00  0.00     0.073 C 
ATOM     23  H   LIG d   1      10.854  -4.519  -7.759  0.00  0.00     0.058 H 
ATOM     24  H   LIG d   1      12.509  -4.846  -7.190  0.00  0.00     0.058 H 
BRANCH  22  25
ATOM     25  O   LIG d   1      11.146  -6.370  -6.889  0.00  0.00    -0.392 OA
ATOM     26  H   LIG d   1      10.955  -6.681  -5.994  0.00  0.00     0.209 HD
ENDBRANCH  22  25
ENDBRANCH  14  22
BRANCH  15  27
ATOM     27  O   LIG d   1      12.622  -5.777  -4.433  0.00  0.00    -0.387 OA
ATOM     28  H   LIG d   1      13.255  -5.086  -4.197  0.00  0.00     0.210 HD
ENDBRANCH  15  27
BRANCH  17  29
ATOM     29  O   LIG d   1      10.943  -5.629  -2.121  0.00  0.00    -0.386 OA
ATOM     30  H   LIG d   1      11.534  -6.373  -2.303  0.00  0.00     0.210 HD
ENDBRANCH  17  29
BRANCH  19  31
ATOM     31  O   LIG d   1       9.108  -3.437  -2.078  0.00  0.00    -0.384 OA
ATOM     32  H   LIG d   1       8.211  -3.618  -1.767  0.00  0.00     0.210 HD
ENDBRANCH  19  31
ENDBRANCH  10  11
ENDBRANCH   5  10
BRANCH   4  33
ATOM     33  C   LIG d   1       6.018  -3.693  -7.584  0.00  0.00    -0.055 C 
ATOM     34  H   LIG d   1       5.358  -4.559  -7.628  0.00  0.00     0.024 H 
ATOM     35  H   LIG d   1       5.545  -2.848  -8.086  0.00  0.00     0.024 H 
ATOM     36  H   LIG d   1       6.960  -3.928  -8.080  0.00  0.00     0.024 H 
ENDBRANCH   4  33
BRANCH   4  37
ATOM     37  C   LIG d   1       6.436  -4.665  -5.350  0.00  0.00    -0.055 C 
ATOM     38  H   LIG d   1       7.209  -5.273  -5.820  0.00  0.00     0.024 H 
ATOM     39  H   LIG d   1       6.714  -4.457  -4.317  0.00  0.00     0.024 H 
ATOM     40  H   LIG d   1       5.489  -5.204  -5.370  0.00  0.00     0.024 H 
ENDBRANCH   4  37
BRANCH   7  41
ATOM     41  C   LIG d   1       7.731  -0.940  -7.884  0.00  0.00    -0.051 C 
ATOM     42  H   LIG d   1       7.821   0.119  -8.123  0.00  0.00     0.024 H 
ATOM     43  H   LIG d   1       8.634  -1.463  -8.201  0.00  0.00     0.024 H 
ATOM     44  H   LIG d   1       6.867  -1.358  -8.401  0.00  0.00     0.024 H 
ENDBRANCH   7  41
BRANCH   7  45
ATOM     45  C   LIG d   1       8.723  -0.383  -5.679  0.00  0.00    -0.051 C 
ATOM     46  H   LIG d   1       8.941   0.545  -6.208  0.00  0.00     0.024 H 
ATOM     47  H   LIG d   1       8.452  -0.158  -4.647  0.00  0.00     0.024 H 
ATOM     48  H   LIG d   1       9.605  -1.023  -5.691  0.00  0.00     0.024 H 
ENDBRANCH   7  45
BRANCH   2  49
ATOM     49  O   LIG d   1       3.900  -3.330  -5.788  0.00  0.00    -0.388 OA
ATOM     50  H   LIG d   1       3.188  -2.796  -6.164  0.00  0.00     0.210 HD
ENDBRANCH   2  49
BRANCH   1  51
ATOM     51  C   LIG d   1       3.891  -0.434  -5.242  0.00  0.00    -0.014 C 
ATOM     52  H   LIG d   1       2.947  -0.426  -5.787  0.00  0.00     0.030 H 
ATOM     53  H   LIG d   1       4.218   0.591  -5.066  0.00  0.00     0.030 H 
BRANCH  51  54
ATOM     54  C   LIG d   1       3.700  -1.144  -3.900  0.00  0.00    -0.048 C 
ATOM     55  H   LIG d   1       4.134  -2.143  -3.951  0.00  0.00     0.027 H 
ATOM     56  H   LIG d   1       2.635  -1.223  -3.679  0.00  0.00     0.027 H 
BRANCH  54  57
ATOM     57  C   LIG d   1       4.392  -0.343  -2.795  0.00  0.00    -0.047 C 
ATOM     58  H   LIG d   1       5.367  -0.007  -3.148  0.00  0.00     0.029 H 
BRANCH  57  59
ATOM     59  C   LIG d   1       3.535   0.870  -2.431  0.00  0.00    -0.063 C 
ATOM     60  H   LIG d   1       3.315   1.443  -3.332  0.00  0.00     0.023 H 
ATOM     61  H   LIG d   1       2.603   0.534  -1.977  0.00  0.00     0.023 H 
ATOM     62  H   LIG d   1       4.077   1.499  -1.724  0.00  0.00     0.023 H 
ENDBRANCH  57  59
BRANCH  57  63
ATOM     63  C   LIG d   1       4.573  -1.229  -1.561  0.00  0.00    -0.063 C 
ATOM     64  H   LIG d   1       5.090  -0.667  -0.783  0.00  0.00     0.023 H 
ATOM     65  H   LIG d   1       3.595  -1.543  -1.194  0.00  0.00     0.023 H 
ATOM     66  H   LIG d   1       5.160  -2.107  -1.827  0.00  0.00     0.023 H 
ENDBRANCH  57  63
ENDBRANCH  54  57
ENDBRANCH  51  54
ENDBRANCH   1  51
BRANCH   1  67
ATOM     67  O   LIG d   1       4.538  -1.192  -7.432  0.00  0.00    -0.378 OA
ATOM     68  H   LIG d   1       3.661  -0.813  -7.579  0.00  0.00     0.211 HD
ENDBRANCH   1  67
TORSDOF 18
ENDMDL
MODEL 9
REMARK VINA RESULT:      -4.6     10.654     14.140
REMARK  18 active torsions:
REMARK  status: ('A' for Active; 'I' for Inactive)
REMARK    1  A    between atoms: C_1  and  C_2 
REMARK    2  A    between atoms: C_2  and  C_3 
REMARK    3  A    between atoms: C_2  and  C_4 
REMARK    4  A    between atoms: C_4  and  C_5 
REMARK    5  A    between atoms: C_5  and  C_6 
REMARK    6  A    between atoms: C_6  and  O_37 
REMARK    7  A    between atoms: C_7  and  O_36 
REMARK    8  A    between atoms: C_9  and  C_34 
REMARK    9  A    between atoms: C_9  and  C_35 
REMARK   10  A    between atoms: C_10  and  O_17 
REMARK   11  A    between atoms: C_12  and  C_15 
REMARK   12  A    between atoms: C_12  and  C_16 
REMARK   13  A    between atoms: O_17  and  C_18 
REMARK   14  A    between atoms: C_20  and  O_33 
REMARK   15  A    between atoms: C_22  and  O_32 
REMARK   16  A    between atoms: C_24  and  O_31 
REMARK   17  A    between atoms: C_26  and  C_29 
REMARK   18  A    between atoms: C_29  and  O_30 
ROOT
ATOM      1  C   LIG d   1      10.792   5.912  -3.316  0.00  0.00     0.150 C 
ATOM      2  C   LIG d   1      10.871   7.021  -2.270  0.00  0.00     0.098 C 
ATOM      3  H   LIG d   1       9.857   7.250  -1.917  0.00  0.00     0.063 H 
ATOM      4  C   LIG d   1      11.502   8.293  -2.819  0.00  0.00     0.021 C 
ATOM      5  C   LIG d   1      10.814   8.806  -4.072  0.00  0.00     0.081 C 
ATOM      6  H   LIG d   1      11.439   9.607  -4.505  0.00  0.00     0.061 H 
ATOM      7  C   LIG d   1      10.563   7.762  -5.149  0.00  0.00     0.053 C 
ATOM      8  C   LIG d   1      10.122   6.450  -4.556  0.00  0.00     0.175 C 
ATOM      9  O   LIG d   1       9.224   5.820  -5.078  0.00  0.00    -0.294 OA
ENDROOT
BRANCH   5  10
ATOM     10  O   LIG d   1       9.562   9.407  -3.703  0.00  0.00    -0.344 OA
BRANCH  10  11
ATOM     11  C   LIG d   1       9.410  10.755  -4.154  0.00  0.00     0.188 C 
ATOM     12  H   LIG d   1       8.699  10.784  -4.980  0.00  0.00     0.094 H 
ATOM     13  O   LIG d   1      10.673  11.256  -4.595  0.00  0.00    -0.341 OA
ATOM     14  C   LIG d   1      10.629  12.595  -5.093  0.00  0.00     0.113 C 
ATOM     15  C   LIG d   1      10.160  13.536  -3.980  0.00  0.00     0.112 C 
ATOM     16  H   LIG d   1       9.934  12.648  -5.931  0.00  0.00     0.065 H 
ATOM     17  C   LIG d   1       8.789  13.076  -3.477  0.00  0.00     0.114 C 
ATOM     18  H   LIG d   1      10.876  13.513  -3.159  0.00  0.00     0.065 H 
ATOM     19  C   LIG d   1       8.892  11.623  -3.003  0.00  0.00     0.134 C 
ATOM     20  H   LIG d   1       8.061  13.145  -4.286  0.00  0.00     0.065 H 
ATOM     21  H   LIG d   1       9.583  11.562  -2.162  0.00  0.00     0.067 H 
BRANCH  14  22
ATOM     22  C   LIG d   1      12.025  13.012  -5.560  0.00  0.00     0.073 C 
ATOM     23  H   LIG d   1      12.576  13.439  -4.722  0.00  0.00     0.058 H 
ATOM     24  H   LIG d   1      12.557  12.139  -5.939  0.00  0.00     0.058 H 
BRANCH  22  25
ATOM     25  O   LIG d   1      11.907  13.986  -6.599  0.00  0.00    -0.392 OA
ATOM     26  H   LIG d   1      12.398  13.767  -7.402  0.00  0.00     0.209 HD
ENDBRANCH  22  25
ENDBRANCH  14  22
BRANCH  15  27
ATOM     27  O   LIG d   1      10.060  14.867  -4.490  0.00  0.00    -0.387 OA
ATOM     28  H   LIG d   1       9.181  15.096  -4.822  0.00  0.00     0.210 HD
ENDBRANCH  15  27
BRANCH  17  29
ATOM     29  O   LIG d   1       8.375  13.904  -2.389  0.00  0.00    -0.386 OA
ATOM     30  H   LIG d   1       8.799  14.773  -2.372  0.00  0.00     0.210 HD
ENDBRANCH  17  29
BRANCH  19  31
ATOM     31  O   LIG d   1       7.603  11.159  -2.598  0.00  0.00    -0.384 OA
ATOM     32  H   LIG d   1       7.628  10.422  -1.974  0.00  0.00     0.210 HD
ENDBRANCH  19  31
ENDBRANCH  10  11
ENDBRANCH   5  10
BRANCH   4  33
ATOM     33  C   LIG d   1      13.003   8.102  -3.046  0.00  0.00    -0.055 C 
ATOM     34  H   LIG d   1      13.409   8.983  -3.543  0.00  0.00     0.024 H 
ATOM     35  H   LIG d   1      13.500   7.964  -2.085  0.00  0.00     0.024 H 
ATOM     36  H   LIG d   1      13.167   7.224  -3.670  0.00  0.00     0.024 H 
ENDBRANCH   4  33
BRANCH   4  37
ATOM     37  C   LIG d   1      11.348   9.385  -1.731  0.00  0.00    -0.055 C 
ATOM     38  H   LIG d   1      10.977  10.302  -2.186  0.00  0.00     0.024 H 
ATOM     39  H   LIG d   1      10.643   9.044  -0.973  0.00  0.00     0.024 H 
ATOM     40  H   LIG d   1      12.316   9.575  -1.267  0.00  0.00     0.024 H 
ENDBRANCH   4  37
BRANCH   7  41
ATOM     41  C   LIG d   1      11.804   7.558  -6.023  0.00  0.00    -0.051 C 
ATOM     42  H   LIG d   1      12.533   8.338  -5.805  0.00  0.00     0.024 H 
ATOM     43  H   LIG d   1      12.241   6.581  -5.810  0.00  0.00     0.024 H 
ATOM     44  H   LIG d   1      11.520   7.608  -7.074  0.00  0.00     0.024 H 
ENDBRANCH   7  41
BRANCH   7  45
ATOM     45  C   LIG d   1       9.429   8.275  -6.063  0.00  0.00    -0.051 C 
ATOM     46  H   LIG d   1       9.170   9.296  -5.781  0.00  0.00     0.024 H 
ATOM     47  H   LIG d   1       9.763   8.258  -7.100  0.00  0.00     0.024 H 
ATOM     48  H   LIG d   1       8.555   7.634  -5.952  0.00  0.00     0.024 H 
ENDBRANCH   7  45
BRANCH   2  49
ATOM     49  O   LIG d   1      11.637   6.559  -1.150  0.00  0.00    -0.388 OA
ATOM     50  H   LIG d   1      12.586   6.724  -1.227  0.00  0.00     0.210 HD
ENDBRANCH   2  49
BRANCH   1  51
ATOM     51  C   LIG d   1       9.938   4.763  -2.754  0.00  0.00    -0.014 C 
ATOM     52  H   LIG d   1       9.110   4.559  -3.433  0.00  0.00     0.030 H 
ATOM     53  H   LIG d   1       9.545   5.046  -1.777  0.00  0.00     0.030 H 
BRANCH  51  54
ATOM     54  C   LIG d   1      10.801   3.508  -2.611  0.00  0.00    -0.048 C 
ATOM     55  H   LIG d   1      10.807   3.186  -1.570  0.00  0.00     0.027 H 
ATOM     56  H   LIG d   1      11.820   3.730  -2.928  0.00  0.00     0.027 H 
BRANCH  54  57
ATOM     57  C   LIG d   1      10.227   2.391  -3.486  0.00  0.00    -0.047 C 
ATOM     58  H   LIG d   1      10.390   1.429  -2.998  0.00  0.00     0.029 H 
BRANCH  57  59
ATOM     59  C   LIG d   1       8.727   2.617  -3.682  0.00  0.00    -0.063 C 
ATOM     60  H   LIG d   1       8.431   2.258  -4.669  0.00  0.00     0.023 H 
ATOM     61  H   LIG d   1       8.174   2.072  -2.917  0.00  0.00     0.023 H 
ATOM     62  H   LIG d   1       8.506   3.682  -3.601  0.00  0.00     0.023 H 
ENDBRANCH  57  59
BRANCH  57  63
ATOM     63  C   LIG d   1      10.926   2.399  -4.847  0.00  0.00    -0.063 C 
ATOM     64  H   LIG d   1      10.399   1.734  -5.530  0.00  0.00     0.023 H 
ATOM     65  H   LIG d   1      10.922   3.413  -5.251  0.00  0.00     0.023 H 
ATOM     66  H   LIG d   1      11.955   2.060  -4.729  0.00  0.00     0.023 H 
ENDBRANCH  57  63
ENDBRANCH  54  57
ENDBRANCH  51  54
ENDBRANCH   1  51
BRANCH   1  67
ATOM     67  O   LIG d   1      12.087   5.402  -3.628  0.00  0.00    -0.378 OA
ATOM     68  H   LIG d   1      12.372   4.678  -3.054  0.00  0.00     0.211 HD
ENDBRANCH   1  67
TORSDOF 18
ENDMDL
