MODEL 1
REMARK VINA RESULT:      -6.8      0.000      0.000
REMARK  12 active torsions:
REMARK  status: ('A' for Active; 'I' for Inactive)
REMARK    1  A    between atoms: C_1  and  C_2 
REMARK    2  A    between atoms: C_11  and  O_14 
REMARK    3  A    between atoms: C_12  and  C_13 
REMARK    4  A    between atoms: O_14  and  C_15 
REMARK    5  A    between atoms: C_15  and  C_17 
REMARK    6  A    between atoms: C_17  and  C_19 
REMARK    7  A    between atoms: C_17  and  N_25 
REMARK       I    between atoms: N_25  and  C_26 
REMARK    8  A    between atoms: C_26  and  O_28 
REMARK    9  A    between atoms: O_28  and  C_29 
REMARK   10  A    between atoms: C_29  and  C_30 
REMARK   11  A    between atoms: C_29  and  C_31 
REMARK   12  A    between atoms: C_29  and  C_32 
ROOT
ATOM      1  C   LIG d   1       6.372  -1.513  -5.484  0.00  0.00     0.149 C 
ATOM      2  H   LIG d   1       7.105  -0.713  -5.579  0.00  0.00     0.067 H 
ENDROOT
BRANCH   1   3
ATOM      3  C   LIG d   1       7.079  -2.843  -5.461  0.00  0.00     0.338 C 
ATOM      4  O   LIG d   1       7.939  -3.056  -4.638  0.00  0.00    -0.248 OA
BRANCH   3   5
ATOM      5  O   LIG d   1       6.755  -3.792  -6.354  0.00  0.00    -0.424 OA
BRANCH   5   6
ATOM      6  C   LIG d   1       6.832  -5.083  -5.938  0.00  0.00     0.138 A 
ATOM      7  C   LIG d   1       8.079  -5.662  -5.710  0.00  0.00    -0.018 A 
ATOM      8  C   LIG d   1       8.173  -6.958  -5.292  0.00  0.00    -0.047 A 
ATOM      9  H   LIG d   1       8.976  -5.082  -5.867  0.00  0.00     0.066 H 
ATOM     10  C   LIG d   1       7.010  -7.709  -5.090  0.00  0.00     0.021 A 
ATOM     11  H   LIG d   1       9.142  -7.401  -5.117  0.00  0.00     0.063 H 
ATOM     12  C   LIG d   1       7.081  -9.101  -4.640  0.00  0.00    -0.033 A 
ATOM     13  C   LIG d   1       5.748  -7.130  -5.317  0.00  0.00     0.146 A 
ATOM     14  C   LIG d   1       5.916  -9.778  -4.462  0.00  0.00     0.026 A 
ATOM     15  C   LIG d   1       4.687  -9.134  -4.709  0.00  0.00     0.338 A 
ATOM     16  H   LIG d   1       5.933 -10.807  -4.133  0.00  0.00     0.069 H 
ATOM     17  O   LIG d   1       3.650  -9.753  -4.546  0.00  0.00    -0.245 OA
ATOM     18  O   LIG d   1       4.628  -7.856  -5.116  0.00  0.00    -0.422 OA
ATOM     19  C   LIG d   1       5.670  -5.812  -5.743  0.00  0.00     0.035 A 
BRANCH  12  20
ATOM     20  C   LIG d   1       8.409  -9.765  -4.384  0.00  0.00    -0.039 C 
ATOM     21  H   LIG d   1       9.211  -9.132  -4.763  0.00  0.00     0.028 H 
ATOM     22  H   LIG d   1       8.541  -9.914  -3.312  0.00  0.00     0.028 H 
ATOM     23  H   LIG d   1       8.437 -10.730  -4.891  0.00  0.00     0.028 H 
ENDBRANCH  12  20
BRANCH  19  24
ATOM     24  C   LIG d   1       4.327  -5.175  -5.992  0.00  0.00    -0.033 C 
ATOM     25  H   LIG d   1       4.466  -4.221  -6.500  0.00  0.00     0.028 H 
ATOM     26  H   LIG d   1       3.724  -5.835  -6.615  0.00  0.00     0.028 H 
ATOM     27  H   LIG d   1       3.822  -5.011  -5.040  0.00  0.00     0.028 H 
ENDBRANCH  19  24
ENDBRANCH   5   6
ENDBRANCH   3   5
ENDBRANCH   1   3
BRANCH   1  28
ATOM     28  C   LIG d   1       5.597  -1.334  -4.203  0.00  0.00    -0.016 A 
ATOM     29  C   LIG d   1       5.756  -0.184  -3.454  0.00  0.00    -0.056 A 
ATOM     30  C   LIG d   1       5.046  -0.020  -2.280  0.00  0.00    -0.061 A 
ATOM     31  H   LIG d   1       6.437   0.587  -3.785  0.00  0.00     0.062 H 
ATOM     32  C   LIG d   1       4.176  -1.006  -1.855  0.00  0.00    -0.062 A 
ATOM     33  H   LIG d   1       5.171   0.879  -1.693  0.00  0.00     0.062 H 
ATOM     34  C   LIG d   1       4.015  -2.157  -2.604  0.00  0.00    -0.061 A 
ATOM     35  H   LIG d   1       3.621  -0.878  -0.936  0.00  0.00     0.062 H 
ATOM     36  C   LIG d   1       4.722  -2.319  -3.781  0.00  0.00    -0.056 A 
ATOM     37  H   LIG d   1       3.336  -2.928  -2.273  0.00  0.00     0.062 H 
ATOM     38  H   LIG d   1       4.595  -3.215  -4.368  0.00  0.00     0.062 H 
ENDBRANCH   1  28
BRANCH   1  39
ATOM     39  N   LIG d   1       5.451  -1.469  -6.622  0.00  0.00    -0.264 N 
ATOM     40  C   LIG d   1       5.310  -0.332  -7.331  0.00  0.00     0.402 C 
ATOM     41  O   LIG d   1       5.948   0.657  -7.028  0.00  0.00    -0.226 OA
ATOM     42  H   LIG d   1       4.941  -2.259  -6.865  0.00  0.00     0.153 HD
BRANCH  40  43
ATOM     43  O   LIG d   1       4.463  -0.291  -8.378  0.00  0.00    -0.445 OA
BRANCH  43  44
ATOM     44  C   LIG d   1       3.151   0.282  -8.141  0.00  0.00     0.107 C 
BRANCH  44  45
ATOM     45  C   LIG d   1       2.813   0.185  -6.651  0.00  0.00    -0.025 C 
ATOM     46  H   LIG d   1       3.641  -0.285  -6.121  0.00  0.00     0.027 H 
ATOM     47  H   LIG d   1       2.647   1.186  -6.251  0.00  0.00     0.027 H 
ATOM     48  H   LIG d   1       1.912  -0.413  -6.521  0.00  0.00     0.027 H 
ENDBRANCH  44  45
BRANCH  44  49
ATOM     49  C   LIG d   1       3.152   1.751  -8.569  0.00  0.00    -0.025 C 
ATOM     50  H   LIG d   1       4.038   1.954  -9.171  0.00  0.00     0.027 H 
ATOM     51  H   LIG d   1       2.258   1.960  -9.156  0.00  0.00     0.027 H 
ATOM     52  H   LIG d   1       3.162   2.388  -7.683  0.00  0.00     0.027 H 
ENDBRANCH  44  49
BRANCH  44  53
ATOM     53  C   LIG d   1       2.105  -0.484  -8.952  0.00  0.00    -0.025 C 
ATOM     54  H   LIG d   1       1.109  -0.247  -8.578  0.00  0.00     0.027 H 
ATOM     55  H   LIG d   1       2.176  -0.198 -10.000  0.00  0.00     0.027 H 
ATOM     56  H   LIG d   1       2.283  -1.556  -8.853  0.00  0.00     0.027 H 
ENDBRANCH  44  53
ENDBRANCH  43  44
ENDBRANCH  40  43
ENDBRANCH   1  39
TORSDOF 12
ENDMDL
MODEL 2
REMARK VINA RESULT:      -6.7      4.292      7.547
REMARK  12 active torsions:
REMARK  status: ('A' for Active; 'I' for Inactive)
REMARK    1  A    between atoms: C_1  and  C_2 
REMARK    2  A    between atoms: C_11  and  O_14 
REMARK    3  A    between atoms: C_12  and  C_13 
REMARK    4  A    between atoms: O_14  and  C_15 
REMARK    5  A    between atoms: C_15  and  C_17 
REMARK    6  A    between atoms: C_17  and  C_19 
REMARK    7  A    between atoms: C_17  and  N_25 
REMARK       I    between atoms: N_25  and  C_26 
REMARK    8  A    between atoms: C_26  and  O_28 
REMARK    9  A    between atoms: O_28  and  C_29 
REMARK   10  A    between atoms: C_29  and  C_30 
REMARK   11  A    between atoms: C_29  and  C_31 
REMARK   12  A    between atoms: C_29  and  C_32 
ROOT
ATOM      1  C   LIG d   1       4.514  -0.420  -6.253  0.00  0.00     0.149 C 
ATOM      2  H   LIG d   1       4.609   0.665  -6.237  0.00  0.00     0.067 H 
ENDROOT
BRANCH   1   3
ATOM      3  C   LIG d   1       5.802  -1.031  -6.739  0.00  0.00     0.338 C 
ATOM      4  O   LIG d   1       5.841  -1.583  -7.814  0.00  0.00    -0.248 OA
BRANCH   3   5
ATOM      5  O   LIG d   1       6.908  -0.961  -5.980  0.00  0.00    -0.424 OA
BRANCH   5   6
ATOM      6  C   LIG d   1       7.561   0.229  -5.948  0.00  0.00     0.138 A 
ATOM      7  C   LIG d   1       7.943   0.840  -7.140  0.00  0.00    -0.018 A 
ATOM      8  C   LIG d   1       8.600   2.037  -7.125  0.00  0.00    -0.047 A 
ATOM      9  H   LIG d   1       7.720   0.363  -8.083  0.00  0.00     0.066 H 
ATOM     10  C   LIG d   1       8.890   2.655  -5.903  0.00  0.00     0.021 A 
ATOM     11  H   LIG d   1       8.893   2.506  -8.052  0.00  0.00     0.063 H 
ATOM     12  C   LIG d   1       9.592   3.939  -5.856  0.00  0.00    -0.033 A 
ATOM     13  C   LIG d   1       8.505   2.043  -4.695  0.00  0.00     0.146 A 
ATOM     14  C   LIG d   1       9.844   4.488  -4.639  0.00  0.00     0.026 A 
ATOM     15  C   LIG d   1       9.430   3.819  -3.469  0.00  0.00     0.338 A 
ATOM     16  H   LIG d   1      10.361   5.434  -4.568  0.00  0.00     0.069 H 
ATOM     17  O   LIG d   1       9.663   4.322  -2.384  0.00  0.00    -0.245 OA
ATOM     18  O   LIG d   1       8.782   2.645  -3.519  0.00  0.00    -0.422 OA
ATOM     19  C   LIG d   1       7.839   0.827  -4.729  0.00  0.00     0.035 A 
BRANCH  12  20
ATOM     20  C   LIG d   1      10.024   4.632  -7.123  0.00  0.00    -0.039 C 
ATOM     21  H   LIG d   1       9.891   3.957  -7.969  0.00  0.00     0.028 H 
ATOM     22  H   LIG d   1       9.418   5.526  -7.273  0.00  0.00     0.028 H 
ATOM     23  H   LIG d   1      11.074   4.913  -7.043  0.00  0.00     0.028 H 
ENDBRANCH  12  20
BRANCH  19  24
ATOM     24  C   LIG d   1       7.421   0.158  -3.445  0.00  0.00    -0.033 C 
ATOM     25  H   LIG d   1       6.461  -0.338  -3.591  0.00  0.00     0.028 H 
ATOM     26  H   LIG d   1       8.172  -0.578  -3.159  0.00  0.00     0.028 H 
ATOM     27  H   LIG d   1       7.328   0.907  -2.660  0.00  0.00     0.028 H 
ENDBRANCH  19  24
ENDBRANCH   5   6
ENDBRANCH   3   5
ENDBRANCH   1   3
BRANCH   1  28
ATOM     28  C   LIG d   1       4.217  -0.918  -4.861  0.00  0.00    -0.016 A 
ATOM     29  C   LIG d   1       4.560  -2.207  -4.500  0.00  0.00    -0.056 A 
ATOM     30  C   LIG d   1       4.287  -2.663  -3.224  0.00  0.00    -0.061 A 
ATOM     31  H   LIG d   1       5.041  -2.858  -5.215  0.00  0.00     0.062 H 
ATOM     32  C   LIG d   1       3.671  -1.830  -2.309  0.00  0.00    -0.062 A 
ATOM     33  H   LIG d   1       4.554  -3.671  -2.942  0.00  0.00     0.062 H 
ATOM     34  C   LIG d   1       3.329  -0.540  -2.669  0.00  0.00    -0.061 A 
ATOM     35  H   LIG d   1       3.457  -2.187  -1.312  0.00  0.00     0.062 H 
ATOM     36  C   LIG d   1       3.606  -0.082  -3.944  0.00  0.00    -0.056 A 
ATOM     37  H   LIG d   1       2.847   0.111  -1.955  0.00  0.00     0.062 H 
ATOM     38  H   LIG d   1       3.342   0.926  -4.225  0.00  0.00     0.062 H 
ENDBRANCH   1  28
BRANCH   1  39
ATOM     39  N   LIG d   1       3.422  -0.802  -7.151  0.00  0.00    -0.264 N 
ATOM     40  C   LIG d   1       2.841   0.126  -7.938  0.00  0.00     0.402 C 
ATOM     41  O   LIG d   1       3.223   1.280  -7.901  0.00  0.00    -0.226 OA
ATOM     42  H   LIG d   1       3.117  -1.723  -7.181  0.00  0.00     0.153 HD
BRANCH  40  43
ATOM     43  O   LIG d   1       1.837  -0.225  -8.764  0.00  0.00    -0.445 OA
BRANCH  43  44
ATOM     44  C   LIG d   1       2.203  -0.908  -9.992  0.00  0.00     0.107 C 
BRANCH  44  45
ATOM     45  C   LIG d   1       2.550  -2.366  -9.679  0.00  0.00    -0.025 C 
ATOM     46  H   LIG d   1       2.908  -2.856 -10.584  0.00  0.00     0.027 H 
ATOM     47  H   LIG d   1       3.329  -2.398  -8.917  0.00  0.00     0.027 H 
ATOM     48  H   LIG d   1       1.662  -2.880  -9.314  0.00  0.00     0.027 H 
ENDBRANCH  44  45
BRANCH  44  49
ATOM     49  C   LIG d   1       1.028  -0.862 -10.970  0.00  0.00    -0.025 C 
ATOM     50  H   LIG d   1       1.407  -0.831 -11.992  0.00  0.00     0.027 H 
ATOM     51  H   LIG d   1       0.410  -1.750 -10.839  0.00  0.00     0.027 H 
ATOM     52  H   LIG d   1       0.430   0.029 -10.778  0.00  0.00     0.027 H 
ENDBRANCH  44  49
BRANCH  44  53
ATOM     53  C   LIG d   1       3.416  -0.219 -10.618  0.00  0.00    -0.025 C 
ATOM     54  H   LIG d   1       4.240  -0.214  -9.905  0.00  0.00     0.027 H 
ATOM     55  H   LIG d   1       3.716  -0.757 -11.516  0.00  0.00     0.027 H 
ATOM     56  H   LIG d   1       3.156   0.808 -10.878  0.00  0.00     0.027 H 
ENDBRANCH  44  53
ENDBRANCH  43  44
ENDBRANCH  40  43
ENDBRANCH   1  39
TORSDOF 12
ENDMDL
MODEL 3
REMARK VINA RESULT:      -6.7      4.533      7.585
REMARK  12 active torsions:
REMARK  status: ('A' for Active; 'I' for Inactive)
REMARK    1  A    between atoms: C_1  and  C_2 
REMARK    2  A    between atoms: C_11  and  O_14 
REMARK    3  A    between atoms: C_12  and  C_13 
REMARK    4  A    between atoms: O_14  and  C_15 
REMARK    5  A    between atoms: C_15  and  C_17 
REMARK    6  A    between atoms: C_17  and  C_19 
REMARK    7  A    between atoms: C_17  and  N_25 
REMARK       I    between atoms: N_25  and  C_26 
REMARK    8  A    between atoms: C_26  and  O_28 
REMARK    9  A    between atoms: O_28  and  C_29 
REMARK   10  A    between atoms: C_29  and  C_30 
REMARK   11  A    between atoms: C_29  and  C_31 
REMARK   12  A    between atoms: C_29  and  C_32 
ROOT
ATOM      1  C   LIG d   1       4.440  -0.516  -5.941  0.00  0.00     0.149 C 
ATOM      2  H   LIG d   1       4.382  -1.485  -6.435  0.00  0.00     0.067 H 
ENDROOT
BRANCH   1   3
ATOM      3  C   LIG d   1       3.257   0.325  -6.342  0.00  0.00     0.338 C 
ATOM      4  O   LIG d   1       2.261   0.333  -5.656  0.00  0.00    -0.248 OA
BRANCH   3   5
ATOM      5  O   LIG d   1       3.308   1.067  -7.460  0.00  0.00    -0.424 OA
BRANCH   5   6
ATOM      6  C   LIG d   1       3.046   0.434  -8.633  0.00  0.00     0.138 A 
ATOM      7  C   LIG d   1       1.918  -0.376  -8.745  0.00  0.00    -0.018 A 
ATOM      8  C   LIG d   1       1.641  -1.018  -9.917  0.00  0.00    -0.047 A 
ATOM      9  H   LIG d   1       1.259  -0.497  -7.898  0.00  0.00     0.066 H 
ATOM     10  C   LIG d   1       2.495  -0.861 -11.014  0.00  0.00     0.021 A 
ATOM     11  H   LIG d   1       0.764  -1.644  -9.998  0.00  0.00     0.063 H 
ATOM     12  C   LIG d   1       2.222  -1.537 -12.284  0.00  0.00    -0.033 A 
ATOM     13  C   LIG d   1       3.636  -0.044 -10.908  0.00  0.00     0.146 A 
ATOM     14  C   LIG d   1       3.089  -1.345 -13.312  0.00  0.00     0.026 A 
ATOM     15  C   LIG d   1       4.213  -0.513 -13.135  0.00  0.00     0.338 A 
ATOM     16  H   LIG d   1       2.918  -1.830 -14.263  0.00  0.00     0.069 H 
ATOM     17  O   LIG d   1       4.983  -0.349 -14.065  0.00  0.00    -0.245 OA
ATOM     18  O   LIG d   1       4.455   0.109 -11.970  0.00  0.00    -0.422 OA
ATOM     19  C   LIG d   1       3.903   0.601  -9.709  0.00  0.00     0.035 A 
BRANCH  12  20
ATOM     20  C   LIG d   1       1.014  -2.423 -12.446  0.00  0.00    -0.039 C 
ATOM     21  H   LIG d   1       1.247  -3.426 -12.087  0.00  0.00     0.028 H 
ATOM     22  H   LIG d   1       0.184  -2.015 -11.868  0.00  0.00     0.028 H 
ATOM     23  H   LIG d   1       0.735  -2.469 -13.498  0.00  0.00     0.028 H 
ENDBRANCH  12  20
BRANCH  19  24
ATOM     24  C   LIG d   1       5.120   1.479  -9.578  0.00  0.00    -0.033 C 
ATOM     25  H   LIG d   1       5.273   1.732  -8.529  0.00  0.00     0.028 H 
ATOM     26  H   LIG d   1       5.993   0.947  -9.955  0.00  0.00     0.028 H 
ATOM     27  H   LIG d   1       4.973   2.392 -10.155  0.00  0.00     0.028 H 
ENDBRANCH  19  24
ENDBRANCH   5   6
ENDBRANCH   3   5
ENDBRANCH   1   3
BRANCH   1  28
ATOM     28  C   LIG d   1       4.432  -0.714  -4.446  0.00  0.00    -0.016 A 
ATOM     29  C   LIG d   1       3.993  -1.910  -3.910  0.00  0.00    -0.056 A 
ATOM     30  C   LIG d   1       3.986  -2.091  -2.540  0.00  0.00    -0.061 A 
ATOM     31  H   LIG d   1       3.655  -2.702  -4.562  0.00  0.00     0.062 H 
ATOM     32  C   LIG d   1       4.417  -1.077  -1.706  0.00  0.00    -0.062 A 
ATOM     33  H   LIG d   1       3.641  -3.026  -2.120  0.00  0.00     0.062 H 
ATOM     34  C   LIG d   1       4.857   0.119  -2.242  0.00  0.00    -0.061 A 
ATOM     35  H   LIG d   1       4.411  -1.219  -0.634  0.00  0.00     0.062 H 
ATOM     36  C   LIG d   1       4.869   0.298  -3.612  0.00  0.00    -0.056 A 
ATOM     37  H   LIG d   1       5.195   0.912  -1.590  0.00  0.00     0.062 H 
ATOM     38  H   LIG d   1       5.216   1.231  -4.031  0.00  0.00     0.062 H 
ENDBRANCH   1  28
BRANCH   1  39
ATOM     39  N   LIG d   1       5.677   0.161  -6.336  0.00  0.00    -0.264 N 
ATOM     40  C   LIG d   1       6.695  -0.550  -6.863  0.00  0.00     0.402 C 
ATOM     41  O   LIG d   1       6.587  -1.751  -7.009  0.00  0.00    -0.226 OA
ATOM     42  H   LIG d   1       5.765   1.120  -6.220  0.00  0.00     0.153 HD
BRANCH  40  43
ATOM     43  O   LIG d   1       7.833   0.073  -7.227  0.00  0.00    -0.445 OA
BRANCH  43  44
ATOM     44  C   LIG d   1       8.716   0.508  -6.160  0.00  0.00     0.107 C 
BRANCH  44  45
ATOM     45  C   LIG d   1      10.172   0.319  -6.594  0.00  0.00    -0.025 C 
ATOM     46  H   LIG d   1      10.712  -0.231  -5.824  0.00  0.00     0.027 H 
ATOM     47  H   LIG d   1      10.201  -0.242  -7.529  0.00  0.00     0.027 H 
ATOM     48  H   LIG d   1      10.637   1.293  -6.740  0.00  0.00     0.027 H 
ENDBRANCH  44  45
BRANCH  44  49
ATOM     49  C   LIG d   1       8.462   1.986  -5.858  0.00  0.00    -0.025 C 
ATOM     50  H   LIG d   1       7.542   2.086  -5.282  0.00  0.00     0.027 H 
ATOM     51  H   LIG d   1       9.296   2.389  -5.284  0.00  0.00     0.027 H 
ATOM     52  H   LIG d   1       8.365   2.537  -6.795  0.00  0.00     0.027 H 
ENDBRANCH  44  49
BRANCH  44  53
ATOM     53  C   LIG d   1       8.447  -0.322  -4.904  0.00  0.00    -0.025 C 
ATOM     54  H   LIG d   1       9.226  -1.077  -4.793  0.00  0.00     0.027 H 
ATOM     55  H   LIG d   1       8.447   0.329  -4.031  0.00  0.00     0.027 H 
ATOM     56  H   LIG d   1       7.477  -0.813  -4.994  0.00  0.00     0.027 H 
ENDBRANCH  44  53
ENDBRANCH  43  44
ENDBRANCH  40  43
ENDBRANCH   1  39
TORSDOF 12
ENDMDL
MODEL 4
REMARK VINA RESULT:      -6.6      3.263      6.713
REMARK  12 active torsions:
REMARK  status: ('A' for Active; 'I' for Inactive)
REMARK    1  A    between atoms: C_1  and  C_2 
REMARK    2  A    between atoms: C_11  and  O_14 
REMARK    3  A    between atoms: C_12  and  C_13 
REMARK    4  A    between atoms: O_14  and  C_15 
REMARK    5  A    between atoms: C_15  and  C_17 
REMARK    6  A    between atoms: C_17  and  C_19 
REMARK    7  A    between atoms: C_17  and  N_25 
REMARK       I    between atoms: N_25  and  C_26 
REMARK    8  A    between atoms: C_26  and  O_28 
REMARK    9  A    between atoms: O_28  and  C_29 
REMARK   10  A    between atoms: C_29  and  C_30 
REMARK   11  A    between atoms: C_29  and  C_31 
REMARK   12  A    between atoms: C_29  and  C_32 
ROOT
ATOM      1  C   LIG d   1       6.453  -2.596  -3.752  0.00  0.00     0.149 C 
ATOM      2  H   LIG d   1       6.633  -3.324  -2.961  0.00  0.00     0.067 H 
ENDROOT
BRANCH   1   3
ATOM      3  C   LIG d   1       5.500  -3.177  -4.763  0.00  0.00     0.338 C 
ATOM      4  O   LIG d   1       4.479  -3.710  -4.394  0.00  0.00    -0.248 OA
BRANCH   3   5
ATOM      5  O   LIG d   1       5.783  -3.103  -6.073  0.00  0.00    -0.424 OA
BRANCH   5   6
ATOM      6  C   LIG d   1       4.994  -2.298  -6.831  0.00  0.00     0.138 A 
ATOM      7  C   LIG d   1       5.050  -0.916  -6.659  0.00  0.00    -0.018 A 
ATOM      8  C   LIG d   1       4.264  -0.093  -7.414  0.00  0.00    -0.047 A 
ATOM      9  H   LIG d   1       5.718  -0.494  -5.924  0.00  0.00     0.066 H 
ATOM     10  C   LIG d   1       3.397  -0.641  -8.366  0.00  0.00     0.021 A 
ATOM     11  H   LIG d   1       4.312   0.977  -7.276  0.00  0.00     0.063 H 
ATOM     12  C   LIG d   1       2.544   0.218  -9.190  0.00  0.00    -0.033 A 
ATOM     13  C   LIG d   1       3.337  -2.035  -8.545  0.00  0.00     0.146 A 
ATOM     14  C   LIG d   1       1.723  -0.374 -10.097  0.00  0.00     0.026 A 
ATOM     15  C   LIG d   1       1.714  -1.778 -10.223  0.00  0.00     0.338 A 
ATOM     16  H   LIG d   1       1.080   0.230 -10.720  0.00  0.00     0.069 H 
ATOM     17  O   LIG d   1       0.974  -2.297 -11.040  0.00  0.00    -0.245 OA
ATOM     18  O   LIG d   1       2.504  -2.559  -9.468  0.00  0.00    -0.422 OA
ATOM     19  C   LIG d   1       4.142  -2.857  -7.769  0.00  0.00     0.035 A 
BRANCH  12  20
ATOM     20  C   LIG d   1       2.573   1.716  -9.034  0.00  0.00    -0.039 C 
ATOM     21  H   LIG d   1       3.426   2.001  -8.418  0.00  0.00     0.028 H 
ATOM     22  H   LIG d   1       2.663   2.182 -10.016  0.00  0.00     0.028 H 
ATOM     23  H   LIG d   1       1.652   2.050  -8.557  0.00  0.00     0.028 H 
ENDBRANCH  12  20
BRANCH  19  24
ATOM     24  C   LIG d   1       4.090  -4.353  -7.947  0.00  0.00    -0.033 C 
ATOM     25  H   LIG d   1       4.268  -4.600  -8.994  0.00  0.00     0.028 H 
ATOM     26  H   LIG d   1       4.855  -4.818  -7.327  0.00  0.00     0.028 H 
ATOM     27  H   LIG d   1       3.107  -4.719  -7.649  0.00  0.00     0.028 H 
ENDBRANCH  19  24
ENDBRANCH   5   6
ENDBRANCH   3   5
ENDBRANCH   1   3
BRANCH   1  28
ATOM     28  C   LIG d   1       5.854  -1.347  -3.156  0.00  0.00    -0.016 A 
ATOM     29  C   LIG d   1       6.372  -0.109  -3.485  0.00  0.00    -0.056 A 
ATOM     30  C   LIG d   1       5.823   1.036  -2.940  0.00  0.00    -0.061 A 
ATOM     31  H   LIG d   1       7.205  -0.035  -4.168  0.00  0.00     0.062 H 
ATOM     32  C   LIG d   1       4.757   0.943  -2.065  0.00  0.00    -0.062 A 
ATOM     33  H   LIG d   1       6.227   2.005  -3.195  0.00  0.00     0.062 H 
ATOM     34  C   LIG d   1       4.238  -0.296  -1.736  0.00  0.00    -0.061 A 
ATOM     35  H   LIG d   1       4.328   1.838  -1.637  0.00  0.00     0.062 H 
ATOM     36  C   LIG d   1       4.784  -1.441  -2.286  0.00  0.00    -0.056 A 
ATOM     37  H   LIG d   1       3.405  -0.370  -1.053  0.00  0.00     0.062 H 
ATOM     38  H   LIG d   1       4.378  -2.408  -2.032  0.00  0.00     0.062 H 
ENDBRANCH   1  28
BRANCH   1  39
ATOM     39  N   LIG d   1       7.720  -2.265  -4.409  0.00  0.00    -0.264 N 
ATOM     40  C   LIG d   1       8.793  -3.065  -4.246  0.00  0.00     0.402 C 
ATOM     41  O   LIG d   1       8.710  -4.061  -3.554  0.00  0.00    -0.226 OA
ATOM     42  H   LIG d   1       7.787  -1.470  -4.961  0.00  0.00     0.153 HD
BRANCH  40  43
ATOM     43  O   LIG d   1       9.958  -2.760  -4.850  0.00  0.00    -0.445 OA
BRANCH  43  44
ATOM     44  C   LIG d   1      10.047  -3.017  -6.276  0.00  0.00     0.107 C 
BRANCH  44  45
ATOM     45  C   LIG d   1       9.616  -1.766  -7.046  0.00  0.00    -0.025 C 
ATOM     46  H   LIG d   1       9.609  -1.982  -8.115  0.00  0.00     0.027 H 
ATOM     47  H   LIG d   1       8.615  -1.472  -6.729  0.00  0.00     0.027 H 
ATOM     48  H   LIG d   1      10.315  -0.956  -6.844  0.00  0.00     0.027 H 
ENDBRANCH  44  45
BRANCH  44  49
ATOM     49  C   LIG d   1      11.490  -3.369  -6.641  0.00  0.00    -0.025 C 
ATOM     50  H   LIG d   1      11.896  -2.601  -7.301  0.00  0.00     0.027 H 
ATOM     51  H   LIG d   1      12.092  -3.424  -5.735  0.00  0.00     0.027 H 
ATOM     52  H   LIG d   1      11.511  -4.333  -7.151  0.00  0.00     0.027 H 
ENDBRANCH  44  49
BRANCH  44  53
ATOM     53  C   LIG d   1       9.129  -4.183  -6.643  0.00  0.00    -0.025 C 
ATOM     54  H   LIG d   1       9.599  -4.785  -7.421  0.00  0.00     0.027 H 
ATOM     55  H   LIG d   1       8.954  -4.800  -5.762  0.00  0.00     0.027 H 
ATOM     56  H   LIG d   1       8.178  -3.795  -7.011  0.00  0.00     0.027 H 
ENDBRANCH  44  53
ENDBRANCH  43  44
ENDBRANCH  40  43
ENDBRANCH   1  39
TORSDOF 12
ENDMDL
MODEL 5
REMARK VINA RESULT:      -6.5      4.368      8.154
REMARK  12 active torsions:
REMARK  status: ('A' for Active; 'I' for Inactive)
REMARK    1  A    between atoms: C_1  and  C_2 
REMARK    2  A    between atoms: C_11  and  O_14 
REMARK    3  A    between atoms: C_12  and  C_13 
REMARK    4  A    between atoms: O_14  and  C_15 
REMARK    5  A    between atoms: C_15  and  C_17 
REMARK    6  A    between atoms: C_17  and  C_19 
REMARK    7  A    between atoms: C_17  and  N_25 
REMARK       I    between atoms: N_25  and  C_26 
REMARK    8  A    between atoms: C_26  and  O_28 
REMARK    9  A    between atoms: O_28  and  C_29 
REMARK   10  A    between atoms: C_29  and  C_30 
REMARK   11  A    between atoms: C_29  and  C_31 
REMARK   12  A    between atoms: C_29  and  C_32 
ROOT
ATOM      1  C   LIG d   1       6.064  -0.128  -5.605  0.00  0.00     0.149 C 
ATOM      2  H   LIG d   1       6.193   0.953  -5.656  0.00  0.00     0.067 H 
ENDROOT
BRANCH   1   3
ATOM      3  C   LIG d   1       7.408  -0.800  -5.706  0.00  0.00     0.338 C 
ATOM      4  O   LIG d   1       7.496  -1.905  -6.190  0.00  0.00    -0.248 OA
BRANCH   3   5
ATOM      5  O   LIG d   1       8.507  -0.174  -5.257  0.00  0.00    -0.424 OA
BRANCH   5   6
ATOM      6  C   LIG d   1       8.844   0.993  -5.864  0.00  0.00     0.138 A 
ATOM      7  C   LIG d   1       9.120   1.007  -7.230  0.00  0.00    -0.018 A 
ATOM      8  C   LIG d   1       9.460   2.173  -7.855  0.00  0.00    -0.047 A 
ATOM      9  H   LIG d   1       9.068   0.090  -7.797  0.00  0.00     0.066 H 
ATOM     10  C   LIG d   1       9.529   3.361  -7.120  0.00  0.00     0.021 A 
ATOM     11  H   LIG d   1       9.672   2.177  -8.914  0.00  0.00     0.063 H 
ATOM     12  C   LIG d   1       9.889   4.625  -7.764  0.00  0.00    -0.033 A 
ATOM     13  C   LIG d   1       9.250   3.353  -5.741  0.00  0.00     0.146 A 
ATOM     14  C   LIG d   1       9.940   5.746  -6.996  0.00  0.00     0.026 A 
ATOM     15  C   LIG d   1       9.648   5.665  -5.619  0.00  0.00     0.338 A 
ATOM     16  H   LIG d   1      10.203   6.695  -7.439  0.00  0.00     0.069 H 
ATOM     17  O   LIG d   1       9.697   6.676  -4.942  0.00  0.00    -0.245 OA
ATOM     18  O   LIG d   1       9.313   4.503  -5.036  0.00  0.00    -0.422 OA
ATOM     19  C   LIG d   1       8.907   2.160  -5.121  0.00  0.00     0.035 A 
BRANCH  12  20
ATOM     20  C   LIG d   1      10.197   4.683  -9.238  0.00  0.00    -0.039 C 
ATOM     21  H   LIG d   1      11.239   4.408  -9.402  0.00  0.00     0.028 H 
ATOM     22  H   LIG d   1       9.550   3.988  -9.772  0.00  0.00     0.028 H 
ATOM     23  H   LIG d   1      10.027   5.695  -9.606  0.00  0.00     0.028 H 
ENDBRANCH  12  20
BRANCH  19  24
ATOM     24  C   LIG d   1       8.606   2.134  -3.645  0.00  0.00    -0.033 C 
ATOM     25  H   LIG d   1       9.541   2.130  -3.084  0.00  0.00     0.028 H 
ATOM     26  H   LIG d   1       8.025   3.017  -3.378  0.00  0.00     0.028 H 
ATOM     27  H   LIG d   1       8.035   1.237  -3.407  0.00  0.00     0.028 H 
ENDBRANCH  19  24
ENDBRANCH   5   6
ENDBRANCH   3   5
ENDBRANCH   1   3
BRANCH   1  28
ATOM     28  C   LIG d   1       5.415  -0.495  -4.295  0.00  0.00    -0.016 A 
ATOM     29  C   LIG d   1       5.374   0.424  -3.263  0.00  0.00    -0.056 A 
ATOM     30  C   LIG d   1       4.779   0.087  -2.062  0.00  0.00    -0.061 A 
ATOM     31  H   LIG d   1       5.808   1.404  -3.395  0.00  0.00     0.062 H 
ATOM     32  C   LIG d   1       4.225  -1.168  -1.892  0.00  0.00    -0.062 A 
ATOM     33  H   LIG d   1       4.749   0.804  -1.254  0.00  0.00     0.062 H 
ATOM     34  C   LIG d   1       4.264  -2.086  -2.925  0.00  0.00    -0.061 A 
ATOM     35  H   LIG d   1       3.761  -1.431  -0.953  0.00  0.00     0.062 H 
ATOM     36  C   LIG d   1       4.855  -1.748  -4.128  0.00  0.00    -0.056 A 
ATOM     37  H   LIG d   1       3.832  -3.067  -2.793  0.00  0.00     0.062 H 
ATOM     38  H   LIG d   1       4.883  -2.464  -4.935  0.00  0.00     0.062 H 
ENDBRANCH   1  28
BRANCH   1  39
ATOM     39  N   LIG d   1       5.212  -0.570  -6.712  0.00  0.00    -0.264 N 
ATOM     40  C   LIG d   1       5.143   0.161  -7.843  0.00  0.00     0.402 C 
ATOM     41  O   LIG d   1       5.786   1.187  -7.944  0.00  0.00    -0.226 OA
ATOM     42  H   LIG d   1       4.698  -1.389  -6.632  0.00  0.00     0.153 HD
BRANCH  40  43
ATOM     43  O   LIG d   1       4.360  -0.246  -8.860  0.00  0.00    -0.445 OA
BRANCH  43  44
ATOM     44  C   LIG d   1       3.302   0.656  -9.279  0.00  0.00     0.107 C 
BRANCH  44  45
ATOM     45  C   LIG d   1       2.919   1.570  -8.112  0.00  0.00    -0.025 C 
ATOM     46  H   LIG d   1       2.069   1.143  -7.580  0.00  0.00     0.027 H 
ATOM     47  H   LIG d   1       3.766   1.662  -7.431  0.00  0.00     0.027 H 
ATOM     48  H   LIG d   1       2.652   2.554  -8.494  0.00  0.00     0.027 H 
ENDBRANCH  44  45
BRANCH  44  49
ATOM     49  C   LIG d   1       3.792   1.507 -10.453  0.00  0.00    -0.025 C 
ATOM     50  H   LIG d   1       2.940   1.983 -10.937  0.00  0.00     0.027 H 
ATOM     51  H   LIG d   1       4.477   2.272 -10.087  0.00  0.00     0.027 H 
ATOM     52  H   LIG d   1       4.309   0.870 -11.172  0.00  0.00     0.027 H 
ENDBRANCH  44  49
BRANCH  44  53
ATOM     53  C   LIG d   1       2.081  -0.155  -9.713  0.00  0.00    -0.025 C 
ATOM     54  H   LIG d   1       1.255   0.036  -9.028  0.00  0.00     0.027 H 
ATOM     55  H   LIG d   1       1.790   0.136 -10.722  0.00  0.00     0.027 H 
ATOM     56  H   LIG d   1       2.326  -1.218  -9.696  0.00  0.00     0.027 H 
ENDBRANCH  44  53
ENDBRANCH  43  44
ENDBRANCH  40  43
ENDBRANCH   1  39
TORSDOF 12
ENDMDL
MODEL 6
REMARK VINA RESULT:      -6.4      4.786      8.270
REMARK  12 active torsions:
REMARK  status: ('A' for Active; 'I' for Inactive)
REMARK    1  A    between atoms: C_1  and  C_2 
REMARK    2  A    between atoms: C_11  and  O_14 
REMARK    3  A    between atoms: C_12  and  C_13 
REMARK    4  A    between atoms: O_14  and  C_15 
REMARK    5  A    between atoms: C_15  and  C_17 
REMARK    6  A    between atoms: C_17  and  C_19 
REMARK    7  A    between atoms: C_17  and  N_25 
REMARK       I    between atoms: N_25  and  C_26 
REMARK    8  A    between atoms: C_26  and  O_28 
REMARK    9  A    between atoms: O_28  and  C_29 
REMARK   10  A    between atoms: C_29  and  C_30 
REMARK   11  A    between atoms: C_29  and  C_31 
REMARK   12  A    between atoms: C_29  and  C_32 
ROOT
ATOM      1  C   LIG d   1       5.942   0.169  -5.536  0.00  0.00     0.149 C 
ATOM      2  H   LIG d   1       6.161   1.220  -5.724  0.00  0.00     0.067 H 
ENDROOT
BRANCH   1   3
ATOM      3  C   LIG d   1       7.232  -0.596  -5.394  0.00  0.00     0.338 C 
ATOM      4  O   LIG d   1       7.237  -1.676  -4.849  0.00  0.00    -0.248 OA
BRANCH   3   5
ATOM      5  O   LIG d   1       8.375  -0.080  -5.871  0.00  0.00    -0.424 OA
BRANCH   5   6
ATOM      6  C   LIG d   1       8.720   1.161  -5.439  0.00  0.00     0.138 A 
ATOM      7  C   LIG d   1       8.821   1.414  -4.073  0.00  0.00    -0.018 A 
ATOM      8  C   LIG d   1       9.168   2.655  -3.622  0.00  0.00    -0.047 A 
ATOM      9  H   LIG d   1       8.622   0.623  -3.365  0.00  0.00     0.066 H 
ATOM     10  C   LIG d   1       9.425   3.680  -4.540  0.00  0.00     0.021 A 
ATOM     11  H   LIG d   1       9.244   2.844  -2.562  0.00  0.00     0.063 H 
ATOM     12  C   LIG d   1       9.799   5.021  -4.085  0.00  0.00    -0.033 A 
ATOM     13  C   LIG d   1       9.326   3.431  -5.921  0.00  0.00     0.146 A 
ATOM     14  C   LIG d   1      10.036   5.974  -5.025  0.00  0.00     0.026 A 
ATOM     15  C   LIG d   1       9.919   5.654  -6.393  0.00  0.00     0.338 A 
ATOM     16  H   LIG d   1      10.314   6.973  -4.724  0.00  0.00     0.069 H 
ATOM     17  O   LIG d   1      10.133   6.517  -7.225  0.00  0.00    -0.245 OA
ATOM     18  O   LIG d   1       9.580   4.421  -6.803  0.00  0.00    -0.422 OA
ATOM     19  C   LIG d   1       8.972   2.164  -6.361  0.00  0.00     0.035 A 
BRANCH  12  20
ATOM     20  C   LIG d   1       9.918   5.336  -2.616  0.00  0.00    -0.039 C 
ATOM     21  H   LIG d   1      10.662   4.680  -2.163  0.00  0.00     0.028 H 
ATOM     22  H   LIG d   1      10.225   6.374  -2.491  0.00  0.00     0.028 H 
ATOM     23  H   LIG d   1       8.954   5.181  -2.132  0.00  0.00     0.028 H 
ENDBRANCH  12  20
BRANCH  19  24
ATOM     24  C   LIG d   1       8.861   1.880  -7.837  0.00  0.00    -0.033 C 
ATOM     25  H   LIG d   1       8.712   2.815  -8.376  0.00  0.00     0.028 H 
ATOM     26  H   LIG d   1       9.776   1.401  -8.184  0.00  0.00     0.028 H 
ATOM     27  H   LIG d   1       8.014   1.218  -8.016  0.00  0.00     0.028 H 
ENDBRANCH  19  24
ENDBRANCH   5   6
ENDBRANCH   3   5
ENDBRANCH   1   3
BRANCH   1  28
ATOM     28  C   LIG d   1       5.140   0.043  -4.266  0.00  0.00    -0.016 A 
ATOM     29  C   LIG d   1       5.508   0.758  -3.143  0.00  0.00    -0.056 A 
ATOM     30  C   LIG d   1       4.773   0.643  -1.978  0.00  0.00    -0.061 A 
ATOM     31  H   LIG d   1       6.370   1.408  -3.174  0.00  0.00     0.062 H 
ATOM     32  C   LIG d   1       3.669  -0.189  -1.937  0.00  0.00    -0.062 A 
ATOM     33  H   LIG d   1       5.060   1.201  -1.099  0.00  0.00     0.062 H 
ATOM     34  C   LIG d   1       3.300  -0.904  -3.061  0.00  0.00    -0.061 A 
ATOM     35  H   LIG d   1       3.095  -0.280  -1.026  0.00  0.00     0.062 H 
ATOM     36  C   LIG d   1       4.033  -0.785  -4.227  0.00  0.00    -0.056 A 
ATOM     37  H   LIG d   1       2.438  -1.555  -3.029  0.00  0.00     0.062 H 
ATOM     38  H   LIG d   1       3.743  -1.341  -5.106  0.00  0.00     0.062 H 
ENDBRANCH   1  28
BRANCH   1  39
ATOM     39  N   LIG d   1       5.171  -0.377  -6.656  0.00  0.00    -0.264 N 
ATOM     40  C   LIG d   1       5.098   0.303  -7.818  0.00  0.00     0.402 C 
ATOM     41  O   LIG d   1       5.670   1.368  -7.937  0.00  0.00    -0.226 OA
ATOM     42  H   LIG d   1       4.714  -1.228  -6.562  0.00  0.00     0.153 HD
BRANCH  40  43
ATOM     43  O   LIG d   1       4.389  -0.199  -8.848  0.00  0.00    -0.445 OA
BRANCH  43  44
ATOM     44  C   LIG d   1       3.292   0.609  -9.349  0.00  0.00     0.107 C 
BRANCH  44  45
ATOM     45  C   LIG d   1       3.766   1.415 -10.561  0.00  0.00    -0.025 C 
ATOM     46  H   LIG d   1       3.387   0.955 -11.474  0.00  0.00     0.027 H 
ATOM     47  H   LIG d   1       3.391   2.436 -10.486  0.00  0.00     0.027 H 
ATOM     48  H   LIG d   1       4.854   1.429 -10.586  0.00  0.00     0.027 H 
ENDBRANCH  44  45
BRANCH  44  49
ATOM     49  C   LIG d   1       2.135  -0.302  -9.763  0.00  0.00    -0.025 C 
ATOM     50  H   LIG d   1       1.505  -0.506  -8.896  0.00  0.00     0.027 H 
ATOM     51  H   LIG d   1       1.543   0.189 -10.535  0.00  0.00     0.027 H 
ATOM     52  H   LIG d   1       2.532  -1.240 -10.151  0.00  0.00     0.027 H 
ENDBRANCH  44  49
BRANCH  44  53
ATOM     53  C   LIG d   1       2.821   1.566  -8.253  0.00  0.00    -0.025 C 
ATOM     54  H   LIG d   1       1.814   1.914  -8.482  0.00  0.00     0.027 H 
ATOM     55  H   LIG d   1       2.817   1.048  -7.295  0.00  0.00     0.027 H 
ATOM     56  H   LIG d   1       3.497   2.421  -8.202  0.00  0.00     0.027 H 
ENDBRANCH  44  53
ENDBRANCH  43  44
ENDBRANCH  40  43
ENDBRANCH   1  39
TORSDOF 12
ENDMDL
MODEL 7
REMARK VINA RESULT:      -6.3      2.226      3.279
REMARK  12 active torsions:
REMARK  status: ('A' for Active; 'I' for Inactive)
REMARK    1  A    between atoms: C_1  and  C_2 
REMARK    2  A    between atoms: C_11  and  O_14 
REMARK    3  A    between atoms: C_12  and  C_13 
REMARK    4  A    between atoms: O_14  and  C_15 
REMARK    5  A    between atoms: C_15  and  C_17 
REMARK    6  A    between atoms: C_17  and  C_19 
REMARK    7  A    between atoms: C_17  and  N_25 
REMARK       I    between atoms: N_25  and  C_26 
REMARK    8  A    between atoms: C_26  and  O_28 
REMARK    9  A    between atoms: O_28  and  C_29 
REMARK   10  A    between atoms: C_29  and  C_30 
REMARK   11  A    between atoms: C_29  and  C_31 
REMARK   12  A    between atoms: C_29  and  C_32 
ROOT
ATOM      1  C   LIG d   1       4.746  -1.130  -5.566  0.00  0.00     0.149 C 
ATOM      2  H   LIG d   1       5.647  -0.766  -6.058  0.00  0.00     0.067 H 
ENDROOT
BRANCH   1   3
ATOM      3  C   LIG d   1       4.899  -2.595  -5.254  0.00  0.00     0.338 C 
ATOM      4  O   LIG d   1       4.293  -3.083  -4.329  0.00  0.00    -0.248 OA
BRANCH   3   5
ATOM      5  O   LIG d   1       5.709  -3.360  -6.004  0.00  0.00    -0.424 OA
BRANCH   5   6
ATOM      6  C   LIG d   1       6.848  -3.812  -5.418  0.00  0.00     0.138 A 
ATOM      7  C   LIG d   1       7.789  -2.901  -4.942  0.00  0.00    -0.018 A 
ATOM      8  C   LIG d   1       8.939  -3.339  -4.350  0.00  0.00    -0.047 A 
ATOM      9  H   LIG d   1       7.609  -1.841  -5.045  0.00  0.00     0.066 H 
ATOM     10  C   LIG d   1       9.173  -4.712  -4.219  0.00  0.00     0.021 A 
ATOM     11  H   LIG d   1       9.664  -2.627  -3.984  0.00  0.00     0.063 H 
ATOM     12  C   LIG d   1      10.397  -5.210  -3.587  0.00  0.00    -0.033 A 
ATOM     13  C   LIG d   1       8.226  -5.637  -4.696  0.00  0.00     0.146 A 
ATOM     14  C   LIG d   1      10.566  -6.555  -3.489  0.00  0.00     0.026 A 
ATOM     15  C   LIG d   1       9.576  -7.424  -3.989  0.00  0.00     0.338 A 
ATOM     16  H   LIG d   1      11.458  -6.956  -3.030  0.00  0.00     0.069 H 
ATOM     17  O   LIG d   1       9.740  -8.628  -3.896  0.00  0.00    -0.245 OA
ATOM     18  O   LIG d   1       8.454  -6.961  -4.562  0.00  0.00    -0.422 OA
ATOM     19  C   LIG d   1       7.064  -5.175  -5.295  0.00  0.00     0.035 A 
BRANCH  12  20
ATOM     20  C   LIG d   1      11.440  -4.258  -3.062  0.00  0.00    -0.039 C 
ATOM     21  H   LIG d   1      12.403  -4.486  -3.520  0.00  0.00     0.028 H 
ATOM     22  H   LIG d   1      11.155  -3.235  -3.307  0.00  0.00     0.028 H 
ATOM     23  H   LIG d   1      11.518  -4.365  -1.980  0.00  0.00     0.028 H 
ENDBRANCH  12  20
BRANCH  19  24
ATOM     24  C   LIG d   1       6.039  -6.152  -5.812  0.00  0.00    -0.033 C 
ATOM     25  H   LIG d   1       5.174  -6.155  -5.149  0.00  0.00     0.028 H 
ATOM     26  H   LIG d   1       5.729  -5.855  -6.814  0.00  0.00     0.028 H 
ATOM     27  H   LIG d   1       6.476  -7.150  -5.847  0.00  0.00     0.028 H 
ENDBRANCH  19  24
ENDBRANCH   5   6
ENDBRANCH   3   5
ENDBRANCH   1   3
BRANCH   1  28
ATOM     28  C   LIG d   1       4.530  -0.364  -4.285  0.00  0.00    -0.016 A 
ATOM     29  C   LIG d   1       3.247  -0.074  -3.861  0.00  0.00    -0.056 A 
ATOM     30  C   LIG d   1       3.049   0.628  -2.687  0.00  0.00    -0.061 A 
ATOM     31  H   LIG d   1       2.399  -0.395  -4.448  0.00  0.00     0.062 H 
ATOM     32  C   LIG d   1       4.134   1.040  -1.937  0.00  0.00    -0.062 A 
ATOM     33  H   LIG d   1       2.046   0.856  -2.356  0.00  0.00     0.062 H 
ATOM     34  C   LIG d   1       5.418   0.749  -2.360  0.00  0.00    -0.061 A 
ATOM     35  H   LIG d   1       3.980   1.589  -1.019  0.00  0.00     0.062 H 
ATOM     36  C   LIG d   1       5.616   0.043  -3.532  0.00  0.00    -0.056 A 
ATOM     37  H   LIG d   1       6.267   1.071  -1.774  0.00  0.00     0.062 H 
ATOM     38  H   LIG d   1       6.618  -0.188  -3.861  0.00  0.00     0.062 H 
ENDBRANCH   1  28
BRANCH   1  39
ATOM     39  N   LIG d   1       3.594  -0.936  -6.450  0.00  0.00    -0.264 N 
ATOM     40  C   LIG d   1       3.644  -0.010  -7.428  0.00  0.00     0.402 C 
ATOM     41  O   LIG d   1       4.643   0.665  -7.577  0.00  0.00    -0.226 OA
ATOM     42  H   LIG d   1       2.795  -1.475  -6.332  0.00  0.00     0.153 HD
BRANCH  40  43
ATOM     43  O   LIG d   1       2.585   0.168  -8.241  0.00  0.00    -0.445 OA
BRANCH  43  44
ATOM     44  C   LIG d   1       2.692  -0.363  -9.588  0.00  0.00     0.107 C 
BRANCH  44  45
ATOM     45  C   LIG d   1       1.293  -0.673 -10.127  0.00  0.00    -0.025 C 
ATOM     46  H   LIG d   1       0.801   0.255 -10.417  0.00  0.00     0.027 H 
ATOM     47  H   LIG d   1       1.376  -1.328 -10.995  0.00  0.00     0.027 H 
ATOM     48  H   LIG d   1       0.707  -1.168  -9.353  0.00  0.00     0.027 H 
ENDBRANCH  44  45
BRANCH  44  49
ATOM     49  C   LIG d   1       3.368   0.671 -10.491  0.00  0.00    -0.025 C 
ATOM     50  H   LIG d   1       4.002   1.321  -9.888  0.00  0.00     0.027 H 
ATOM     51  H   LIG d   1       3.977   0.160 -11.237  0.00  0.00     0.027 H 
ATOM     52  H   LIG d   1       2.606   1.269 -10.992  0.00  0.00     0.027 H 
ENDBRANCH  44  49
BRANCH  44  53
ATOM     53  C   LIG d   1       3.525  -1.644  -9.567  0.00  0.00    -0.025 C 
ATOM     54  H   LIG d   1       4.564  -1.407  -9.798  0.00  0.00     0.027 H 
ATOM     55  H   LIG d   1       3.468  -2.099  -8.579  0.00  0.00     0.027 H 
ATOM     56  H   LIG d   1       3.139  -2.341 -10.312  0.00  0.00     0.027 H 
ENDBRANCH  44  53
ENDBRANCH  43  44
ENDBRANCH  40  43
ENDBRANCH   1  39
TORSDOF 12
ENDMDL
MODEL 8
REMARK VINA RESULT:      -6.2      3.212      8.262
REMARK  12 active torsions:
REMARK  status: ('A' for Active; 'I' for Inactive)
REMARK    1  A    between atoms: C_1  and  C_2 
REMARK    2  A    between atoms: C_11  and  O_14 
REMARK    3  A    between atoms: C_12  and  C_13 
REMARK    4  A    between atoms: O_14  and  C_15 
REMARK    5  A    between atoms: C_15  and  C_17 
REMARK    6  A    between atoms: C_17  and  C_19 
REMARK    7  A    between atoms: C_17  and  N_25 
REMARK       I    between atoms: N_25  and  C_26 
REMARK    8  A    between atoms: C_26  and  O_28 
REMARK    9  A    between atoms: O_28  and  C_29 
REMARK   10  A    between atoms: C_29  and  C_30 
REMARK   11  A    between atoms: C_29  and  C_31 
REMARK   12  A    between atoms: C_29  and  C_32 
ROOT
ATOM      1  C   LIG d   1       4.360  -1.270  -5.566  0.00  0.00     0.149 C 
ATOM      2  H   LIG d   1       3.425  -1.823  -5.651  0.00  0.00     0.067 H 
ENDROOT
BRANCH   1   3
ATOM      3  C   LIG d   1       4.487  -0.317  -6.725  0.00  0.00     0.338 C 
ATOM      4  O   LIG d   1       3.683   0.575  -6.866  0.00  0.00    -0.248 OA
BRANCH   3   5
ATOM      5  O   LIG d   1       5.494  -0.457  -7.603  0.00  0.00    -0.424 OA
BRANCH   5   6
ATOM      6  C   LIG d   1       6.488   0.467  -7.555  0.00  0.00     0.138 A 
ATOM      7  C   LIG d   1       7.427   0.419  -6.526  0.00  0.00    -0.018 A 
ATOM      8  C   LIG d   1       8.433   1.339  -6.464  0.00  0.00    -0.047 A 
ATOM      9  H   LIG d   1       7.357  -0.352  -5.773  0.00  0.00     0.066 H 
ATOM     10  C   LIG d   1       8.522   2.338  -7.440  0.00  0.00     0.021 A 
ATOM     11  H   LIG d   1       9.158   1.296  -5.664  0.00  0.00     0.063 H 
ATOM     12  C   LIG d   1       9.591   3.338  -7.399  0.00  0.00    -0.033 A 
ATOM     13  C   LIG d   1       7.578   2.392  -8.482  0.00  0.00     0.146 A 
ATOM     14  C   LIG d   1       9.624   4.282  -8.375  0.00  0.00     0.026 A 
ATOM     15  C   LIG d   1       8.645   4.277  -9.389  0.00  0.00     0.338 A 
ATOM     16  H   LIG d   1      10.399   5.036  -8.374  0.00  0.00     0.069 H 
ATOM     17  O   LIG d   1       8.685   5.129 -10.259  0.00  0.00    -0.245 OA
ATOM     18  O   LIG d   1       7.671   3.354  -9.424  0.00  0.00    -0.422 OA
ATOM     19  C   LIG d   1       6.562   1.448  -8.529  0.00  0.00     0.035 A 
BRANCH  12  20
ATOM     20  C   LIG d   1      10.625   3.322  -6.303  0.00  0.00    -0.039 C 
ATOM     21  H   LIG d   1      10.142   3.515  -5.345  0.00  0.00     0.028 H 
ATOM     22  H   LIG d   1      11.109   2.345  -6.274  0.00  0.00     0.028 H 
ATOM     23  H   LIG d   1      11.372   4.092  -6.495  0.00  0.00     0.028 H 
ENDBRANCH  12  20
BRANCH  19  24
ATOM     24  C   LIG d   1       5.542   1.492  -9.638  0.00  0.00    -0.033 C 
ATOM     25  H   LIG d   1       5.287   0.475  -9.937  0.00  0.00     0.028 H 
ATOM     26  H   LIG d   1       4.646   2.003  -9.286  0.00  0.00     0.028 H 
ATOM     27  H   LIG d   1       5.956   2.029 -10.491  0.00  0.00     0.028 H 
ENDBRANCH  19  24
ENDBRANCH   5   6
ENDBRANCH   3   5
ENDBRANCH   1   3
BRANCH   1  28
ATOM     28  C   LIG d   1       4.369  -0.493  -4.274  0.00  0.00    -0.016 A 
ATOM     29  C   LIG d   1       3.228  -0.434  -3.496  0.00  0.00    -0.056 A 
ATOM     30  C   LIG d   1       3.236   0.277  -2.312  0.00  0.00    -0.061 A 
ATOM     31  H   LIG d   1       2.330  -0.944  -3.814  0.00  0.00     0.062 H 
ATOM     32  C   LIG d   1       4.384   0.930  -1.905  0.00  0.00    -0.062 A 
ATOM     33  H   LIG d   1       2.344   0.325  -1.704  0.00  0.00     0.062 H 
ATOM     34  C   LIG d   1       5.526   0.870  -2.682  0.00  0.00    -0.061 A 
ATOM     35  H   LIG d   1       4.390   1.488  -0.979  0.00  0.00     0.062 H 
ATOM     36  C   LIG d   1       5.520   0.154  -3.865  0.00  0.00    -0.056 A 
ATOM     37  H   LIG d   1       6.424   1.380  -2.365  0.00  0.00     0.062 H 
ATOM     38  H   LIG d   1       6.412   0.104  -4.470  0.00  0.00     0.062 H 
ENDBRANCH   1  28
BRANCH   1  39
ATOM     39  N   LIG d   1       5.486  -2.208  -5.579  0.00  0.00    -0.264 N 
ATOM     40  C   LIG d   1       5.370  -3.407  -4.974  0.00  0.00     0.402 C 
ATOM     41  O   LIG d   1       4.333  -3.710  -4.417  0.00  0.00    -0.226 OA
ATOM     42  H   LIG d   1       6.314  -1.966  -6.023  0.00  0.00     0.153 HD
BRANCH  40  43
ATOM     43  O   LIG d   1       6.405  -4.270  -4.985  0.00  0.00    -0.445 OA
BRANCH  43  44
ATOM     44  C   LIG d   1       7.714  -3.732  -4.662  0.00  0.00     0.107 C 
BRANCH  44  45
ATOM     45  C   LIG d   1       8.641  -4.872  -4.234  0.00  0.00    -0.025 C 
ATOM     46  H   LIG d   1       8.723  -5.597  -5.044  0.00  0.00     0.027 H 
ATOM     47  H   LIG d   1       9.629  -4.470  -4.006  0.00  0.00     0.027 H 
ATOM     48  H   LIG d   1       8.234  -5.360  -3.350  0.00  0.00     0.027 H 
ENDBRANCH  44  45
BRANCH  44  49
ATOM     49  C   LIG d   1       8.297  -3.034  -5.892  0.00  0.00    -0.025 C 
ATOM     50  H   LIG d   1       7.848  -2.047  -5.997  0.00  0.00     0.027 H 
ATOM     51  H   LIG d   1       9.376  -2.932  -5.775  0.00  0.00     0.027 H 
ATOM     52  H   LIG d   1       8.083  -3.627  -6.782  0.00  0.00     0.027 H 
ENDBRANCH  44  49
BRANCH  44  53
ATOM     53  C   LIG d   1       7.584  -2.726  -3.518  0.00  0.00    -0.025 C 
ATOM     54  H   LIG d   1       7.284  -3.245  -2.608  0.00  0.00     0.027 H 
ATOM     55  H   LIG d   1       8.543  -2.234  -3.356  0.00  0.00     0.027 H 
ATOM     56  H   LIG d   1       6.831  -1.980  -3.774  0.00  0.00     0.027 H 
ENDBRANCH  44  53
ENDBRANCH  43  44
ENDBRANCH  40  43
ENDBRANCH   1  39
TORSDOF 12
ENDMDL
MODEL 9
REMARK VINA RESULT:      -6.2      2.452      7.555
REMARK  12 active torsions:
REMARK  status: ('A' for Active; 'I' for Inactive)
REMARK    1  A    between atoms: C_1  and  C_2 
REMARK    2  A    between atoms: C_11  and  O_14 
REMARK    3  A    between atoms: C_12  and  C_13 
REMARK    4  A    between atoms: O_14  and  C_15 
REMARK    5  A    between atoms: C_15  and  C_17 
REMARK    6  A    between atoms: C_17  and  C_19 
REMARK    7  A    between atoms: C_17  and  N_25 
REMARK       I    between atoms: N_25  and  C_26 
REMARK    8  A    between atoms: C_26  and  O_28 
REMARK    9  A    between atoms: O_28  and  C_29 
REMARK   10  A    between atoms: C_29  and  C_30 
REMARK   11  A    between atoms: C_29  and  C_31 
REMARK   12  A    between atoms: C_29  and  C_32 
ROOT
ATOM      1  C   LIG d   1       4.357  -1.242  -6.109  0.00  0.00     0.149 C 
ATOM      2  H   LIG d   1       3.373  -1.464  -6.523  0.00  0.00     0.067 H 
ENDROOT
BRANCH   1   3
ATOM      3  C   LIG d   1       4.896   0.015  -6.740  0.00  0.00     0.338 C 
ATOM      4  O   LIG d   1       6.055   0.322  -6.583  0.00  0.00    -0.248 OA
BRANCH   3   5
ATOM      5  O   LIG d   1       4.090   0.795  -7.478  0.00  0.00    -0.424 OA
BRANCH   5   6
ATOM      6  C   LIG d   1       3.595   0.262  -8.625  0.00  0.00     0.138 A 
ATOM      7  C   LIG d   1       2.333  -0.330  -8.624  0.00  0.00    -0.018 A 
ATOM      8  C   LIG d   1       1.821  -0.870  -9.768  0.00  0.00    -0.047 A 
ATOM      9  H   LIG d   1       1.758  -0.363  -7.711  0.00  0.00     0.066 H 
ATOM     10  C   LIG d   1       2.568  -0.827 -10.951  0.00  0.00     0.021 A 
ATOM     11  H   LIG d   1       0.843  -1.327  -9.761  0.00  0.00     0.063 H 
ATOM     12  C   LIG d   1       2.044  -1.397 -12.194  0.00  0.00    -0.033 A 
ATOM     13  C   LIG d   1       3.842  -0.230 -10.959  0.00  0.00     0.146 A 
ATOM     14  C   LIG d   1       2.816  -1.325 -13.309  0.00  0.00     0.026 A 
ATOM     15  C   LIG d   1       4.084  -0.712 -13.245  0.00  0.00     0.338 A 
ATOM     16  H   LIG d   1       2.461  -1.737 -14.242  0.00  0.00     0.069 H 
ATOM     17  O   LIG d   1       4.768  -0.654 -14.252  0.00  0.00    -0.245 OA
ATOM     18  O   LIG d   1       4.557  -0.186 -12.103  0.00  0.00    -0.422 OA
ATOM     19  C   LIG d   1       4.347   0.313  -9.787  0.00  0.00     0.035 A 
BRANCH  12  20
ATOM     20  C   LIG d   1       0.685  -2.048 -12.235  0.00  0.00    -0.039 C 
ATOM     21  H   LIG d   1      -0.049  -1.333 -12.608  0.00  0.00     0.028 H 
ATOM     22  H   LIG d   1       0.716  -2.914 -12.895  0.00  0.00     0.028 H 
ATOM     23  H   LIG d   1       0.403  -2.366 -11.231  0.00  0.00     0.028 H 
ENDBRANCH  12  20
BRANCH  19  24
ATOM     24  C   LIG d   1       5.710   0.956  -9.778  0.00  0.00    -0.033 C 
ATOM     25  H   LIG d   1       6.129   0.904  -8.772  0.00  0.00     0.028 H 
ATOM     26  H   LIG d   1       6.364   0.429 -10.472  0.00  0.00     0.028 H 
ATOM     27  H   LIG d   1       5.621   1.999 -10.081  0.00  0.00     0.028 H 
ENDBRANCH  19  24
ENDBRANCH   5   6
ENDBRANCH   3   5
ENDBRANCH   1   3
BRANCH   1  28
ATOM     28  C   LIG d   1       4.242  -1.046  -4.619  0.00  0.00    -0.016 A 
ATOM     29  C   LIG d   1       4.846  -1.940  -3.756  0.00  0.00    -0.056 A 
ATOM     30  C   LIG d   1       4.741  -1.761  -2.390  0.00  0.00    -0.061 A 
ATOM     31  H   LIG d   1       5.400  -2.780  -4.149  0.00  0.00     0.062 H 
ATOM     32  C   LIG d   1       4.031  -0.687  -1.886  0.00  0.00    -0.062 A 
ATOM     33  H   LIG d   1       5.212  -2.460  -1.714  0.00  0.00     0.062 H 
ATOM     34  C   LIG d   1       3.427   0.208  -2.749  0.00  0.00    -0.061 A 
ATOM     35  H   LIG d   1       3.947  -0.547  -0.818  0.00  0.00     0.062 H 
ATOM     36  C   LIG d   1       3.536   0.031  -4.116  0.00  0.00    -0.056 A 
ATOM     37  H   LIG d   1       2.872   1.048  -2.356  0.00  0.00     0.062 H 
ATOM     38  H   LIG d   1       3.068   0.732  -4.790  0.00  0.00     0.062 H 
ENDBRANCH   1  28
BRANCH   1  39
ATOM     39  N   LIG d   1       5.266  -2.356  -6.386  0.00  0.00    -0.264 N 
ATOM     40  C   LIG d   1       4.886  -3.345  -7.220  0.00  0.00     0.402 C 
ATOM     41  O   LIG d   1       3.789  -3.313  -7.741  0.00  0.00    -0.226 OA
ATOM     42  H   LIG d   1       6.143  -2.383  -5.970  0.00  0.00     0.153 HD
BRANCH  40  43
ATOM     43  O   LIG d   1       5.722  -4.370  -7.475  0.00  0.00    -0.445 OA
BRANCH  43  44
ATOM     44  C   LIG d   1       5.929  -5.332  -6.407  0.00  0.00     0.107 C 
BRANCH  44  45
ATOM     45  C   LIG d   1       7.033  -4.829  -5.474  0.00  0.00    -0.025 C 
ATOM     46  H   LIG d   1       7.110  -3.745  -5.554  0.00  0.00     0.027 H 
ATOM     47  H   LIG d   1       6.792  -5.101  -4.446  0.00  0.00     0.027 H 
ATOM     48  H   LIG d   1       7.983  -5.282  -5.757  0.00  0.00     0.027 H 
ENDBRANCH  44  45
BRANCH  44  49
ATOM     49  C   LIG d   1       4.631  -5.503  -5.616  0.00  0.00    -0.025 C 
ATOM     50  H   LIG d   1       4.634  -4.824  -4.763  0.00  0.00     0.027 H 
ATOM     51  H   LIG d   1       3.781  -5.277  -6.258  0.00  0.00     0.027 H 
ATOM     52  H   LIG d   1       4.555  -6.531  -5.261  0.00  0.00     0.027 H 
ENDBRANCH  44  49
BRANCH  44  53
ATOM     53  C   LIG d   1       6.343  -6.677  -7.006  0.00  0.00    -0.025 C 
ATOM     54  H   LIG d   1       5.610  -6.984  -7.753  0.00  0.00     0.027 H 
ATOM     55  H   LIG d   1       7.321  -6.581  -7.476  0.00  0.00     0.027 H 
ATOM     56  H   LIG d   1       6.389  -7.428  -6.216  0.00  0.00     0.027 H 
ENDBRANCH  44  53
ENDBRANCH  43  44
ENDBRANCH  40  43
ENDBRANCH   1  39
TORSDOF 12
ENDMDL
