MODEL 1
REMARK VINA RESULT:      -5.9      0.000      0.000
REMARK  7 active torsions:
REMARK  status: ('A' for Active; 'I' for Inactive)
REMARK    1  A    between atoms: C_1  and  C_2 
REMARK    2  A    between atoms: C_2  and  O_3 
REMARK    3  A    between atoms: O_3  and  C_4 
REMARK    4  A    between atoms: C_4  and  C_6 
REMARK    5  A    between atoms: C_7  and  C_25 
REMARK    6  A    between atoms: C_11  and  N_15 
REMARK       I    between atoms: N_15  and  C_16 
REMARK    7  A    between atoms: C_16  and  C_18 
ROOT
ATOM      1  C   LIG d   1       4.088  -1.110  -5.455  0.00  0.00     0.215 A 
ATOM      2  C   LIG d   1       3.290  -0.048  -5.742  0.00  0.00     0.010 A 
ATOM      3  C   LIG d   1       3.301   0.107  -7.151  0.00  0.00     0.024 A 
ATOM      4  C   LIG d   1       2.674   0.999  -8.031  0.00  0.00    -0.049 A 
ATOM      5  C   LIG d   1       2.888   0.892  -9.372  0.00  0.00    -0.040 A 
ATOM      6  C   LIG d   1       3.729  -0.101  -9.877  0.00  0.00     0.037 A 
ATOM      7  C   LIG d   1       4.357  -0.992  -9.022  0.00  0.00     0.003 A 
ATOM      8  C   LIG d   1       4.145  -0.901  -7.653  0.00  0.00     0.138 A 
ATOM      9  O   LIG d   1       4.602  -1.609  -6.601  0.00  0.00    -0.448 OA
ATOM     10  H   LIG d   1       2.023   1.770  -7.645  0.00  0.00     0.062 H 
ATOM     11  H   LIG d   1       2.405   1.581 -10.050  0.00  0.00     0.064 H 
ATOM     12  H   LIG d   1       5.007  -1.758  -9.420  0.00  0.00     0.067 H 
ENDROOT
BRANCH   6  13
ATOM     13  N   LIG d   1       3.938  -0.198 -11.254  0.00  0.00    -0.281 N 
ATOM     14  C   LIG d   1       3.119  -0.959 -12.008  0.00  0.00     0.248 C 
ATOM     15  O   LIG d   1       2.144  -1.483 -11.506  0.00  0.00    -0.270 OA
ATOM     16  H   LIG d   1       4.672   0.283 -11.668  0.00  0.00     0.155 HD
BRANCH  14  17
ATOM     17  C   LIG d   1       3.409  -1.156 -13.444  0.00  0.00     0.037 A 
ATOM     18  C   LIG d   1       2.598  -1.993 -14.214  0.00  0.00    -0.048 A 
ATOM     19  C   LIG d   1       2.874  -2.173 -15.553  0.00  0.00    -0.043 A 
ATOM     20  H   LIG d   1       1.759  -2.499 -13.760  0.00  0.00     0.062 H 
ATOM     21  C   LIG d   1       3.951  -1.525 -16.135  0.00  0.00     0.041 A 
ATOM     22  H   LIG d   1       2.249  -2.820 -16.149  0.00  0.00     0.063 H 
ATOM     23  C   LIG d   1       4.759  -0.694 -15.375  0.00  0.00    -0.043 A 
ATOM     24 CL   LIG d   1       4.291  -1.757 -17.821  0.00  0.00    -0.084 Cl
ATOM     25  C   LIG d   1       4.490  -0.501 -14.037  0.00  0.00    -0.048 A 
ATOM     26  H   LIG d   1       5.597  -0.192 -15.834  0.00  0.00     0.063 H 
ATOM     27  H   LIG d   1       5.118   0.151 -13.448  0.00  0.00     0.062 H 
ENDBRANCH  14  17
ENDBRANCH   6  13
BRANCH   2  28
ATOM     28  C   LIG d   1       2.526   0.793  -4.752  0.00  0.00    -0.035 C 
ATOM     29  H   LIG d   1       1.465   0.779  -5.007  0.00  0.00     0.028 H 
ATOM     30  H   LIG d   1       2.663   0.389  -3.750  0.00  0.00     0.028 H 
ATOM     31  H   LIG d   1       2.894   1.818  -4.785  0.00  0.00     0.028 H 
ENDBRANCH   2  28
BRANCH   1  32
ATOM     32  C   LIG d   1       4.362  -1.625  -4.110  0.00  0.00     0.375 C 
ATOM     33  O   LIG d   1       3.932  -2.713  -3.776  0.00  0.00    -0.241 OA
BRANCH  32  34
ATOM     34  O   LIG d   1       5.090  -0.893  -3.242  0.00  0.00    -0.459 OA
BRANCH  34  35
ATOM     35  C   LIG d   1       4.487  -0.608  -1.952  0.00  0.00     0.090 C 
ATOM     36  H   LIG d   1       3.446  -0.931  -1.959  0.00  0.00     0.070 H 
ATOM     37  H   LIG d   1       5.029  -1.143  -1.172  0.00  0.00     0.070 H 
BRANCH  35  38
ATOM     38  C   LIG d   1       4.553   0.896  -1.680  0.00  0.00    -0.031 C 
ATOM     39  H   LIG d   1       5.362   1.102  -0.978  0.00  0.00     0.026 H 
ATOM     40  H   LIG d   1       4.738   1.426  -2.614  0.00  0.00     0.026 H 
ATOM     41  H   LIG d   1       3.608   1.229  -1.252  0.00  0.00     0.026 H 
ENDBRANCH  35  38
ENDBRANCH  34  35
ENDBRANCH  32  34
ENDBRANCH   1  32
TORSDOF 7
ENDMDL
MODEL 2
REMARK VINA RESULT:      -5.7      7.492     10.431
REMARK  7 active torsions:
REMARK  status: ('A' for Active; 'I' for Inactive)
REMARK    1  A    between atoms: C_1  and  C_2 
REMARK    2  A    between atoms: C_2  and  O_3 
REMARK    3  A    between atoms: O_3  and  C_4 
REMARK    4  A    between atoms: C_4  and  C_6 
REMARK    5  A    between atoms: C_7  and  C_25 
REMARK    6  A    between atoms: C_11  and  N_15 
REMARK       I    between atoms: N_15  and  C_16 
REMARK    7  A    between atoms: C_16  and  C_18 
ROOT
ATOM      1  C   LIG d   1       5.273 -10.061  -6.666  0.00  0.00     0.215 A 
ATOM      2  C   LIG d   1       4.852  -9.383  -7.766  0.00  0.00     0.010 A 
ATOM      3  C   LIG d   1       4.605  -8.048  -7.358  0.00  0.00     0.024 A 
ATOM      4  C   LIG d   1       4.174  -6.897  -8.028  0.00  0.00    -0.049 A 
ATOM      5  C   LIG d   1       4.028  -5.727  -7.344  0.00  0.00    -0.040 A 
ATOM      6  C   LIG d   1       4.304  -5.670  -5.977  0.00  0.00     0.037 A 
ATOM      7  C   LIG d   1       4.731  -6.799  -5.297  0.00  0.00     0.003 A 
ATOM      8  C   LIG d   1       4.891  -7.996  -5.981  0.00  0.00     0.138 A 
ATOM      9  O   LIG d   1       5.287  -9.228  -5.602  0.00  0.00    -0.448 OA
ATOM     10  H   LIG d   1       3.958  -6.935  -9.087  0.00  0.00     0.062 H 
ATOM     11  H   LIG d   1       3.694  -4.840  -7.862  0.00  0.00     0.064 H 
ATOM     12  H   LIG d   1       4.943  -6.747  -4.239  0.00  0.00     0.067 H 
ENDROOT
BRANCH   6  13
ATOM     13  N   LIG d   1       4.149  -4.464  -5.289  0.00  0.00    -0.281 N 
ATOM     14  C   LIG d   1       5.233  -3.791  -4.859  0.00  0.00     0.248 C 
ATOM     15  O   LIG d   1       6.347  -4.180  -5.151  0.00  0.00    -0.270 OA
ATOM     16  H   LIG d   1       3.260  -4.113  -5.122  0.00  0.00     0.155 HD
BRANCH  14  17
ATOM     17  C   LIG d   1       5.069  -2.578  -4.030  0.00  0.00     0.037 A 
ATOM     18  C   LIG d   1       4.103  -2.543  -3.022  0.00  0.00    -0.048 A 
ATOM     19  C   LIG d   1       3.954  -1.408  -2.252  0.00  0.00    -0.043 A 
ATOM     20  H   LIG d   1       3.474  -3.403  -2.847  0.00  0.00     0.062 H 
ATOM     21  C   LIG d   1       4.761  -0.305  -2.478  0.00  0.00     0.041 A 
ATOM     22  H   LIG d   1       3.209  -1.380  -1.473  0.00  0.00     0.063 H 
ATOM     23  C   LIG d   1       5.720  -0.333  -3.477  0.00  0.00    -0.043 A 
ATOM     24 CL   LIG d   1       4.567   1.120  -1.504  0.00  0.00    -0.084 Cl
ATOM     25  C   LIG d   1       5.882  -1.463  -4.248  0.00  0.00    -0.048 A 
ATOM     26  H   LIG d   1       6.345   0.530  -3.648  0.00  0.00     0.063 H 
ATOM     27  H   LIG d   1       6.634  -1.486  -5.024  0.00  0.00     0.062 H 
ENDBRANCH  14  17
ENDBRANCH   6  13
BRANCH   2  28
ATOM     28  C   LIG d   1       4.695  -9.941  -9.158  0.00  0.00    -0.035 C 
ATOM     29  H   LIG d   1       3.686  -9.735  -9.519  0.00  0.00     0.028 H 
ATOM     30  H   LIG d   1       5.421  -9.471  -9.821  0.00  0.00     0.028 H 
ATOM     31  H   LIG d   1       4.862 -11.017  -9.139  0.00  0.00     0.028 H 
ENDBRANCH   2  28
BRANCH   1  32
ATOM     32  C   LIG d   1       5.642 -11.480  -6.635  0.00  0.00     0.375 C 
ATOM     33  O   LIG d   1       6.593 -11.875  -7.281  0.00  0.00    -0.241 OA
BRANCH  32  34
ATOM     34  O   LIG d   1       4.926 -12.346  -5.890  0.00  0.00    -0.459 OA
BRANCH  34  35
ATOM     35  C   LIG d   1       3.481 -12.288  -6.017  0.00  0.00     0.090 C 
ATOM     36  H   LIG d   1       3.021 -12.791  -5.167  0.00  0.00     0.070 H 
ATOM     37  H   LIG d   1       3.160 -11.246  -6.041  0.00  0.00     0.070 H 
BRANCH  35  38
ATOM     38  C   LIG d   1       3.054 -12.981  -7.312  0.00  0.00    -0.031 C 
ATOM     39  H   LIG d   1       3.835 -12.861  -8.063  0.00  0.00     0.026 H 
ATOM     40  H   LIG d   1       2.894 -14.042  -7.120  0.00  0.00     0.026 H 
ATOM     41  H   LIG d   1       2.129 -12.533  -7.676  0.00  0.00     0.026 H 
ENDBRANCH  35  38
ENDBRANCH  34  35
ENDBRANCH  32  34
ENDBRANCH   1  32
TORSDOF 7
ENDMDL
MODEL 3
REMARK VINA RESULT:      -5.6      3.902      9.449
REMARK  7 active torsions:
REMARK  status: ('A' for Active; 'I' for Inactive)
REMARK    1  A    between atoms: C_1  and  C_2 
REMARK    2  A    between atoms: C_2  and  O_3 
REMARK    3  A    between atoms: O_3  and  C_4 
REMARK    4  A    between atoms: C_4  and  C_6 
REMARK    5  A    between atoms: C_7  and  C_25 
REMARK    6  A    between atoms: C_11  and  N_15 
REMARK       I    between atoms: N_15  and  C_16 
REMARK    7  A    between atoms: C_16  and  C_18 
ROOT
ATOM      1  C   LIG d   1       3.535  -1.093 -13.869  0.00  0.00     0.215 A 
ATOM      2  C   LIG d   1       2.377  -1.598 -13.369  0.00  0.00     0.010 A 
ATOM      3  C   LIG d   1       2.351  -1.281 -11.988  0.00  0.00     0.024 A 
ATOM      4  C   LIG d   1       1.431  -1.515 -10.959  0.00  0.00    -0.049 A 
ATOM      5  C   LIG d   1       1.697  -1.074  -9.697  0.00  0.00    -0.040 A 
ATOM      6  C   LIG d   1       2.881  -0.390  -9.422  0.00  0.00     0.037 A 
ATOM      7  C   LIG d   1       3.804  -0.148 -10.428  0.00  0.00     0.003 A 
ATOM      8  C   LIG d   1       3.545  -0.586 -11.720  0.00  0.00     0.138 A 
ATOM      9  O   LIG d   1       4.232  -0.497 -12.877  0.00  0.00    -0.448 OA
ATOM     10  H   LIG d   1       0.512  -2.045 -11.165  0.00  0.00     0.062 H 
ATOM     11  H   LIG d   1       0.987  -1.257  -8.903  0.00  0.00     0.064 H 
ATOM     12  H   LIG d   1       4.719   0.382 -10.208  0.00  0.00     0.067 H 
ENDROOT
BRANCH   6  13
ATOM     13  N   LIG d   1       3.140   0.056  -8.124  0.00  0.00    -0.281 N 
ATOM     14  C   LIG d   1       3.750  -0.759  -7.242  0.00  0.00     0.248 C 
ATOM     15  O   LIG d   1       4.162  -1.845  -7.600  0.00  0.00    -0.270 OA
ATOM     16  H   LIG d   1       2.880   0.952  -7.859  0.00  0.00     0.155 HD
BRANCH  14  17
ATOM     17  C   LIG d   1       3.919  -0.332  -5.837  0.00  0.00     0.037 A 
ATOM     18  C   LIG d   1       2.857   0.263  -5.152  0.00  0.00    -0.048 A 
ATOM     19  C   LIG d   1       3.021   0.659  -3.842  0.00  0.00    -0.043 A 
ATOM     20  H   LIG d   1       1.910   0.413  -5.649  0.00  0.00     0.062 H 
ATOM     21  C   LIG d   1       4.236   0.468  -3.204  0.00  0.00     0.041 A 
ATOM     22  H   LIG d   1       2.201   1.119  -3.311  0.00  0.00     0.063 H 
ATOM     23  C   LIG d   1       5.293  -0.121  -3.878  0.00  0.00    -0.043 A 
ATOM     24 CL   LIG d   1       4.434   0.970  -1.553  0.00  0.00    -0.084 Cl
ATOM     25  C   LIG d   1       5.140  -0.527  -5.186  0.00  0.00    -0.048 A 
ATOM     26  H   LIG d   1       6.237  -0.267  -3.376  0.00  0.00     0.063 H 
ATOM     27  H   LIG d   1       5.963  -0.990  -5.709  0.00  0.00     0.062 H 
ENDBRANCH  14  17
ENDBRANCH   6  13
BRANCH   2  28
ATOM     28  C   LIG d   1       1.314  -2.338 -14.140  0.00  0.00    -0.035 C 
ATOM     29  H   LIG d   1       0.676  -2.885 -13.444  0.00  0.00     0.028 H 
ATOM     30  H   LIG d   1       0.710  -1.626 -14.702  0.00  0.00     0.028 H 
ATOM     31  H   LIG d   1       1.785  -3.039 -14.828  0.00  0.00     0.028 H 
ENDBRANCH   2  28
BRANCH   1  32
ATOM     32  C   LIG d   1       3.969  -1.193 -15.267  0.00  0.00     0.375 C 
ATOM     33  O   LIG d   1       4.748  -2.065 -15.600  0.00  0.00    -0.241 OA
BRANCH  32  34
ATOM     34  O   LIG d   1       3.504  -0.318 -16.181  0.00  0.00    -0.459 OA
BRANCH  34  35
ATOM     35  C   LIG d   1       4.339   0.832 -16.477  0.00  0.00     0.090 C 
ATOM     36  H   LIG d   1       4.747   1.234 -15.549  0.00  0.00     0.070 H 
ATOM     37  H   LIG d   1       5.157   0.529 -17.132  0.00  0.00     0.070 H 
BRANCH  35  38
ATOM     38  C   LIG d   1       3.502   1.906 -17.173  0.00  0.00    -0.031 C 
ATOM     39  H   LIG d   1       2.470   1.843 -16.827  0.00  0.00     0.026 H 
ATOM     40  H   LIG d   1       3.905   2.891 -16.937  0.00  0.00     0.026 H 
ATOM     41  H   LIG d   1       3.533   1.749 -18.251  0.00  0.00     0.026 H 
ENDBRANCH  35  38
ENDBRANCH  34  35
ENDBRANCH  32  34
ENDBRANCH   1  32
TORSDOF 7
ENDMDL
MODEL 4
REMARK VINA RESULT:      -5.6      8.405     11.402
REMARK  7 active torsions:
REMARK  status: ('A' for Active; 'I' for Inactive)
REMARK    1  A    between atoms: C_1  and  C_2 
REMARK    2  A    between atoms: C_2  and  O_3 
REMARK    3  A    between atoms: O_3  and  C_4 
REMARK    4  A    between atoms: C_4  and  C_6 
REMARK    5  A    between atoms: C_7  and  C_25 
REMARK    6  A    between atoms: C_11  and  N_15 
REMARK       I    between atoms: N_15  and  C_16 
REMARK    7  A    between atoms: C_16  and  C_18 
ROOT
ATOM      1  C   LIG d   1      11.856   6.858  -3.664  0.00  0.00     0.215 A 
ATOM      2  C   LIG d   1      12.435   5.938  -4.479  0.00  0.00     0.010 A 
ATOM      3  C   LIG d   1      11.691   4.739  -4.343  0.00  0.00     0.024 A 
ATOM      4  C   LIG d   1      11.789   3.469  -4.925  0.00  0.00    -0.049 A 
ATOM      5  C   LIG d   1      10.900   2.495  -4.582  0.00  0.00    -0.040 A 
ATOM      6  C   LIG d   1       9.891   2.754  -3.653  0.00  0.00     0.037 A 
ATOM      7  C   LIG d   1       9.778   4.005  -3.067  0.00  0.00     0.003 A 
ATOM      8  C   LIG d   1      10.672   5.010  -3.410  0.00  0.00     0.138 A 
ATOM      9  O   LIG d   1      10.808   6.294  -3.023  0.00  0.00    -0.448 OA
ATOM     10  H   LIG d   1      12.569   3.262  -5.644  0.00  0.00     0.062 H 
ATOM     11  H   LIG d   1      10.978   1.515  -5.030  0.00  0.00     0.064 H 
ATOM     12  H   LIG d   1       8.995   4.198  -2.349  0.00  0.00     0.067 H 
ENDROOT
BRANCH   6  13
ATOM     13  N   LIG d   1       8.988   1.746  -3.312  0.00  0.00    -0.281 N 
ATOM     14  C   LIG d   1       7.806   1.655  -3.953  0.00  0.00     0.248 C 
ATOM     15  O   LIG d   1       7.566   2.389  -4.892  0.00  0.00    -0.270 OA
ATOM     16  H   LIG d   1       9.211   1.111  -2.613  0.00  0.00     0.155 HD
BRANCH  14  17
ATOM     17  C   LIG d   1       6.802   0.663  -3.515  0.00  0.00     0.037 A 
ATOM     18  C   LIG d   1       5.630   1.084  -2.882  0.00  0.00    -0.048 A 
ATOM     19  C   LIG d   1       4.698   0.154  -2.474  0.00  0.00    -0.043 A 
ATOM     20  H   LIG d   1       5.457   2.136  -2.710  0.00  0.00     0.062 H 
ATOM     21  C   LIG d   1       4.920  -1.196  -2.693  0.00  0.00     0.041 A 
ATOM     22  H   LIG d   1       3.792   0.478  -1.985  0.00  0.00     0.063 H 
ATOM     23  C   LIG d   1       6.081  -1.619  -3.320  0.00  0.00    -0.043 A 
ATOM     24 CL   LIG d   1       3.741  -2.361  -2.177  0.00  0.00    -0.084 Cl
ATOM     25  C   LIG d   1       7.018  -0.699  -3.737  0.00  0.00    -0.048 A 
ATOM     26  H   LIG d   1       6.249  -2.673  -3.487  0.00  0.00     0.063 H 
ATOM     27  H   LIG d   1       7.920  -1.030  -4.230  0.00  0.00     0.062 H 
ENDBRANCH  14  17
ENDBRANCH   6  13
BRANCH   2  28
ATOM     28  C   LIG d   1      13.631   6.156  -5.370  0.00  0.00    -0.035 C 
ATOM     29  H   LIG d   1      14.350   5.350  -5.218  0.00  0.00     0.028 H 
ATOM     30  H   LIG d   1      13.311   6.165  -6.412  0.00  0.00     0.028 H 
ATOM     31  H   LIG d   1      14.098   7.110  -5.126  0.00  0.00     0.028 H 
ENDBRANCH   2  28
BRANCH   1  32
ATOM     32  C   LIG d   1      12.306   8.243  -3.494  0.00  0.00     0.375 C 
ATOM     33  O   LIG d   1      13.109   8.519  -2.624  0.00  0.00    -0.241 OA
BRANCH  32  34
ATOM     34  O   LIG d   1      11.829   9.211  -4.303  0.00  0.00    -0.459 OA
BRANCH  34  35
ATOM     35  C   LIG d   1      10.438   9.589  -4.131  0.00  0.00     0.090 C 
ATOM     36  H   LIG d   1      10.010   9.029  -3.299  0.00  0.00     0.070 H 
ATOM     37  H   LIG d   1      10.375  10.657  -3.922  0.00  0.00     0.070 H 
BRANCH  35  38
ATOM     38  C   LIG d   1       9.661   9.273  -5.410  0.00  0.00    -0.031 C 
ATOM     39  H   LIG d   1      10.171   8.480  -5.958  0.00  0.00     0.026 H 
ATOM     40  H   LIG d   1       8.654   8.946  -5.152  0.00  0.00     0.026 H 
ATOM     41  H   LIG d   1       9.606  10.166  -6.032  0.00  0.00     0.026 H 
ENDBRANCH  35  38
ENDBRANCH  34  35
ENDBRANCH  32  34
ENDBRANCH   1  32
TORSDOF 7
ENDMDL
MODEL 5
REMARK VINA RESULT:      -5.6      6.023      9.429
REMARK  7 active torsions:
REMARK  status: ('A' for Active; 'I' for Inactive)
REMARK    1  A    between atoms: C_1  and  C_2 
REMARK    2  A    between atoms: C_2  and  O_3 
REMARK    3  A    between atoms: O_3  and  C_4 
REMARK    4  A    between atoms: C_4  and  C_6 
REMARK    5  A    between atoms: C_7  and  C_25 
REMARK    6  A    between atoms: C_11  and  N_15 
REMARK       I    between atoms: N_15  and  C_16 
REMARK    7  A    between atoms: C_16  and  C_18 
ROOT
ATOM      1  C   LIG d   1       3.908  -0.187  -6.519  0.00  0.00     0.215 A 
ATOM      2  C   LIG d   1       3.719  -0.274  -5.177  0.00  0.00     0.010 A 
ATOM      3  C   LIG d   1       4.882  -0.876  -4.634  0.00  0.00     0.024 A 
ATOM      4  C   LIG d   1       5.281  -1.212  -3.335  0.00  0.00    -0.049 A 
ATOM      5  C   LIG d   1       6.494  -1.798  -3.126  0.00  0.00    -0.040 A 
ATOM      6  C   LIG d   1       7.342  -2.066  -4.201  0.00  0.00     0.037 A 
ATOM      7  C   LIG d   1       6.965  -1.741  -5.494  0.00  0.00     0.003 A 
ATOM      8  C   LIG d   1       5.736  -1.138  -5.723  0.00  0.00     0.138 A 
ATOM      9  O   LIG d   1       5.112  -0.713  -6.839  0.00  0.00    -0.448 OA
ATOM     10  H   LIG d   1       4.628  -1.007  -2.498  0.00  0.00     0.062 H 
ATOM     11  H   LIG d   1       6.800  -2.057  -2.123  0.00  0.00     0.064 H 
ATOM     12  H   LIG d   1       7.627  -1.953  -6.321  0.00  0.00     0.067 H 
ENDROOT
BRANCH   6  13
ATOM     13  N   LIG d   1       8.582  -2.667  -3.972  0.00  0.00    -0.281 N 
ATOM     14  C   LIG d   1       8.743  -3.986  -4.196  0.00  0.00     0.248 C 
ATOM     15  O   LIG d   1       7.839  -4.634  -4.687  0.00  0.00    -0.270 OA
ATOM     16  H   LIG d   1       9.327  -2.134  -3.652  0.00  0.00     0.155 HD
BRANCH  14  17
ATOM     17  C   LIG d   1      10.018  -4.645  -3.844  0.00  0.00     0.037 A 
ATOM     18  C   LIG d   1      11.210  -3.917  -3.854  0.00  0.00    -0.048 A 
ATOM     19  C   LIG d   1      12.396  -4.538  -3.525  0.00  0.00    -0.043 A 
ATOM     20  H   LIG d   1      11.202  -2.871  -4.122  0.00  0.00     0.062 H 
ATOM     21  C   LIG d   1      12.407  -5.881  -3.183  0.00  0.00     0.041 A 
ATOM     22  H   LIG d   1      13.318  -3.977  -3.533  0.00  0.00     0.063 H 
ATOM     23  C   LIG d   1      11.228  -6.608  -3.171  0.00  0.00    -0.043 A 
ATOM     24 CL   LIG d   1      13.905  -6.655  -2.769  0.00  0.00    -0.084 Cl
ATOM     25  C   LIG d   1      10.035  -5.997  -3.493  0.00  0.00    -0.048 A 
ATOM     26  H   LIG d   1      11.243  -7.654  -2.905  0.00  0.00     0.063 H 
ATOM     27  H   LIG d   1       9.116  -6.564  -3.478  0.00  0.00     0.062 H 
ENDBRANCH  14  17
ENDBRANCH   6  13
BRANCH   2  28
ATOM     28  C   LIG d   1       2.510   0.196  -4.409  0.00  0.00    -0.035 C 
ATOM     29  H   LIG d   1       2.774   1.074  -3.818  0.00  0.00     0.028 H 
ATOM     30  H   LIG d   1       1.714   0.454  -5.106  0.00  0.00     0.028 H 
ATOM     31  H   LIG d   1       2.169  -0.598  -3.746  0.00  0.00     0.028 H 
ENDBRANCH   2  28
BRANCH   1  32
ATOM     32  C   LIG d   1       2.949   0.375  -7.476  0.00  0.00     0.375 C 
ATOM     33  O   LIG d   1       2.249  -0.364  -8.140  0.00  0.00    -0.241 OA
BRANCH  32  34
ATOM     34  O   LIG d   1       2.844   1.712  -7.618  0.00  0.00    -0.459 OA
BRANCH  34  35
ATOM     35  C   LIG d   1       2.967   2.243  -8.964  0.00  0.00     0.090 C 
ATOM     36  H   LIG d   1       2.535   1.537  -9.674  0.00  0.00     0.070 H 
ATOM     37  H   LIG d   1       2.437   3.194  -9.029  0.00  0.00     0.070 H 
BRANCH  35  38
ATOM     38  C   LIG d   1       4.444   2.459  -9.294  0.00  0.00    -0.031 C 
ATOM     39  H   LIG d   1       4.872   1.531  -9.674  0.00  0.00     0.026 H 
ATOM     40  H   LIG d   1       4.537   3.239 -10.051  0.00  0.00     0.026 H 
ATOM     41  H   LIG d   1       4.978   2.762  -8.394  0.00  0.00     0.026 H 
ENDBRANCH  35  38
ENDBRANCH  34  35
ENDBRANCH  32  34
ENDBRANCH   1  32
TORSDOF 7
ENDMDL
MODEL 6
REMARK VINA RESULT:      -5.5      6.964      8.716
REMARK  7 active torsions:
REMARK  status: ('A' for Active; 'I' for Inactive)
REMARK    1  A    between atoms: C_1  and  C_2 
REMARK    2  A    between atoms: C_2  and  O_3 
REMARK    3  A    between atoms: O_3  and  C_4 
REMARK    4  A    between atoms: C_4  and  C_6 
REMARK    5  A    between atoms: C_7  and  C_25 
REMARK    6  A    between atoms: C_11  and  N_15 
REMARK       I    between atoms: N_15  and  C_16 
REMARK    7  A    between atoms: C_16  and  C_18 
ROOT
ATOM      1  C   LIG d   1       4.837  -2.356  -4.721  0.00  0.00     0.215 A 
ATOM      2  C   LIG d   1       6.104  -2.809  -4.534  0.00  0.00     0.010 A 
ATOM      3  C   LIG d   1       6.143  -4.140  -5.022  0.00  0.00     0.024 A 
ATOM      4  C   LIG d   1       7.151  -5.107  -5.115  0.00  0.00    -0.049 A 
ATOM      5  C   LIG d   1       6.871  -6.330  -5.648  0.00  0.00    -0.040 A 
ATOM      6  C   LIG d   1       5.585  -6.626  -6.101  0.00  0.00     0.037 A 
ATOM      7  C   LIG d   1       4.574  -5.682  -6.017  0.00  0.00     0.003 A 
ATOM      8  C   LIG d   1       4.844  -4.429  -5.483  0.00  0.00     0.138 A 
ATOM      9  O   LIG d   1       4.088  -3.332  -5.280  0.00  0.00    -0.448 OA
ATOM     10  H   LIG d   1       8.149  -4.884  -4.765  0.00  0.00     0.062 H 
ATOM     11  H   LIG d   1       7.650  -7.076  -5.718  0.00  0.00     0.064 H 
ATOM     12  H   LIG d   1       3.581  -5.918  -6.369  0.00  0.00     0.067 H 
ENDROOT
BRANCH   6  13
ATOM     13  N   LIG d   1       5.314  -7.884  -6.644  0.00  0.00    -0.281 N 
ATOM     14  C   LIG d   1       4.735  -8.834  -5.885  0.00  0.00     0.248 C 
ATOM     15  O   LIG d   1       4.362  -8.570  -4.758  0.00  0.00    -0.270 OA
ATOM     16  H   LIG d   1       5.542  -8.072  -7.568  0.00  0.00     0.155 HD
BRANCH  14  17
ATOM     17  C   LIG d   1       4.555 -10.200  -6.421  0.00  0.00     0.037 A 
ATOM     18  C   LIG d   1       4.089 -11.223  -5.593  0.00  0.00    -0.048 A 
ATOM     19  C   LIG d   1       3.923 -12.495  -6.099  0.00  0.00    -0.043 A 
ATOM     20  H   LIG d   1       3.861 -11.018  -4.557  0.00  0.00     0.062 H 
ATOM     21  C   LIG d   1       4.217 -12.758  -7.428  0.00  0.00     0.041 A 
ATOM     22  H   LIG d   1       3.563 -13.286  -5.460  0.00  0.00     0.063 H 
ATOM     23  C   LIG d   1       4.680 -11.747  -8.254  0.00  0.00    -0.043 A 
ATOM     24 CL   LIG d   1       4.005 -14.362  -8.058  0.00  0.00    -0.084 Cl
ATOM     25  C   LIG d   1       4.844 -10.471  -7.761  0.00  0.00    -0.048 A 
ATOM     26  H   LIG d   1       4.907 -11.958  -9.288  0.00  0.00     0.063 H 
ATOM     27  H   LIG d   1       5.200  -9.682  -8.407  0.00  0.00     0.062 H 
ENDBRANCH  14  17
ENDBRANCH   6  13
BRANCH   2  28
ATOM     28  C   LIG d   1       7.255  -2.038  -3.939  0.00  0.00    -0.035 C 
ATOM     29  H   LIG d   1       6.942  -1.012  -3.744  0.00  0.00     0.028 H 
ATOM     30  H   LIG d   1       7.561  -2.507  -3.004  0.00  0.00     0.028 H 
ATOM     31  H   LIG d   1       8.091  -2.037  -4.636  0.00  0.00     0.028 H 
ENDBRANCH   2  28
BRANCH   1  32
ATOM     32  C   LIG d   1       4.353  -1.020  -4.357  0.00  0.00     0.375 C 
ATOM     33  O   LIG d   1       4.616  -0.065  -5.063  0.00  0.00    -0.241 OA
BRANCH  32  34
ATOM     34  O   LIG d   1       3.616  -0.851  -3.240  0.00  0.00    -0.459 OA
BRANCH  34  35
ATOM     35  C   LIG d   1       4.339  -0.699  -1.990  0.00  0.00     0.090 C 
ATOM     36  H   LIG d   1       3.755  -1.132  -1.178  0.00  0.00     0.070 H 
ATOM     37  H   LIG d   1       5.299  -1.212  -2.061  0.00  0.00     0.070 H 
BRANCH  35  38
ATOM     38  C   LIG d   1       4.575   0.786  -1.714  0.00  0.00    -0.031 C 
ATOM     39  H   LIG d   1       5.520   0.912  -1.185  0.00  0.00     0.026 H 
ATOM     40  H   LIG d   1       4.611   1.330  -2.658  0.00  0.00     0.026 H 
ATOM     41  H   LIG d   1       3.761   1.175  -1.101  0.00  0.00     0.026 H 
ENDBRANCH  35  38
ENDBRANCH  34  35
ENDBRANCH  32  34
ENDBRANCH   1  32
TORSDOF 7
ENDMDL
MODEL 7
REMARK VINA RESULT:      -5.4      9.315     13.357
REMARK  7 active torsions:
REMARK  status: ('A' for Active; 'I' for Inactive)
REMARK    1  A    between atoms: C_1  and  C_2 
REMARK    2  A    between atoms: C_2  and  O_3 
REMARK    3  A    between atoms: O_3  and  C_4 
REMARK    4  A    between atoms: C_4  and  C_6 
REMARK    5  A    between atoms: C_7  and  C_25 
REMARK    6  A    between atoms: C_11  and  N_15 
REMARK       I    between atoms: N_15  and  C_16 
REMARK    7  A    between atoms: C_16  and  C_18 
ROOT
ATOM      1  C   LIG d   1       8.648   1.718  -4.469  0.00  0.00     0.215 A 
ATOM      2  C   LIG d   1       8.849   2.670  -5.417  0.00  0.00     0.010 A 
ATOM      3  C   LIG d   1       9.392   3.801  -4.757  0.00  0.00     0.024 A 
ATOM      4  C   LIG d   1       9.814   5.064  -5.191  0.00  0.00    -0.049 A 
ATOM      5  C   LIG d   1      10.305   5.962  -4.291  0.00  0.00    -0.040 A 
ATOM      6  C   LIG d   1      10.391   5.632  -2.938  0.00  0.00     0.037 A 
ATOM      7  C   LIG d   1       9.979   4.387  -2.490  0.00  0.00     0.003 A 
ATOM      8  C   LIG d   1       9.482   3.459  -3.395  0.00  0.00     0.138 A 
ATOM      9  O   LIG d   1       9.021   2.199  -3.262  0.00  0.00    -0.448 OA
ATOM     10  H   LIG d   1       9.749   5.326  -6.238  0.00  0.00     0.062 H 
ATOM     11  H   LIG d   1      10.628   6.937  -4.627  0.00  0.00     0.064 H 
ATOM     12  H   LIG d   1      10.048   4.139  -1.441  0.00  0.00     0.067 H 
ENDROOT
BRANCH   6  13
ATOM     13  N   LIG d   1      10.896   6.563  -2.028  0.00  0.00    -0.281 N 
ATOM     14  C   LIG d   1      10.053   7.333  -1.314  0.00  0.00     0.248 C 
ATOM     15  O   LIG d   1       8.853   7.153  -1.390  0.00  0.00    -0.270 OA
ATOM     16  H   LIG d   1      11.855   6.654  -1.911  0.00  0.00     0.155 HD
BRANCH  14  17
ATOM     17  C   LIG d   1      10.586   8.398  -0.439  0.00  0.00     0.037 A 
ATOM     18  C   LIG d   1      10.116   9.707  -0.560  0.00  0.00    -0.048 A 
ATOM     19  C   LIG d   1      10.618  10.695   0.259  0.00  0.00    -0.043 A 
ATOM     20  H   LIG d   1       9.362   9.944  -1.296  0.00  0.00     0.062 H 
ATOM     21  C   LIG d   1      11.586  10.392   1.202  0.00  0.00     0.041 A 
ATOM     22  H   LIG d   1      10.255  11.708   0.166  0.00  0.00     0.063 H 
ATOM     23  C   LIG d   1      12.057   9.095   1.327  0.00  0.00    -0.043 A 
ATOM     24 CL   LIG d   1      12.213  11.643   2.231  0.00  0.00    -0.084 Cl
ATOM     25  C   LIG d   1      11.559   8.097   0.518  0.00  0.00    -0.048 A 
ATOM     26  H   LIG d   1      12.812   8.865   2.064  0.00  0.00     0.063 H 
ATOM     27  H   LIG d   1      11.923   7.085   0.620  0.00  0.00     0.062 H 
ENDBRANCH  14  17
ENDBRANCH   6  13
BRANCH   2  28
ATOM     28  C   LIG d   1       8.565   2.542  -6.892  0.00  0.00    -0.035 C 
ATOM     29  H   LIG d   1       7.609   2.036  -7.035  0.00  0.00     0.028 H 
ATOM     30  H   LIG d   1       8.522   3.534  -7.341  0.00  0.00     0.028 H 
ATOM     31  H   LIG d   1       9.357   1.962  -7.365  0.00  0.00     0.028 H 
ENDBRANCH   2  28
BRANCH   1  32
ATOM     32  C   LIG d   1       8.097   0.381  -4.714  0.00  0.00     0.375 C 
ATOM     33  O   LIG d   1       8.833  -0.528  -5.048  0.00  0.00    -0.241 OA
BRANCH  32  34
ATOM     34  O   LIG d   1       6.775   0.159  -4.569  0.00  0.00    -0.459 OA
BRANCH  34  35
ATOM     35  C   LIG d   1       6.294  -0.099  -3.223  0.00  0.00     0.090 C 
ATOM     36  H   LIG d   1       5.722  -1.027  -3.214  0.00  0.00     0.070 H 
ATOM     37  H   LIG d   1       7.142  -0.188  -2.544  0.00  0.00     0.070 H 
BRANCH  35  38
ATOM     38  C   LIG d   1       5.398   1.055  -2.771  0.00  0.00    -0.031 C 
ATOM     39  H   LIG d   1       4.953   0.814  -1.806  0.00  0.00     0.026 H 
ATOM     40  H   LIG d   1       5.995   1.963  -2.680  0.00  0.00     0.026 H 
ATOM     41  H   LIG d   1       4.609   1.212  -3.506  0.00  0.00     0.026 H 
ENDBRANCH  35  38
ENDBRANCH  34  35
ENDBRANCH  32  34
ENDBRANCH   1  32
TORSDOF 7
ENDMDL
MODEL 8
REMARK VINA RESULT:      -5.4     12.612     14.782
REMARK  7 active torsions:
REMARK  status: ('A' for Active; 'I' for Inactive)
REMARK    1  A    between atoms: C_1  and  C_2 
REMARK    2  A    between atoms: C_2  and  O_3 
REMARK    3  A    between atoms: O_3  and  C_4 
REMARK    4  A    between atoms: C_4  and  C_6 
REMARK    5  A    between atoms: C_7  and  C_25 
REMARK    6  A    between atoms: C_11  and  N_15 
REMARK       I    between atoms: N_15  and  C_16 
REMARK    7  A    between atoms: C_16  and  C_18 
ROOT
ATOM      1  C   LIG d   1      11.571  -9.046   2.370  0.00  0.00     0.215 A 
ATOM      2  C   LIG d   1      11.522 -10.401   2.457  0.00  0.00     0.010 A 
ATOM      3  C   LIG d   1      10.711 -10.854   1.386  0.00  0.00     0.024 A 
ATOM      4  C   LIG d   1      10.307 -12.122   0.948  0.00  0.00    -0.049 A 
ATOM      5  C   LIG d   1       9.502 -12.237  -0.146  0.00  0.00    -0.040 A 
ATOM      6  C   LIG d   1       9.078 -11.100  -0.834  0.00  0.00     0.037 A 
ATOM      7  C   LIG d   1       9.467  -9.838  -0.416  0.00  0.00     0.003 A 
ATOM      8  C   LIG d   1      10.292  -9.703   0.693  0.00  0.00     0.138 A 
ATOM      9  O   LIG d   1      10.827  -8.636   1.319  0.00  0.00    -0.448 OA
ATOM     10  H   LIG d   1      10.632 -13.006   1.478  0.00  0.00     0.062 H 
ATOM     11  H   LIG d   1       9.190 -13.216  -0.481  0.00  0.00     0.064 H 
ATOM     12  H   LIG d   1       9.134  -8.962  -0.953  0.00  0.00     0.067 H 
ENDROOT
BRANCH   6  13
ATOM     13  N   LIG d   1       8.253 -11.235  -1.953  0.00  0.00    -0.281 N 
ATOM     14  C   LIG d   1       6.925 -11.042  -1.838  0.00  0.00     0.248 C 
ATOM     15  O   LIG d   1       6.455 -10.658  -0.785  0.00  0.00    -0.270 OA
ATOM     16  H   LIG d   1       8.638 -11.466  -2.813  0.00  0.00     0.155 HD
BRANCH  14  17
ATOM     17  C   LIG d   1       6.039 -11.298  -2.993  0.00  0.00     0.037 A 
ATOM     18  C   LIG d   1       6.553 -11.870  -4.158  0.00  0.00    -0.048 A 
ATOM     19  C   LIG d   1       5.721 -12.106  -5.232  0.00  0.00    -0.043 A 
ATOM     20  H   LIG d   1       7.600 -12.126  -4.218  0.00  0.00     0.062 H 
ATOM     21  C   LIG d   1       4.377 -11.777  -5.157  0.00  0.00     0.041 A 
ATOM     22  H   LIG d   1       6.117 -12.549  -6.134  0.00  0.00     0.063 H 
ATOM     23  C   LIG d   1       3.862 -11.209  -4.003  0.00  0.00    -0.043 A 
ATOM     24 CL   LIG d   1       3.336 -12.078  -6.513  0.00  0.00    -0.084 Cl
ATOM     25  C   LIG d   1       4.682 -10.973  -2.921  0.00  0.00    -0.048 A 
ATOM     26  H   LIG d   1       2.814 -10.954  -3.950  0.00  0.00     0.063 H 
ATOM     27  H   LIG d   1       4.277 -10.535  -2.021  0.00  0.00     0.062 H 
ENDBRANCH  14  17
ENDBRANCH   6  13
BRANCH   2  28
ATOM     28  C   LIG d   1      12.212 -11.260   3.486  0.00  0.00    -0.035 C 
ATOM     29  H   LIG d   1      11.465 -11.740   4.119  0.00  0.00     0.028 H 
ATOM     30  H   LIG d   1      12.806 -12.023   2.983  0.00  0.00     0.028 H 
ATOM     31  H   LIG d   1      12.864 -10.639   4.099  0.00  0.00     0.028 H 
ENDBRANCH   2  28
BRANCH   1  32
ATOM     32  C   LIG d   1      12.304  -8.164   3.284  0.00  0.00     0.375 C 
ATOM     33  O   LIG d   1      11.890  -7.979   4.412  0.00  0.00    -0.241 OA
BRANCH  32  34
ATOM     34  O   LIG d   1      13.437  -7.559   2.873  0.00  0.00    -0.459 OA
BRANCH  34  35
ATOM     35  C   LIG d   1      14.688  -8.239   3.157  0.00  0.00     0.090 C 
ATOM     36  H   LIG d   1      15.444  -7.505   3.437  0.00  0.00     0.070 H 
ATOM     37  H   LIG d   1      14.542  -8.942   3.977  0.00  0.00     0.070 H 
BRANCH  35  38
ATOM     38  C   LIG d   1      15.150  -8.997   1.912  0.00  0.00    -0.031 C 
ATOM     39  H   LIG d   1      14.406  -8.889   1.123  0.00  0.00     0.026 H 
ATOM     40  H   LIG d   1      16.104  -8.591   1.572  0.00  0.00     0.026 H 
ATOM     41  H   LIG d   1      15.271 -10.053   2.154  0.00  0.00     0.026 H 
ENDBRANCH  35  38
ENDBRANCH  34  35
ENDBRANCH  32  34
ENDBRANCH   1  32
TORSDOF 7
ENDMDL
MODEL 9
REMARK VINA RESULT:      -5.4      7.326     10.271
REMARK  7 active torsions:
REMARK  status: ('A' for Active; 'I' for Inactive)
REMARK    1  A    between atoms: C_1  and  C_2 
REMARK    2  A    between atoms: C_2  and  O_3 
REMARK    3  A    between atoms: O_3  and  C_4 
REMARK    4  A    between atoms: C_4  and  C_6 
REMARK    5  A    between atoms: C_7  and  C_25 
REMARK    6  A    between atoms: C_11  and  N_15 
REMARK       I    between atoms: N_15  and  C_16 
REMARK    7  A    between atoms: C_16  and  C_18 
ROOT
ATOM      1  C   LIG d   1      11.667   5.481  -1.928  0.00  0.00     0.215 A 
ATOM      2  C   LIG d   1      11.083   5.965  -3.055  0.00  0.00     0.010 A 
ATOM      3  C   LIG d   1      10.339   4.901  -3.623  0.00  0.00     0.024 A 
ATOM      4  C   LIG d   1       9.527   4.787  -4.759  0.00  0.00    -0.049 A 
ATOM      5  C   LIG d   1       8.929   3.597  -5.050  0.00  0.00    -0.040 A 
ATOM      6  C   LIG d   1       9.122   2.489  -4.223  0.00  0.00     0.037 A 
ATOM      7  C   LIG d   1       9.921   2.583  -3.095  0.00  0.00     0.003 A 
ATOM      8  C   LIG d   1      10.532   3.789  -2.782  0.00  0.00     0.138 A 
ATOM      9  O   LIG d   1      11.341   4.178  -1.776  0.00  0.00    -0.448 OA
ATOM     10  H   LIG d   1       9.375   5.641  -5.403  0.00  0.00     0.062 H 
ATOM     11  H   LIG d   1       8.304   3.510  -5.926  0.00  0.00     0.064 H 
ATOM     12  H   LIG d   1      10.066   1.721  -2.460  0.00  0.00     0.067 H 
ENDROOT
BRANCH   6  13
ATOM     13  N   LIG d   1       8.503   1.277  -4.534  0.00  0.00    -0.281 N 
ATOM     14  C   LIG d   1       7.299   0.980  -4.007  0.00  0.00     0.248 C 
ATOM     15  O   LIG d   1       6.708   1.806  -3.338  0.00  0.00    -0.270 OA
ATOM     16  H   LIG d   1       8.940   0.649  -5.130  0.00  0.00     0.155 HD
BRANCH  14  17
ATOM     17  C   LIG d   1       6.697  -0.350  -4.241  0.00  0.00     0.037 A 
ATOM     18  C   LIG d   1       6.936  -1.027  -5.439  0.00  0.00    -0.048 A 
ATOM     19  C   LIG d   1       6.371  -2.266  -5.651  0.00  0.00    -0.043 A 
ATOM     20  H   LIG d   1       7.560  -0.579  -6.197  0.00  0.00     0.062 H 
ATOM     21  C   LIG d   1       5.569  -2.841  -4.678  0.00  0.00     0.041 A 
ATOM     22  H   LIG d   1       6.555  -2.791  -6.576  0.00  0.00     0.063 H 
ATOM     23  C   LIG d   1       5.328  -2.173  -3.488  0.00  0.00    -0.043 A 
ATOM     24 CL   LIG d   1       4.861  -4.403  -4.953  0.00  0.00    -0.084 Cl
ATOM     25  C   LIG d   1       5.891  -0.936  -3.262  0.00  0.00    -0.048 A 
ATOM     26  H   LIG d   1       4.702  -2.626  -2.734  0.00  0.00     0.063 H 
ATOM     27  H   LIG d   1       5.707  -0.420  -2.332  0.00  0.00     0.062 H 
ENDBRANCH  14  17
ENDBRANCH   6  13
BRANCH   2  28
ATOM     28  C   LIG d   1      11.191   7.370  -3.589  0.00  0.00    -0.035 C 
ATOM     29  H   LIG d   1      10.882   7.386  -4.635  0.00  0.00     0.028 H 
ATOM     30  H   LIG d   1      10.545   8.030  -3.010  0.00  0.00     0.028 H 
ATOM     31  H   LIG d   1      12.223   7.711  -3.510  0.00  0.00     0.028 H 
ENDBRANCH   2  28
BRANCH   1  32
ATOM     32  C   LIG d   1      12.532   6.248  -1.025  0.00  0.00     0.375 C 
ATOM     33  O   LIG d   1      13.724   6.011  -0.978  0.00  0.00    -0.241 OA
BRANCH  32  34
ATOM     34  O   LIG d   1      12.005   7.215  -0.248  0.00  0.00    -0.459 OA
BRANCH  34  35
ATOM     35  C   LIG d   1      10.779   6.896   0.462  0.00  0.00     0.090 C 
ATOM     36  H   LIG d   1      10.376   7.802   0.916  0.00  0.00     0.070 H 
ATOM     37  H   LIG d   1      10.051   6.485  -0.238  0.00  0.00     0.070 H 
BRANCH  35  38
ATOM     38  C   LIG d   1      11.074   5.867   1.554  0.00  0.00    -0.031 C 
ATOM     39  H   LIG d   1      10.704   6.235   2.511  0.00  0.00     0.026 H 
ATOM     40  H   LIG d   1      10.579   4.927   1.310  0.00  0.00     0.026 H 
ATOM     41  H   LIG d   1      12.150   5.705   1.619  0.00  0.00     0.026 H 
ENDBRANCH  35  38
ENDBRANCH  34  35
ENDBRANCH  32  34
ENDBRANCH   1  32
TORSDOF 7
ENDMDL
