MODEL 1
REMARK VINA RESULT:      -7.1      0.000      0.000
REMARK  7 active torsions:
REMARK  status: ('A' for Active; 'I' for Inactive)
REMARK    1  A    between atoms: C_1  and  C_2 
REMARK    2  A    between atoms: C_2  and  C_3 
REMARK    3  A    between atoms: C_12  and  O_15 
REMARK    4  A    between atoms: C_13  and  C_14 
REMARK    5  A    between atoms: O_15  and  C_16 
REMARK    6  A    between atoms: C_16  and  C_17 
REMARK       I    between atoms: C_17  and  N_19 
REMARK    7  A    between atoms: C_22  and  C_25 
REMARK       I    between atoms: C_25  and  N_27 
ROOT
ATOM      1  O   LIG d   1       9.423   0.740  -5.841  0.00  0.00    -0.482 OA
ENDROOT
BRANCH   1   2
ATOM      2  C   LIG d   1       8.345   0.407  -5.087  0.00  0.00     0.128 A 
ATOM      3  C   LIG d   1       7.876   1.295  -4.121  0.00  0.00    -0.019 A 
ATOM      4  C   LIG d   1       6.792   0.975  -3.355  0.00  0.00    -0.047 A 
ATOM      5  H   LIG d   1       8.372   2.243  -3.979  0.00  0.00     0.065 H 
ATOM      6  C   LIG d   1       6.148  -0.253  -3.541  0.00  0.00     0.021 A 
ATOM      7  H   LIG d   1       6.432   1.668  -2.609  0.00  0.00     0.063 H 
ATOM      8  C   LIG d   1       4.983  -0.624  -2.734  0.00  0.00    -0.030 A 
ATOM      9  C   LIG d   1       6.622  -1.158  -4.509  0.00  0.00     0.146 A 
ATOM     10  C   LIG d   1       4.400  -1.828  -2.965  0.00  0.00     0.027 A 
ATOM     11  C   LIG d   1       4.923  -2.682  -3.956  0.00  0.00     0.338 A 
ATOM     12  H   LIG d   1       3.536  -2.130  -2.391  0.00  0.00     0.069 H 
ATOM     13  O   LIG d   1       4.389  -3.760  -4.154  0.00  0.00    -0.245 OA
ATOM     14  O   LIG d   1       5.994  -2.341  -4.689  0.00  0.00    -0.422 OA
ATOM     15  C   LIG d   1       7.727  -0.820  -5.275  0.00  0.00     0.034 A 
BRANCH   8  16
ATOM     16  C   LIG d   1       4.444   0.309  -1.679  0.00  0.00    -0.030 C 
ATOM     17  H   LIG d   1       5.272   0.821  -1.190  0.00  0.00     0.031 H 
ATOM     18  H   LIG d   1       3.884  -0.264  -0.941  0.00  0.00     0.031 H 
BRANCH  16  19
ATOM     19  C   LIG d   1       3.522   1.339  -2.334  0.00  0.00    -0.061 C 
ATOM     20  H   LIG d   1       2.483   1.066  -2.150  0.00  0.00     0.023 H 
ATOM     21  H   LIG d   1       3.706   1.361  -3.409  0.00  0.00     0.023 H 
ATOM     22  H   LIG d   1       3.719   2.324  -1.912  0.00  0.00     0.023 H 
ENDBRANCH  16  19
ENDBRANCH   8  16
BRANCH  15  23
ATOM     23  C   LIG d   1       8.243  -1.773  -6.321  0.00  0.00    -0.033 C 
ATOM     24  H   LIG d   1       9.333  -1.749  -6.329  0.00  0.00     0.028 H 
ATOM     25  H   LIG d   1       7.904  -2.783  -6.091  0.00  0.00     0.028 H 
ATOM     26  H   LIG d   1       7.866  -1.478  -7.300  0.00  0.00     0.028 H 
ENDBRANCH  15  23
ENDBRANCH   1   2
BRANCH   1  27
ATOM     27  C   LIG d   1      10.443   1.517  -5.208  0.00  0.00     0.165 C 
ATOM     28  H   LIG d   1      10.351   1.425  -4.126  0.00  0.00     0.080 H 
ATOM     29  H   LIG d   1      11.421   1.156  -5.523  0.00  0.00     0.080 H 
BRANCH  27  30
ATOM     30  C   LIG d   1      10.289   2.963  -5.604  0.00  0.00     0.253 C 
ATOM     31  O   LIG d   1       9.805   3.250  -6.677  0.00  0.00    -0.272 OA
ATOM     32  N   LIG d   1      10.688   3.937  -4.762  0.00  0.00    -0.299 N 
ATOM     33  C   LIG d   1      10.545   5.352  -5.133  0.00  0.00     0.015 C 
ATOM     34  C   LIG d   1      11.271   3.605  -3.455  0.00  0.00     0.015 C 
ATOM     35  C   LIG d   1       9.781   6.078  -4.022  0.00  0.00    -0.026 C 
ATOM     36  H   LIG d   1      11.532   5.801  -5.251  0.00  0.00     0.046 H 
ATOM     37  H   LIG d   1       9.992   5.430  -6.069  0.00  0.00     0.046 H 
ATOM     38  C   LIG d   1      10.489   5.847  -2.685  0.00  0.00     0.038 C 
ATOM     39  H   LIG d   1       9.751   7.145  -4.238  0.00  0.00     0.029 H 
ATOM     40  H   LIG d   1       8.764   5.688  -3.966  0.00  0.00     0.029 H 
ATOM     41  C   LIG d   1      10.503   4.350  -2.364  0.00  0.00    -0.026 C 
ATOM     42  H   LIG d   1      11.514   6.213  -2.749  0.00  0.00     0.040 H 
ATOM     43  H   LIG d   1      10.987   4.189  -1.402  0.00  0.00     0.029 H 
ATOM     44  H   LIG d   1       9.479   3.978  -2.324  0.00  0.00     0.029 H 
ATOM     45  H   LIG d   1      11.195   2.531  -3.284  0.00  0.00     0.046 H 
ATOM     46  H   LIG d   1      12.318   3.908  -3.433  0.00  0.00     0.046 H 
BRANCH  38  47
ATOM     47  C   LIG d   1       9.759   6.588  -1.595  0.00  0.00     0.214 C 
ATOM     48  O   LIG d   1      10.071   6.423  -0.435  0.00  0.00    -0.276 OA
ATOM     49  N   LIG d   1       8.757   7.433  -1.909  0.00  0.00    -0.329 N 
ATOM     50  H   LIG d   1       8.507   7.565  -2.837  0.00  0.00     0.145 HD
ATOM     51  H   LIG d   1       8.287   7.909  -1.207  0.00  0.00     0.145 HD
ENDBRANCH  38  47
ENDBRANCH  27  30
ENDBRANCH   1  27
TORSDOF 7
ENDMDL
MODEL 2
REMARK VINA RESULT:      -7.0      4.991      7.200
REMARK  7 active torsions:
REMARK  status: ('A' for Active; 'I' for Inactive)
REMARK    1  A    between atoms: C_1  and  C_2 
REMARK    2  A    between atoms: C_2  and  C_3 
REMARK    3  A    between atoms: C_12  and  O_15 
REMARK    4  A    between atoms: C_13  and  C_14 
REMARK    5  A    between atoms: O_15  and  C_16 
REMARK    6  A    between atoms: C_16  and  C_17 
REMARK       I    between atoms: C_17  and  N_19 
REMARK    7  A    between atoms: C_22  and  C_25 
REMARK       I    between atoms: C_25  and  N_27 
ROOT
ATOM      1  O   LIG d   1       6.771  -3.144  -7.230  0.00  0.00    -0.482 OA
ENDROOT
BRANCH   1   2
ATOM      2  C   LIG d   1       5.740  -2.417  -7.729  0.00  0.00     0.128 A 
ATOM      3  C   LIG d   1       4.606  -3.067  -8.213  0.00  0.00    -0.019 A 
ATOM      4  C   LIG d   1       3.560  -2.350  -8.718  0.00  0.00    -0.047 A 
ATOM      5  H   LIG d   1       4.555  -4.145  -8.188  0.00  0.00     0.065 H 
ATOM      6  C   LIG d   1       3.627  -0.952  -8.750  0.00  0.00     0.021 A 
ATOM      7  H   LIG d   1       2.683  -2.859  -9.090  0.00  0.00     0.063 H 
ATOM      8  C   LIG d   1       2.520  -0.157  -9.285  0.00  0.00    -0.030 A 
ATOM      9  C   LIG d   1       4.772  -0.290  -8.269  0.00  0.00     0.146 A 
ATOM     10  C   LIG d   1       2.642   1.196  -9.284  0.00  0.00     0.027 A 
ATOM     11  C   LIG d   1       3.816   1.793  -8.780  0.00  0.00     0.338 A 
ATOM     12  H   LIG d   1       1.843   1.812  -9.667  0.00  0.00     0.069 H 
ATOM     13  O   LIG d   1       3.913   3.008  -8.785  0.00  0.00    -0.245 OA
ATOM     14  O   LIG d   1       4.830   1.059  -8.296  0.00  0.00    -0.422 OA
ATOM     15  C   LIG d   1       5.828  -1.034  -7.765  0.00  0.00     0.034 A 
BRANCH   8  16
ATOM     16  C   LIG d   1       1.276  -0.821  -9.818  0.00  0.00    -0.030 C 
ATOM     17  H   LIG d   1       0.409  -0.201  -9.595  0.00  0.00     0.031 H 
ATOM     18  H   LIG d   1       1.155  -1.796  -9.347  0.00  0.00     0.031 H 
BRANCH  16  19
ATOM     19  C   LIG d   1       1.402  -0.997 -11.333  0.00  0.00    -0.061 C 
ATOM     20  H   LIG d   1       2.133  -1.777 -11.548  0.00  0.00     0.023 H 
ATOM     21  H   LIG d   1       1.729  -0.059 -11.782  0.00  0.00     0.023 H 
ATOM     22  H   LIG d   1       0.435  -1.281 -11.747  0.00  0.00     0.023 H 
ENDBRANCH  16  19
ENDBRANCH   8  16
BRANCH  15  23
ATOM     23  C   LIG d   1       7.058  -0.341  -7.240  0.00  0.00    -0.033 C 
ATOM     24  H   LIG d   1       7.161   0.632  -7.721  0.00  0.00     0.028 H 
ATOM     25  H   LIG d   1       6.967  -0.205  -6.162  0.00  0.00     0.028 H 
ATOM     26  H   LIG d   1       7.937  -0.949  -7.456  0.00  0.00     0.028 H 
ENDBRANCH  15  23
ENDBRANCH   1   2
BRANCH   1  27
ATOM     27  C   LIG d   1       6.540  -3.841  -6.003  0.00  0.00     0.165 C 
ATOM     28  H   LIG d   1       5.475  -4.045  -5.896  0.00  0.00     0.080 H 
ATOM     29  H   LIG d   1       7.092  -4.780  -6.010  0.00  0.00     0.080 H 
BRANCH  27  30
ATOM     30  C   LIG d   1       7.006  -2.992  -4.848  0.00  0.00     0.253 C 
ATOM     31  O   LIG d   1       8.191  -2.803  -4.675  0.00  0.00    -0.272 OA
ATOM     32  N   LIG d   1       6.105  -2.442  -4.010  0.00  0.00    -0.299 N 
ATOM     33  C   LIG d   1       6.545  -1.612  -2.880  0.00  0.00     0.015 C 
ATOM     34  C   LIG d   1       4.667  -2.658  -4.211  0.00  0.00     0.015 C 
ATOM     35  C   LIG d   1       5.820  -0.264  -2.948  0.00  0.00    -0.026 C 
ATOM     36  H   LIG d   1       6.300  -2.112  -1.942  0.00  0.00     0.046 H 
ATOM     37  H   LIG d   1       7.621  -1.452  -2.941  0.00  0.00     0.046 H 
ATOM     38  C   LIG d   1       4.310  -0.503  -3.003  0.00  0.00     0.038 C 
ATOM     39  H   LIG d   1       6.063   0.325  -2.064  0.00  0.00     0.029 H 
ATOM     40  H   LIG d   1       6.136   0.274  -3.842  0.00  0.00     0.029 H 
ATOM     41  C   LIG d   1       3.963  -1.302  -4.261  0.00  0.00    -0.026 C 
ATOM     42  H   LIG d   1       3.998  -1.063  -2.121  0.00  0.00     0.040 H 
ATOM     43  H   LIG d   1       2.885  -1.452  -4.312  0.00  0.00     0.029 H 
ATOM     44  H   LIG d   1       4.296  -0.754  -5.143  0.00  0.00     0.029 H 
ATOM     45  H   LIG d   1       4.504  -3.186  -5.150  0.00  0.00     0.046 H 
ATOM     46  H   LIG d   1       4.265  -3.244  -3.385  0.00  0.00     0.046 H 
BRANCH  38  47
ATOM     47  C   LIG d   1       3.592   0.822  -3.036  0.00  0.00     0.214 C 
ATOM     48  O   LIG d   1       3.406   1.437  -2.008  0.00  0.00    -0.276 OA
ATOM     49  N   LIG d   1       3.157   1.323  -4.208  0.00  0.00    -0.329 N 
ATOM     50  H   LIG d   1       3.305   0.831  -5.031  0.00  0.00     0.145 HD
ATOM     51  H   LIG d   1       2.695   2.175  -4.230  0.00  0.00     0.145 HD
ENDBRANCH  38  47
ENDBRANCH  27  30
ENDBRANCH   1  27
TORSDOF 7
ENDMDL
MODEL 3
REMARK VINA RESULT:      -6.8      2.731      3.209
REMARK  7 active torsions:
REMARK  status: ('A' for Active; 'I' for Inactive)
REMARK    1  A    between atoms: C_1  and  C_2 
REMARK    2  A    between atoms: C_2  and  C_3 
REMARK    3  A    between atoms: C_12  and  O_15 
REMARK    4  A    between atoms: C_13  and  C_14 
REMARK    5  A    between atoms: O_15  and  C_16 
REMARK    6  A    between atoms: C_16  and  C_17 
REMARK       I    between atoms: C_17  and  N_19 
REMARK    7  A    between atoms: C_22  and  C_25 
REMARK       I    between atoms: C_25  and  N_27 
ROOT
ATOM      1  O   LIG d   1       9.172   1.062  -6.077  0.00  0.00    -0.482 OA
ENDROOT
BRANCH   1   2
ATOM      2  C   LIG d   1       8.160   0.622  -5.287  0.00  0.00     0.128 A 
ATOM      3  C   LIG d   1       7.703   1.421  -4.240  0.00  0.00    -0.019 A 
ATOM      4  C   LIG d   1       6.685   0.993  -3.438  0.00  0.00    -0.047 A 
ATOM      5  H   LIG d   1       8.156   2.385  -4.064  0.00  0.00     0.065 H 
ATOM      6  C   LIG d   1       6.098  -0.255  -3.667  0.00  0.00     0.021 A 
ATOM      7  H   LIG d   1       6.335   1.618  -2.629  0.00  0.00     0.063 H 
ATOM      8  C   LIG d   1       5.004  -0.740  -2.822  0.00  0.00    -0.030 A 
ATOM      9  C   LIG d   1       6.560  -1.070  -4.718  0.00  0.00     0.146 A 
ATOM     10  C   LIG d   1       4.471  -1.958  -3.098  0.00  0.00     0.027 A 
ATOM     11  C   LIG d   1       4.979  -2.719  -4.171  0.00  0.00     0.338 A 
ATOM     12  H   LIG d   1       3.660  -2.344  -2.497  0.00  0.00     0.069 H 
ATOM     13  O   LIG d   1       4.491  -3.810  -4.409  0.00  0.00    -0.245 OA
ATOM     14  O   LIG d   1       5.985  -2.272  -4.939  0.00  0.00    -0.422 OA
ATOM     15  C   LIG d   1       7.597  -0.623  -5.520  0.00  0.00     0.034 A 
BRANCH   8  16
ATOM     16  C   LIG d   1       4.480   0.093  -1.680  0.00  0.00    -0.030 C 
ATOM     17  H   LIG d   1       5.317   0.527  -1.133  0.00  0.00     0.031 H 
ATOM     18  H   LIG d   1       3.896  -0.537  -1.009  0.00  0.00     0.031 H 
BRANCH  16  19
ATOM     19  C   LIG d   1       3.594   1.212  -2.231  0.00  0.00    -0.061 C 
ATOM     20  H   LIG d   1       2.662   1.248  -1.667  0.00  0.00     0.023 H 
ATOM     21  H   LIG d   1       3.376   1.019  -3.281  0.00  0.00     0.023 H 
ATOM     22  H   LIG d   1       4.113   2.166  -2.136  0.00  0.00     0.023 H 
ENDBRANCH  16  19
ENDBRANCH   8  16
BRANCH  15  23
ATOM     23  C   LIG d   1       8.100  -1.479  -6.654  0.00  0.00    -0.033 C 
ATOM     24  H   LIG d   1       9.158  -1.695  -6.505  0.00  0.00     0.028 H 
ATOM     25  H   LIG d   1       7.539  -2.413  -6.679  0.00  0.00     0.028 H 
ATOM     26  H   LIG d   1       7.966  -0.948  -7.597  0.00  0.00     0.028 H 
ENDBRANCH  15  23
ENDBRANCH   1   2
BRANCH   1  27
ATOM     27  C   LIG d   1       9.446   2.466  -6.061  0.00  0.00     0.165 C 
ATOM     28  H   LIG d   1       8.770   2.959  -5.363  0.00  0.00     0.080 H 
ATOM     29  H   LIG d   1      10.476   2.630  -5.748  0.00  0.00     0.080 H 
BRANCH  27  30
ATOM     30  C   LIG d   1       9.244   3.032  -7.442  0.00  0.00     0.253 C 
ATOM     31  O   LIG d   1       8.592   2.418  -8.260  0.00  0.00    -0.272 OA
ATOM     32  N   LIG d   1       9.786   4.222  -7.768  0.00  0.00    -0.299 N 
ATOM     33  C   LIG d   1       9.598   4.788  -9.111  0.00  0.00     0.015 C 
ATOM     34  C   LIG d   1      10.573   4.980  -6.786  0.00  0.00     0.015 C 
ATOM     35  C   LIG d   1       9.035   6.206  -8.974  0.00  0.00    -0.026 C 
ATOM     36  H   LIG d   1      10.556   4.824  -9.630  0.00  0.00     0.046 H 
ATOM     37  H   LIG d   1       8.898   4.169  -9.674  0.00  0.00     0.046 H 
ATOM     38  C   LIG d   1       9.952   7.030  -8.068  0.00  0.00     0.038 C 
ATOM     39  H   LIG d   1       8.981   6.672  -9.957  0.00  0.00     0.029 H 
ATOM     40  H   LIG d   1       8.037   6.160  -8.536  0.00  0.00     0.029 H 
ATOM     41  C   LIG d   1      10.003   6.393  -6.676  0.00  0.00    -0.026 C 
ATOM     42  H   LIG d   1      10.956   7.054  -8.492  0.00  0.00     0.040 H 
ATOM     43  H   LIG d   1      10.638   6.993  -6.025  0.00  0.00     0.029 H 
ATOM     44  H   LIG d   1       8.997   6.346  -6.261  0.00  0.00     0.029 H 
ATOM     45  H   LIG d   1      10.516   4.488  -5.815  0.00  0.00     0.046 H 
ATOM     46  H   LIG d   1      11.612   5.032  -7.111  0.00  0.00     0.046 H 
BRANCH  38  47
ATOM     47  C   LIG d   1       9.419   8.435  -7.957  0.00  0.00     0.214 C 
ATOM     48  O   LIG d   1       9.955   9.231  -7.216  0.00  0.00    -0.276 OA
ATOM     49  N   LIG d   1       8.347   8.807  -8.683  0.00  0.00    -0.329 N 
ATOM     50  H   LIG d   1       7.918   8.171  -9.277  0.00  0.00     0.145 HD
ATOM     51  H   LIG d   1       8.003   9.711  -8.612  0.00  0.00     0.145 HD
ENDBRANCH  38  47
ENDBRANCH  27  30
ENDBRANCH   1  27
TORSDOF 7
ENDMDL
MODEL 4
REMARK VINA RESULT:      -6.4      4.983      7.225
REMARK  7 active torsions:
REMARK  status: ('A' for Active; 'I' for Inactive)
REMARK    1  A    between atoms: C_1  and  C_2 
REMARK    2  A    between atoms: C_2  and  C_3 
REMARK    3  A    between atoms: C_12  and  O_15 
REMARK    4  A    between atoms: C_13  and  C_14 
REMARK    5  A    between atoms: O_15  and  C_16 
REMARK    6  A    between atoms: C_16  and  C_17 
REMARK       I    between atoms: C_17  and  N_19 
REMARK    7  A    between atoms: C_22  and  C_25 
REMARK       I    between atoms: C_25  and  N_27 
ROOT
ATOM      1  O   LIG d   1       6.152  -3.845  -7.380  0.00  0.00    -0.482 OA
ENDROOT
BRANCH   1   2
ATOM      2  C   LIG d   1       5.293  -2.895  -7.830  0.00  0.00     0.128 A 
ATOM      3  C   LIG d   1       5.417  -1.582  -7.381  0.00  0.00    -0.019 A 
ATOM      4  C   LIG d   1       4.562  -0.616  -7.826  0.00  0.00    -0.047 A 
ATOM      5  H   LIG d   1       6.195  -1.327  -6.678  0.00  0.00     0.065 H 
ATOM      6  C   LIG d   1       3.553  -0.946  -8.738  0.00  0.00     0.021 A 
ATOM      7  H   LIG d   1       4.663   0.401  -7.475  0.00  0.00     0.063 H 
ATOM      8  C   LIG d   1       2.621   0.070  -9.232  0.00  0.00    -0.030 A 
ATOM      9  C   LIG d   1       3.419  -2.273  -9.189  0.00  0.00     0.146 A 
ATOM     10  C   LIG d   1       1.668  -0.313 -10.121  0.00  0.00     0.027 A 
ATOM     11  C   LIG d   1       1.595  -1.658 -10.535  0.00  0.00     0.338 A 
ATOM     12  H   LIG d   1       0.967   0.412 -10.508  0.00  0.00     0.069 H 
ATOM     13  O   LIG d   1       0.734  -1.987 -11.333  0.00  0.00    -0.245 OA
ATOM     14  O   LIG d   1       2.447  -2.586 -10.075  0.00  0.00    -0.422 OA
ATOM     15  C   LIG d   1       4.292  -3.243  -8.724  0.00  0.00     0.034 A 
BRANCH   8  16
ATOM     16  C   LIG d   1       2.721   1.501  -8.772  0.00  0.00    -0.030 C 
ATOM     17  H   LIG d   1       3.225   1.538  -7.807  0.00  0.00     0.031 H 
ATOM     18  H   LIG d   1       1.721   1.923  -8.676  0.00  0.00     0.031 H 
BRANCH  16  19
ATOM     19  C   LIG d   1       3.520   2.310  -9.795  0.00  0.00    -0.061 C 
ATOM     20  H   LIG d   1       2.854   2.651 -10.588  0.00  0.00     0.023 H 
ATOM     21  H   LIG d   1       4.303   1.684 -10.223  0.00  0.00     0.023 H 
ATOM     22  H   LIG d   1       3.972   3.172  -9.305  0.00  0.00     0.023 H 
ENDBRANCH  16  19
ENDBRANCH   8  16
BRANCH  15  23
ATOM     23  C   LIG d   1       4.167  -4.666  -9.202  0.00  0.00    -0.033 C 
ATOM     24  H   LIG d   1       3.630  -5.254  -8.457  0.00  0.00     0.028 H 
ATOM     25  H   LIG d   1       3.618  -4.686 -10.144  0.00  0.00     0.028 H 
ATOM     26  H   LIG d   1       5.161  -5.088  -9.352  0.00  0.00     0.028 H 
ENDBRANCH  15  23
ENDBRANCH   1   2
BRANCH   1  27
ATOM     27  C   LIG d   1       5.976  -4.293  -6.033  0.00  0.00     0.165 C 
ATOM     28  H   LIG d   1       4.924  -4.217  -5.760  0.00  0.00     0.080 H 
ATOM     29  H   LIG d   1       6.299  -5.330  -5.951  0.00  0.00     0.080 H 
BRANCH  27  30
ATOM     30  C   LIG d   1       6.799  -3.435  -5.108  0.00  0.00     0.253 C 
ATOM     31  O   LIG d   1       7.994  -3.330  -5.281  0.00  0.00    -0.272 OA
ATOM     32  N   LIG d   1       6.205  -2.783  -4.088  0.00  0.00    -0.299 N 
ATOM     33  C   LIG d   1       6.994  -1.942  -3.177  0.00  0.00     0.015 C 
ATOM     34  C   LIG d   1       4.757  -2.896  -3.869  0.00  0.00     0.015 C 
ATOM     35  C   LIG d   1       6.364  -0.547  -3.124  0.00  0.00    -0.026 C 
ATOM     36  H   LIG d   1       6.992  -2.383  -2.179  0.00  0.00     0.046 H 
ATOM     37  H   LIG d   1       8.018  -1.868  -3.543  0.00  0.00     0.046 H 
ATOM     38  C   LIG d   1       4.887  -0.672  -2.744  0.00  0.00     0.038 C 
ATOM     39  H   LIG d   1       6.881   0.057  -2.380  0.00  0.00     0.029 H 
ATOM     40  H   LIG d   1       6.449  -0.073  -4.102  0.00  0.00     0.029 H 
ATOM     41  C   LIG d   1       4.153  -1.495  -3.806  0.00  0.00    -0.026 C 
ATOM     42  H   LIG d   1       4.802  -1.169  -1.778  0.00  0.00     0.040 H 
ATOM     43  H   LIG d   1       3.097  -1.563  -3.547  0.00  0.00     0.029 H 
ATOM     44  H   LIG d   1       4.258  -1.011  -4.777  0.00  0.00     0.029 H 
ATOM     45  H   LIG d   1       4.306  -3.450  -4.693  0.00  0.00     0.046 H 
ATOM     46  H   LIG d   1       4.568  -3.415  -2.930  0.00  0.00     0.046 H 
BRANCH  38  47
ATOM     47  C   LIG d   1       4.273   0.701  -2.658  0.00  0.00     0.214 C 
ATOM     48  O   LIG d   1       3.202   0.854  -2.109  0.00  0.00    -0.276 OA
ATOM     49  N   LIG d   1       4.912   1.760  -3.193  0.00  0.00    -0.329 N 
ATOM     50  H   LIG d   1       5.769   1.638  -3.632  0.00  0.00     0.145 HD
ATOM     51  H   LIG d   1       4.516   2.644  -3.138  0.00  0.00     0.145 HD
ENDBRANCH  38  47
ENDBRANCH  27  30
ENDBRANCH   1  27
TORSDOF 7
ENDMDL
MODEL 5
REMARK VINA RESULT:      -6.2      5.841      8.728
REMARK  7 active torsions:
REMARK  status: ('A' for Active; 'I' for Inactive)
REMARK    1  A    between atoms: C_1  and  C_2 
REMARK    2  A    between atoms: C_2  and  C_3 
REMARK    3  A    between atoms: C_12  and  O_15 
REMARK    4  A    between atoms: C_13  and  C_14 
REMARK    5  A    between atoms: O_15  and  C_16 
REMARK    6  A    between atoms: C_16  and  C_17 
REMARK       I    between atoms: C_17  and  N_19 
REMARK    7  A    between atoms: C_22  and  C_25 
REMARK       I    between atoms: C_25  and  N_27 
ROOT
ATOM      1  O   LIG d   1       7.480  -6.173  -6.066  0.00  0.00    -0.482 OA
ENDROOT
BRANCH   1   2
ATOM      2  C   LIG d   1       7.102  -7.237  -5.312  0.00  0.00     0.128 A 
ATOM      3  C   LIG d   1       8.053  -7.927  -4.564  0.00  0.00    -0.019 A 
ATOM      4  C   LIG d   1       7.689  -8.998  -3.800  0.00  0.00    -0.047 A 
ATOM      5  H   LIG d   1       9.086  -7.612  -4.588  0.00  0.00     0.065 H 
ATOM      6  C   LIG d   1       6.351  -9.405  -3.768  0.00  0.00     0.021 A 
ATOM      7  H   LIG d   1       8.431  -9.528  -3.221  0.00  0.00     0.063 H 
ATOM      8  C   LIG d   1       5.930 -10.550  -2.957  0.00  0.00    -0.030 A 
ATOM      9  C   LIG d   1       5.386  -8.716  -4.527  0.00  0.00     0.146 A 
ATOM     10  C   LIG d   1       4.616 -10.893  -2.964  0.00  0.00     0.027 A 
ATOM     11  C   LIG d   1       3.703 -10.154  -3.743  0.00  0.00     0.338 A 
ATOM     12  H   LIG d   1       4.272 -11.730  -2.373  0.00  0.00     0.069 H 
ATOM     13  O   LIG d   1       2.526 -10.473  -3.739  0.00  0.00    -0.245 OA
ATOM     14  O   LIG d   1       4.094  -9.110  -4.488  0.00  0.00    -0.422 OA
ATOM     15  C   LIG d   1       5.774  -7.635  -5.302  0.00  0.00     0.034 A 
BRANCH   8  16
ATOM     16  C   LIG d   1       6.928 -11.323  -2.133  0.00  0.00    -0.030 C 
ATOM     17  H   LIG d   1       7.844 -10.742  -2.032  0.00  0.00     0.031 H 
ATOM     18  H   LIG d   1       7.152 -12.269  -2.627  0.00  0.00     0.031 H 
BRANCH  16  19
ATOM     19  C   LIG d   1       6.341 -11.598  -0.748  0.00  0.00    -0.061 C 
ATOM     20  H   LIG d   1       6.379 -12.668  -0.542  0.00  0.00     0.023 H 
ATOM     21  H   LIG d   1       5.305 -11.259  -0.718  0.00  0.00     0.023 H 
ATOM     22  H   LIG d   1       6.920 -11.063   0.005  0.00  0.00     0.023 H 
ENDBRANCH  16  19
ENDBRANCH   8  16
BRANCH  15  23
ATOM     23  C   LIG d   1       4.753  -6.882  -6.115  0.00  0.00    -0.033 C 
ATOM     24  H   LIG d   1       3.878  -6.674  -5.498  0.00  0.00     0.028 H 
ATOM     25  H   LIG d   1       5.185  -5.943  -6.460  0.00  0.00     0.028 H 
ATOM     26  H   LIG d   1       4.458  -7.484  -6.974  0.00  0.00     0.028 H 
ENDBRANCH  15  23
ENDBRANCH   1   2
BRANCH   1  27
ATOM     27  C   LIG d   1       7.814  -4.970  -5.370  0.00  0.00     0.165 C 
ATOM     28  H   LIG d   1       7.233  -4.909  -4.450  0.00  0.00     0.080 H 
ATOM     29  H   LIG d   1       8.877  -4.973  -5.130  0.00  0.00     0.080 H 
BRANCH  27  30
ATOM     30  C   LIG d   1       7.500  -3.782  -6.242  0.00  0.00     0.253 C 
ATOM     31  O   LIG d   1       7.687  -3.842  -7.439  0.00  0.00    -0.272 OA
ATOM     32  N   LIG d   1       7.008  -2.654  -5.692  0.00  0.00    -0.299 N 
ATOM     33  C   LIG d   1       6.695  -1.488  -6.530  0.00  0.00     0.015 C 
ATOM     34  C   LIG d   1       6.770  -2.569  -4.245  0.00  0.00     0.015 C 
ATOM     35  C   LIG d   1       5.248  -1.063  -6.263  0.00  0.00    -0.026 C 
ATOM     36  H   LIG d   1       7.369  -0.667  -6.279  0.00  0.00     0.046 H 
ATOM     37  H   LIG d   1       6.812  -1.751  -7.581  0.00  0.00     0.046 H 
ATOM     38  C   LIG d   1       5.056  -0.829  -4.763  0.00  0.00     0.038 C 
ATOM     39  H   LIG d   1       5.034  -0.143  -6.804  0.00  0.00     0.029 H 
ATOM     40  H   LIG d   1       4.571  -1.850  -6.598  0.00  0.00     0.029 H 
ATOM     41  C   LIG d   1       5.326  -2.131  -4.003  0.00  0.00    -0.026 C 
ATOM     42  H   LIG d   1       5.751  -0.062  -4.423  0.00  0.00     0.040 H 
ATOM     43  H   LIG d   1       5.167  -1.970  -2.938  0.00  0.00     0.029 H 
ATOM     44  H   LIG d   1       4.648  -2.907  -4.359  0.00  0.00     0.029 H 
ATOM     45  H   LIG d   1       6.934  -3.546  -3.790  0.00  0.00     0.046 H 
ATOM     46  H   LIG d   1       7.449  -1.840  -3.804  0.00  0.00     0.046 H 
BRANCH  38  47
ATOM     47  C   LIG d   1       3.642  -0.379  -4.501  0.00  0.00     0.214 C 
ATOM     48  O   LIG d   1       3.245   0.670  -4.961  0.00  0.00    -0.276 OA
ATOM     49  N   LIG d   1       2.820  -1.143  -3.756  0.00  0.00    -0.329 N 
ATOM     50  H   LIG d   1       3.137  -1.982  -3.388  0.00  0.00     0.145 HD
ATOM     51  H   LIG d   1       1.910  -0.852  -3.587  0.00  0.00     0.145 HD
ENDBRANCH  38  47
ENDBRANCH  27  30
ENDBRANCH   1  27
TORSDOF 7
ENDMDL
MODEL 6
REMARK VINA RESULT:      -6.0      6.366      9.368
REMARK  7 active torsions:
REMARK  status: ('A' for Active; 'I' for Inactive)
REMARK    1  A    between atoms: C_1  and  C_2 
REMARK    2  A    between atoms: C_2  and  C_3 
REMARK    3  A    between atoms: C_12  and  O_15 
REMARK    4  A    between atoms: C_13  and  C_14 
REMARK    5  A    between atoms: O_15  and  C_16 
REMARK    6  A    between atoms: C_16  and  C_17 
REMARK       I    between atoms: C_17  and  N_19 
REMARK    7  A    between atoms: C_22  and  C_25 
REMARK       I    between atoms: C_25  and  N_27 
ROOT
ATOM      1  O   LIG d   1       5.186   0.560  -9.721  0.00  0.00    -0.482 OA
ENDROOT
BRANCH   1   2
ATOM      2  C   LIG d   1       4.918   0.150  -8.455  0.00  0.00     0.128 A 
ATOM      3  C   LIG d   1       3.746   0.567  -7.827  0.00  0.00    -0.019 A 
ATOM      4  C   LIG d   1       3.462   0.162  -6.554  0.00  0.00    -0.047 A 
ATOM      5  H   LIG d   1       3.058   1.213  -8.350  0.00  0.00     0.065 H 
ATOM      6  C   LIG d   1       4.353  -0.677  -5.877  0.00  0.00     0.021 A 
ATOM      7  H   LIG d   1       2.551   0.487  -6.073  0.00  0.00     0.063 H 
ATOM      8  C   LIG d   1       4.075  -1.128  -4.511  0.00  0.00    -0.030 A 
ATOM      9  C   LIG d   1       5.542  -1.096  -6.504  0.00  0.00     0.146 A 
ATOM     10  C   LIG d   1       4.976  -1.946  -3.909  0.00  0.00     0.027 A 
ATOM     11  C   LIG d   1       6.144  -2.331  -4.599  0.00  0.00     0.338 A 
ATOM     12  H   LIG d   1       4.799  -2.300  -2.904  0.00  0.00     0.069 H 
ATOM     13  O   LIG d   1       6.944  -3.066  -4.047  0.00  0.00    -0.245 OA
ATOM     14  O   LIG d   1       6.397  -1.911  -5.848  0.00  0.00    -0.422 OA
ATOM     15  C   LIG d   1       5.818  -0.671  -7.794  0.00  0.00     0.034 A 
BRANCH   8  16
ATOM     16  C   LIG d   1       2.819  -0.700  -3.796  0.00  0.00    -0.030 C 
ATOM     17  H   LIG d   1       2.305  -1.578  -3.407  0.00  0.00     0.031 H 
ATOM     18  H   LIG d   1       2.165  -0.176  -4.493  0.00  0.00     0.031 H 
BRANCH  16  19
ATOM     19  C   LIG d   1       3.184   0.232  -2.639  0.00  0.00    -0.061 C 
ATOM     20  H   LIG d   1       3.569   1.171  -3.036  0.00  0.00     0.023 H 
ATOM     21  H   LIG d   1       3.947  -0.240  -2.019  0.00  0.00     0.023 H 
ATOM     22  H   LIG d   1       2.297   0.428  -2.037  0.00  0.00     0.023 H 
ENDBRANCH  16  19
ENDBRANCH   8  16
BRANCH  15  23
ATOM     23  C   LIG d   1       7.082  -1.115  -8.482  0.00  0.00    -0.033 C 
ATOM     24  H   LIG d   1       6.887  -1.257  -9.546  0.00  0.00     0.028 H 
ATOM     25  H   LIG d   1       7.852  -0.354  -8.354  0.00  0.00     0.028 H 
ATOM     26  H   LIG d   1       7.423  -2.054  -8.046  0.00  0.00     0.028 H 
ENDBRANCH  15  23
ENDBRANCH   1   2
BRANCH   1  27
ATOM     27  C   LIG d   1       4.080   1.020 -10.502  0.00  0.00     0.165 C 
ATOM     28  H   LIG d   1       3.192   1.080  -9.874  0.00  0.00     0.080 H 
ATOM     29  H   LIG d   1       4.307   2.005 -10.907  0.00  0.00     0.080 H 
BRANCH  27  30
ATOM     30  C   LIG d   1       3.831   0.057 -11.634  0.00  0.00     0.253 C 
ATOM     31  O   LIG d   1       4.651  -0.064 -12.518  0.00  0.00    -0.272 OA
ATOM     32  N   LIG d   1       2.697  -0.671 -11.661  0.00  0.00    -0.299 N 
ATOM     33  C   LIG d   1       2.440  -1.615 -12.757  0.00  0.00     0.015 C 
ATOM     34  C   LIG d   1       1.697  -0.540 -10.593  0.00  0.00     0.015 C 
ATOM     35  C   LIG d   1       2.130  -2.992 -12.161  0.00  0.00    -0.026 C 
ATOM     36  H   LIG d   1       1.587  -1.271 -13.344  0.00  0.00     0.046 H 
ATOM     37  H   LIG d   1       3.321  -1.683 -13.395  0.00  0.00     0.046 H 
ATOM     38  C   LIG d   1       0.980  -2.863 -11.159  0.00  0.00     0.038 C 
ATOM     39  H   LIG d   1       1.844  -3.677 -12.957  0.00  0.00     0.029 H 
ATOM     40  H   LIG d   1       3.015  -3.374 -11.651  0.00  0.00     0.029 H 
ATOM     41  C   LIG d   1       1.394  -1.924 -10.023  0.00  0.00    -0.026 C 
ATOM     42  H   LIG d   1       0.103  -2.456 -11.664  0.00  0.00     0.040 H 
ATOM     43  H   LIG d   1       0.583  -1.852  -9.298  0.00  0.00     0.029 H 
ATOM     44  H   LIG d   1       2.285  -2.318  -9.533  0.00  0.00     0.029 H 
ATOM     45  H   LIG d   1       2.089   0.100  -9.802  0.00  0.00     0.046 H 
ATOM     46  H   LIG d   1       0.783  -0.106 -10.998  0.00  0.00     0.046 H 
BRANCH  38  47
ATOM     47  C   LIG d   1       0.650  -4.220 -10.595  0.00  0.00     0.214 C 
ATOM     48  O   LIG d   1       1.502  -5.082 -10.551  0.00  0.00    -0.276 OA
ATOM     49  N   LIG d   1      -0.591  -4.477 -10.140  0.00  0.00    -0.329 N 
ATOM     50  H   LIG d   1      -1.273  -3.788 -10.175  0.00  0.00     0.145 HD
ATOM     51  H   LIG d   1      -0.804  -5.351  -9.777  0.00  0.00     0.145 HD
ENDBRANCH  38  47
ENDBRANCH  27  30
ENDBRANCH   1  27
TORSDOF 7
ENDMDL
MODEL 7
REMARK VINA RESULT:      -6.0      9.452     13.152
REMARK  7 active torsions:
REMARK  status: ('A' for Active; 'I' for Inactive)
REMARK    1  A    between atoms: C_1  and  C_2 
REMARK    2  A    between atoms: C_2  and  C_3 
REMARK    3  A    between atoms: C_12  and  O_15 
REMARK    4  A    between atoms: C_13  and  C_14 
REMARK    5  A    between atoms: O_15  and  C_16 
REMARK    6  A    between atoms: C_16  and  C_17 
REMARK       I    between atoms: C_17  and  N_19 
REMARK    7  A    between atoms: C_22  and  C_25 
REMARK       I    between atoms: C_25  and  N_27 
ROOT
ATOM      1  O   LIG d   1       1.526  -3.952 -11.986  0.00  0.00    -0.482 OA
ENDROOT
BRANCH   1   2
ATOM      2  C   LIG d   1       1.867  -2.908 -11.188  0.00  0.00     0.128 A 
ATOM      3  C   LIG d   1       1.484  -1.615 -11.541  0.00  0.00    -0.019 A 
ATOM      4  C   LIG d   1       1.819  -0.555 -10.748  0.00  0.00    -0.047 A 
ATOM      5  H   LIG d   1       0.918  -1.452 -12.445  0.00  0.00     0.065 H 
ATOM      6  C   LIG d   1       2.551  -0.767  -9.576  0.00  0.00     0.021 A 
ATOM      7  H   LIG d   1       1.518   0.445 -11.026  0.00  0.00     0.063 H 
ATOM      8  C   LIG d   1       2.924   0.351  -8.706  0.00  0.00    -0.030 A 
ATOM      9  C   LIG d   1       2.947  -2.070  -9.218  0.00  0.00     0.146 A 
ATOM     10  C   LIG d   1       3.631   0.079  -7.579  0.00  0.00     0.027 A 
ATOM     11  C   LIG d   1       3.988  -1.251  -7.279  0.00  0.00     0.338 A 
ATOM     12  H   LIG d   1       3.918   0.880  -6.914  0.00  0.00     0.069 H 
ATOM     13  O   LIG d   1       4.622  -1.480  -6.264  0.00  0.00    -0.245 OA
ATOM     14  O   LIG d   1       3.649  -2.271  -8.082  0.00  0.00    -0.422 OA
ATOM     15  C   LIG d   1       2.604  -3.135 -10.036  0.00  0.00     0.034 A 
BRANCH   8  16
ATOM     16  C   LIG d   1       2.529   1.764  -9.051  0.00  0.00    -0.030 C 
ATOM     17  H   LIG d   1       2.050   2.228  -8.190  0.00  0.00     0.031 H 
ATOM     18  H   LIG d   1       1.835   1.753  -9.891  0.00  0.00     0.031 H 
BRANCH  16  19
ATOM     19  C   LIG d   1       3.777   2.563  -9.432  0.00  0.00    -0.061 C 
ATOM     20  H   LIG d   1       3.966   3.324  -8.675  0.00  0.00     0.023 H 
ATOM     21  H   LIG d   1       3.621   3.043 -10.399  0.00  0.00     0.023 H 
ATOM     22  H   LIG d   1       4.634   1.892  -9.494  0.00  0.00     0.023 H 
ENDBRANCH  16  19
ENDBRANCH   8  16
BRANCH  15  23
ATOM     23  C   LIG d   1       3.014  -4.536  -9.665  0.00  0.00    -0.033 C 
ATOM     24  H   LIG d   1       3.463  -4.533  -8.672  0.00  0.00     0.028 H 
ATOM     25  H   LIG d   1       2.137  -5.183  -9.665  0.00  0.00     0.028 H 
ATOM     26  H   LIG d   1       3.738  -4.907 -10.391  0.00  0.00     0.028 H 
ENDBRANCH  15  23
ENDBRANCH   1   2
BRANCH   1  27
ATOM     27  C   LIG d   1       0.155  -4.046 -12.381  0.00  0.00     0.165 C 
ATOM     28  H   LIG d   1      -0.303  -3.059 -12.339  0.00  0.00     0.080 H 
ATOM     29  H   LIG d   1       0.097  -4.432 -13.398  0.00  0.00     0.080 H 
BRANCH  27  30
ATOM     30  C   LIG d   1      -0.573  -4.978 -11.448  0.00  0.00     0.253 C 
ATOM     31  O   LIG d   1       0.052  -5.684 -10.686  0.00  0.00    -0.272 OA
ATOM     32  N   LIG d   1      -1.920  -5.025 -11.459  0.00  0.00    -0.299 N 
ATOM     33  C   LIG d   1      -2.645  -5.929 -10.555  0.00  0.00     0.015 C 
ATOM     34  C   LIG d   1      -2.691  -4.172 -12.372  0.00  0.00     0.015 C 
ATOM     35  C   LIG d   1      -3.673  -5.115  -9.764  0.00  0.00    -0.026 C 
ATOM     36  H   LIG d   1      -3.157  -6.696 -11.138  0.00  0.00     0.046 H 
ATOM     37  H   LIG d   1      -1.942  -6.399  -9.867  0.00  0.00     0.046 H 
ATOM     38  C   LIG d   1      -4.570  -4.347 -10.738  0.00  0.00     0.038 C 
ATOM     39  H   LIG d   1      -4.282  -5.786  -9.161  0.00  0.00     0.029 H 
ATOM     40  H   LIG d   1      -3.155  -4.409  -9.114  0.00  0.00     0.029 H 
ATOM     41  C   LIG d   1      -3.718  -3.380 -11.565  0.00  0.00    -0.026 C 
ATOM     42  H   LIG d   1      -5.068  -5.052 -11.405  0.00  0.00     0.040 H 
ATOM     43  H   LIG d   1      -4.361  -2.817 -12.241  0.00  0.00     0.029 H 
ATOM     44  H   LIG d   1      -3.201  -2.690 -10.898  0.00  0.00     0.029 H 
ATOM     45  H   LIG d   1      -2.019  -3.481 -12.882  0.00  0.00     0.046 H 
ATOM     46  H   LIG d   1      -3.207  -4.791 -13.106  0.00  0.00     0.046 H 
BRANCH  38  47
ATOM     47  C   LIG d   1      -5.604  -3.571  -9.964  0.00  0.00     0.214 C 
ATOM     48  O   LIG d   1      -5.471  -3.407  -8.770  0.00  0.00    -0.276 OA
ATOM     49  N   LIG d   1      -6.676  -3.059 -10.599  0.00  0.00    -0.329 N 
ATOM     50  H   LIG d   1      -6.783  -3.190 -11.554  0.00  0.00     0.145 HD
ATOM     51  H   LIG d   1      -7.342  -2.560 -10.101  0.00  0.00     0.145 HD
ENDBRANCH  38  47
ENDBRANCH  27  30
ENDBRANCH   1  27
TORSDOF 7
ENDMDL
MODEL 8
REMARK VINA RESULT:      -5.9      5.667      8.542
REMARK  7 active torsions:
REMARK  status: ('A' for Active; 'I' for Inactive)
REMARK    1  A    between atoms: C_1  and  C_2 
REMARK    2  A    between atoms: C_2  and  C_3 
REMARK    3  A    between atoms: C_12  and  O_15 
REMARK    4  A    between atoms: C_13  and  C_14 
REMARK    5  A    between atoms: O_15  and  C_16 
REMARK    6  A    between atoms: C_16  and  C_17 
REMARK       I    between atoms: C_17  and  N_19 
REMARK    7  A    between atoms: C_22  and  C_25 
REMARK       I    between atoms: C_25  and  N_27 
ROOT
ATOM      1  O   LIG d   1       8.903  -5.878  -6.027  0.00  0.00    -0.482 OA
ENDROOT
BRANCH   1   2
ATOM      2  C   LIG d   1       8.128  -6.834  -5.453  0.00  0.00     0.128 A 
ATOM      3  C   LIG d   1       7.002  -7.307  -6.125  0.00  0.00    -0.019 A 
ATOM      4  C   LIG d   1       6.214  -8.268  -5.562  0.00  0.00    -0.047 A 
ATOM      5  H   LIG d   1       6.753  -6.910  -7.097  0.00  0.00     0.065 H 
ATOM      6  C   LIG d   1       6.538  -8.782  -4.301  0.00  0.00     0.021 A 
ATOM      7  H   LIG d   1       5.343  -8.632  -6.088  0.00  0.00     0.063 H 
ATOM      8  C   LIG d   1       5.711  -9.815  -3.672  0.00  0.00    -0.030 A 
ATOM      9  C   LIG d   1       7.670  -8.304  -3.615  0.00  0.00     0.146 A 
ATOM     10  C   LIG d   1       6.082 -10.277  -2.451  0.00  0.00     0.027 A 
ATOM     11  C   LIG d   1       7.232  -9.757  -1.823  0.00  0.00     0.338 A 
ATOM     12  H   LIG d   1       5.496 -11.042  -1.961  0.00  0.00     0.069 H 
ATOM     13  O   LIG d   1       7.553 -10.182  -0.726  0.00  0.00    -0.245 OA
ATOM     14  O   LIG d   1       7.983  -8.807  -2.401  0.00  0.00    -0.422 OA
ATOM     15  C   LIG d   1       8.457  -7.323  -4.198  0.00  0.00     0.034 A 
BRANCH   8  16
ATOM     16  C   LIG d   1       4.486 -10.353  -4.366  0.00  0.00    -0.030 C 
ATOM     17  H   LIG d   1       4.716 -11.319  -4.813  0.00  0.00     0.031 H 
ATOM     18  H   LIG d   1       4.174  -9.657  -5.145  0.00  0.00     0.031 H 
BRANCH  16  19
ATOM     19  C   LIG d   1       3.356 -10.518  -3.347  0.00  0.00    -0.061 C 
ATOM     20  H   LIG d   1       2.811 -11.439  -3.556  0.00  0.00     0.023 H 
ATOM     21  H   LIG d   1       2.676  -9.669  -3.417  0.00  0.00     0.023 H 
ATOM     22  H   LIG d   1       3.776 -10.565  -2.342  0.00  0.00     0.023 H 
ENDBRANCH  16  19
ENDBRANCH   8  16
BRANCH  15  23
ATOM     23  C   LIG d   1       9.675  -6.804  -3.481  0.00  0.00    -0.033 C 
ATOM     24  H   LIG d   1      10.150  -6.029  -4.082  0.00  0.00     0.028 H 
ATOM     25  H   LIG d   1       9.380  -6.386  -2.518  0.00  0.00     0.028 H 
ATOM     26  H   LIG d   1      10.379  -7.622  -3.321  0.00  0.00     0.028 H 
ENDBRANCH  15  23
ENDBRANCH   1   2
BRANCH   1  27
ATOM     27  C   LIG d   1       8.261  -4.652  -6.385  0.00  0.00     0.165 C 
ATOM     28  H   LIG d   1       8.758  -4.222  -7.254  0.00  0.00     0.080 H 
ATOM     29  H   LIG d   1       7.215  -4.846  -6.624  0.00  0.00     0.080 H 
BRANCH  27  30
ATOM     30  C   LIG d   1       8.341  -3.688  -5.231  0.00  0.00     0.253 C 
ATOM     31  O   LIG d   1       9.412  -3.228  -4.897  0.00  0.00    -0.272 OA
ATOM     32  N   LIG d   1       7.221  -3.334  -4.570  0.00  0.00    -0.299 N 
ATOM     33  C   LIG d   1       7.283  -2.394  -3.441  0.00  0.00     0.015 C 
ATOM     34  C   LIG d   1       5.915  -3.877  -4.966  0.00  0.00     0.015 C 
ATOM     35  C   LIG d   1       6.298  -1.249  -3.699  0.00  0.00    -0.026 C 
ATOM     36  H   LIG d   1       7.010  -2.911  -2.520  0.00  0.00     0.046 H 
ATOM     37  H   LIG d   1       8.293  -1.995  -3.353  0.00  0.00     0.046 H 
ATOM     38  C   LIG d   1       4.905  -1.828  -3.960  0.00  0.00     0.038 C 
ATOM     39  H   LIG d   1       6.263  -0.597  -2.828  0.00  0.00     0.029 H 
ATOM     40  H   LIG d   1       6.624  -0.679  -4.569  0.00  0.00     0.029 H 
ATOM     41  C   LIG d   1       4.946  -2.720  -5.203  0.00  0.00    -0.026 C 
ATOM     42  H   LIG d   1       4.591  -2.419  -3.100  0.00  0.00     0.040 H 
ATOM     43  H   LIG d   1       3.949  -3.112  -5.402  0.00  0.00     0.029 H 
ATOM     44  H   LIG d   1       5.284  -2.135  -6.059  0.00  0.00     0.029 H 
ATOM     45  H   LIG d   1       6.023  -4.455  -5.884  0.00  0.00     0.046 H 
ATOM     46  H   LIG d   1       5.528  -4.516  -4.172  0.00  0.00     0.046 H 
BRANCH  38  47
ATOM     47  C   LIG d   1       3.928  -0.703  -4.181  0.00  0.00     0.214 C 
ATOM     48  O   LIG d   1       4.322   0.379  -4.561  0.00  0.00    -0.276 OA
ATOM     49  N   LIG d   1       2.614  -0.899  -3.955  0.00  0.00    -0.329 N 
ATOM     50  H   LIG d   1       2.297  -1.763  -3.650  0.00  0.00     0.145 HD
ATOM     51  H   LIG d   1       1.984  -0.174  -4.096  0.00  0.00     0.145 HD
ENDBRANCH  38  47
ENDBRANCH  27  30
ENDBRANCH   1  27
TORSDOF 7
ENDMDL
MODEL 9
REMARK VINA RESULT:      -5.9      6.492      9.148
REMARK  7 active torsions:
REMARK  status: ('A' for Active; 'I' for Inactive)
REMARK    1  A    between atoms: C_1  and  C_2 
REMARK    2  A    between atoms: C_2  and  C_3 
REMARK    3  A    between atoms: C_12  and  O_15 
REMARK    4  A    between atoms: C_13  and  C_14 
REMARK    5  A    between atoms: O_15  and  C_16 
REMARK    6  A    between atoms: C_16  and  C_17 
REMARK       I    between atoms: C_17  and  N_19 
REMARK    7  A    between atoms: C_22  and  C_25 
REMARK       I    between atoms: C_25  and  N_27 
ROOT
ATOM      1  O   LIG d   1       4.874   1.146 -10.487  0.00  0.00    -0.482 OA
ENDROOT
BRANCH   1   2
ATOM      2  C   LIG d   1       4.918   0.513  -9.287  0.00  0.00     0.128 A 
ATOM      3  C   LIG d   1       5.874  -0.475  -9.062  0.00  0.00    -0.019 A 
ATOM      4  C   LIG d   1       5.932  -1.120  -7.861  0.00  0.00    -0.047 A 
ATOM      5  H   LIG d   1       6.574  -0.731  -9.843  0.00  0.00     0.065 H 
ATOM      6  C   LIG d   1       5.025  -0.788  -6.849  0.00  0.00     0.021 A 
ATOM      7  H   LIG d   1       6.676  -1.885  -7.691  0.00  0.00     0.063 H 
ATOM      8  C   LIG d   1       5.063  -1.463  -5.550  0.00  0.00    -0.030 A 
ATOM      9  C   LIG d   1       4.052   0.205  -7.073  0.00  0.00     0.146 A 
ATOM     10  C   LIG d   1       4.159  -1.091  -4.607  0.00  0.00     0.027 A 
ATOM     11  C   LIG d   1       3.216  -0.085  -4.897  0.00  0.00     0.338 A 
ATOM     12  H   LIG d   1       4.163  -1.566  -3.636  0.00  0.00     0.069 H 
ATOM     13  O   LIG d   1       2.411   0.239  -4.041  0.00  0.00    -0.245 OA
ATOM     14  O   LIG d   1       3.182   0.527  -6.091  0.00  0.00    -0.422 OA
ATOM     15  C   LIG d   1       4.003   0.846  -8.300  0.00  0.00     0.034 A 
BRANCH   8  16
ATOM     16  C   LIG d   1       6.081  -2.537  -5.265  0.00  0.00    -0.030 C 
ATOM     17  H   LIG d   1       6.806  -2.575  -6.078  0.00  0.00     0.031 H 
ATOM     18  H   LIG d   1       5.579  -3.501  -5.182  0.00  0.00     0.031 H 
BRANCH  16  19
ATOM     19  C   LIG d   1       6.802  -2.221  -3.954  0.00  0.00    -0.061 C 
ATOM     20  H   LIG d   1       7.561  -1.459  -4.131  0.00  0.00     0.023 H 
ATOM     21  H   LIG d   1       7.278  -3.125  -3.573  0.00  0.00     0.023 H 
ATOM     22  H   LIG d   1       6.082  -1.854  -3.222  0.00  0.00     0.023 H 
ENDBRANCH  16  19
ENDBRANCH   8  16
BRANCH  15  23
ATOM     23  C   LIG d   1       2.973   1.915  -8.555  0.00  0.00    -0.033 C 
ATOM     24  H   LIG d   1       1.978   1.469  -8.557  0.00  0.00     0.028 H 
ATOM     25  H   LIG d   1       3.030   2.670  -7.770  0.00  0.00     0.028 H 
ATOM     26  H   LIG d   1       3.165   2.382  -9.521  0.00  0.00     0.028 H 
ENDBRANCH  15  23
ENDBRANCH   1   2
BRANCH   1  27
ATOM     27  C   LIG d   1       3.918   0.669 -11.438  0.00  0.00     0.165 C 
ATOM     28  H   LIG d   1       2.935   0.622 -10.971  0.00  0.00     0.080 H 
ATOM     29  H   LIG d   1       3.885   1.348 -12.290  0.00  0.00     0.080 H 
BRANCH  27  30
ATOM     30  C   LIG d   1       4.320  -0.705 -11.906  0.00  0.00     0.253 C 
ATOM     31  O   LIG d   1       5.256  -0.839 -12.664  0.00  0.00    -0.272 OA
ATOM     32  N   LIG d   1       3.638  -1.788 -11.479  0.00  0.00    -0.299 N 
ATOM     33  C   LIG d   1       4.018  -3.135 -11.927  0.00  0.00     0.015 C 
ATOM     34  C   LIG d   1       2.505  -1.642 -10.556  0.00  0.00     0.015 C 
ATOM     35  C   LIG d   1       4.231  -4.021 -10.695  0.00  0.00    -0.026 C 
ATOM     36  H   LIG d   1       3.221  -3.553 -12.544  0.00  0.00     0.046 H 
ATOM     37  H   LIG d   1       4.941  -3.082 -12.504  0.00  0.00     0.046 H 
ATOM     38  C   LIG d   1       2.978  -3.979  -9.817  0.00  0.00     0.038 C 
ATOM     39  H   LIG d   1       4.419  -5.046 -11.013  0.00  0.00     0.029 H 
ATOM     40  H   LIG d   1       5.085  -3.653 -10.127  0.00  0.00     0.029 H 
ATOM     41  C   LIG d   1       2.732  -2.544  -9.344  0.00  0.00    -0.026 C 
ATOM     42  H   LIG d   1       2.119  -4.323 -10.394  0.00  0.00     0.040 H 
ATOM     43  H   LIG d   1       1.853  -2.520  -8.700  0.00  0.00     0.029 H 
ATOM     44  H   LIG d   1       3.600  -2.191  -8.788  0.00  0.00     0.029 H 
ATOM     45  H   LIG d   1       2.431  -0.605 -10.229  0.00  0.00     0.046 H 
ATOM     46  H   LIG d   1       1.583  -1.936 -11.059  0.00  0.00     0.046 H 
BRANCH  38  47
ATOM     47  C   LIG d   1       3.172  -4.876  -8.622  0.00  0.00     0.214 C 
ATOM     48  O   LIG d   1       2.994  -6.071  -8.725  0.00  0.00    -0.276 OA
ATOM     49  N   LIG d   1       3.544  -4.350  -7.439  0.00  0.00    -0.329 N 
ATOM     50  H   LIG d   1       3.688  -3.394  -7.356  0.00  0.00     0.145 HD
ATOM     51  H   LIG d   1       3.669  -4.927  -6.669  0.00  0.00     0.145 HD
ENDBRANCH  38  47
ENDBRANCH  27  30
ENDBRANCH   1  27
TORSDOF 7
ENDMDL
