MODEL 1
REMARK VINA RESULT:      -7.1      0.000      0.000
REMARK  8 active torsions:
REMARK  status: ('A' for Active; 'I' for Inactive)
REMARK    1  A    between atoms: C_1  and  O_2 
REMARK    2  A    between atoms: O_2  and  C_3 
REMARK    3  A    between atoms: C_7  and  C_11 
REMARK    4  A    between atoms: C_8  and  O_9 
REMARK    5  A    between atoms: O_9  and  C_10 
REMARK    6  A    between atoms: C_18  and  O_22 
REMARK    7  A    between atoms: O_22  and  C_23 
REMARK    8  A    between atoms: C_23  and  C_25 
ROOT
ATOM      1  C   LIG d   1       4.916  -4.047  -4.412  0.00  0.00    -0.005 C 
ATOM      2  C   LIG d   1       4.521  -4.170  -5.705  0.00  0.00     0.176 A 
ATOM      3  C   LIG d   1       4.238  -5.430  -6.409  0.00  0.00     0.232 A 
ATOM      4  O   LIG d   1       4.304  -6.564  -5.967  0.00  0.00    -0.283 OA
ATOM      5  C   LIG d   1       3.851  -5.014  -7.769  0.00  0.00     0.068 A 
ATOM      6  C   LIG d   1       3.464  -5.719  -8.910  0.00  0.00    -0.044 A 
ATOM      7  C   LIG d   1       3.163  -5.044 -10.058  0.00  0.00    -0.018 A 
ATOM      8  C   LIG d   1       3.240  -3.653 -10.093  0.00  0.00     0.136 A 
ATOM      9  C   LIG d   1       3.623  -2.940  -8.969  0.00  0.00     0.024 A 
ATOM     10  C   LIG d   1       3.933  -3.612  -7.792  0.00  0.00     0.143 A 
ATOM     11  O   LIG d   1       4.323  -3.158  -6.582  0.00  0.00    -0.451 OA
ATOM     12  H   LIG d   1       5.157  -4.926  -3.833  0.00  0.00     0.066 H 
ATOM     13  H   LIG d   1       3.402  -6.797  -8.884  0.00  0.00     0.063 H 
ATOM     14  H   LIG d   1       2.863  -5.588 -10.941  0.00  0.00     0.065 H 
ATOM     15  H   LIG d   1       3.680  -1.863  -9.007  0.00  0.00     0.069 H 
ENDROOT
BRANCH   1  16
ATOM     16  C   LIG d   1       5.016  -2.717  -3.800  0.00  0.00     0.024 A 
ATOM     17  C   LIG d   1       3.941  -2.195  -3.069  0.00  0.00    -0.051 A 
ATOM     18  C   LIG d   1       4.040  -0.945  -2.496  0.00  0.00    -0.058 A 
ATOM     19  H   LIG d   1       3.035  -2.771  -2.954  0.00  0.00     0.062 H 
ATOM     20  C   LIG d   1       5.199  -0.200  -2.638  0.00  0.00    -0.016 A 
ATOM     21  H   LIG d   1       3.212  -0.547  -1.930  0.00  0.00     0.062 H 
ATOM     22  C   LIG d   1       6.272  -0.701  -3.358  0.00  0.00     0.162 A 
ATOM     23  H   LIG d   1       5.267   0.778  -2.186  0.00  0.00     0.066 H 
ATOM     24  C   LIG d   1       6.189  -1.960  -3.943  0.00  0.00     0.169 A 
BRANCH  22  25
ATOM     25  O   LIG d   1       7.405   0.038  -3.493  0.00  0.00    -0.491 OA
BRANCH  25  26
ATOM     26  C   LIG d   1       7.242   1.430  -3.770  0.00  0.00     0.079 C 
ATOM     27  H   LIG d   1       8.157   1.962  -3.507  0.00  0.00     0.066 H 
ATOM     28  H   LIG d   1       7.034   1.568  -4.831  0.00  0.00     0.066 H 
ATOM     29  H   LIG d   1       6.413   1.823  -3.183  0.00  0.00     0.066 H 
ENDBRANCH  25  26
ENDBRANCH  22  25
BRANCH  24  30
ATOM     30  O   LIG d   1       7.239  -2.454  -4.650  0.00  0.00    -0.491 OA
BRANCH  30  31
ATOM     31  C   LIG d   1       8.237  -3.166  -3.916  0.00  0.00     0.079 C 
ATOM     32  H   LIG d   1       7.827  -3.480  -2.956  0.00  0.00     0.066 H 
ATOM     33  H   LIG d   1       8.549  -4.043  -4.483  0.00  0.00     0.066 H 
ATOM     34  H   LIG d   1       9.097  -2.517  -3.749  0.00  0.00     0.066 H 
ENDBRANCH  30  31
ENDBRANCH  24  30
ENDBRANCH   1  16
BRANCH   8  35
ATOM     35  O   LIG d   1       2.939  -2.992 -11.240  0.00  0.00    -0.422 OA
BRANCH  35  36
ATOM     36  C   LIG d   1       2.101  -1.940 -11.138  0.00  0.00     0.344 C 
ATOM     37  O   LIG d   1       0.930  -2.065 -11.436  0.00  0.00    -0.244 OA
BRANCH  36  38
ATOM     38  C   LIG d   1       2.608  -0.637 -10.662  0.00  0.00     0.059 A 
ATOM     39  C   LIG d   1       2.031  -0.026  -9.546  0.00  0.00    -0.046 A 
ATOM     40  C   LIG d   1       2.507   1.191  -9.107  0.00  0.00    -0.043 A 
ATOM     41  H   LIG d   1       1.212  -0.505  -9.028  0.00  0.00     0.063 H 
ATOM     42  C   LIG d   1       3.556   1.807  -9.769  0.00  0.00     0.041 A 
ATOM     43  H   LIG d   1       2.062   1.665  -8.243  0.00  0.00     0.063 H 
ATOM     44  C   LIG d   1       4.133   1.206 -10.876  0.00  0.00    -0.043 A 
ATOM     45 CL   LIG d   1       4.150   3.339  -9.210  0.00  0.00    -0.084 Cl
ATOM     46  C   LIG d   1       3.668  -0.014 -11.322  0.00  0.00    -0.046 A 
ATOM     47  H   LIG d   1       4.950   1.691 -11.389  0.00  0.00     0.063 H 
ATOM     48  H   LIG d   1       4.121  -0.483 -12.183  0.00  0.00     0.063 H 
ENDBRANCH  36  38
ENDBRANCH  35  36
ENDBRANCH   8  35
TORSDOF 8
ENDMDL
MODEL 2
REMARK VINA RESULT:      -7.0      4.692      7.960
REMARK  8 active torsions:
REMARK  status: ('A' for Active; 'I' for Inactive)
REMARK    1  A    between atoms: C_1  and  O_2 
REMARK    2  A    between atoms: O_2  and  C_3 
REMARK    3  A    between atoms: C_7  and  C_11 
REMARK    4  A    between atoms: C_8  and  O_9 
REMARK    5  A    between atoms: O_9  and  C_10 
REMARK    6  A    between atoms: C_18  and  O_22 
REMARK    7  A    between atoms: O_22  and  C_23 
REMARK    8  A    between atoms: C_23  and  C_25 
ROOT
ATOM      1  C   LIG d   1       6.755  -1.945  -3.726  0.00  0.00    -0.005 C 
ATOM      2  C   LIG d   1       7.003  -3.175  -4.244  0.00  0.00     0.176 A 
ATOM      3  C   LIG d   1       8.296  -3.874  -4.237  0.00  0.00     0.232 A 
ATOM      4  O   LIG d   1       9.354  -3.483  -3.774  0.00  0.00    -0.283 OA
ATOM      5  C   LIG d   1       8.027  -5.156  -4.913  0.00  0.00     0.068 A 
ATOM      6  C   LIG d   1       8.824  -6.259  -5.222  0.00  0.00    -0.044 A 
ATOM      7  C   LIG d   1       8.283  -7.328  -5.876  0.00  0.00    -0.018 A 
ATOM      8  C   LIG d   1       6.936  -7.322  -6.235  0.00  0.00     0.136 A 
ATOM      9  C   LIG d   1       6.133  -6.234  -5.935  0.00  0.00     0.024 A 
ATOM     10  C   LIG d   1       6.668  -5.137  -5.269  0.00  0.00     0.143 A 
ATOM     11  O   LIG d   1       6.108  -3.976  -4.867  0.00  0.00    -0.451 OA
ATOM     12  H   LIG d   1       7.569  -1.340  -3.354  0.00  0.00     0.066 H 
ATOM     13  H   LIG d   1       9.868  -6.266  -4.944  0.00  0.00     0.063 H 
ATOM     14  H   LIG d   1       8.899  -8.183  -6.116  0.00  0.00     0.065 H 
ATOM     15  H   LIG d   1       5.091  -6.239  -6.217  0.00  0.00     0.069 H 
ENDROOT
BRANCH   1  16
ATOM     16  C   LIG d   1       5.379  -1.435  -3.672  0.00  0.00     0.024 A 
ATOM     17  C   LIG d   1       4.494  -1.902  -2.692  0.00  0.00    -0.051 A 
ATOM     18  C   LIG d   1       3.203  -1.421  -2.645  0.00  0.00    -0.058 A 
ATOM     19  H   LIG d   1       4.822  -2.639  -1.973  0.00  0.00     0.062 H 
ATOM     20  C   LIG d   1       2.774  -0.477  -3.563  0.00  0.00    -0.016 A 
ATOM     21  H   LIG d   1       2.524  -1.779  -1.886  0.00  0.00     0.062 H 
ATOM     22  C   LIG d   1       3.637  -0.005  -4.539  0.00  0.00     0.162 A 
ATOM     23  H   LIG d   1       1.761  -0.106  -3.518  0.00  0.00     0.066 H 
ATOM     24  C   LIG d   1       4.943  -0.479  -4.601  0.00  0.00     0.169 A 
BRANCH  22  25
ATOM     25  O   LIG d   1       3.207   0.922  -5.437  0.00  0.00    -0.491 OA
BRANCH  25  26
ATOM     26  C   LIG d   1       2.551   0.434  -6.608  0.00  0.00     0.079 C 
ATOM     27  H   LIG d   1       2.760  -0.630  -6.725  0.00  0.00     0.066 H 
ATOM     28  H   LIG d   1       1.476   0.585  -6.511  0.00  0.00     0.066 H 
ATOM     29  H   LIG d   1       2.916   0.973  -7.482  0.00  0.00     0.066 H 
ENDBRANCH  25  26
ENDBRANCH  22  25
BRANCH  24  30
ATOM     30  O   LIG d   1       5.791  -0.018  -5.557  0.00  0.00    -0.491 OA
BRANCH  30  31
ATOM     31  C   LIG d   1       5.846  -0.751  -6.783  0.00  0.00     0.079 C 
ATOM     32  H   LIG d   1       6.884  -0.975  -7.026  0.00  0.00     0.066 H 
ATOM     33  H   LIG d   1       5.288  -1.682  -6.676  0.00  0.00     0.066 H 
ATOM     34  H   LIG d   1       5.406  -0.154  -7.582  0.00  0.00     0.066 H 
ENDBRANCH  30  31
ENDBRANCH  24  30
ENDBRANCH   1  16
BRANCH   8  35
ATOM     35  O   LIG d   1       6.408  -8.390  -6.885  0.00  0.00    -0.422 OA
BRANCH  35  36
ATOM     36  C   LIG d   1       5.359  -9.003  -6.302  0.00  0.00     0.344 C 
ATOM     37  O   LIG d   1       4.265  -8.968  -6.829  0.00  0.00    -0.244 OA
BRANCH  36  38
ATOM     38  C   LIG d   1       5.540  -9.719  -5.023  0.00  0.00     0.059 A 
ATOM     39  C   LIG d   1       6.675 -10.507  -4.815  0.00  0.00    -0.046 A 
ATOM     40  C   LIG d   1       6.837 -11.174  -3.619  0.00  0.00    -0.043 A 
ATOM     41  H   LIG d   1       7.423 -10.595  -5.589  0.00  0.00     0.063 H 
ATOM     42  C   LIG d   1       5.879 -11.063  -2.625  0.00  0.00     0.041 A 
ATOM     43  H   LIG d   1       7.715 -11.784  -3.457  0.00  0.00     0.063 H 
ATOM     44  C   LIG d   1       4.752 -10.283  -2.825  0.00  0.00    -0.043 A 
ATOM     45 CL   LIG d   1       6.092 -11.906  -1.122  0.00  0.00    -0.084 Cl
ATOM     46  C   LIG d   1       4.581  -9.607  -4.015  0.00  0.00    -0.046 A 
ATOM     47  H   LIG d   1       4.008 -10.201  -2.046  0.00  0.00     0.063 H 
ATOM     48  H   LIG d   1       3.703  -8.996  -4.168  0.00  0.00     0.063 H 
ENDBRANCH  36  38
ENDBRANCH  35  36
ENDBRANCH   8  35
TORSDOF 8
ENDMDL
MODEL 3
REMARK VINA RESULT:      -6.9      3.203      5.072
REMARK  8 active torsions:
REMARK  status: ('A' for Active; 'I' for Inactive)
REMARK    1  A    between atoms: C_1  and  O_2 
REMARK    2  A    between atoms: O_2  and  C_3 
REMARK    3  A    between atoms: C_7  and  C_11 
REMARK    4  A    between atoms: C_8  and  O_9 
REMARK    5  A    between atoms: O_9  and  C_10 
REMARK    6  A    between atoms: C_18  and  O_22 
REMARK    7  A    between atoms: O_22  and  C_23 
REMARK    8  A    between atoms: C_23  and  C_25 
ROOT
ATOM      1  C   LIG d   1       3.208   0.680  -5.694  0.00  0.00    -0.005 C 
ATOM      2  C   LIG d   1       3.121   0.157  -6.944  0.00  0.00     0.176 A 
ATOM      3  C   LIG d   1       2.780   0.893  -8.170  0.00  0.00     0.232 A 
ATOM      4  O   LIG d   1       2.522   2.078  -8.282  0.00  0.00    -0.283 OA
ATOM      5  C   LIG d   1       2.826  -0.125  -9.236  0.00  0.00     0.068 A 
ATOM      6  C   LIG d   1       2.607  -0.075 -10.613  0.00  0.00    -0.044 A 
ATOM      7  C   LIG d   1       2.719  -1.212 -11.362  0.00  0.00    -0.018 A 
ATOM      8  C   LIG d   1       3.052  -2.420 -10.754  0.00  0.00     0.136 A 
ATOM      9  C   LIG d   1       3.272  -2.484  -9.388  0.00  0.00     0.024 A 
ATOM     10  C   LIG d   1       3.163  -1.337  -8.611  0.00  0.00     0.143 A 
ATOM     11  O   LIG d   1       3.326  -1.137  -7.286  0.00  0.00    -0.451 OA
ATOM     12  H   LIG d   1       2.911   1.702  -5.513  0.00  0.00     0.066 H 
ATOM     13  H   LIG d   1       2.349   0.861 -11.086  0.00  0.00     0.063 H 
ATOM     14  H   LIG d   1       2.550  -1.175 -12.428  0.00  0.00     0.065 H 
ATOM     15  H   LIG d   1       3.530  -3.426  -8.927  0.00  0.00     0.069 H 
ENDROOT
BRANCH   1  16
ATOM     16  C   LIG d   1       3.706  -0.145  -4.587  0.00  0.00     0.024 A 
ATOM     17  C   LIG d   1       2.806  -0.810  -3.743  0.00  0.00    -0.051 A 
ATOM     18  C   LIG d   1       3.278  -1.583  -2.705  0.00  0.00    -0.058 A 
ATOM     19  H   LIG d   1       1.742  -0.716  -3.907  0.00  0.00     0.062 H 
ATOM     20  C   LIG d   1       4.640  -1.708  -2.489  0.00  0.00    -0.016 A 
ATOM     21  H   LIG d   1       2.582  -2.097  -2.059  0.00  0.00     0.062 H 
ATOM     22  C   LIG d   1       5.545  -1.058  -3.313  0.00  0.00     0.162 A 
ATOM     23  H   LIG d   1       5.001  -2.317  -1.673  0.00  0.00     0.066 H 
ATOM     24  C   LIG d   1       5.086  -0.274  -4.366  0.00  0.00     0.169 A 
BRANCH  22  25
ATOM     25  O   LIG d   1       6.880  -1.187  -3.094  0.00  0.00    -0.491 OA
BRANCH  25  26
ATOM     26  C   LIG d   1       7.483  -2.427  -3.470  0.00  0.00     0.079 C 
ATOM     27  H   LIG d   1       6.938  -3.251  -3.007  0.00  0.00     0.066 H 
ATOM     28  H   LIG d   1       7.449  -2.533  -4.554  0.00  0.00     0.066 H 
ATOM     29  H   LIG d   1       8.519  -2.445  -3.135  0.00  0.00     0.066 H 
ENDBRANCH  25  26
ENDBRANCH  22  25
BRANCH  24  30
ATOM     30  O   LIG d   1       5.970   0.365  -5.176  0.00  0.00    -0.491 OA
BRANCH  30  31
ATOM     31  C   LIG d   1       6.557  -0.402  -6.229  0.00  0.00     0.079 C 
ATOM     32  H   LIG d   1       6.128  -0.096  -7.183  0.00  0.00     0.066 H 
ATOM     33  H   LIG d   1       7.634  -0.235  -6.243  0.00  0.00     0.066 H 
ATOM     34  H   LIG d   1       6.355  -1.461  -6.062  0.00  0.00     0.066 H 
ENDBRANCH  30  31
ENDBRANCH  24  30
ENDBRANCH   1  16
BRANCH   8  35
ATOM     35  O   LIG d   1       3.161  -3.545 -11.507  0.00  0.00    -0.422 OA
BRANCH  35  36
ATOM     36  C   LIG d   1       2.040  -3.988 -12.109  0.00  0.00     0.344 C 
ATOM     37  O   LIG d   1       1.841  -3.740 -13.282  0.00  0.00    -0.244 OA
BRANCH  36  38
ATOM     38  C   LIG d   1       1.053  -4.777 -11.344  0.00  0.00     0.059 A 
ATOM     39  C   LIG d   1      -0.208  -4.243 -11.066  0.00  0.00    -0.046 A 
ATOM     40  C   LIG d   1      -1.123  -4.984 -10.349  0.00  0.00    -0.043 A 
ATOM     41  H   LIG d   1      -0.464  -3.252 -11.410  0.00  0.00     0.063 H 
ATOM     42  C   LIG d   1      -0.796  -6.255  -9.907  0.00  0.00     0.041 A 
ATOM     43  H   LIG d   1      -2.099  -4.572 -10.134  0.00  0.00     0.063 H 
ATOM     44  C   LIG d   1       0.452  -6.790 -10.180  0.00  0.00    -0.043 A 
ATOM     45 CL   LIG d   1      -1.956  -7.181  -9.006  0.00  0.00    -0.084 Cl
ATOM     46  C   LIG d   1       1.375  -6.060 -10.899  0.00  0.00    -0.046 A 
ATOM     47  H   LIG d   1       0.702  -7.781  -9.831  0.00  0.00     0.063 H 
ATOM     48  H   LIG d   1       2.347  -6.480 -11.114  0.00  0.00     0.063 H 
ENDBRANCH  36  38
ENDBRANCH  35  36
ENDBRANCH   8  35
TORSDOF 8
ENDMDL
MODEL 4
REMARK VINA RESULT:      -6.8      4.136      8.569
REMARK  8 active torsions:
REMARK  status: ('A' for Active; 'I' for Inactive)
REMARK    1  A    between atoms: C_1  and  O_2 
REMARK    2  A    between atoms: O_2  and  C_3 
REMARK    3  A    between atoms: C_7  and  C_11 
REMARK    4  A    between atoms: C_8  and  O_9 
REMARK    5  A    between atoms: O_9  and  C_10 
REMARK    6  A    between atoms: C_18  and  O_22 
REMARK    7  A    between atoms: O_22  and  C_23 
REMARK    8  A    between atoms: C_23  and  C_25 
ROOT
ATOM      1  C   LIG d   1      -0.022  -4.915 -11.767  0.00  0.00    -0.005 C 
ATOM      2  C   LIG d   1       0.669  -3.787 -11.466  0.00  0.00     0.176 A 
ATOM      3  C   LIG d   1       1.688  -3.143 -12.308  0.00  0.00     0.232 A 
ATOM      4  O   LIG d   1       2.084  -3.498 -13.404  0.00  0.00    -0.283 OA
ATOM      5  C   LIG d   1       2.120  -1.967 -11.530  0.00  0.00     0.068 A 
ATOM      6  C   LIG d   1       3.049  -0.953 -11.769  0.00  0.00    -0.044 A 
ATOM      7  C   LIG d   1       3.243   0.026 -10.837  0.00  0.00    -0.018 A 
ATOM      8  C   LIG d   1       2.514   0.016  -9.649  0.00  0.00     0.136 A 
ATOM      9  C   LIG d   1       1.590  -0.984  -9.399  0.00  0.00     0.024 A 
ATOM     10  C   LIG d   1       1.380  -1.988 -10.336  0.00  0.00     0.143 A 
ATOM     11  O   LIG d   1       0.552  -3.055 -10.333  0.00  0.00    -0.451 OA
ATOM     12  H   LIG d   1       0.233  -5.488 -12.647  0.00  0.00     0.066 H 
ATOM     13  H   LIG d   1       3.613  -0.943 -12.690  0.00  0.00     0.063 H 
ATOM     14  H   LIG d   1       3.961   0.812 -11.021  0.00  0.00     0.065 H 
ATOM     15  H   LIG d   1       1.031  -0.983  -8.475  0.00  0.00     0.069 H 
ENDROOT
BRANCH   1  16
ATOM     16  C   LIG d   1      -1.117  -5.359 -10.897  0.00  0.00     0.024 A 
ATOM     17  C   LIG d   1      -0.865  -6.252  -9.847  0.00  0.00    -0.051 A 
ATOM     18  C   LIG d   1      -1.896  -6.666  -9.032  0.00  0.00    -0.058 A 
ATOM     19  H   LIG d   1       0.138  -6.616  -9.676  0.00  0.00     0.062 H 
ATOM     20  C   LIG d   1      -3.184  -6.205  -9.244  0.00  0.00    -0.016 A 
ATOM     21  H   LIG d   1      -1.697  -7.351  -8.221  0.00  0.00     0.062 H 
ATOM     22  C   LIG d   1      -3.452  -5.321 -10.278  0.00  0.00     0.162 A 
ATOM     23  H   LIG d   1      -3.986  -6.534  -8.601  0.00  0.00     0.066 H 
ATOM     24  C   LIG d   1      -2.423  -4.893 -11.110  0.00  0.00     0.169 A 
BRANCH  22  25
ATOM     25  O   LIG d   1      -4.720  -4.873 -10.479  0.00  0.00    -0.491 OA
BRANCH  25  26
ATOM     26  C   LIG d   1      -5.158  -3.781  -9.669  0.00  0.00     0.079 C 
ATOM     27  H   LIG d   1      -5.861  -4.144  -8.918  0.00  0.00     0.066 H 
ATOM     28  H   LIG d   1      -4.298  -3.330  -9.173  0.00  0.00     0.066 H 
ATOM     29  H   LIG d   1      -5.649  -3.037 -10.295  0.00  0.00     0.066 H 
ENDBRANCH  25  26
ENDBRANCH  22  25
BRANCH  24  30
ATOM     30  O   LIG d   1      -2.682  -4.028 -12.125  0.00  0.00    -0.491 OA
BRANCH  30  31
ATOM     31  C   LIG d   1      -3.131  -4.591 -13.359  0.00  0.00     0.079 C 
ATOM     32  H   LIG d   1      -3.978  -4.017 -13.734  0.00  0.00     0.066 H 
ATOM     33  H   LIG d   1      -2.320  -4.562 -14.088  0.00  0.00     0.066 H 
ATOM     34  H   LIG d   1      -3.436  -5.625 -13.196  0.00  0.00     0.066 H 
ENDBRANCH  30  31
ENDBRANCH  24  30
ENDBRANCH   1  16
BRANCH   8  35
ATOM     35  O   LIG d   1       2.715   0.994  -8.729  0.00  0.00    -0.422 OA
BRANCH  35  36
ATOM     36  C   LIG d   1       3.802   0.879  -7.941  0.00  0.00     0.344 C 
ATOM     37  O   LIG d   1       4.872   1.315  -8.315  0.00  0.00    -0.244 OA
BRANCH  36  38
ATOM     38  C   LIG d   1       3.692   0.223  -6.622  0.00  0.00     0.059 A 
ATOM     39  C   LIG d   1       4.600  -0.774  -6.257  0.00  0.00    -0.046 A 
ATOM     40  C   LIG d   1       4.490  -1.383  -5.025  0.00  0.00    -0.043 A 
ATOM     41  H   LIG d   1       5.385  -1.068  -6.938  0.00  0.00     0.063 H 
ATOM     42  C   LIG d   1       3.485  -1.007  -4.150  0.00  0.00     0.041 A 
ATOM     43  H   LIG d   1       5.192  -2.154  -4.740  0.00  0.00     0.063 H 
ATOM     44  C   LIG d   1       2.582  -0.019  -4.506  0.00  0.00    -0.043 A 
ATOM     45 CL   LIG d   1       3.355  -1.779  -2.600  0.00  0.00    -0.084 Cl
ATOM     46  C   LIG d   1       2.683   0.601  -5.734  0.00  0.00    -0.046 A 
ATOM     47  H   LIG d   1       1.799   0.269  -3.820  0.00  0.00     0.063 H 
ATOM     48  H   LIG d   1       1.981   1.374  -6.009  0.00  0.00     0.063 H 
ENDBRANCH  36  38
ENDBRANCH  35  36
ENDBRANCH   8  35
TORSDOF 8
ENDMDL
MODEL 5
REMARK VINA RESULT:      -6.7      4.700      7.984
REMARK  8 active torsions:
REMARK  status: ('A' for Active; 'I' for Inactive)
REMARK    1  A    between atoms: C_1  and  O_2 
REMARK    2  A    between atoms: O_2  and  C_3 
REMARK    3  A    between atoms: C_7  and  C_11 
REMARK    4  A    between atoms: C_8  and  O_9 
REMARK    5  A    between atoms: O_9  and  C_10 
REMARK    6  A    between atoms: C_18  and  O_22 
REMARK    7  A    between atoms: O_22  and  C_23 
REMARK    8  A    between atoms: C_23  and  C_25 
ROOT
ATOM      1  C   LIG d   1       4.493  -2.362  -6.453  0.00  0.00    -0.005 C 
ATOM      2  C   LIG d   1       4.483  -3.710  -6.611  0.00  0.00     0.176 A 
ATOM      3  C   LIG d   1       4.001  -4.441  -7.793  0.00  0.00     0.232 A 
ATOM      4  O   LIG d   1       3.536  -3.977  -8.819  0.00  0.00    -0.283 OA
ATOM      5  C   LIG d   1       4.211  -5.862  -7.459  0.00  0.00     0.068 A 
ATOM      6  C   LIG d   1       3.967  -7.050  -8.148  0.00  0.00    -0.044 A 
ATOM      7  C   LIG d   1       4.268  -8.248  -7.566  0.00  0.00    -0.018 A 
ATOM      8  C   LIG d   1       4.818  -8.287  -6.286  0.00  0.00     0.136 A 
ATOM      9  C   LIG d   1       5.064  -7.115  -5.591  0.00  0.00     0.024 A 
ATOM     10  C   LIG d   1       4.764  -5.887  -6.168  0.00  0.00     0.143 A 
ATOM     11  O   LIG d   1       4.907  -4.625  -5.709  0.00  0.00    -0.451 OA
ATOM     12  H   LIG d   1       4.023  -1.727  -7.189  0.00  0.00     0.066 H 
ATOM     13  H   LIG d   1       3.543  -7.022  -9.141  0.00  0.00     0.063 H 
ATOM     14  H   LIG d   1       4.080  -9.169  -8.099  0.00  0.00     0.065 H 
ATOM     15  H   LIG d   1       5.490  -7.156  -4.599  0.00  0.00     0.069 H 
ENDROOT
BRANCH   1  16
ATOM     16  C   LIG d   1       5.144  -1.766  -5.280  0.00  0.00     0.024 A 
ATOM     17  C   LIG d   1       6.168  -2.454  -4.617  0.00  0.00    -0.051 A 
ATOM     18  C   LIG d   1       6.776  -1.891  -3.516  0.00  0.00    -0.058 A 
ATOM     19  H   LIG d   1       6.482  -3.426  -4.969  0.00  0.00     0.062 H 
ATOM     20  C   LIG d   1       6.380  -0.646  -3.059  0.00  0.00    -0.016 A 
ATOM     21  H   LIG d   1       7.568  -2.422  -3.010  0.00  0.00     0.062 H 
ATOM     22  C   LIG d   1       5.368   0.049  -3.702  0.00  0.00     0.162 A 
ATOM     23  H   LIG d   1       6.862  -0.212  -2.195  0.00  0.00     0.066 H 
ATOM     24  C   LIG d   1       4.744  -0.504  -4.814  0.00  0.00     0.169 A 
BRANCH  22  25
ATOM     25  O   LIG d   1       4.985   1.272  -3.246  0.00  0.00    -0.491 OA
BRANCH  25  26
ATOM     26  C   LIG d   1       4.405   1.324  -1.941  0.00  0.00     0.079 C 
ATOM     27  H   LIG d   1       5.160   1.638  -1.220  0.00  0.00     0.066 H 
ATOM     28  H   LIG d   1       3.581   2.038  -1.938  0.00  0.00     0.066 H 
ATOM     29  H   LIG d   1       4.032   0.337  -1.668  0.00  0.00     0.066 H 
ENDBRANCH  25  26
ENDBRANCH  22  25
BRANCH  24  30
ATOM     30  O   LIG d   1       3.751   0.174  -5.447  0.00  0.00    -0.491 OA
BRANCH  30  31
ATOM     31  C   LIG d   1       2.461   0.158  -4.833  0.00  0.00     0.079 C 
ATOM     32  H   LIG d   1       2.569  -0.025  -3.764  0.00  0.00     0.066 H 
ATOM     33  H   LIG d   1       1.971   1.119  -4.990  0.00  0.00     0.066 H 
ATOM     34  H   LIG d   1       1.857  -0.634  -5.278  0.00  0.00     0.066 H 
ENDBRANCH  30  31
ENDBRANCH  24  30
ENDBRANCH   1  16
BRANCH   8  35
ATOM     35  O   LIG d   1       5.113  -9.483  -5.717  0.00  0.00    -0.422 OA
BRANCH  35  36
ATOM     36  C   LIG d   1       4.758  -9.651  -4.427  0.00  0.00     0.344 C 
ATOM     37  O   LIG d   1       3.585  -9.633  -4.113  0.00  0.00    -0.244 OA
BRANCH  36  38
ATOM     38  C   LIG d   1       5.796  -9.858  -3.397  0.00  0.00     0.059 A 
ATOM     39  C   LIG d   1       5.492 -10.558  -2.227  0.00  0.00    -0.046 A 
ATOM     40  C   LIG d   1       6.465 -10.746  -1.268  0.00  0.00    -0.043 A 
ATOM     41  H   LIG d   1       4.497 -10.949  -2.072  0.00  0.00     0.063 H 
ATOM     42  C   LIG d   1       7.741 -10.246  -1.465  0.00  0.00     0.041 A 
ATOM     43  H   LIG d   1       6.232 -11.288  -0.363  0.00  0.00     0.063 H 
ATOM     44  C   LIG d   1       8.049  -9.551  -2.623  0.00  0.00    -0.043 A 
ATOM     45 CL   LIG d   1       8.961 -10.488  -0.253  0.00  0.00    -0.084 Cl
ATOM     46  C   LIG d   1       7.085  -9.360  -3.591  0.00  0.00    -0.046 A 
ATOM     47  H   LIG d   1       9.045  -9.162  -2.770  0.00  0.00     0.063 H 
ATOM     48  H   LIG d   1       7.327  -8.821  -4.496  0.00  0.00     0.063 H 
ENDBRANCH  36  38
ENDBRANCH  35  36
ENDBRANCH   8  35
TORSDOF 8
ENDMDL
MODEL 6
REMARK VINA RESULT:      -6.7      3.865      8.437
REMARK  8 active torsions:
REMARK  status: ('A' for Active; 'I' for Inactive)
REMARK    1  A    between atoms: C_1  and  O_2 
REMARK    2  A    between atoms: O_2  and  C_3 
REMARK    3  A    between atoms: C_7  and  C_11 
REMARK    4  A    between atoms: C_8  and  O_9 
REMARK    5  A    between atoms: O_9  and  C_10 
REMARK    6  A    between atoms: C_18  and  O_22 
REMARK    7  A    between atoms: O_22  and  C_23 
REMARK    8  A    between atoms: C_23  and  C_25 
ROOT
ATOM      1  C   LIG d   1      -0.564  -4.397 -12.048  0.00  0.00    -0.005 C 
ATOM      2  C   LIG d   1       0.317  -3.448 -11.638  0.00  0.00     0.176 A 
ATOM      3  C   LIG d   1       0.735  -2.265 -12.403  0.00  0.00     0.232 A 
ATOM      4  O   LIG d   1       0.374  -1.930 -13.518  0.00  0.00    -0.283 OA
ATOM      5  C   LIG d   1       1.687  -1.570 -11.517  0.00  0.00     0.068 A 
ATOM      6  C   LIG d   1       2.431  -0.397 -11.647  0.00  0.00    -0.044 A 
ATOM      7  C   LIG d   1       3.255   0.003 -10.633  0.00  0.00    -0.018 A 
ATOM      8  C   LIG d   1       3.353  -0.758  -9.470  0.00  0.00     0.136 A 
ATOM      9  C   LIG d   1       2.622  -1.925  -9.328  0.00  0.00     0.024 A 
ATOM     10  C   LIG d   1       1.779  -2.346 -10.349  0.00  0.00     0.143 A 
ATOM     11  O   LIG d   1       0.973  -3.424 -10.454  0.00  0.00    -0.451 OA
ATOM     12  H   LIG d   1      -0.942  -4.383 -13.060  0.00  0.00     0.066 H 
ATOM     13  H   LIG d   1       2.354   0.195 -12.547  0.00  0.00     0.063 H 
ATOM     14  H   LIG d   1       3.830   0.912 -10.732  0.00  0.00     0.065 H 
ATOM     15  H   LIG d   1       2.706  -2.507  -8.422  0.00  0.00     0.069 H 
ENDROOT
BRANCH   1  16
ATOM     16  C   LIG d   1      -1.001  -5.444 -11.117  0.00  0.00     0.024 A 
ATOM     17  C   LIG d   1      -1.981  -5.167 -10.156  0.00  0.00    -0.051 A 
ATOM     18  C   LIG d   1      -2.389  -6.153  -9.284  0.00  0.00    -0.058 A 
ATOM     19  H   LIG d   1      -2.418  -4.180 -10.098  0.00  0.00     0.062 H 
ATOM     20  C   LIG d   1      -1.834  -7.420  -9.352  0.00  0.00    -0.016 A 
ATOM     21  H   LIG d   1      -3.147  -5.938  -8.547  0.00  0.00     0.062 H 
ATOM     22  C   LIG d   1      -0.863  -7.712 -10.297  0.00  0.00     0.162 A 
ATOM     23  H   LIG d   1      -2.159  -8.186  -8.664  0.00  0.00     0.066 H 
ATOM     24  C   LIG d   1      -0.440  -6.729 -11.184  0.00  0.00     0.169 A 
BRANCH  22  25
ATOM     25  O   LIG d   1      -0.324  -8.958 -10.356  0.00  0.00    -0.491 OA
BRANCH  25  26
ATOM     26  C   LIG d   1      -1.062  -9.951 -11.071  0.00  0.00     0.079 C 
ATOM     27  H   LIG d   1      -2.113  -9.663 -11.110  0.00  0.00     0.066 H 
ATOM     28  H   LIG d   1      -0.671 -10.036 -12.084  0.00  0.00     0.066 H 
ATOM     29  H   LIG d   1      -0.968 -10.911 -10.563  0.00  0.00     0.066 H 
ENDBRANCH  25  26
ENDBRANCH  22  25
BRANCH  24  30
ATOM     30  O   LIG d   1       0.512  -7.011 -12.112  0.00  0.00    -0.491 OA
BRANCH  30  31
ATOM     31  C   LIG d   1       1.875  -6.902 -11.696  0.00  0.00     0.079 C 
ATOM     32  H   LIG d   1       2.207  -7.857 -11.288  0.00  0.00     0.066 H 
ATOM     33  H   LIG d   1       2.496  -6.635 -12.551  0.00  0.00     0.066 H 
ATOM     34  H   LIG d   1       1.960  -6.131 -10.930  0.00  0.00     0.066 H 
ENDBRANCH  30  31
ENDBRANCH  24  30
ENDBRANCH   1  16
BRANCH   8  35
ATOM     35  O   LIG d   1       4.175  -0.351  -8.469  0.00  0.00    -0.422 OA
BRANCH  35  36
ATOM     36  C   LIG d   1       3.602   0.280  -7.425  0.00  0.00     0.344 C 
ATOM     37  O   LIG d   1       3.054   1.352  -7.590  0.00  0.00    -0.244 OA
BRANCH  36  38
ATOM     38  C   LIG d   1       3.639  -0.331  -6.082  0.00  0.00     0.059 A 
ATOM     39  C   LIG d   1       4.480  -1.418  -5.828  0.00  0.00    -0.046 A 
ATOM     40  C   LIG d   1       4.509  -1.985  -4.572  0.00  0.00    -0.043 A 
ATOM     41  H   LIG d   1       5.106  -1.813  -6.615  0.00  0.00     0.063 H 
ATOM     42  C   LIG d   1       3.708  -1.480  -3.562  0.00  0.00     0.041 A 
ATOM     43  H   LIG d   1       5.160  -2.825  -4.375  0.00  0.00     0.063 H 
ATOM     44  C   LIG d   1       2.871  -0.403  -3.807  0.00  0.00    -0.043 A 
ATOM     45 CL   LIG d   1       3.751  -2.200  -1.983  0.00  0.00    -0.084 Cl
ATOM     46  C   LIG d   1       2.837   0.177  -5.058  0.00  0.00    -0.046 A 
ATOM     47  H   LIG d   1       2.248  -0.013  -3.015  0.00  0.00     0.063 H 
ATOM     48  H   LIG d   1       2.187   1.019  -5.246  0.00  0.00     0.063 H 
ENDBRANCH  36  38
ENDBRANCH  35  36
ENDBRANCH   8  35
TORSDOF 8
ENDMDL
MODEL 7
REMARK VINA RESULT:      -6.5      4.110      7.751
REMARK  8 active torsions:
REMARK  status: ('A' for Active; 'I' for Inactive)
REMARK    1  A    between atoms: C_1  and  O_2 
REMARK    2  A    between atoms: O_2  and  C_3 
REMARK    3  A    between atoms: C_7  and  C_11 
REMARK    4  A    between atoms: C_8  and  O_9 
REMARK    5  A    between atoms: O_9  and  C_10 
REMARK    6  A    between atoms: C_18  and  O_22 
REMARK    7  A    between atoms: O_22  and  C_23 
REMARK    8  A    between atoms: C_23  and  C_25 
ROOT
ATOM      1  C   LIG d   1      10.543   3.413  -5.182  0.00  0.00    -0.005 C 
ATOM      2  C   LIG d   1       9.685   2.411  -4.861  0.00  0.00     0.176 A 
ATOM      3  C   LIG d   1       9.864   0.985  -5.169  0.00  0.00     0.232 A 
ATOM      4  O   LIG d   1      10.795   0.458  -5.753  0.00  0.00    -0.283 OA
ATOM      5  C   LIG d   1       8.666   0.333  -4.608  0.00  0.00     0.068 A 
ATOM      6  C   LIG d   1       8.234  -0.993  -4.562  0.00  0.00    -0.044 A 
ATOM      7  C   LIG d   1       7.045  -1.301  -3.964  0.00  0.00    -0.018 A 
ATOM      8  C   LIG d   1       6.265  -0.295  -3.399  0.00  0.00     0.136 A 
ATOM      9  C   LIG d   1       6.681   1.025  -3.437  0.00  0.00     0.024 A 
ATOM     10  C   LIG d   1       7.888   1.356  -4.042  0.00  0.00     0.143 A 
ATOM     11  O   LIG d   1       8.508   2.544  -4.207  0.00  0.00    -0.451 OA
ATOM     12  H   LIG d   1      11.400   3.213  -5.808  0.00  0.00     0.066 H 
ATOM     13  H   LIG d   1       8.839  -1.774  -4.999  0.00  0.00     0.063 H 
ATOM     14  H   LIG d   1       6.710  -2.327  -3.927  0.00  0.00     0.065 H 
ATOM     15  H   LIG d   1       6.068   1.797  -2.996  0.00  0.00     0.069 H 
ENDROOT
BRANCH   1  16
ATOM     16  C   LIG d   1      10.306   4.771  -4.678  0.00  0.00     0.024 A 
ATOM     17  C   LIG d   1       9.525   5.670  -5.415  0.00  0.00    -0.051 A 
ATOM     18  C   LIG d   1       9.306   6.944  -4.938  0.00  0.00    -0.058 A 
ATOM     19  H   LIG d   1       9.095   5.365  -6.358  0.00  0.00     0.062 H 
ATOM     20  C   LIG d   1       9.853   7.343  -3.730  0.00  0.00    -0.016 A 
ATOM     21  H   LIG d   1       8.700   7.633  -5.507  0.00  0.00     0.062 H 
ATOM     22  C   LIG d   1      10.628   6.467  -2.987  0.00  0.00     0.162 A 
ATOM     23  H   LIG d   1       9.676   8.343  -3.364  0.00  0.00     0.066 H 
ATOM     24  C   LIG d   1      10.860   5.178  -3.454  0.00  0.00     0.169 A 
BRANCH  22  25
ATOM     25  O   LIG d   1      11.162   6.867  -1.803  0.00  0.00    -0.491 OA
BRANCH  25  26
ATOM     26  C   LIG d   1      10.295   6.865  -0.667  0.00  0.00     0.079 C 
ATOM     27  H   LIG d   1      10.851   6.544   0.214  0.00  0.00     0.066 H 
ATOM     28  H   LIG d   1       9.907   7.871  -0.505  0.00  0.00     0.066 H 
ATOM     29  H   LIG d   1       9.466   6.180  -0.843  0.00  0.00     0.066 H 
ENDBRANCH  25  26
ENDBRANCH  22  25
BRANCH  24  30
ATOM     30  O   LIG d   1      11.620   4.316  -2.729  0.00  0.00    -0.491 OA
BRANCH  30  31
ATOM     31  C   LIG d   1      13.033   4.363  -2.938  0.00  0.00     0.079 C 
ATOM     32  H   LIG d   1      13.453   3.366  -2.808  0.00  0.00     0.066 H 
ATOM     33  H   LIG d   1      13.239   4.716  -3.949  0.00  0.00     0.066 H 
ATOM     34  H   LIG d   1      13.484   5.045  -2.216  0.00  0.00     0.066 H 
ENDBRANCH  30  31
ENDBRANCH  24  30
ENDBRANCH   1  16
BRANCH   8  35
ATOM     35  O   LIG d   1       5.085  -0.612  -2.806  0.00  0.00    -0.422 OA
BRANCH  35  36
ATOM     36  C   LIG d   1       4.187  -1.284  -3.553  0.00  0.00     0.344 C 
ATOM     37  O   LIG d   1       3.729  -2.336  -3.154  0.00  0.00    -0.244 OA
BRANCH  36  38
ATOM     38  C   LIG d   1       3.757  -0.741  -4.858  0.00  0.00     0.059 A 
ATOM     39  C   LIG d   1       2.815   0.290  -4.912  0.00  0.00    -0.046 A 
ATOM     40  C   LIG d   1       2.418   0.792  -6.134  0.00  0.00    -0.043 A 
ATOM     41  H   LIG d   1       2.398   0.691  -4.000  0.00  0.00     0.063 H 
ATOM     42  C   LIG d   1       2.951   0.279  -7.304  0.00  0.00     0.041 A 
ATOM     43  H   LIG d   1       1.689   1.589  -6.177  0.00  0.00     0.063 H 
ATOM     44  C   LIG d   1       3.886  -0.743  -7.256  0.00  0.00    -0.043 A 
ATOM     45 CL   LIG d   1       2.446   0.917  -8.837  0.00  0.00    -0.084 Cl
ATOM     46  C   LIG d   1       4.295  -1.251  -6.041  0.00  0.00    -0.046 A 
ATOM     47  H   LIG d   1       4.298  -1.140  -8.172  0.00  0.00     0.063 H 
ATOM     48  H   LIG d   1       5.027  -2.044  -6.005  0.00  0.00     0.063 H 
ENDBRANCH  36  38
ENDBRANCH  35  36
ENDBRANCH   8  35
TORSDOF 8
ENDMDL
MODEL 8
REMARK VINA RESULT:      -6.5      6.991     11.713
REMARK  8 active torsions:
REMARK  status: ('A' for Active; 'I' for Inactive)
REMARK    1  A    between atoms: C_1  and  O_2 
REMARK    2  A    between atoms: O_2  and  C_3 
REMARK    3  A    between atoms: C_7  and  C_11 
REMARK    4  A    between atoms: C_8  and  O_9 
REMARK    5  A    between atoms: O_9  and  C_10 
REMARK    6  A    between atoms: C_18  and  O_22 
REMARK    7  A    between atoms: O_22  and  C_23 
REMARK    8  A    between atoms: C_23  and  C_25 
ROOT
ATOM      1  C   LIG d   1      11.368   8.407  -2.973  0.00  0.00    -0.005 C 
ATOM      2  C   LIG d   1      10.973   7.115  -3.111  0.00  0.00     0.176 A 
ATOM      3  C   LIG d   1      11.422   5.979  -2.292  0.00  0.00     0.232 A 
ATOM      4  O   LIG d   1      12.210   5.994  -1.362  0.00  0.00    -0.283 OA
ATOM      5  C   LIG d   1      10.701   4.818  -2.846  0.00  0.00     0.068 A 
ATOM      6  C   LIG d   1      10.682   3.462  -2.518  0.00  0.00    -0.044 A 
ATOM      7  C   LIG d   1       9.899   2.600  -3.232  0.00  0.00    -0.018 A 
ATOM      8  C   LIG d   1       9.119   3.072  -4.286  0.00  0.00     0.136 A 
ATOM      9  C   LIG d   1       9.129   4.415  -4.623  0.00  0.00     0.024 A 
ATOM     10  C   LIG d   1       9.920   5.306  -3.906  0.00  0.00     0.143 A 
ATOM     11  O   LIG d   1      10.103   6.638  -4.031  0.00  0.00    -0.451 OA
ATOM     12  H   LIG d   1      12.157   8.661  -2.280  0.00  0.00     0.066 H 
ATOM     13  H   LIG d   1      11.284   3.094  -1.700  0.00  0.00     0.063 H 
ATOM     14  H   LIG d   1       9.882   1.550  -2.979  0.00  0.00     0.065 H 
ATOM     15  H   LIG d   1       8.522   4.771  -5.441  0.00  0.00     0.069 H 
ENDROOT
BRANCH   1  16
ATOM     16  C   LIG d   1      10.721   9.460  -3.765  0.00  0.00     0.024 A 
ATOM     17  C   LIG d   1      11.110   9.681  -5.093  0.00  0.00    -0.051 A 
ATOM     18  C   LIG d   1      10.501  10.671  -5.833  0.00  0.00    -0.058 A 
ATOM     19  H   LIG d   1      11.888   9.076  -5.536  0.00  0.00     0.062 H 
ATOM     20  C   LIG d   1       9.504  11.450  -5.272  0.00  0.00    -0.016 A 
ATOM     21  H   LIG d   1      10.800  10.836  -6.857  0.00  0.00     0.062 H 
ATOM     22  C   LIG d   1       9.106  11.245  -3.960  0.00  0.00     0.162 A 
ATOM     23  H   LIG d   1       9.032  12.223  -5.860  0.00  0.00     0.066 H 
ATOM     24  C   LIG d   1       9.710  10.251  -3.199  0.00  0.00     0.169 A 
BRANCH  22  25
ATOM     25  O   LIG d   1       8.126  12.015  -3.417  0.00  0.00    -0.491 OA
BRANCH  25  26
ATOM     26  C   LIG d   1       8.448  13.382  -3.153  0.00  0.00     0.079 C 
ATOM     27  H   LIG d   1       8.964  13.807  -4.014  0.00  0.00     0.066 H 
ATOM     28  H   LIG d   1       7.531  13.942  -2.966  0.00  0.00     0.066 H 
ATOM     29  H   LIG d   1       9.094  13.441  -2.278  0.00  0.00     0.066 H 
ENDBRANCH  25  26
ENDBRANCH  22  25
BRANCH  24  30
ATOM     30  O   LIG d   1       9.324  10.047  -1.912  0.00  0.00    -0.491 OA
BRANCH  30  31
ATOM     31  C   LIG d   1       9.987  10.816  -0.907  0.00  0.00     0.079 C 
ATOM     32  H   LIG d   1      10.062  11.853  -1.233  0.00  0.00     0.066 H 
ATOM     33  H   LIG d   1       9.418  10.768   0.022  0.00  0.00     0.066 H 
ATOM     34  H   LIG d   1      10.986  10.413  -0.741  0.00  0.00     0.066 H 
ENDBRANCH  30  31
ENDBRANCH  24  30
ENDBRANCH   1  16
BRANCH   8  35
ATOM     35  O   LIG d   1       8.345   2.207  -4.990  0.00  0.00    -0.422 OA
BRANCH  35  36
ATOM     36  C   LIG d   1       8.461   0.898  -4.689  0.00  0.00     0.344 C 
ATOM     37  O   LIG d   1       9.485   0.302  -4.958  0.00  0.00    -0.244 OA
BRANCH  36  38
ATOM     38  C   LIG d   1       7.345   0.190  -4.031  0.00  0.00     0.059 A 
ATOM     39  C   LIG d   1       6.362   0.911  -3.348  0.00  0.00    -0.046 A 
ATOM     40  C   LIG d   1       5.323   0.243  -2.735  0.00  0.00    -0.043 A 
ATOM     41  H   LIG d   1       6.416   1.988  -3.300  0.00  0.00     0.063 H 
ATOM     42  C   LIG d   1       5.252  -1.139  -2.796  0.00  0.00     0.041 A 
ATOM     43  H   LIG d   1       4.562   0.800  -2.207  0.00  0.00     0.063 H 
ATOM     44  C   LIG d   1       6.224  -1.859  -3.472  0.00  0.00    -0.043 A 
ATOM     45 CL   LIG d   1       3.940  -1.971  -2.022  0.00  0.00    -0.084 Cl
ATOM     46  C   LIG d   1       7.265  -1.203  -4.093  0.00  0.00    -0.046 A 
ATOM     47  H   LIG d   1       6.163  -2.937  -3.515  0.00  0.00     0.063 H 
ATOM     48  H   LIG d   1       8.020  -1.766  -4.623  0.00  0.00     0.063 H 
ENDBRANCH  36  38
ENDBRANCH  35  36
ENDBRANCH   8  35
TORSDOF 8
ENDMDL
MODEL 9
REMARK VINA RESULT:      -6.4      4.708      8.323
REMARK  8 active torsions:
REMARK  status: ('A' for Active; 'I' for Inactive)
REMARK    1  A    between atoms: C_1  and  O_2 
REMARK    2  A    between atoms: O_2  and  C_3 
REMARK    3  A    between atoms: C_7  and  C_11 
REMARK    4  A    between atoms: C_8  and  O_9 
REMARK    5  A    between atoms: O_9  and  C_10 
REMARK    6  A    between atoms: C_18  and  O_22 
REMARK    7  A    between atoms: O_22  and  C_23 
REMARK    8  A    between atoms: C_23  and  C_25 
ROOT
ATOM      1  C   LIG d   1      10.875   4.686  -3.977  0.00  0.00    -0.005 C 
ATOM      2  C   LIG d   1      10.061   3.659  -4.333  0.00  0.00     0.176 A 
ATOM      3  C   LIG d   1      10.111   2.910  -5.597  0.00  0.00     0.232 A 
ATOM      4  O   LIG d   1      10.877   3.073  -6.531  0.00  0.00    -0.283 OA
ATOM      5  C   LIG d   1       9.030   1.914  -5.479  0.00  0.00     0.068 A 
ATOM      6  C   LIG d   1       8.561   0.910  -6.327  0.00  0.00    -0.044 A 
ATOM      7  C   LIG d   1       7.512   0.127  -5.939  0.00  0.00    -0.018 A 
ATOM      8  C   LIG d   1       6.909   0.328  -4.699  0.00  0.00     0.136 A 
ATOM      9  C   LIG d   1       7.364   1.321  -3.848  0.00  0.00     0.024 A 
ATOM     10  C   LIG d   1       8.431   2.127  -4.227  0.00  0.00     0.143 A 
ATOM     11  O   LIG d   1       9.052   3.143  -3.592  0.00  0.00    -0.451 OA
ATOM     12  H   LIG d   1      11.572   5.096  -4.693  0.00  0.00     0.066 H 
ATOM     13  H   LIG d   1       9.028   0.751  -7.288  0.00  0.00     0.063 H 
ATOM     14  H   LIG d   1       7.148  -0.652  -6.594  0.00  0.00     0.065 H 
ATOM     15  H   LIG d   1       6.890   1.469  -2.889  0.00  0.00     0.069 H 
ENDROOT
BRANCH   1  16
ATOM     16  C   LIG d   1      10.805   5.241  -2.620  0.00  0.00     0.024 A 
ATOM     17  C   LIG d   1      11.545   4.658  -1.583  0.00  0.00    -0.051 A 
ATOM     18  C   LIG d   1      11.477   5.182  -0.310  0.00  0.00    -0.058 A 
ATOM     19  H   LIG d   1      12.168   3.798  -1.780  0.00  0.00     0.062 H 
ATOM     20  C   LIG d   1      10.680   6.285  -0.049  0.00  0.00    -0.016 A 
ATOM     21  H   LIG d   1      12.051   4.734   0.486  0.00  0.00     0.062 H 
ATOM     22  C   LIG d   1       9.942   6.874  -1.064  0.00  0.00     0.162 A 
ATOM     23  H   LIG d   1      10.633   6.689   0.951  0.00  0.00     0.066 H 
ATOM     24  C   LIG d   1       9.999   6.358  -2.354  0.00  0.00     0.169 A 
BRANCH  22  25
ATOM     25  O   LIG d   1       9.162   7.956  -0.799  0.00  0.00    -0.491 OA
BRANCH  25  26
ATOM     26  C   LIG d   1       9.833   9.192  -0.545  0.00  0.00     0.079 C 
ATOM     27  H   LIG d   1      10.265   9.567  -1.473  0.00  0.00     0.066 H 
ATOM     28  H   LIG d   1       9.120   9.919  -0.156  0.00  0.00     0.066 H 
ATOM     29  H   LIG d   1      10.625   9.032   0.186  0.00  0.00     0.066 H 
ENDBRANCH  25  26
ENDBRANCH  22  25
BRANCH  24  30
ATOM     30  O   LIG d   1       9.276   6.932  -3.351  0.00  0.00    -0.491 OA
BRANCH  30  31
ATOM     31  C   LIG d   1       9.926   7.945  -4.121  0.00  0.00     0.079 C 
ATOM     32  H   LIG d   1      10.178   8.787  -3.476  0.00  0.00     0.066 H 
ATOM     33  H   LIG d   1      10.836   7.539  -4.563  0.00  0.00     0.066 H 
ATOM     34  H   LIG d   1       9.257   8.283  -4.914  0.00  0.00     0.066 H 
ENDBRANCH  30  31
ENDBRANCH  24  30
ENDBRANCH   1  16
BRANCH   8  35
ATOM     35  O   LIG d   1       5.866  -0.456  -4.323  0.00  0.00    -0.422 OA
BRANCH  35  36
ATOM     36  C   LIG d   1       4.637  -0.069  -4.715  0.00  0.00     0.344 C 
ATOM     37  O   LIG d   1       3.972   0.657  -4.003  0.00  0.00    -0.244 OA
BRANCH  36  38
ATOM     38  C   LIG d   1       4.099  -0.524  -6.013  0.00  0.00     0.059 A 
ATOM     39  C   LIG d   1       3.148   0.246  -6.687  0.00  0.00    -0.046 A 
ATOM     40  C   LIG d   1       2.648  -0.186  -7.898  0.00  0.00    -0.043 A 
ATOM     41  H   LIG d   1       2.803   1.177  -6.261  0.00  0.00     0.063 H 
ATOM     42  C   LIG d   1       3.088  -1.379  -8.446  0.00  0.00     0.041 A 
ATOM     43  H   LIG d   1       1.913   0.409  -8.420  0.00  0.00     0.063 H 
ATOM     44  C   LIG d   1       4.032  -2.147  -7.783  0.00  0.00    -0.043 A 
ATOM     45 CL   LIG d   1       2.455  -1.914  -9.971  0.00  0.00    -0.084 Cl
ATOM     46  C   LIG d   1       4.542  -1.723  -6.574  0.00  0.00    -0.046 A 
ATOM     47  H   LIG d   1       4.371  -3.077  -8.215  0.00  0.00     0.063 H 
ATOM     48  H   LIG d   1       5.281  -2.321  -6.059  0.00  0.00     0.063 H 
ENDBRANCH  36  38
ENDBRANCH  35  36
ENDBRANCH   8  35
TORSDOF 8
ENDMDL
MODEL 10
REMARK VINA RESULT:      -6.4      4.242      7.854
REMARK  8 active torsions:
REMARK  status: ('A' for Active; 'I' for Inactive)
REMARK    1  A    between atoms: C_1  and  O_2 
REMARK    2  A    between atoms: O_2  and  C_3 
REMARK    3  A    between atoms: C_7  and  C_11 
REMARK    4  A    between atoms: C_8  and  O_9 
REMARK    5  A    between atoms: O_9  and  C_10 
REMARK    6  A    between atoms: C_18  and  O_22 
REMARK    7  A    between atoms: O_22  and  C_23 
REMARK    8  A    between atoms: C_23  and  C_25 
ROOT
ATOM      1  C   LIG d   1      10.429   3.423  -5.162  0.00  0.00    -0.005 C 
ATOM      2  C   LIG d   1       9.635   2.363  -4.867  0.00  0.00     0.176 A 
ATOM      3  C   LIG d   1       9.882   0.963  -5.242  0.00  0.00     0.232 A 
ATOM      4  O   LIG d   1      10.824   0.514  -5.871  0.00  0.00    -0.283 OA
ATOM      5  C   LIG d   1       8.736   0.223  -4.683  0.00  0.00     0.068 A 
ATOM      6  C   LIG d   1       8.377  -1.126  -4.687  0.00  0.00    -0.044 A 
ATOM      7  C   LIG d   1       7.223  -1.525  -4.075  0.00  0.00    -0.018 A 
ATOM      8  C   LIG d   1       6.404  -0.588  -3.447  0.00  0.00     0.136 A 
ATOM      9  C   LIG d   1       6.747   0.753  -3.436  0.00  0.00     0.024 A 
ATOM     10  C   LIG d   1       7.918   1.176  -4.054  0.00  0.00     0.143 A 
ATOM     11  O   LIG d   1       8.469   2.402  -4.180  0.00  0.00    -0.451 OA
ATOM     12  H   LIG d   1      11.278   3.297  -5.817  0.00  0.00     0.066 H 
ATOM     13  H   LIG d   1       9.011  -1.853  -5.172  0.00  0.00     0.063 H 
ATOM     14  H   LIG d   1       6.944  -2.568  -4.077  0.00  0.00     0.065 H 
ATOM     15  H   LIG d   1       6.105   1.470  -2.947  0.00  0.00     0.069 H 
ENDROOT
BRANCH   1  16
ATOM     16  C   LIG d   1      10.132   4.743  -4.593  0.00  0.00     0.024 A 
ATOM     17  C   LIG d   1      10.199   4.943  -3.208  0.00  0.00    -0.051 A 
ATOM     18  C   LIG d   1       9.919   6.184  -2.677  0.00  0.00    -0.058 A 
ATOM     19  H   LIG d   1      10.469   4.126  -2.555  0.00  0.00     0.062 H 
ATOM     20  C   LIG d   1       9.572   7.237  -3.506  0.00  0.00    -0.016 A 
ATOM     21  H   LIG d   1       9.976   6.337  -1.610  0.00  0.00     0.062 H 
ATOM     22  C   LIG d   1       9.501   7.057  -4.879  0.00  0.00     0.162 A 
ATOM     23  H   LIG d   1       9.355   8.206  -3.082  0.00  0.00     0.066 H 
ATOM     24  C   LIG d   1       9.780   5.812  -5.431  0.00  0.00     0.169 A 
BRANCH  22  25
ATOM     25  O   LIG d   1       9.159   8.097  -5.685  0.00  0.00    -0.491 OA
BRANCH  25  26
ATOM     26  C   LIG d   1       9.943   9.287  -5.577  0.00  0.00     0.079 C 
ATOM     27  H   LIG d   1       9.618  10.006  -6.329  0.00  0.00     0.066 H 
ATOM     28  H   LIG d   1       9.814   9.717  -4.583  0.00  0.00     0.066 H 
ATOM     29  H   LIG d   1      10.994   9.046  -5.735  0.00  0.00     0.066 H 
ENDBRANCH  25  26
ENDBRANCH  22  25
BRANCH  24  30
ATOM     30  O   LIG d   1       9.711   5.631  -6.776  0.00  0.00    -0.491 OA
BRANCH  30  31
ATOM     31  C   LIG d   1      10.866   5.987  -7.538  0.00  0.00     0.079 C 
ATOM     32  H   LIG d   1      11.616   5.200  -7.450  0.00  0.00     0.066 H 
ATOM     33  H   LIG d   1      10.588   6.109  -8.585  0.00  0.00     0.066 H 
ATOM     34  H   LIG d   1      11.276   6.924  -7.160  0.00  0.00     0.066 H 
ENDBRANCH  30  31
ENDBRANCH  24  30
ENDBRANCH   1  16
BRANCH   8  35
ATOM     35  O   LIG d   1       5.258  -0.996  -2.842  0.00  0.00    -0.422 OA
BRANCH  35  36
ATOM     36  C   LIG d   1       4.347  -1.620  -3.615  0.00  0.00     0.344 C 
ATOM     37  O   LIG d   1       3.918  -2.708  -3.288  0.00  0.00    -0.244 OA
BRANCH  36  38
ATOM     38  C   LIG d   1       3.870  -0.980  -4.857  0.00  0.00     0.059 A 
ATOM     39  C   LIG d   1       4.336  -1.423  -6.098  0.00  0.00    -0.046 A 
ATOM     40  C   LIG d   1       3.888  -0.820  -7.254  0.00  0.00    -0.043 A 
ATOM     41  H   LIG d   1       5.046  -2.236  -6.151  0.00  0.00     0.063 H 
ATOM     42  C   LIG d   1       2.977   0.221  -7.188  0.00  0.00     0.041 A 
ATOM     43  H   LIG d   1       4.246  -1.163  -8.214  0.00  0.00     0.063 H 
ATOM     44  C   LIG d   1       2.512   0.665  -5.961  0.00  0.00    -0.043 A 
ATOM     45 CL   LIG d   1       2.418   0.974  -8.649  0.00  0.00    -0.084 Cl
ATOM     46  C   LIG d   1       2.949   0.067  -4.797  0.00  0.00    -0.046 A 
ATOM     47  H   LIG d   1       1.803   1.478  -5.915  0.00  0.00     0.063 H 
ATOM     48  H   LIG d   1       2.582   0.412  -3.841  0.00  0.00     0.063 H 
ENDBRANCH  36  38
ENDBRANCH  35  36
ENDBRANCH   8  35
TORSDOF 8
ENDMDL
