MODEL 1
REMARK VINA RESULT:      -8.7      0.000      0.000
REMARK  6 active torsions:
REMARK  status: ('A' for Active; 'I' for Inactive)
REMARK    1  A    between atoms: C_1  and  C_2 
REMARK    2  A    between atoms: C_2  and  O_3 
REMARK    3  A    between atoms: O_3  and  C_4 
REMARK    4  A    between atoms: C_9  and  C_10 
REMARK    5  A    between atoms: N_29  and  C_32 
REMARK    6  A    between atoms: C_32  and  C_33 
ROOT
ATOM      1  C   LIG d   1       3.896  -1.659  -5.441  0.00  0.00     0.096 C 
ATOM      2  H   LIG d   1       2.909  -2.089  -5.270  0.00  0.00     0.062 H 
ATOM      3  C   LIG d   1       3.861  -0.758  -6.654  0.00  0.00     0.046 A 
ATOM      4  C   LIG d   1       4.433  -1.074  -7.836  0.00  0.00    -0.015 A 
ATOM      5  C   LIG d   1       4.182   0.032  -8.737  0.00  0.00     0.003 A 
ATOM      6  C   LIG d   1       4.526   0.263 -10.073  0.00  0.00    -0.052 A 
ATOM      7  C   LIG d   1       4.115   1.452 -10.623  0.00  0.00    -0.061 A 
ATOM      8  C   LIG d   1       3.392   2.386  -9.900  0.00  0.00    -0.060 A 
ATOM      9  C   LIG d   1       3.038   2.184  -8.578  0.00  0.00    -0.038 A 
ATOM     10  C   LIG d   1       3.441   0.985  -7.993  0.00  0.00     0.047 A 
ATOM     11  N   LIG d   1       3.267   0.474  -6.739  0.00  0.00    -0.356 N 
ATOM     12  H   LIG d   1       2.793   0.915  -6.017  0.00  0.00     0.166 HD
ATOM     13  C   LIG d   1       5.182  -2.352  -8.111  0.00  0.00     0.002 C 
ATOM     14  C   LIG d   1       4.824  -3.380  -7.029  0.00  0.00     0.107 A 
ATOM     15  H   LIG d   1       3.806  -3.730  -7.199  0.00  0.00     0.060 H 
ATOM     16  N   LIG d   1       4.872  -2.734  -5.718  0.00  0.00    -0.276 N 
ATOM     17  C   LIG d   1       5.753  -3.068  -4.772  0.00  0.00     0.234 A 
ATOM     18  O   LIG d   1       5.753  -2.422  -3.746  0.00  0.00    -0.274 OA
ATOM     19  C   LIG d   1       6.739  -4.185  -4.891  0.00  0.00     0.092 A 
ATOM     20  N   LIG d   1       6.610  -4.894  -6.153  0.00  0.00    -0.287 N 
ATOM     21  C   LIG d   1       5.757  -4.545  -7.115  0.00  0.00     0.237 A 
ATOM     22  O   LIG d   1       5.735  -5.217  -8.125  0.00  0.00    -0.274 OA
ATOM     23  H   LIG d   1       5.089  -0.460 -10.645  0.00  0.00     0.062 H 
ATOM     24  H   LIG d   1       4.362   1.664 -11.653  0.00  0.00     0.062 H 
ATOM     25  H   LIG d   1       3.096   3.304 -10.384  0.00  0.00     0.062 H 
ATOM     26  H   LIG d   1       2.474   2.921  -8.025  0.00  0.00     0.064 H 
ATOM     27  H   LIG d   1       4.899  -2.739  -9.090  0.00  0.00     0.034 H 
ATOM     28  H   LIG d   1       6.255  -2.158  -8.093  0.00  0.00     0.034 H 
ATOM     29  H   LIG d   1       6.580  -4.887  -4.073  0.00  0.00     0.056 H 
ATOM     30  H   LIG d   1       7.746  -3.776  -4.816  0.00  0.00     0.056 H 
ENDROOT
BRANCH   1  31
ATOM     31  C   LIG d   1       4.329  -0.873  -4.231  0.00  0.00     0.021 A 
ATOM     32  C   LIG d   1       5.367   0.042  -4.332  0.00  0.00     0.126 A 
ATOM     33  C   LIG d   1       5.759   0.768  -3.216  0.00  0.00    -0.020 A 
ATOM     34  C   LIG d   1       5.119   0.575  -2.008  0.00  0.00    -0.058 A 
ATOM     35  H   LIG d   1       6.565   1.483  -3.293  0.00  0.00     0.065 H 
ATOM     36  C   LIG d   1       4.088  -0.341  -1.908  0.00  0.00    -0.061 A 
ATOM     37  H   LIG d   1       5.424   1.141  -1.139  0.00  0.00     0.062 H 
ATOM     38  C   LIG d   1       3.695  -1.066  -3.018  0.00  0.00    -0.053 A 
ATOM     39  H   LIG d   1       3.589  -0.491  -0.962  0.00  0.00     0.062 H 
ATOM     40  H   LIG d   1       2.890  -1.781  -2.938  0.00  0.00     0.062 H 
BRANCH  32  41
ATOM     41  O   LIG d   1       5.995   0.229  -5.522  0.00  0.00    -0.492 OA
BRANCH  41  42
ATOM     42  C   LIG d   1       7.420   0.329  -5.494  0.00  0.00     0.087 C 
ATOM     43  H   LIG d   1       7.778   0.153  -4.479  0.00  0.00     0.069 H 
ATOM     44  H   LIG d   1       7.721   1.326  -5.818  0.00  0.00     0.069 H 
BRANCH  42  45
ATOM     45  C   LIG d   1       8.024  -0.716  -6.435  0.00  0.00    -0.031 C 
ATOM     46  H   LIG d   1       8.182  -1.647  -5.890  0.00  0.00     0.026 H 
ATOM     47  H   LIG d   1       7.343  -0.893  -7.267  0.00  0.00     0.026 H 
ATOM     48  H   LIG d   1       8.978  -0.353  -6.817  0.00  0.00     0.026 H 
ENDBRANCH  42  45
ENDBRANCH  41  42
ENDBRANCH  32  41
ENDBRANCH   1  31
BRANCH  20  49
ATOM     49  C   LIG d   1       7.468  -6.060  -6.381  0.00  0.00     0.040 C 
ATOM     50  H   LIG d   1       7.421  -6.345  -7.431  0.00  0.00     0.051 H 
ATOM     51  H   LIG d   1       8.496  -5.810  -6.118  0.00  0.00     0.051 H 
BRANCH  49  52
ATOM     52  C   LIG d   1       6.994  -7.207  -5.526  0.00  0.00    -0.026 A 
ATOM     53  C   LIG d   1       5.691  -7.655  -5.633  0.00  0.00    -0.011 A 
ATOM     54  C   LIG d   1       5.255  -8.713  -4.851  0.00  0.00     0.167 A 
ATOM     55  H   LIG d   1       5.014  -7.183  -6.328  0.00  0.00     0.066 H 
ATOM     56  C   LIG d   1       6.131  -9.316  -3.951  0.00  0.00     0.166 A 
ATOM     57  O   LIG d   1       4.045  -9.337  -4.768  0.00  0.00    -0.453 OA
ATOM     58  C   LIG d   1       7.434  -8.857  -3.845  0.00  0.00    -0.016 A 
ATOM     59  O   LIG d   1       5.468 -10.318  -3.304  0.00  0.00    -0.453 OA
ATOM     60  C   LIG d   1       7.863  -7.805  -4.633  0.00  0.00    -0.053 A 
ATOM     61  H   LIG d   1       8.115  -9.323  -3.149  0.00  0.00     0.066 H 
ATOM     62  H   LIG d   1       8.880  -7.449  -4.549  0.00  0.00     0.062 H 
ATOM     63  C   LIG d   1       4.304 -10.589  -4.105  0.00  0.00     0.233 C 
ATOM     64  H   LIG d   1       4.514 -11.372  -4.834  0.00  0.00     0.117 H 
ATOM     65  H   LIG d   1       3.462 -10.872  -3.473  0.00  0.00     0.117 H 
ENDBRANCH  49  52
ENDBRANCH  20  49
TORSDOF 6
ENDMDL
MODEL 2
REMARK VINA RESULT:      -8.6      3.803      8.289
REMARK  6 active torsions:
REMARK  status: ('A' for Active; 'I' for Inactive)
REMARK    1  A    between atoms: C_1  and  C_2 
REMARK    2  A    between atoms: C_2  and  O_3 
REMARK    3  A    between atoms: O_3  and  C_4 
REMARK    4  A    between atoms: C_9  and  C_10 
REMARK    5  A    between atoms: N_29  and  C_32 
REMARK    6  A    between atoms: C_32  and  C_33 
ROOT
ATOM      1  C   LIG d   1       6.083  -0.884  -5.677  0.00  0.00     0.096 C 
ATOM      2  H   LIG d   1       6.465  -1.897  -5.805  0.00  0.00     0.062 H 
ATOM      3  C   LIG d   1       5.372  -0.440  -6.934  0.00  0.00     0.046 A 
ATOM      4  C   LIG d   1       5.871   0.479  -7.788  0.00  0.00    -0.015 A 
ATOM      5  C   LIG d   1       4.906   0.629  -8.859  0.00  0.00     0.003 A 
ATOM      6  C   LIG d   1       4.883   1.425 -10.010  0.00  0.00    -0.052 A 
ATOM      7  C   LIG d   1       3.782   1.310 -10.821  0.00  0.00    -0.061 A 
ATOM      8  C   LIG d   1       2.737   0.449 -10.527  0.00  0.00    -0.060 A 
ATOM      9  C   LIG d   1       2.734  -0.349  -9.397  0.00  0.00    -0.038 A 
ATOM     10  C   LIG d   1       3.840  -0.254  -8.554  0.00  0.00     0.047 A 
ATOM     11  N   LIG d   1       4.155  -0.883  -7.384  0.00  0.00    -0.356 N 
ATOM     12  H   LIG d   1       3.603  -1.543  -6.938  0.00  0.00     0.166 HD
ATOM     13  C   LIG d   1       7.189   1.188  -7.613  0.00  0.00     0.002 C 
ATOM     14  C   LIG d   1       8.038   0.411  -6.597  0.00  0.00     0.107 A 
ATOM     15  H   LIG d   1       8.391  -0.509  -7.063  0.00  0.00     0.060 H 
ATOM     16  N   LIG d   1       7.205   0.052  -5.450  0.00  0.00    -0.276 N 
ATOM     17  C   LIG d   1       7.411   0.530  -4.221  0.00  0.00     0.234 A 
ATOM     18  O   LIG d   1       6.619   0.223  -3.355  0.00  0.00    -0.274 OA
ATOM     19  C   LIG d   1       8.551   1.417  -3.839  0.00  0.00     0.092 A 
ATOM     20  N   LIG d   1       9.437   1.680  -4.961  0.00  0.00    -0.287 N 
ATOM     21  C   LIG d   1       9.220   1.234  -6.196  0.00  0.00     0.237 A 
ATOM     22  O   LIG d   1      10.033   1.513  -7.052  0.00  0.00    -0.274 OA
ATOM     23  H   LIG d   1       5.693   2.099 -10.247  0.00  0.00     0.062 H 
ATOM     24  H   LIG d   1       3.729   1.909 -11.718  0.00  0.00     0.062 H 
ATOM     25  H   LIG d   1       1.896   0.401 -11.202  0.00  0.00     0.062 H 
ATOM     26  H   LIG d   1       1.913  -1.017  -9.179  0.00  0.00     0.064 H 
ATOM     27  H   LIG d   1       7.711   1.231  -8.568  0.00  0.00     0.034 H 
ATOM     28  H   LIG d   1       7.014   2.200  -7.247  0.00  0.00     0.034 H 
ATOM     29  H   LIG d   1       9.121   0.940  -3.042  0.00  0.00     0.056 H 
ATOM     30  H   LIG d   1       8.154   2.364  -3.472  0.00  0.00     0.056 H 
ENDROOT
BRANCH   1  31
ATOM     31  C   LIG d   1       5.134  -0.839  -4.507  0.00  0.00     0.021 A 
ATOM     32  C   LIG d   1       4.990  -1.949  -3.687  0.00  0.00     0.126 A 
ATOM     33  C   LIG d   1       4.119  -1.903  -2.608  0.00  0.00    -0.020 A 
ATOM     34  C   LIG d   1       3.394  -0.754  -2.356  0.00  0.00    -0.058 A 
ATOM     35  H   LIG d   1       4.008  -2.764  -1.966  0.00  0.00     0.065 H 
ATOM     36  C   LIG d   1       3.535   0.349  -3.178  0.00  0.00    -0.061 A 
ATOM     37  H   LIG d   1       2.716  -0.718  -1.515  0.00  0.00     0.062 H 
ATOM     38  C   LIG d   1       4.402   0.305  -4.254  0.00  0.00    -0.053 A 
ATOM     39  H   LIG d   1       2.967   1.245  -2.979  0.00  0.00     0.062 H 
ATOM     40  H   LIG d   1       4.511   1.168  -4.894  0.00  0.00     0.062 H 
BRANCH  32  41
ATOM     41  O   LIG d   1       5.704  -3.077  -3.938  0.00  0.00    -0.492 OA
BRANCH  41  42
ATOM     42  C   LIG d   1       5.118  -4.033  -4.823  0.00  0.00     0.087 C 
ATOM     43  H   LIG d   1       4.426  -3.527  -5.498  0.00  0.00     0.069 H 
ATOM     44  H   LIG d   1       4.578  -4.782  -4.244  0.00  0.00     0.069 H 
BRANCH  42  45
ATOM     45  C   LIG d   1       6.217  -4.715  -5.640  0.00  0.00    -0.031 C 
ATOM     46  H   LIG d   1       7.047  -4.978  -4.983  0.00  0.00     0.026 H 
ATOM     47  H   LIG d   1       5.820  -5.619  -6.102  0.00  0.00     0.026 H 
ATOM     48  H   LIG d   1       6.570  -4.034  -6.415  0.00  0.00     0.026 H 
ENDBRANCH  42  45
ENDBRANCH  41  42
ENDBRANCH  32  41
ENDBRANCH   1  31
BRANCH  20  49
ATOM     49  C   LIG d   1      10.639   2.482  -4.718  0.00  0.00     0.040 C 
ATOM     50  H   LIG d   1      11.309   1.939  -4.051  0.00  0.00     0.051 H 
ATOM     51  H   LIG d   1      11.145   2.674  -5.664  0.00  0.00     0.051 H 
BRANCH  49  52
ATOM     52  C   LIG d   1      10.250   3.792  -4.082  0.00  0.00    -0.026 A 
ATOM     53  C   LIG d   1      10.541   4.026  -2.751  0.00  0.00    -0.011 A 
ATOM     54  C   LIG d   1      10.188   5.232  -2.166  0.00  0.00     0.167 A 
ATOM     55  H   LIG d   1      11.046   3.271  -2.168  0.00  0.00     0.066 H 
ATOM     56  C   LIG d   1       9.531   6.201  -2.920  0.00  0.00     0.166 A 
ATOM     57  O   LIG d   1      10.359   5.706  -0.899  0.00  0.00    -0.453 OA
ATOM     58  C   LIG d   1       9.237   5.957  -4.252  0.00  0.00    -0.016 A 
ATOM     59  O   LIG d   1       9.291   7.283  -2.124  0.00  0.00    -0.453 OA
ATOM     60  C   LIG d   1       9.598   4.754  -4.830  0.00  0.00    -0.053 A 
ATOM     61  H   LIG d   1       8.729   6.707  -4.839  0.00  0.00     0.066 H 
ATOM     62  H   LIG d   1       9.368   4.565  -5.869  0.00  0.00     0.062 H 
ATOM     63  C   LIG d   1      10.167   7.130  -0.992  0.00  0.00     0.233 C 
ATOM     64  H   LIG d   1      11.117   7.634  -1.172  0.00  0.00     0.117 H 
ATOM     65  H   LIG d   1       9.696   7.516  -0.088  0.00  0.00     0.117 H 
ENDBRANCH  49  52
ENDBRANCH  20  49
TORSDOF 6
ENDMDL
MODEL 3
REMARK VINA RESULT:      -8.3      3.807      6.358
REMARK  6 active torsions:
REMARK  status: ('A' for Active; 'I' for Inactive)
REMARK    1  A    between atoms: C_1  and  C_2 
REMARK    2  A    between atoms: C_2  and  O_3 
REMARK    3  A    between atoms: O_3  and  C_4 
REMARK    4  A    between atoms: C_9  and  C_10 
REMARK    5  A    between atoms: N_29  and  C_32 
REMARK    6  A    between atoms: C_32  and  C_33 
ROOT
ATOM      1  C   LIG d   1       5.387  -0.680  -7.783  0.00  0.00     0.096 C 
ATOM      2  H   LIG d   1       6.464  -0.618  -7.939  0.00  0.00     0.062 H 
ATOM      3  C   LIG d   1       5.090  -0.884  -6.315  0.00  0.00     0.046 A 
ATOM      4  C   LIG d   1       4.646  -2.050  -5.799  0.00  0.00    -0.015 A 
ATOM      5  C   LIG d   1       4.485  -1.847  -4.373  0.00  0.00     0.003 A 
ATOM      6  C   LIG d   1       4.063  -2.687  -3.337  0.00  0.00    -0.052 A 
ATOM      7  C   LIG d   1       4.029  -2.148  -2.076  0.00  0.00    -0.061 A 
ATOM      8  C   LIG d   1       4.394  -0.835  -1.826  0.00  0.00    -0.060 A 
ATOM      9  C   LIG d   1       4.815   0.018  -2.831  0.00  0.00    -0.038 A 
ATOM     10  C   LIG d   1       4.860  -0.502  -4.123  0.00  0.00     0.047 A 
ATOM     11  N   LIG d   1       5.219   0.048  -5.320  0.00  0.00    -0.356 N 
ATOM     12  H   LIG d   1       5.521   0.961  -5.446  0.00  0.00     0.166 HD
ATOM     13  C   LIG d   1       4.382  -3.298  -6.600  0.00  0.00     0.002 C 
ATOM     14  C   LIG d   1       5.090  -3.175  -7.957  0.00  0.00     0.107 A 
ATOM     15  H   LIG d   1       6.163  -3.285  -7.805  0.00  0.00     0.060 H 
ATOM     16  N   LIG d   1       4.839  -1.846  -8.511  0.00  0.00    -0.276 N 
ATOM     17  C   LIG d   1       4.142  -1.641  -9.630  0.00  0.00     0.234 A 
ATOM     18  O   LIG d   1       3.933  -0.494  -9.965  0.00  0.00    -0.274 OA
ATOM     19  C   LIG d   1       3.603  -2.729 -10.501  0.00  0.00     0.092 A 
ATOM     20  N   LIG d   1       3.952  -4.049 -10.003  0.00  0.00    -0.287 N 
ATOM     21  C   LIG d   1       4.617  -4.261  -8.870  0.00  0.00     0.237 A 
ATOM     22  O   LIG d   1       4.856  -5.409  -8.557  0.00  0.00    -0.274 OA
ATOM     23  H   LIG d   1       3.777  -3.712  -3.523  0.00  0.00     0.062 H 
ATOM     24  H   LIG d   1       3.709  -2.767  -1.251  0.00  0.00     0.062 H 
ATOM     25  H   LIG d   1       4.347  -0.464  -0.814  0.00  0.00     0.062 H 
ATOM     26  H   LIG d   1       5.097   1.040  -2.623  0.00  0.00     0.064 H 
ATOM     27  H   LIG d   1       4.768  -4.165  -6.064  0.00  0.00     0.034 H 
ATOM     28  H   LIG d   1       3.308  -3.413  -6.755  0.00  0.00     0.034 H 
ATOM     29  H   LIG d   1       4.007  -2.612 -11.507  0.00  0.00     0.056 H 
ATOM     30  H   LIG d   1       2.518  -2.642 -10.543  0.00  0.00     0.056 H 
ENDROOT
BRANCH   1  31
ATOM     31  C   LIG d   1       4.726   0.584  -8.270  0.00  0.00     0.021 A 
ATOM     32  C   LIG d   1       5.454   1.510  -9.002  0.00  0.00     0.126 A 
ATOM     33  C   LIG d   1       4.841   2.670  -9.453  0.00  0.00    -0.020 A 
ATOM     34  C   LIG d   1       3.510   2.903  -9.167  0.00  0.00    -0.058 A 
ATOM     35  H   LIG d   1       5.405   3.392 -10.026  0.00  0.00     0.065 H 
ATOM     36  C   LIG d   1       2.788   1.981  -8.432  0.00  0.00    -0.061 A 
ATOM     37  H   LIG d   1       3.032   3.806  -9.518  0.00  0.00     0.062 H 
ATOM     38  C   LIG d   1       3.396   0.823  -7.982  0.00  0.00    -0.053 A 
ATOM     39  H   LIG d   1       1.747   2.165  -8.210  0.00  0.00     0.062 H 
ATOM     40  H   LIG d   1       2.830   0.105  -7.408  0.00  0.00     0.062 H 
BRANCH  32  41
ATOM     41  O   LIG d   1       6.763   1.279  -9.282  0.00  0.00    -0.492 OA
BRANCH  41  42
ATOM     42  C   LIG d   1       7.711   2.217  -8.769  0.00  0.00     0.087 C 
ATOM     43  H   LIG d   1       7.277   3.217  -8.782  0.00  0.00     0.069 H 
ATOM     44  H   LIG d   1       8.608   2.203  -9.388  0.00  0.00     0.069 H 
BRANCH  42  45
ATOM     45  C   LIG d   1       8.078   1.840  -7.332  0.00  0.00    -0.031 C 
ATOM     46  H   LIG d   1       7.222   1.365  -6.852  0.00  0.00     0.026 H 
ATOM     47  H   LIG d   1       8.920   1.148  -7.341  0.00  0.00     0.026 H 
ATOM     48  H   LIG d   1       8.352   2.739  -6.779  0.00  0.00     0.026 H 
ENDBRANCH  42  45
ENDBRANCH  41  42
ENDBRANCH  32  41
ENDBRANCH   1  31
BRANCH  20  49
ATOM     49  C   LIG d   1       3.547  -5.214 -10.795  0.00  0.00     0.040 C 
ATOM     50  H   LIG d   1       3.897  -5.096 -11.820  0.00  0.00     0.051 H 
ATOM     51  H   LIG d   1       3.984  -6.115 -10.364  0.00  0.00     0.051 H 
BRANCH  49  52
ATOM     52  C   LIG d   1       2.045  -5.331 -10.785  0.00  0.00    -0.026 A 
ATOM     53  C   LIG d   1       1.432  -6.275  -9.983  0.00  0.00    -0.011 A 
ATOM     54  C   LIG d   1       0.050  -6.381  -9.969  0.00  0.00     0.167 A 
ATOM     55  H   LIG d   1       2.028  -6.928  -9.365  0.00  0.00     0.066 H 
ATOM     56  C   LIG d   1      -0.717  -5.541 -10.773  0.00  0.00     0.166 A 
ATOM     57  O   LIG d   1      -0.787  -7.209  -9.279  0.00  0.00    -0.453 OA
ATOM     58  C   LIG d   1      -0.095  -4.601 -11.579  0.00  0.00    -0.016 A 
ATOM     59  O   LIG d   1      -2.035  -5.843 -10.586  0.00  0.00    -0.453 OA
ATOM     60  C   LIG d   1       1.283  -4.497 -11.583  0.00  0.00    -0.053 A 
ATOM     61  H   LIG d   1      -0.687  -3.948 -12.202  0.00  0.00     0.066 H 
ATOM     62  H   LIG d   1       1.767  -3.764 -12.211  0.00  0.00     0.062 H 
ATOM     63  C   LIG d   1      -2.087  -6.594  -9.359  0.00  0.00     0.233 C 
ATOM     64  H   LIG d   1      -2.250  -5.931  -8.510  0.00  0.00     0.117 H 
ATOM     65  H   LIG d   1      -2.869  -7.352  -9.408  0.00  0.00     0.117 H 
ENDBRANCH  49  52
ENDBRANCH  20  49
TORSDOF 6
ENDMDL
MODEL 4
REMARK VINA RESULT:      -8.1      1.169      2.016
REMARK  6 active torsions:
REMARK  status: ('A' for Active; 'I' for Inactive)
REMARK    1  A    between atoms: C_1  and  C_2 
REMARK    2  A    between atoms: C_2  and  O_3 
REMARK    3  A    between atoms: O_3  and  C_4 
REMARK    4  A    between atoms: C_9  and  C_10 
REMARK    5  A    between atoms: N_29  and  C_32 
REMARK    6  A    between atoms: C_32  and  C_33 
ROOT
ATOM      1  C   LIG d   1       4.466  -1.862  -5.902  0.00  0.00     0.096 C 
ATOM      2  H   LIG d   1       3.499  -2.002  -5.418  0.00  0.00     0.062 H 
ATOM      3  C   LIG d   1       4.298  -1.047  -7.164  0.00  0.00     0.046 A 
ATOM      4  C   LIG d   1       4.405  -1.566  -8.406  0.00  0.00    -0.015 A 
ATOM      5  C   LIG d   1       4.178  -0.480  -9.338  0.00  0.00     0.003 A 
ATOM      6  C   LIG d   1       4.162  -0.418 -10.736  0.00  0.00    -0.052 A 
ATOM      7  C   LIG d   1       3.909   0.808 -11.299  0.00  0.00    -0.061 A 
ATOM      8  C   LIG d   1       3.680   1.938 -10.532  0.00  0.00    -0.060 A 
ATOM      9  C   LIG d   1       3.690   1.905  -9.149  0.00  0.00    -0.038 A 
ATOM     10  C   LIG d   1       3.943   0.674  -8.548  0.00  0.00     0.047 A 
ATOM     11  N   LIG d   1       4.024   0.293  -7.240  0.00  0.00    -0.356 N 
ATOM     12  H   LIG d   1       3.904   0.881  -6.478  0.00  0.00     0.166 HD
ATOM     13  C   LIG d   1       4.705  -3.011  -8.710  0.00  0.00     0.002 C 
ATOM     14  C   LIG d   1       4.441  -3.848  -7.451  0.00  0.00     0.107 A 
ATOM     15  H   LIG d   1       3.365  -3.919  -7.295  0.00  0.00     0.060 H 
ATOM     16  N   LIG d   1       5.026  -3.173  -6.294  0.00  0.00    -0.276 N 
ATOM     17  C   LIG d   1       6.037  -3.683  -5.586  0.00  0.00     0.234 A 
ATOM     18  O   LIG d   1       6.494  -3.010  -4.687  0.00  0.00    -0.274 OA
ATOM     19  C   LIG d   1       6.641  -5.029  -5.824  0.00  0.00     0.092 A 
ATOM     20  N   LIG d   1       5.980  -5.740  -6.906  0.00  0.00    -0.287 N 
ATOM     21  C   LIG d   1       4.995  -5.224  -7.638  0.00  0.00     0.237 A 
ATOM     22  O   LIG d   1       4.515  -5.915  -8.512  0.00  0.00    -0.274 OA
ATOM     23  H   LIG d   1       4.339  -1.294 -11.342  0.00  0.00     0.062 H 
ATOM     24  H   LIG d   1       3.889   0.894 -12.376  0.00  0.00     0.062 H 
ATOM     25  H   LIG d   1       3.488   2.876 -11.030  0.00  0.00     0.062 H 
ATOM     26  H   LIG d   1       3.510   2.794  -8.561  0.00  0.00     0.064 H 
ATOM     27  H   LIG d   1       4.063  -3.355  -9.519  0.00  0.00     0.034 H 
ATOM     28  H   LIG d   1       5.751  -3.112  -9.005  0.00  0.00     0.034 H 
ATOM     29  H   LIG d   1       6.563  -5.620  -4.912  0.00  0.00     0.056 H 
ATOM     30  H   LIG d   1       7.694  -4.903  -6.075  0.00  0.00     0.056 H 
ENDROOT
BRANCH   1  31
ATOM     31  C   LIG d   1       5.412  -1.161  -4.961  0.00  0.00     0.021 A 
ATOM     32  C   LIG d   1       5.097  -1.052  -3.614  0.00  0.00     0.126 A 
ATOM     33  C   LIG d   1       5.972  -0.410  -2.750  0.00  0.00    -0.020 A 
ATOM     34  C   LIG d   1       7.152   0.122  -3.232  0.00  0.00    -0.058 A 
ATOM     35  H   LIG d   1       5.731  -0.327  -1.700  0.00  0.00     0.065 H 
ATOM     36  C   LIG d   1       7.461   0.016  -4.576  0.00  0.00    -0.061 A 
ATOM     37  H   LIG d   1       7.834   0.621  -2.559  0.00  0.00     0.062 H 
ATOM     38  C   LIG d   1       6.591  -0.623  -5.440  0.00  0.00    -0.053 A 
ATOM     39  H   LIG d   1       8.384   0.433  -4.951  0.00  0.00     0.062 H 
ATOM     40  H   LIG d   1       6.835  -0.704  -6.488  0.00  0.00     0.062 H 
BRANCH  32  41
ATOM     41  O   LIG d   1       3.936  -1.576  -3.142  0.00  0.00    -0.492 OA
BRANCH  41  42
ATOM     42  C   LIG d   1       2.805  -0.704  -3.090  0.00  0.00     0.087 C 
ATOM     43  H   LIG d   1       2.052  -1.123  -2.421  0.00  0.00     0.069 H 
ATOM     44  H   LIG d   1       2.382  -0.596  -4.090  0.00  0.00     0.069 H 
BRANCH  42  45
ATOM     45  C   LIG d   1       3.240   0.668  -2.571  0.00  0.00    -0.031 C 
ATOM     46  H   LIG d   1       3.388   0.617  -1.492  0.00  0.00     0.026 H 
ATOM     47  H   LIG d   1       4.173   0.961  -3.052  0.00  0.00     0.026 H 
ATOM     48  H   LIG d   1       2.467   1.403  -2.796  0.00  0.00     0.026 H 
ENDBRANCH  42  45
ENDBRANCH  41  42
ENDBRANCH  32  41
ENDBRANCH   1  31
BRANCH  20  49
ATOM     49  C   LIG d   1       6.423  -7.104  -7.207  0.00  0.00     0.040 C 
ATOM     50  H   LIG d   1       5.868  -7.484  -8.064  0.00  0.00     0.051 H 
ATOM     51  H   LIG d   1       7.488  -7.096  -7.439  0.00  0.00     0.051 H 
BRANCH  49  52
ATOM     52  C   LIG d   1       6.174  -7.989  -6.013  0.00  0.00    -0.026 A 
ATOM     53  C   LIG d   1       4.884  -8.362  -5.689  0.00  0.00    -0.011 A 
ATOM     54  C   LIG d   1       4.653  -9.180  -4.594  0.00  0.00     0.167 A 
ATOM     55  H   LIG d   1       4.055  -8.020  -6.289  0.00  0.00     0.066 H 
ATOM     56  C   LIG d   1       5.724  -9.616  -3.817  0.00  0.00     0.166 A 
ATOM     57  O   LIG d   1       3.500  -9.687  -4.070  0.00  0.00    -0.453 OA
ATOM     58  C   LIG d   1       7.014  -9.232  -4.145  0.00  0.00    -0.016 A 
ATOM     59  O   LIG d   1       5.241 -10.396  -2.806  0.00  0.00    -0.453 OA
ATOM     60  C   LIG d   1       7.237  -8.421  -5.242  0.00  0.00    -0.053 A 
ATOM     61  H   LIG d   1       7.847  -9.569  -3.545  0.00  0.00     0.066 H 
ATOM     62  H   LIG d   1       8.244  -8.123  -5.497  0.00  0.00     0.062 H 
ATOM     63  C   LIG d   1       3.910 -10.767  -3.211  0.00  0.00     0.233 C 
ATOM     64  H   LIG d   1       3.925 -11.709  -3.759  0.00  0.00     0.117 H 
ATOM     65  H   LIG d   1       3.253 -10.840  -2.343  0.00  0.00     0.117 H 
ENDBRANCH  49  52
ENDBRANCH  20  49
TORSDOF 6
ENDMDL
MODEL 5
REMARK VINA RESULT:      -8.1      3.274      6.352
REMARK  6 active torsions:
REMARK  status: ('A' for Active; 'I' for Inactive)
REMARK    1  A    between atoms: C_1  and  C_2 
REMARK    2  A    between atoms: C_2  and  O_3 
REMARK    3  A    between atoms: O_3  and  C_4 
REMARK    4  A    between atoms: C_9  and  C_10 
REMARK    5  A    between atoms: N_29  and  C_32 
REMARK    6  A    between atoms: C_32  and  C_33 
ROOT
ATOM      1  C   LIG d   1       7.188  -1.228  -4.792  0.00  0.00     0.096 C 
ATOM      2  H   LIG d   1       7.937  -0.450  -4.945  0.00  0.00     0.062 H 
ATOM      3  C   LIG d   1       7.855  -2.495  -4.305  0.00  0.00     0.046 A 
ATOM      4  C   LIG d   1       8.004  -3.599  -5.068  0.00  0.00    -0.015 A 
ATOM      5  C   LIG d   1       8.685  -4.586  -4.253  0.00  0.00     0.003 A 
ATOM      6  C   LIG d   1       9.104  -5.897  -4.505  0.00  0.00    -0.052 A 
ATOM      7  C   LIG d   1       9.732  -6.555  -3.477  0.00  0.00    -0.061 A 
ATOM      8  C   LIG d   1       9.947  -5.961  -2.245  0.00  0.00    -0.060 A 
ATOM      9  C   LIG d   1       9.543  -4.667  -1.969  0.00  0.00    -0.038 A 
ATOM     10  C   LIG d   1       8.904  -3.972  -2.994  0.00  0.00     0.047 A 
ATOM     11  N   LIG d   1       8.388  -2.710  -3.062  0.00  0.00    -0.356 N 
ATOM     12  H   LIG d   1       8.399  -2.063  -2.340  0.00  0.00     0.166 HD
ATOM     13  C   LIG d   1       7.532  -3.729  -6.493  0.00  0.00     0.002 C 
ATOM     14  C   LIG d   1       7.269  -2.326  -7.058  0.00  0.00     0.107 A 
ATOM     15  H   LIG d   1       8.224  -1.832  -7.231  0.00  0.00     0.060 H 
ATOM     16  N   LIG d   1       6.522  -1.544  -6.074  0.00  0.00    -0.276 N 
ATOM     17  C   LIG d   1       5.276  -1.111  -6.280  0.00  0.00     0.234 A 
ATOM     18  O   LIG d   1       4.721  -0.530  -5.371  0.00  0.00    -0.274 OA
ATOM     19  C   LIG d   1       4.519  -1.292  -7.555  0.00  0.00     0.092 A 
ATOM     20  N   LIG d   1       5.309  -1.973  -8.567  0.00  0.00    -0.287 N 
ATOM     21  C   LIG d   1       6.539  -2.437  -8.357  0.00  0.00     0.237 A 
ATOM     22  O   LIG d   1       7.104  -2.985  -9.281  0.00  0.00    -0.274 OA
ATOM     23  H   LIG d   1       8.940  -6.368  -5.463  0.00  0.00     0.062 H 
ATOM     24  H   LIG d   1      10.069  -7.569  -3.635  0.00  0.00     0.062 H 
ATOM     25  H   LIG d   1      10.445  -6.527  -1.473  0.00  0.00     0.062 H 
ATOM     26  H   LIG d   1       9.717  -4.214  -1.003  0.00  0.00     0.064 H 
ATOM     27  H   LIG d   1       8.298  -4.225  -7.088  0.00  0.00     0.034 H 
ATOM     28  H   LIG d   1       6.612  -4.314  -6.521  0.00  0.00     0.034 H 
ATOM     29  H   LIG d   1       4.224  -0.313  -7.935  0.00  0.00     0.056 H 
ATOM     30  H   LIG d   1       3.622  -1.877  -7.353  0.00  0.00     0.056 H 
ENDROOT
BRANCH   1  31
ATOM     31  C   LIG d   1       6.168  -0.766  -3.784  0.00  0.00     0.021 A 
ATOM     32  C   LIG d   1       6.016   0.588  -3.521  0.00  0.00     0.126 A 
ATOM     33  C   LIG d   1       5.072   1.010  -2.596  0.00  0.00    -0.020 A 
ATOM     34  C   LIG d   1       4.289   0.083  -1.937  0.00  0.00    -0.058 A 
ATOM     35  H   LIG d   1       4.950   2.064  -2.391  0.00  0.00     0.065 H 
ATOM     36  C   LIG d   1       4.445  -1.266  -2.197  0.00  0.00    -0.061 A 
ATOM     37  H   LIG d   1       3.553   0.412  -1.217  0.00  0.00     0.062 H 
ATOM     38  C   LIG d   1       5.386  -1.690  -3.118  0.00  0.00    -0.053 A 
ATOM     39  H   LIG d   1       3.832  -1.989  -1.681  0.00  0.00     0.062 H 
ATOM     40  H   LIG d   1       5.505  -2.744  -3.320  0.00  0.00     0.062 H 
BRANCH  32  41
ATOM     41  O   LIG d   1       6.788   1.498  -4.170  0.00  0.00    -0.492 OA
BRANCH  41  42
ATOM     42  C   LIG d   1       8.066   1.789  -3.601  0.00  0.00     0.087 C 
ATOM     43  H   LIG d   1       8.631   0.863  -3.483  0.00  0.00     0.069 H 
ATOM     44  H   LIG d   1       7.932   2.259  -2.627  0.00  0.00     0.069 H 
BRANCH  42  45
ATOM     45  C   LIG d   1       8.833   2.738  -4.524  0.00  0.00    -0.031 C 
ATOM     46  H   LIG d   1       8.982   3.693  -4.020  0.00  0.00     0.026 H 
ATOM     47  H   LIG d   1       9.800   2.302  -4.773  0.00  0.00     0.026 H 
ATOM     48  H   LIG d   1       8.260   2.897  -5.439  0.00  0.00     0.026 H 
ENDBRANCH  42  45
ENDBRANCH  41  42
ENDBRANCH  32  41
ENDBRANCH   1  31
BRANCH  20  49
ATOM     49  C   LIG d   1       4.718  -2.159  -9.895  0.00  0.00     0.040 C 
ATOM     50  H   LIG d   1       4.215  -1.242 -10.200  0.00  0.00     0.051 H 
ATOM     51  H   LIG d   1       5.503  -2.398 -10.612  0.00  0.00     0.051 H 
BRANCH  49  52
ATOM     52  C   LIG d   1       3.720  -3.288  -9.847  0.00  0.00    -0.026 A 
ATOM     53  C   LIG d   1       2.417  -3.074 -10.257  0.00  0.00    -0.011 A 
ATOM     54  C   LIG d   1       1.500  -4.112 -10.218  0.00  0.00     0.167 A 
ATOM     55  H   LIG d   1       2.115  -2.100 -10.609  0.00  0.00     0.066 H 
ATOM     56  C   LIG d   1       1.892  -5.367  -9.757  0.00  0.00     0.166 A 
ATOM     57  O   LIG d   1       0.181  -4.166 -10.562  0.00  0.00    -0.453 OA
ATOM     58  C   LIG d   1       3.198  -5.571  -9.343  0.00  0.00    -0.016 A 
ATOM     59  O   LIG d   1       0.818  -6.207  -9.812  0.00  0.00    -0.453 OA
ATOM     60  C   LIG d   1       4.109  -4.533  -9.390  0.00  0.00    -0.053 A 
ATOM     61  H   LIG d   1       3.505  -6.543  -8.986  0.00  0.00     0.066 H 
ATOM     62  H   LIG d   1       5.128  -4.694  -9.067  0.00  0.00     0.062 H 
ATOM     63  C   LIG d   1      -0.125  -5.568 -10.692  0.00  0.00     0.233 C 
ATOM     64  H   LIG d   1       0.025  -5.899 -11.720  0.00  0.00     0.117 H 
ATOM     65  H   LIG d   1      -1.147  -5.771 -10.371  0.00  0.00     0.117 H 
ENDBRANCH  49  52
ENDBRANCH  20  49
TORSDOF 6
ENDMDL
MODEL 6
REMARK VINA RESULT:      -7.9      3.022      7.440
REMARK  6 active torsions:
REMARK  status: ('A' for Active; 'I' for Inactive)
REMARK    1  A    between atoms: C_1  and  C_2 
REMARK    2  A    between atoms: C_2  and  O_3 
REMARK    3  A    between atoms: O_3  and  C_4 
REMARK    4  A    between atoms: C_9  and  C_10 
REMARK    5  A    between atoms: N_29  and  C_32 
REMARK    6  A    between atoms: C_32  and  C_33 
ROOT
ATOM      1  C   LIG d   1       6.870  -1.455  -4.942  0.00  0.00     0.096 C 
ATOM      2  H   LIG d   1       7.557  -0.720  -5.363  0.00  0.00     0.062 H 
ATOM      3  C   LIG d   1       7.646  -2.636  -4.405  0.00  0.00     0.046 A 
ATOM      4  C   LIG d   1       7.663  -3.849  -4.997  0.00  0.00    -0.015 A 
ATOM      5  C   LIG d   1       8.513  -4.702  -4.190  0.00  0.00     0.003 A 
ATOM      6  C   LIG d   1       8.900  -6.041  -4.310  0.00  0.00    -0.052 A 
ATOM      7  C   LIG d   1       9.733  -6.534  -3.337  0.00  0.00    -0.061 A 
ATOM      8  C   LIG d   1      10.177  -5.754  -2.283  0.00  0.00    -0.060 A 
ATOM      9  C   LIG d   1       9.811  -4.428  -2.140  0.00  0.00    -0.038 A 
ATOM     10  C   LIG d   1       8.965  -3.898  -3.113  0.00  0.00     0.047 A 
ATOM     11  N   LIG d   1       8.421  -2.657  -3.275  0.00  0.00    -0.356 N 
ATOM     12  H   LIG d   1       8.563  -1.903  -2.682  0.00  0.00     0.166 HD
ATOM     13  C   LIG d   1       6.920  -4.198  -6.260  0.00  0.00     0.002 C 
ATOM     14  C   LIG d   1       6.521  -2.900  -6.976  0.00  0.00     0.107 A 
ATOM     15  H   LIG d   1       7.412  -2.451  -7.413  0.00  0.00     0.060 H 
ATOM     16  N   LIG d   1       5.969  -1.963  -5.999  0.00  0.00    -0.276 N 
ATOM     17  C   LIG d   1       4.698  -1.553  -6.017  0.00  0.00     0.234 A 
ATOM     18  O   LIG d   1       4.324  -0.829  -5.119  0.00  0.00    -0.274 OA
ATOM     19  C   LIG d   1       3.706  -1.925  -7.071  0.00  0.00     0.092 A 
ATOM     20  N   LIG d   1       4.292  -2.768  -8.100  0.00  0.00    -0.287 N 
ATOM     21  C   LIG d   1       5.549  -3.207  -8.069  0.00  0.00     0.237 A 
ATOM     22  O   LIG d   1       5.930  -3.902  -8.989  0.00  0.00    -0.274 OA
ATOM     23  H   LIG d   1       8.558  -6.656  -5.129  0.00  0.00     0.062 H 
ATOM     24  H   LIG d   1      10.053  -7.564  -3.397  0.00  0.00     0.062 H 
ATOM     25  H   LIG d   1      10.831  -6.197  -1.546  0.00  0.00     0.062 H 
ATOM     26  H   LIG d   1      10.164  -3.830  -1.312  0.00  0.00     0.064 H 
ATOM     27  H   LIG d   1       7.561  -4.791  -6.911  0.00  0.00     0.034 H 
ATOM     28  H   LIG d   1       6.025  -4.770  -6.011  0.00  0.00     0.034 H 
ATOM     29  H   LIG d   1       3.322  -1.016  -7.534  0.00  0.00     0.056 H 
ATOM     30  H   LIG d   1       2.880  -2.461  -6.603  0.00  0.00     0.056 H 
ENDROOT
BRANCH   1  31
ATOM     31  C   LIG d   1       6.062  -0.826  -3.837  0.00  0.00     0.021 A 
ATOM     32  C   LIG d   1       6.090   0.548  -3.652  0.00  0.00     0.126 A 
ATOM     33  C   LIG d   1       5.340   1.124  -2.636  0.00  0.00    -0.020 A 
ATOM     34  C   LIG d   1       4.572   0.328  -1.810  0.00  0.00    -0.058 A 
ATOM     35  H   LIG d   1       5.358   2.195  -2.492  0.00  0.00     0.065 H 
ATOM     36  C   LIG d   1       4.550  -1.042  -1.993  0.00  0.00    -0.061 A 
ATOM     37  H   LIG d   1       3.988   0.776  -1.019  0.00  0.00     0.062 H 
ATOM     38  C   LIG d   1       5.296  -1.619  -3.004  0.00  0.00    -0.053 A 
ATOM     39  H   LIG d   1       3.949  -1.663  -1.345  0.00  0.00     0.062 H 
ATOM     40  H   LIG d   1       5.276  -2.689  -3.145  0.00  0.00     0.062 H 
BRANCH  32  41
ATOM     41  O   LIG d   1       6.847   1.329  -4.466  0.00  0.00    -0.492 OA
BRANCH  41  42
ATOM     42  C   LIG d   1       8.011   1.927  -3.893  0.00  0.00     0.087 C 
ATOM     43  H   LIG d   1       8.694   1.146  -3.559  0.00  0.00     0.069 H 
ATOM     44  H   LIG d   1       7.721   2.545  -3.042  0.00  0.00     0.069 H 
BRANCH  42  45
ATOM     45  C   LIG d   1       8.707   2.798  -4.941  0.00  0.00    -0.031 C 
ATOM     46  H   LIG d   1       7.959   3.244  -5.597  0.00  0.00     0.026 H 
ATOM     47  H   LIG d   1       9.271   3.587  -4.443  0.00  0.00     0.026 H 
ATOM     48  H   LIG d   1       9.386   2.182  -5.532  0.00  0.00     0.026 H 
ENDBRANCH  42  45
ENDBRANCH  41  42
ENDBRANCH  32  41
ENDBRANCH   1  31
BRANCH  20  49
ATOM     49  C   LIG d   1       3.452  -3.156  -9.236  0.00  0.00     0.040 C 
ATOM     50  H   LIG d   1       3.675  -4.184  -9.518  0.00  0.00     0.051 H 
ATOM     51  H   LIG d   1       2.402  -3.076  -8.955  0.00  0.00     0.051 H 
BRANCH  49  52
ATOM     52  C   LIG d   1       3.731  -2.242 -10.402  0.00  0.00    -0.026 A 
ATOM     53  C   LIG d   1       4.061  -2.777 -11.633  0.00  0.00    -0.011 A 
ATOM     54  C   LIG d   1       4.313  -1.939 -12.708  0.00  0.00     0.167 A 
ATOM     55  H   LIG d   1       4.120  -3.847 -11.759  0.00  0.00     0.066 H 
ATOM     56  C   LIG d   1       4.243  -0.558 -12.541  0.00  0.00     0.166 A 
ATOM     57  O   LIG d   1       4.649  -2.206 -14.003  0.00  0.00    -0.453 OA
ATOM     58  C   LIG d   1       3.917  -0.030 -11.302  0.00  0.00    -0.016 A 
ATOM     59  O   LIG d   1       4.535   0.040 -13.732  0.00  0.00    -0.453 OA
ATOM     60  C   LIG d   1       3.662  -0.872 -10.236  0.00  0.00    -0.053 A 
ATOM     61  H   LIG d   1       3.862   1.040 -11.170  0.00  0.00     0.066 H 
ATOM     62  H   LIG d   1       3.407  -0.458  -9.271  0.00  0.00     0.062 H 
ATOM     63  C   LIG d   1       4.383  -0.989 -14.727  0.00  0.00     0.233 C 
ATOM     64  H   LIG d   1       3.368  -0.993 -15.123  0.00  0.00     0.117 H 
ATOM     65  H   LIG d   1       5.106  -0.854 -15.531  0.00  0.00     0.117 H 
ENDBRANCH  49  52
ENDBRANCH  20  49
TORSDOF 6
ENDMDL
MODEL 7
REMARK VINA RESULT:      -7.7      2.914      4.882
REMARK  6 active torsions:
REMARK  status: ('A' for Active; 'I' for Inactive)
REMARK    1  A    between atoms: C_1  and  C_2 
REMARK    2  A    between atoms: C_2  and  O_3 
REMARK    3  A    between atoms: O_3  and  C_4 
REMARK    4  A    between atoms: C_9  and  C_10 
REMARK    5  A    between atoms: N_29  and  C_32 
REMARK    6  A    between atoms: C_32  and  C_33 
ROOT
ATOM      1  C   LIG d   1       6.526  -0.277  -5.410  0.00  0.00     0.096 C 
ATOM      2  H   LIG d   1       6.137  -0.067  -6.407  0.00  0.00     0.062 H 
ATOM      3  C   LIG d   1       7.659   0.671  -5.090  0.00  0.00     0.046 A 
ATOM      4  C   LIG d   1       8.955   0.295  -5.041  0.00  0.00    -0.015 A 
ATOM      5  C   LIG d   1       9.726   1.477  -4.709  0.00  0.00     0.003 A 
ATOM      6  C   LIG d   1      11.096   1.695  -4.528  0.00  0.00    -0.052 A 
ATOM      7  C   LIG d   1      11.483   2.973  -4.210  0.00  0.00    -0.061 A 
ATOM      8  C   LIG d   1      10.571   4.006  -4.074  0.00  0.00    -0.060 A 
ATOM      9  C   LIG d   1       9.212   3.819  -4.247  0.00  0.00    -0.038 A 
ATOM     10  C   LIG d   1       8.788   2.532  -4.572  0.00  0.00     0.047 A 
ATOM     11  N   LIG d   1       7.550   2.008  -4.808  0.00  0.00    -0.356 N 
ATOM     12  H   LIG d   1       6.718   2.506  -4.782  0.00  0.00     0.166 HD
ATOM     13  C   LIG d   1       9.453  -1.105  -5.292  0.00  0.00     0.002 C 
ATOM     14  C   LIG d   1       8.356  -1.899  -6.016  0.00  0.00     0.107 A 
ATOM     15  H   LIG d   1       8.287  -1.547  -7.045  0.00  0.00     0.060 H 
ATOM     16  N   LIG d   1       7.072  -1.650  -5.361  0.00  0.00    -0.276 N 
ATOM     17  C   LIG d   1       6.381  -2.600  -4.726  0.00  0.00     0.234 A 
ATOM     18  O   LIG d   1       5.362  -2.272  -4.157  0.00  0.00    -0.274 OA
ATOM     19  C   LIG d   1       6.778  -4.039  -4.670  0.00  0.00     0.092 A 
ATOM     20  N   LIG d   1       7.998  -4.298  -5.416  0.00  0.00    -0.287 N 
ATOM     21  C   LIG d   1       8.710  -3.351  -6.024  0.00  0.00     0.237 A 
ATOM     22  O   LIG d   1       9.710  -3.688  -6.623  0.00  0.00    -0.274 OA
ATOM     23  H   LIG d   1      11.813   0.895  -4.632  0.00  0.00     0.062 H 
ATOM     24  H   LIG d   1      12.533   3.179  -4.062  0.00  0.00     0.062 H 
ATOM     25  H   LIG d   1      10.934   4.991  -3.821  0.00  0.00     0.062 H 
ATOM     26  H   LIG d   1       8.510   4.634  -4.138  0.00  0.00     0.064 H 
ATOM     27  H   LIG d   1      10.347  -1.069  -5.913  0.00  0.00     0.034 H 
ATOM     28  H   LIG d   1       9.687  -1.585  -4.341  0.00  0.00     0.034 H 
ATOM     29  H   LIG d   1       5.973  -4.646  -5.084  0.00  0.00     0.056 H 
ATOM     30  H   LIG d   1       6.934  -4.321  -3.629  0.00  0.00     0.056 H 
ENDROOT
BRANCH   1  31
ATOM     31  C   LIG d   1       5.427  -0.126  -4.390  0.00  0.00     0.021 A 
ATOM     32  C   LIG d   1       4.099  -0.207  -4.783  0.00  0.00     0.126 A 
ATOM     33  C   LIG d   1       3.090  -0.073  -3.840  0.00  0.00    -0.020 A 
ATOM     34  C   LIG d   1       3.409   0.145  -2.514  0.00  0.00    -0.058 A 
ATOM     35  H   LIG d   1       2.055  -0.139  -4.144  0.00  0.00     0.065 H 
ATOM     36  C   LIG d   1       4.734   0.231  -2.126  0.00  0.00    -0.061 A 
ATOM     37  H   LIG d   1       2.624   0.249  -1.780  0.00  0.00     0.062 H 
ATOM     38  C   LIG d   1       5.741   0.098  -3.063  0.00  0.00    -0.053 A 
ATOM     39  H   LIG d   1       4.981   0.402  -1.089  0.00  0.00     0.062 H 
ATOM     40  H   LIG d   1       6.774   0.165  -2.757  0.00  0.00     0.062 H 
BRANCH  32  41
ATOM     41  O   LIG d   1       3.788  -0.422  -6.088  0.00  0.00    -0.492 OA
BRANCH  41  42
ATOM     42  C   LIG d   1       2.741   0.375  -6.644  0.00  0.00     0.087 C 
ATOM     43  H   LIG d   1       3.029   1.426  -6.616  0.00  0.00     0.069 H 
ATOM     44  H   LIG d   1       1.828   0.233  -6.064  0.00  0.00     0.069 H 
BRANCH  42  45
ATOM     45  C   LIG d   1       2.493  -0.046  -8.095  0.00  0.00    -0.031 C 
ATOM     46  H   LIG d   1       3.444  -0.291  -8.569  0.00  0.00     0.026 H 
ATOM     47  H   LIG d   1       1.841  -0.920  -8.114  0.00  0.00     0.026 H 
ATOM     48  H   LIG d   1       2.019   0.773  -8.635  0.00  0.00     0.026 H 
ENDBRANCH  42  45
ENDBRANCH  41  42
ENDBRANCH  32  41
ENDBRANCH   1  31
BRANCH  20  49
ATOM     49  C   LIG d   1       8.471  -5.682  -5.507  0.00  0.00     0.040 C 
ATOM     50  H   LIG d   1       7.635  -6.337  -5.749  0.00  0.00     0.051 H 
ATOM     51  H   LIG d   1       9.229  -5.756  -6.287  0.00  0.00     0.051 H 
BRANCH  49  52
ATOM     52  C   LIG d   1       9.069  -6.096  -4.186  0.00  0.00    -0.026 A 
ATOM     53  C   LIG d   1       8.941  -7.401  -3.750  0.00  0.00    -0.011 A 
ATOM     54  C   LIG d   1       9.494  -7.785  -2.539  0.00  0.00     0.167 A 
ATOM     55  H   LIG d   1       8.413  -8.123  -4.355  0.00  0.00     0.066 H 
ATOM     56  C   LIG d   1      10.170  -6.850  -1.759  0.00  0.00     0.166 A 
ATOM     57  O   LIG d   1       9.513  -8.987  -1.894  0.00  0.00    -0.453 OA
ATOM     58  C   LIG d   1      10.289  -5.542  -2.200  0.00  0.00    -0.016 A 
ATOM     59  O   LIG d   1      10.612  -7.467  -0.624  0.00  0.00    -0.453 OA
ATOM     60  C   LIG d   1       9.740  -5.168  -3.412  0.00  0.00    -0.053 A 
ATOM     61  H   LIG d   1      10.813  -4.815  -1.597  0.00  0.00     0.066 H 
ATOM     62  H   LIG d   1       9.834  -4.147  -3.755  0.00  0.00     0.062 H 
ATOM     63  C   LIG d   1      10.556  -8.877  -0.907  0.00  0.00     0.233 C 
ATOM     64  H   LIG d   1      11.506  -9.224  -1.313  0.00  0.00     0.117 H 
ATOM     65  H   LIG d   1      10.297  -9.437  -0.008  0.00  0.00     0.117 H 
ENDBRANCH  49  52
ENDBRANCH  20  49
TORSDOF 6
ENDMDL
MODEL 8
REMARK VINA RESULT:      -7.7      3.852      7.471
REMARK  6 active torsions:
REMARK  status: ('A' for Active; 'I' for Inactive)
REMARK    1  A    between atoms: C_1  and  C_2 
REMARK    2  A    between atoms: C_2  and  O_3 
REMARK    3  A    between atoms: O_3  and  C_4 
REMARK    4  A    between atoms: C_9  and  C_10 
REMARK    5  A    between atoms: N_29  and  C_32 
REMARK    6  A    between atoms: C_32  and  C_33 
ROOT
ATOM      1  C   LIG d   1       6.676  -0.308  -5.181  0.00  0.00     0.096 C 
ATOM      2  H   LIG d   1       6.933   0.568  -4.583  0.00  0.00     0.062 H 
ATOM      3  C   LIG d   1       7.934  -1.041  -5.586  0.00  0.00     0.046 A 
ATOM      4  C   LIG d   1       8.423  -1.046  -6.845  0.00  0.00    -0.015 A 
ATOM      5  C   LIG d   1       9.629  -1.849  -6.827  0.00  0.00     0.003 A 
ATOM      6  C   LIG d   1      10.547  -2.202  -7.822  0.00  0.00    -0.052 A 
ATOM      7  C   LIG d   1      11.598  -2.999  -7.441  0.00  0.00    -0.061 A 
ATOM      8  C   LIG d   1      11.754  -3.438  -6.137  0.00  0.00    -0.060 A 
ATOM      9  C   LIG d   1      10.861  -3.104  -5.133  0.00  0.00    -0.038 A 
ATOM     10  C   LIG d   1       9.784  -2.295  -5.490  0.00  0.00     0.047 A 
ATOM     11  N   LIG d   1       8.742  -1.788  -4.769  0.00  0.00    -0.356 N 
ATOM     12  H   LIG d   1       8.595  -1.934  -3.822  0.00  0.00     0.166 HD
ATOM     13  C   LIG d   1       7.792  -0.333  -8.013  0.00  0.00     0.002 C 
ATOM     14  C   LIG d   1       6.804   0.714  -7.480  0.00  0.00     0.107 A 
ATOM     15  H   LIG d   1       7.366   1.542  -7.049  0.00  0.00     0.060 H 
ATOM     16  N   LIG d   1       5.992   0.114  -6.422  0.00  0.00    -0.276 N 
ATOM     17  C   LIG d   1       4.674  -0.070  -6.530  0.00  0.00     0.234 A 
ATOM     18  O   LIG d   1       4.107  -0.641  -5.623  0.00  0.00    -0.274 OA
ATOM     19  C   LIG d   1       3.850   0.380  -7.692  0.00  0.00     0.092 A 
ATOM     20  N   LIG d   1       4.647   1.074  -8.690  0.00  0.00    -0.287 N 
ATOM     21  C   LIG d   1       5.966   1.232  -8.605  0.00  0.00     0.237 A 
ATOM     22  O   LIG d   1       6.525   1.835  -9.497  0.00  0.00    -0.274 OA
ATOM     23  H   LIG d   1      10.433  -1.864  -8.841  0.00  0.00     0.062 H 
ATOM     24  H   LIG d   1      12.327  -3.292  -8.182  0.00  0.00     0.062 H 
ATOM     25  H   LIG d   1      12.599  -4.064  -5.895  0.00  0.00     0.062 H 
ATOM     26  H   LIG d   1      10.994  -3.453  -4.119  0.00  0.00     0.064 H 
ATOM     27  H   LIG d   1       8.565   0.160  -8.601  0.00  0.00     0.034 H 
ATOM     28  H   LIG d   1       7.262  -1.054  -8.637  0.00  0.00     0.034 H 
ATOM     29  H   LIG d   1       3.068   1.049  -7.335  0.00  0.00     0.056 H 
ATOM     30  H   LIG d   1       3.386  -0.491  -8.154  0.00  0.00     0.056 H 
ENDROOT
BRANCH   1  31
ATOM     31  C   LIG d   1       5.780  -1.224  -4.388  0.00  0.00     0.021 A 
ATOM     32  C   LIG d   1       5.302  -0.826  -3.148  0.00  0.00     0.126 A 
ATOM     33  C   LIG d   1       4.474  -1.670  -2.423  0.00  0.00    -0.020 A 
ATOM     34  C   LIG d   1       4.130  -2.906  -2.935  0.00  0.00    -0.058 A 
ATOM     35  H   LIG d   1       4.098  -1.360  -1.459  0.00  0.00     0.065 H 
ATOM     36  C   LIG d   1       4.612  -3.303  -4.169  0.00  0.00    -0.061 A 
ATOM     37  H   LIG d   1       3.485  -3.563  -2.371  0.00  0.00     0.062 H 
ATOM     38  C   LIG d   1       5.439  -2.464  -4.894  0.00  0.00    -0.053 A 
ATOM     39  H   LIG d   1       4.343  -4.270  -4.567  0.00  0.00     0.062 H 
ATOM     40  H   LIG d   1       5.813  -2.777  -5.857  0.00  0.00     0.062 H 
BRANCH  32  41
ATOM     41  O   LIG d   1       5.642   0.391  -2.647  0.00  0.00    -0.492 OA
BRANCH  41  42
ATOM     42  C   LIG d   1       4.646   1.081  -1.890  0.00  0.00     0.087 C 
ATOM     43  H   LIG d   1       5.110   1.902  -1.342  0.00  0.00     0.069 H 
ATOM     44  H   LIG d   1       4.182   0.391  -1.185  0.00  0.00     0.069 H 
BRANCH  42  45
ATOM     45  C   LIG d   1       3.579   1.638  -2.835  0.00  0.00    -0.031 C 
ATOM     46  H   LIG d   1       4.059   2.222  -3.620  0.00  0.00     0.026 H 
ATOM     47  H   LIG d   1       3.024   0.814  -3.284  0.00  0.00     0.026 H 
ATOM     48  H   LIG d   1       2.895   2.275  -2.275  0.00  0.00     0.026 H 
ENDBRANCH  42  45
ENDBRANCH  41  42
ENDBRANCH  32  41
ENDBRANCH   1  31
BRANCH  20  49
ATOM     49  C   LIG d   1       3.958   1.634  -9.856  0.00  0.00     0.040 C 
ATOM     50  H   LIG d   1       3.068   2.169  -9.529  0.00  0.00     0.051 H 
ATOM     51  H   LIG d   1       4.626   2.321 -10.376  0.00  0.00     0.051 H 
BRANCH  49  52
ATOM     52  C   LIG d   1       3.561   0.518 -10.788  0.00  0.00    -0.026 A 
ATOM     53  C   LIG d   1       2.381  -0.170 -10.577  0.00  0.00    -0.011 A 
ATOM     54  C   LIG d   1       2.011  -1.193 -11.436  0.00  0.00     0.167 A 
ATOM     55  H   LIG d   1       1.745   0.092  -9.745  0.00  0.00     0.066 H 
ATOM     56  C   LIG d   1       2.837  -1.531 -12.505  0.00  0.00     0.166 A 
ATOM     57  O   LIG d   1       0.919  -2.009 -11.452  0.00  0.00    -0.453 OA
ATOM     58  C   LIG d   1       4.021  -0.841 -12.707  0.00  0.00    -0.016 A 
ATOM     59  O   LIG d   1       2.261  -2.561 -13.191  0.00  0.00    -0.453 OA
ATOM     60  C   LIG d   1       4.380   0.181 -11.850  0.00  0.00    -0.053 A 
ATOM     61  H   LIG d   1       4.663  -1.101 -13.535  0.00  0.00     0.066 H 
ATOM     62  H   LIG d   1       5.304   0.719 -12.009  0.00  0.00     0.062 H 
ATOM     63  C   LIG d   1       0.883  -2.577 -12.775  0.00  0.00     0.233 C 
ATOM     64  H   LIG d   1       0.275  -1.962 -13.439  0.00  0.00     0.117 H 
ATOM     65  H   LIG d   1       0.503  -3.598 -12.746  0.00  0.00     0.117 H 
ENDBRANCH  49  52
ENDBRANCH  20  49
TORSDOF 6
ENDMDL
MODEL 9
REMARK VINA RESULT:      -7.7      3.281      8.795
REMARK  6 active torsions:
REMARK  status: ('A' for Active; 'I' for Inactive)
REMARK    1  A    between atoms: C_1  and  C_2 
REMARK    2  A    between atoms: C_2  and  O_3 
REMARK    3  A    between atoms: O_3  and  C_4 
REMARK    4  A    between atoms: C_9  and  C_10 
REMARK    5  A    between atoms: N_29  and  C_32 
REMARK    6  A    between atoms: C_32  and  C_33 
ROOT
ATOM      1  C   LIG d   1       5.234  -1.321  -5.741  0.00  0.00     0.096 C 
ATOM      2  H   LIG d   1       4.853  -0.957  -4.786  0.00  0.00     0.062 H 
ATOM      3  C   LIG d   1       5.472  -2.811  -5.665  0.00  0.00     0.046 A 
ATOM      4  C   LIG d   1       6.701  -3.369  -5.623  0.00  0.00    -0.015 A 
ATOM      5  C   LIG d   1       6.512  -4.804  -5.553  0.00  0.00     0.003 A 
ATOM      6  C   LIG d   1       7.408  -5.876  -5.486  0.00  0.00    -0.052 A 
ATOM      7  C   LIG d   1       6.865  -7.136  -5.431  0.00  0.00    -0.061 A 
ATOM      8  C   LIG d   1       5.497  -7.348  -5.440  0.00  0.00    -0.060 A 
ATOM      9  C   LIG d   1       4.588  -6.307  -5.506  0.00  0.00    -0.038 A 
ATOM     10  C   LIG d   1       5.110  -5.017  -5.561  0.00  0.00     0.047 A 
ATOM     11  N   LIG d   1       4.514  -3.790  -5.630  0.00  0.00    -0.356 N 
ATOM     12  H   LIG d   1       3.557  -3.635  -5.651  0.00  0.00     0.166 HD
ATOM     13  C   LIG d   1       7.995  -2.598  -5.649  0.00  0.00     0.002 C 
ATOM     14  C   LIG d   1       7.706  -1.132  -5.295  0.00  0.00     0.107 A 
ATOM     15  H   LIG d   1       7.479  -1.065  -4.232  0.00  0.00     0.060 H 
ATOM     16  N   LIG d   1       6.532  -0.681  -6.042  0.00  0.00    -0.276 N 
ATOM     17  C   LIG d   1       6.584   0.272  -6.975  0.00  0.00     0.234 A 
ATOM     18  O   LIG d   1       5.566   0.523  -7.584  0.00  0.00    -0.274 OA
ATOM     19  C   LIG d   1       7.811   1.053  -7.320  0.00  0.00     0.092 A 
ATOM     20  N   LIG d   1       8.947   0.674  -6.496  0.00  0.00    -0.287 N 
ATOM     21  C   LIG d   1       8.911  -0.298  -5.587  0.00  0.00     0.237 A 
ATOM     22  O   LIG d   1       9.923  -0.521  -4.954  0.00  0.00    -0.274 OA
ATOM     23  H   LIG d   1       8.477  -5.720  -5.478  0.00  0.00     0.062 H 
ATOM     24  H   LIG d   1       7.527  -7.988  -5.379  0.00  0.00     0.062 H 
ATOM     25  H   LIG d   1       5.126  -8.362  -5.396  0.00  0.00     0.062 H 
ATOM     26  H   LIG d   1       3.522  -6.487  -5.512  0.00  0.00     0.064 H 
ATOM     27  H   LIG d   1       8.687  -3.019  -4.921  0.00  0.00     0.034 H 
ATOM     28  H   LIG d   1       8.435  -2.655  -6.646  0.00  0.00     0.034 H 
ATOM     29  H   LIG d   1       7.608   2.114  -7.178  0.00  0.00     0.056 H 
ATOM     30  H   LIG d   1       8.058   0.876  -8.366  0.00  0.00     0.056 H 
ENDROOT
BRANCH   1  31
ATOM     31  C   LIG d   1       4.246  -1.014  -6.837  0.00  0.00     0.021 A 
ATOM     32  C   LIG d   1       3.258  -0.061  -6.634  0.00  0.00     0.126 A 
ATOM     33  C   LIG d   1       2.353   0.223  -7.647  0.00  0.00    -0.020 A 
ATOM     34  C   LIG d   1       2.434  -0.448  -8.852  0.00  0.00    -0.058 A 
ATOM     35  H   LIG d   1       1.586   0.967  -7.493  0.00  0.00     0.065 H 
ATOM     36  C   LIG d   1       3.416  -1.402  -9.049  0.00  0.00    -0.061 A 
ATOM     37  H   LIG d   1       1.730  -0.227  -9.641  0.00  0.00     0.062 H 
ATOM     38  C   LIG d   1       4.319  -1.687  -8.042  0.00  0.00    -0.053 A 
ATOM     39  H   LIG d   1       3.477  -1.925  -9.992  0.00  0.00     0.062 H 
ATOM     40  H   LIG d   1       5.084  -2.431  -8.199  0.00  0.00     0.062 H 
BRANCH  32  41
ATOM     41  O   LIG d   1       3.181   0.598  -5.448  0.00  0.00    -0.492 OA
BRANCH  41  42
ATOM     42  C   LIG d   1       2.096   0.253  -4.585  0.00  0.00     0.087 C 
ATOM     43  H   LIG d   1       1.374  -0.355  -5.132  0.00  0.00     0.069 H 
ATOM     44  H   LIG d   1       1.611   1.162  -4.229  0.00  0.00     0.069 H 
BRANCH  42  45
ATOM     45  C   LIG d   1       2.627  -0.542  -3.389  0.00  0.00    -0.031 C 
ATOM     46  H   LIG d   1       3.548  -0.083  -3.029  0.00  0.00     0.026 H 
ATOM     47  H   LIG d   1       1.884  -0.541  -2.592  0.00  0.00     0.026 H 
ATOM     48  H   LIG d   1       2.830  -1.568  -3.697  0.00  0.00     0.026 H 
ENDBRANCH  42  45
ENDBRANCH  41  42
ENDBRANCH  32  41
ENDBRANCH   1  31
BRANCH  20  49
ATOM     49  C   LIG d   1      10.204   1.406  -6.676  0.00  0.00     0.040 C 
ATOM     50  H   LIG d   1      10.993   0.916  -6.107  0.00  0.00     0.051 H 
ATOM     51  H   LIG d   1      10.470   1.415  -7.733  0.00  0.00     0.051 H 
BRANCH  49  52
ATOM     52  C   LIG d   1      10.035   2.822  -6.188  0.00  0.00    -0.026 A 
ATOM     53  C   LIG d   1       9.898   3.074  -4.836  0.00  0.00    -0.011 A 
ATOM     54  C   LIG d   1       9.748   4.376  -4.385  0.00  0.00     0.167 A 
ATOM     55  H   LIG d   1       9.911   2.257  -4.131  0.00  0.00     0.066 H 
ATOM     56  C   LIG d   1       9.727   5.427  -5.299  0.00  0.00     0.166 A 
ATOM     57  O   LIG d   1       9.601   4.886  -3.129  0.00  0.00    -0.453 OA
ATOM     58  C   LIG d   1       9.859   5.166  -6.653  0.00  0.00    -0.016 A 
ATOM     59  O   LIG d   1       9.564   6.596  -4.614  0.00  0.00    -0.453 OA
ATOM     60  C   LIG d   1      10.014   3.866  -7.095  0.00  0.00    -0.053 A 
ATOM     61  H   LIG d   1       9.843   5.979  -7.363  0.00  0.00     0.066 H 
ATOM     62  H   LIG d   1      10.117   3.663  -8.151  0.00  0.00     0.062 H 
ATOM     63  C   LIG d   1       9.898   6.290  -3.247  0.00  0.00     0.233 C 
ATOM     64  H   LIG d   1      10.955   6.475  -3.060  0.00  0.00     0.117 H 
ATOM     65  H   LIG d   1       9.281   6.874  -2.563  0.00  0.00     0.117 H 
ENDBRANCH  49  52
ENDBRANCH  20  49
TORSDOF 6
ENDMDL
MODEL 10
REMARK VINA RESULT:      -7.6      4.343      8.269
REMARK  6 active torsions:
REMARK  status: ('A' for Active; 'I' for Inactive)
REMARK    1  A    between atoms: C_1  and  C_2 
REMARK    2  A    between atoms: C_2  and  O_3 
REMARK    3  A    between atoms: O_3  and  C_4 
REMARK    4  A    between atoms: C_9  and  C_10 
REMARK    5  A    between atoms: N_29  and  C_32 
REMARK    6  A    between atoms: C_32  and  C_33 
ROOT
ATOM      1  C   LIG d   1       6.337  -1.308  -5.100  0.00  0.00     0.096 C 
ATOM      2  H   LIG d   1       6.940  -2.117  -4.686  0.00  0.00     0.062 H 
ATOM      3  C   LIG d   1       5.742  -1.735  -6.422  0.00  0.00     0.046 A 
ATOM      4  C   LIG d   1       6.156  -1.257  -7.615  0.00  0.00    -0.015 A 
ATOM      5  C   LIG d   1       5.352  -1.904  -8.632  0.00  0.00     0.003 A 
ATOM      6  C   LIG d   1       5.331  -1.808 -10.028  0.00  0.00    -0.052 A 
ATOM      7  C   LIG d   1       4.413  -2.585 -10.689  0.00  0.00    -0.061 A 
ATOM      8  C   LIG d   1       3.544  -3.429 -10.019  0.00  0.00    -0.060 A 
ATOM      9  C   LIG d   1       3.543  -3.544  -8.640  0.00  0.00    -0.038 A 
ATOM     10  C   LIG d   1       4.464  -2.767  -7.941  0.00  0.00     0.047 A 
ATOM     11  N   LIG d   1       4.729  -2.638  -6.608  0.00  0.00    -0.356 N 
ATOM     12  H   LIG d   1       4.270  -3.115  -5.899  0.00  0.00     0.166 HD
ATOM     13  C   LIG d   1       7.252  -0.239  -7.799  0.00  0.00     0.002 C 
ATOM     14  C   LIG d   1       8.086  -0.172  -6.511  0.00  0.00     0.107 A 
ATOM     15  H   LIG d   1       8.692  -1.074  -6.437  0.00  0.00     0.060 H 
ATOM     16  N   LIG d   1       7.188  -0.127  -5.359  0.00  0.00    -0.276 N 
ATOM     17  C   LIG d   1       7.102   0.925  -4.542  0.00  0.00     0.234 A 
ATOM     18  O   LIG d   1       6.274   0.887  -3.656  0.00  0.00    -0.274 OA
ATOM     19  C   LIG d   1       7.957   2.146  -4.642  0.00  0.00     0.092 A 
ATOM     20  N   LIG d   1       8.924   2.047  -5.723  0.00  0.00    -0.287 N 
ATOM     21  C   LIG d   1       8.993   1.016  -6.563  0.00  0.00     0.237 A 
ATOM     22  O   LIG d   1       9.847   1.041  -7.425  0.00  0.00    -0.274 OA
ATOM     23  H   LIG d   1       6.006  -1.153 -10.559  0.00  0.00     0.062 H 
ATOM     24  H   LIG d   1       4.368  -2.537 -11.768  0.00  0.00     0.062 H 
ATOM     25  H   LIG d   1       2.842  -4.016 -10.591  0.00  0.00     0.062 H 
ATOM     26  H   LIG d   1       2.859  -4.207  -8.129  0.00  0.00     0.064 H 
ATOM     27  H   LIG d   1       7.890  -0.535  -8.631  0.00  0.00     0.034 H 
ATOM     28  H   LIG d   1       6.813   0.738  -8.004  0.00  0.00     0.034 H 
ATOM     29  H   LIG d   1       8.490   2.285  -3.702  0.00  0.00     0.056 H 
ATOM     30  H   LIG d   1       7.318   3.011  -4.818  0.00  0.00     0.056 H 
ENDROOT
BRANCH   1  31
ATOM     31  C   LIG d   1       5.237  -0.946  -4.136  0.00  0.00     0.021 A 
ATOM     32  C   LIG d   1       4.157  -0.189  -4.568  0.00  0.00     0.126 A 
ATOM     33  C   LIG d   1       3.143   0.139  -3.680  0.00  0.00    -0.020 A 
ATOM     34  C   LIG d   1       3.213  -0.285  -2.367  0.00  0.00    -0.058 A 
ATOM     35  H   LIG d   1       2.300   0.725  -4.014  0.00  0.00     0.065 H 
ATOM     36  C   LIG d   1       4.293  -1.035  -1.937  0.00  0.00    -0.061 A 
ATOM     37  H   LIG d   1       2.423  -0.031  -1.675  0.00  0.00     0.062 H 
ATOM     38  C   LIG d   1       5.305  -1.362  -2.821  0.00  0.00    -0.053 A 
ATOM     39  H   LIG d   1       4.346  -1.364  -0.910  0.00  0.00     0.062 H 
ATOM     40  H   LIG d   1       6.147  -1.948  -2.483  0.00  0.00     0.062 H 
BRANCH  32  41
ATOM     41  O   LIG d   1       4.091   0.227  -5.860  0.00  0.00    -0.492 OA
BRANCH  41  42
ATOM     42  C   LIG d   1       2.794   0.290  -6.455  0.00  0.00     0.087 C 
ATOM     43  H   LIG d   1       2.185   1.024  -5.926  0.00  0.00     0.069 H 
ATOM     44  H   LIG d   1       2.317  -0.689  -6.393  0.00  0.00     0.069 H 
BRANCH  42  45
ATOM     45  C   LIG d   1       2.925   0.701  -7.924  0.00  0.00    -0.031 C 
ATOM     46  H   LIG d   1       1.996   0.475  -8.448  0.00  0.00     0.026 H 
ATOM     47  H   LIG d   1       3.127   1.770  -7.986  0.00  0.00     0.026 H 
ATOM     48  H   LIG d   1       3.744   0.148  -8.383  0.00  0.00     0.026 H 
ENDBRANCH  42  45
ENDBRANCH  41  42
ENDBRANCH  32  41
ENDBRANCH   1  31
BRANCH  20  49
ATOM     49  C   LIG d   1       9.878   3.145  -5.898  0.00  0.00     0.040 C 
ATOM     50  H   LIG d   1      10.833   2.745  -6.237  0.00  0.00     0.051 H 
ATOM     51  H   LIG d   1       9.494   3.845  -6.640  0.00  0.00     0.051 H 
BRANCH  49  52
ATOM     52  C   LIG d   1      10.069   3.859  -4.585  0.00  0.00    -0.026 A 
ATOM     53  C   LIG d   1       9.668   5.175  -4.452  0.00  0.00    -0.011 A 
ATOM     54  C   LIG d   1       9.837   5.833  -3.243  0.00  0.00     0.167 A 
ATOM     55  H   LIG d   1       9.220   5.691  -5.287  0.00  0.00     0.066 H 
ATOM     56  C   LIG d   1      10.422   5.167  -2.169  0.00  0.00     0.166 A 
ATOM     57  O   LIG d   1       9.531   7.104  -2.855  0.00  0.00    -0.453 OA
ATOM     58  C   LIG d   1      10.826   3.850  -2.312  0.00  0.00    -0.016 A 
ATOM     59  O   LIG d   1      10.481   6.022  -1.106  0.00  0.00    -0.453 OA
ATOM     60  C   LIG d   1      10.649   3.199  -3.518  0.00  0.00    -0.053 A 
ATOM     61  H   LIG d   1      11.279   3.331  -1.480  0.00  0.00     0.066 H 
ATOM     62  H   LIG d   1      10.964   2.171  -3.628  0.00  0.00     0.062 H 
ATOM     63  C   LIG d   1       9.558   7.083  -1.415  0.00  0.00     0.233 C 
ATOM     64  H   LIG d   1       8.569   6.859  -1.016  0.00  0.00     0.117 H 
ATOM     65  H   LIG d   1       9.922   8.033  -1.022  0.00  0.00     0.117 H 
ENDBRANCH  49  52
ENDBRANCH  20  49
TORSDOF 6
ENDMDL
