MODEL 1
REMARK VINA RESULT:      -4.8      0.000      0.000
REMARK  5 active torsions:
REMARK  status: ('A' for Active; 'I' for Inactive)
REMARK    1  A    between atoms: C_2  and  N_16 
REMARK    2  A    between atoms: C_3  and  S_12 
REMARK    3  A    between atoms: C_5  and  S_8 
REMARK    4  A    between atoms: S_8  and  N_11 
REMARK    5  A    between atoms: S_12  and  N_15 
ROOT
ATOM      1  C   LIG d   1       7.468  -3.132  -4.275  0.00  0.00    -0.019 A 
ATOM      2  C   LIG d   1       6.701  -2.066  -3.822  0.00  0.00     0.053 A 
ATOM      3  C   LIG d   1       5.337  -2.035  -4.083  0.00  0.00     0.128 A 
ATOM      4  C   LIG d   1       4.746  -3.062  -4.792  0.00  0.00    -0.006 A 
ATOM      5  C   LIG d   1       5.511  -4.123  -5.242  0.00  0.00     0.125 A 
ATOM      6  C   LIG d   1       6.871  -4.158  -4.984  0.00  0.00     0.069 A 
ATOM      7 CL   LIG d   1       7.828  -5.491  -5.552  0.00  0.00    -0.082 Cl
ATOM      8  H   LIG d   1       8.529  -3.158  -4.077  0.00  0.00     0.065 H 
ATOM      9  H   LIG d   1       3.686  -3.038  -4.996  0.00  0.00     0.066 H 
ENDROOT
BRANCH   3  10
ATOM     10  S   LIG d   1       4.360  -0.685  -3.509  0.00  0.00     0.058 S 
ATOM     11  O   LIG d   1       4.388  -0.739  -2.089  0.00  0.00    -0.153 OA
ATOM     12  O   LIG d   1       4.782   0.460  -4.236  0.00  0.00    -0.153 OA
BRANCH  10  13
ATOM     13  N   LIG d   1       2.796  -0.985  -3.963  0.00  0.00    -0.203 N 
ATOM     14  H   LIG d   1       2.323  -0.348  -4.522  0.00  0.00     0.144 HD
ATOM     15  H   LIG d   1       2.353  -1.797  -3.670  0.00  0.00     0.144 HD
ENDBRANCH  10  13
ENDBRANCH   3  10
BRANCH   2  16
ATOM     16  N   LIG d   1       7.299  -1.029  -3.104  0.00  0.00    -0.356 N 
ATOM     17  H   LIG d   1       7.038  -0.862  -2.184  0.00  0.00     0.142 HD
ATOM     18  H   LIG d   1       7.976  -0.475  -3.524  0.00  0.00     0.142 HD
ENDBRANCH   2  16
BRANCH   5  19
ATOM     19  S   LIG d   1       4.754  -5.432  -6.147  0.00  0.00     0.057 S 
ATOM     20  O   LIG d   1       5.519  -5.601  -7.333  0.00  0.00    -0.153 OA
ATOM     21  O   LIG d   1       4.538  -6.490  -5.224  0.00  0.00    -0.153 OA
BRANCH  19  22
ATOM     22  N   LIG d   1       3.258  -4.901  -6.619  0.00  0.00    -0.203 N 
ATOM     23  H   LIG d   1       2.461  -5.304  -6.242  0.00  0.00     0.144 HD
ATOM     24  H   LIG d   1       3.181  -4.188  -7.271  0.00  0.00     0.144 HD
ENDBRANCH  19  22
ENDBRANCH   5  19
TORSDOF 5
ENDMDL
MODEL 2
REMARK VINA RESULT:      -4.6      3.853      5.068
REMARK  5 active torsions:
REMARK  status: ('A' for Active; 'I' for Inactive)
REMARK    1  A    between atoms: C_2  and  N_16 
REMARK    2  A    between atoms: C_3  and  S_12 
REMARK    3  A    between atoms: C_5  and  S_8 
REMARK    4  A    between atoms: S_8  and  N_11 
REMARK    5  A    between atoms: S_12  and  N_15 
ROOT
ATOM      1  C   LIG d   1       6.531   1.364  -3.169  0.00  0.00    -0.019 A 
ATOM      2  C   LIG d   1       7.443   1.012  -4.156  0.00  0.00     0.053 A 
ATOM      3  C   LIG d   1       7.233  -0.132  -4.915  0.00  0.00     0.128 A 
ATOM      4  C   LIG d   1       6.120  -0.916  -4.688  0.00  0.00    -0.006 A 
ATOM      5  C   LIG d   1       5.213  -0.565  -3.706  0.00  0.00     0.125 A 
ATOM      6  C   LIG d   1       5.418   0.575  -2.946  0.00  0.00     0.069 A 
ATOM      7 CL   LIG d   1       4.277   1.013  -1.712  0.00  0.00    -0.082 Cl
ATOM      8  H   LIG d   1       6.693   2.251  -2.574  0.00  0.00     0.065 H 
ATOM      9  H   LIG d   1       5.957  -1.806  -5.278  0.00  0.00     0.066 H 
ENDROOT
BRANCH   3  10
ATOM     10  S   LIG d   1       8.387  -0.581  -6.169  0.00  0.00     0.058 S 
ATOM     11  O   LIG d   1       8.322   0.434  -7.162  0.00  0.00    -0.153 OA
ATOM     12  O   LIG d   1       9.596  -0.922  -5.506  0.00  0.00    -0.153 OA
BRANCH  10  13
ATOM     13  N   LIG d   1       7.826  -1.970  -6.875  0.00  0.00    -0.203 N 
ATOM     14  H   LIG d   1       6.966  -1.973  -7.322  0.00  0.00     0.144 HD
ATOM     15  H   LIG d   1       8.359  -2.781  -6.841  0.00  0.00     0.144 HD
ENDBRANCH  10  13
ENDBRANCH   3  10
BRANCH   2  16
ATOM     16  N   LIG d   1       8.567   1.807  -4.385  0.00  0.00    -0.356 N 
ATOM     17  H   LIG d   1       9.377   1.411  -4.744  0.00  0.00     0.142 HD
ATOM     18  H   LIG d   1       8.540   2.756  -4.186  0.00  0.00     0.142 HD
ENDBRANCH   2  16
BRANCH   5  19
ATOM     19  S   LIG d   1       3.793  -1.568  -3.418  0.00  0.00     0.057 S 
ATOM     20  O   LIG d   1       3.969  -2.164  -2.140  0.00  0.00    -0.153 OA
ATOM     21  O   LIG d   1       2.661  -0.771  -3.737  0.00  0.00    -0.153 OA
BRANCH  19  22
ATOM     22  N   LIG d   1       3.831  -2.800  -4.525  0.00  0.00    -0.203 N 
ATOM     23  H   LIG d   1       4.273  -2.671  -5.378  0.00  0.00     0.144 HD
ATOM     24  H   LIG d   1       3.413  -3.650  -4.318  0.00  0.00     0.144 HD
ENDBRANCH  19  22
ENDBRANCH   5  19
TORSDOF 5
ENDMDL
MODEL 3
REMARK VINA RESULT:      -4.6      2.694      3.761
REMARK  5 active torsions:
REMARK  status: ('A' for Active; 'I' for Inactive)
REMARK    1  A    between atoms: C_2  and  N_16 
REMARK    2  A    between atoms: C_3  and  S_12 
REMARK    3  A    between atoms: C_5  and  S_8 
REMARK    4  A    between atoms: S_8  and  N_11 
REMARK    5  A    between atoms: S_12  and  N_15 
ROOT
ATOM      1  C   LIG d   1       4.785  -3.177  -4.348  0.00  0.00    -0.019 A 
ATOM      2  C   LIG d   1       4.391  -1.944  -3.843  0.00  0.00     0.053 A 
ATOM      3  C   LIG d   1       5.329  -0.933  -3.678  0.00  0.00     0.128 A 
ATOM      4  C   LIG d   1       6.649  -1.153  -4.018  0.00  0.00    -0.006 A 
ATOM      5  C   LIG d   1       7.039  -2.380  -4.522  0.00  0.00     0.125 A 
ATOM      6  C   LIG d   1       6.108  -3.392  -4.687  0.00  0.00     0.069 A 
ATOM      7 CL   LIG d   1       6.602  -4.932  -5.319  0.00  0.00    -0.082 Cl
ATOM      8  H   LIG d   1       4.059  -3.966  -4.474  0.00  0.00     0.065 H 
ATOM      9  H   LIG d   1       7.378  -0.367  -3.890  0.00  0.00     0.066 H 
ENDROOT
BRANCH   3  10
ATOM     10  S   LIG d   1       4.834   0.633  -3.038  0.00  0.00     0.058 S 
ATOM     11  O   LIG d   1       3.827   1.128  -3.910  0.00  0.00    -0.153 OA
ATOM     12  O   LIG d   1       4.614   0.451  -1.646  0.00  0.00    -0.153 OA
BRANCH  10  13
ATOM     13  N   LIG d   1       6.130   1.654  -3.184  0.00  0.00    -0.203 N 
ATOM     14  H   LIG d   1       6.828   1.649  -2.510  0.00  0.00     0.144 HD
ATOM     15  H   LIG d   1       6.190   2.256  -3.942  0.00  0.00     0.144 HD
ENDBRANCH  10  13
ENDBRANCH   3  10
BRANCH   2  16
ATOM     16  N   LIG d   1       3.056  -1.722  -3.501  0.00  0.00    -0.356 N 
ATOM     17  H   LIG d   1       2.391  -2.409  -3.671  0.00  0.00     0.142 HD
ATOM     18  H   LIG d   1       2.792  -0.883  -3.093  0.00  0.00     0.142 HD
ENDBRANCH   2  16
BRANCH   5  19
ATOM     19  S   LIG d   1       8.724  -2.659  -4.954  0.00  0.00     0.057 S 
ATOM     20  O   LIG d   1       9.237  -3.590  -4.010  0.00  0.00    -0.153 OA
ATOM     21  O   LIG d   1       8.749  -2.902  -6.354  0.00  0.00    -0.153 OA
BRANCH  19  22
ATOM     22  N   LIG d   1       9.536  -1.237  -4.706  0.00  0.00    -0.203 N 
ATOM     23  H   LIG d   1       9.133  -0.396  -4.972  0.00  0.00     0.144 HD
ATOM     24  H   LIG d   1      10.414  -1.246  -4.293  0.00  0.00     0.144 HD
ENDBRANCH  19  22
ENDBRANCH   5  19
TORSDOF 5
ENDMDL
MODEL 4
REMARK VINA RESULT:      -4.5      3.811      5.519
REMARK  5 active torsions:
REMARK  status: ('A' for Active; 'I' for Inactive)
REMARK    1  A    between atoms: C_2  and  N_16 
REMARK    2  A    between atoms: C_3  and  S_12 
REMARK    3  A    between atoms: C_5  and  S_8 
REMARK    4  A    between atoms: S_8  and  N_11 
REMARK    5  A    between atoms: S_12  and  N_15 
ROOT
ATOM      1  C   LIG d   1       4.614  -2.407  -6.453  0.00  0.00    -0.019 A 
ATOM      2  C   LIG d   1       4.255  -1.620  -7.540  0.00  0.00     0.053 A 
ATOM      3  C   LIG d   1       3.765  -0.337  -7.334  0.00  0.00     0.128 A 
ATOM      4  C   LIG d   1       3.638   0.155  -6.049  0.00  0.00    -0.006 A 
ATOM      5  C   LIG d   1       3.996  -0.629  -4.969  0.00  0.00     0.125 A 
ATOM      6  C   LIG d   1       4.484  -1.910  -5.170  0.00  0.00     0.069 A 
ATOM      7 CL   LIG d   1       4.932  -2.892  -3.810  0.00  0.00    -0.082 Cl
ATOM      8  H   LIG d   1       4.991  -3.407  -6.610  0.00  0.00     0.065 H 
ATOM      9  H   LIG d   1       3.257   1.152  -5.889  0.00  0.00     0.066 H 
ENDROOT
BRANCH   3  10
ATOM     10  S   LIG d   1       3.309   0.665  -8.710  0.00  0.00     0.058 S 
ATOM     11  O   LIG d   1       4.481   0.831  -9.497  0.00  0.00    -0.153 OA
ATOM     12  O   LIG d   1       2.111   0.111  -9.236  0.00  0.00    -0.153 OA
BRANCH  10  13
ATOM     13  N   LIG d   1       2.919   2.161  -8.118  0.00  0.00    -0.203 N 
ATOM     14  H   LIG d   1       3.324   2.955  -8.503  0.00  0.00     0.144 HD
ATOM     15  H   LIG d   1       2.287   2.244  -7.387  0.00  0.00     0.144 HD
ENDBRANCH  10  13
ENDBRANCH   3  10
BRANCH   2  16
ATOM     16  N   LIG d   1       4.385  -2.119  -8.838  0.00  0.00    -0.356 N 
ATOM     17  H   LIG d   1       5.182  -2.612  -9.090  0.00  0.00     0.142 HD
ATOM     18  H   LIG d   1       3.681  -1.972  -9.488  0.00  0.00     0.142 HD
ENDBRANCH   2  16
BRANCH   5  19
ATOM     19  S   LIG d   1       3.832   0.001  -3.331  0.00  0.00     0.057 S 
ATOM     20  O   LIG d   1       2.687  -0.625  -2.769  0.00  0.00    -0.153 OA
ATOM     21  O   LIG d   1       5.118  -0.085  -2.733  0.00  0.00    -0.153 OA
BRANCH  19  22
ATOM     22  N   LIG d   1       3.476   1.613  -3.460  0.00  0.00    -0.203 N 
ATOM     23  H   LIG d   1       3.144   2.098  -2.689  0.00  0.00     0.144 HD
ATOM     24  H   LIG d   1       3.600   2.070  -4.306  0.00  0.00     0.144 HD
ENDBRANCH  19  22
ENDBRANCH   5  19
TORSDOF 5
ENDMDL
MODEL 5
REMARK VINA RESULT:      -4.5      3.360      4.006
REMARK  5 active torsions:
REMARK  status: ('A' for Active; 'I' for Inactive)
REMARK    1  A    between atoms: C_2  and  N_16 
REMARK    2  A    between atoms: C_3  and  S_12 
REMARK    3  A    between atoms: C_5  and  S_8 
REMARK    4  A    between atoms: S_8  and  N_11 
REMARK    5  A    between atoms: S_12  and  N_15 
ROOT
ATOM      1  C   LIG d   1       6.959  -0.704  -5.412  0.00  0.00    -0.019 A 
ATOM      2  C   LIG d   1       6.258  -1.006  -4.251  0.00  0.00     0.053 A 
ATOM      3  C   LIG d   1       4.869  -0.986  -4.257  0.00  0.00     0.128 A 
ATOM      4  C   LIG d   1       4.188  -0.668  -5.415  0.00  0.00    -0.006 A 
ATOM      5  C   LIG d   1       4.887  -0.369  -6.570  0.00  0.00     0.125 A 
ATOM      6  C   LIG d   1       6.272  -0.387  -6.569  0.00  0.00     0.069 A 
ATOM      7 CL   LIG d   1       7.146  -0.009  -8.021  0.00  0.00    -0.082 Cl
ATOM      8  H   LIG d   1       8.039  -0.715  -5.410  0.00  0.00     0.065 H 
ATOM      9  H   LIG d   1       3.109  -0.653  -5.420  0.00  0.00     0.066 H 
ENDROOT
BRANCH   3  10
ATOM     10  S   LIG d   1       3.976  -1.369  -2.787  0.00  0.00     0.058 S 
ATOM     11  O   LIG d   1       3.930  -2.787  -2.698  0.00  0.00    -0.153 OA
ATOM     12  O   LIG d   1       4.524  -0.559  -1.756  0.00  0.00    -0.153 OA
BRANCH  10  13
ATOM     13  N   LIG d   1       2.418  -0.858  -3.014  0.00  0.00    -0.203 N 
ATOM     14  H   LIG d   1       1.859  -0.654  -2.248  0.00  0.00     0.144 HD
ATOM     15  H   LIG d   1       2.064  -0.763  -3.912  0.00  0.00     0.144 HD
ENDBRANCH  10  13
ENDBRANCH   3  10
BRANCH   2  16
ATOM     16  N   LIG d   1       6.948  -1.329  -3.081  0.00  0.00    -0.356 N 
ATOM     17  H   LIG d   1       7.703  -0.788  -2.798  0.00  0.00     0.142 HD
ATOM     18  H   LIG d   1       6.674  -2.093  -2.550  0.00  0.00     0.142 HD
ENDBRANCH   2  16
BRANCH   5  19
ATOM     19  S   LIG d   1       4.015   0.037  -8.047  0.00  0.00     0.057 S 
ATOM     20  O   LIG d   1       4.156   1.440  -8.228  0.00  0.00    -0.153 OA
ATOM     21  O   LIG d   1       4.424  -0.903  -9.030  0.00  0.00    -0.153 OA
BRANCH  19  22
ATOM     22  N   LIG d   1       2.409  -0.245  -7.760  0.00  0.00    -0.203 N 
ATOM     23  H   LIG d   1       2.128  -1.085  -7.365  0.00  0.00     0.144 HD
ATOM     24  H   LIG d   1       1.751   0.430  -7.988  0.00  0.00     0.144 HD
ENDBRANCH  19  22
ENDBRANCH   5  19
TORSDOF 5
ENDMDL
MODEL 6
REMARK VINA RESULT:      -4.4     12.854     14.263
REMARK  5 active torsions:
REMARK  status: ('A' for Active; 'I' for Inactive)
REMARK    1  A    between atoms: C_2  and  N_16 
REMARK    2  A    between atoms: C_3  and  S_12 
REMARK    3  A    between atoms: C_5  and  S_8 
REMARK    4  A    between atoms: S_8  and  N_11 
REMARK    5  A    between atoms: S_12  and  N_15 
ROOT
ATOM      1  C   LIG d   1      10.617  10.795   0.193  0.00  0.00    -0.019 A 
ATOM      2  C   LIG d   1      10.114  11.357  -0.974  0.00  0.00     0.053 A 
ATOM      3  C   LIG d   1       9.897  10.557  -2.088  0.00  0.00     0.128 A 
ATOM      4  C   LIG d   1      10.180   9.206  -2.034  0.00  0.00    -0.006 A 
ATOM      5  C   LIG d   1      10.679   8.649  -0.872  0.00  0.00     0.125 A 
ATOM      6  C   LIG d   1      10.899   9.443   0.241  0.00  0.00     0.069 A 
ATOM      7 CL   LIG d   1      11.527   8.739   1.699  0.00  0.00    -0.082 Cl
ATOM      8  H   LIG d   1      10.792  11.415   1.060  0.00  0.00     0.065 H 
ATOM      9  H   LIG d   1      10.010   8.584  -2.901  0.00  0.00     0.066 H 
ENDROOT
BRANCH   3  10
ATOM     10  S   LIG d   1       9.258  11.265  -3.570  0.00  0.00     0.058 S 
ATOM     11  O   LIG d   1       7.936  11.697  -3.277  0.00  0.00    -0.153 OA
ATOM     12  O   LIG d   1      10.256  12.148  -4.062  0.00  0.00    -0.153 OA
BRANCH  10  13
ATOM     13  N   LIG d   1       9.121  10.041  -4.678  0.00  0.00    -0.203 N 
ATOM     14  H   LIG d   1       8.245   9.697  -4.913  0.00  0.00     0.144 HD
ATOM     15  H   LIG d   1       9.916   9.670  -5.091  0.00  0.00     0.144 HD
ENDBRANCH  10  13
ENDBRANCH   3  10
BRANCH   2  16
ATOM     16  N   LIG d   1       9.828  12.722  -1.026  0.00  0.00    -0.356 N 
ATOM     17  H   LIG d   1       8.937  13.040  -0.808  0.00  0.00     0.142 HD
ATOM     18  H   LIG d   1      10.518  13.354  -1.280  0.00  0.00     0.142 HD
ENDBRANCH   2  16
BRANCH   5  19
ATOM     19  S   LIG d   1      11.039   6.925  -0.807  0.00  0.00     0.057 S 
ATOM     20  O   LIG d   1      12.455   6.808  -0.745  0.00  0.00    -0.153 OA
ATOM     21  O   LIG d   1      10.186   6.370   0.184  0.00  0.00    -0.153 OA
BRANCH  19  22
ATOM     22  N   LIG d   1      10.572   6.271  -2.255  0.00  0.00    -0.203 N 
ATOM     23  H   LIG d   1       9.681   5.905  -2.355  0.00  0.00     0.144 HD
ATOM     24  H   LIG d   1      11.191   6.256  -3.001  0.00  0.00     0.144 HD
ENDBRANCH  19  22
ENDBRANCH   5  19
TORSDOF 5
ENDMDL
MODEL 7
REMARK VINA RESULT:      -4.3     10.532     12.849
REMARK  5 active torsions:
REMARK  status: ('A' for Active; 'I' for Inactive)
REMARK    1  A    between atoms: C_2  and  N_16 
REMARK    2  A    between atoms: C_3  and  S_12 
REMARK    3  A    between atoms: C_5  and  S_8 
REMARK    4  A    between atoms: S_8  and  N_11 
REMARK    5  A    between atoms: S_12  and  N_15 
ROOT
ATOM      1  C   LIG d   1      11.297   6.466   0.128  0.00  0.00    -0.019 A 
ATOM      2  C   LIG d   1      11.056   5.608  -0.937  0.00  0.00     0.053 A 
ATOM      3  C   LIG d   1      10.423   6.083  -2.078  0.00  0.00     0.128 A 
ATOM      4  C   LIG d   1      10.036   7.407  -2.153  0.00  0.00    -0.006 A 
ATOM      5  C   LIG d   1      10.278   8.260  -1.092  0.00  0.00     0.125 A 
ATOM      6  C   LIG d   1      10.908   7.790   0.048  0.00  0.00     0.069 A 
ATOM      7 CL   LIG d   1      11.208   8.864   1.378  0.00  0.00    -0.082 Cl
ATOM      8  H   LIG d   1      11.785   6.099   1.019  0.00  0.00     0.065 H 
ATOM      9  H   LIG d   1       9.544   7.776  -3.040  0.00  0.00     0.066 H 
ENDROOT
BRANCH   3  10
ATOM     10  S   LIG d   1      10.115   4.998  -3.433  0.00  0.00     0.058 S 
ATOM     11  O   LIG d   1      11.362   4.802  -4.087  0.00  0.00    -0.153 OA
ATOM     12  O   LIG d   1       9.345   3.919  -2.922  0.00  0.00    -0.153 OA
BRANCH  10  13
ATOM     13  N   LIG d   1       9.143   5.810  -4.500  0.00  0.00    -0.203 N 
ATOM     14  H   LIG d   1       8.951   6.750  -4.361  0.00  0.00     0.144 HD
ATOM     15  H   LIG d   1       8.767   5.344  -5.263  0.00  0.00     0.144 HD
ENDBRANCH  10  13
ENDBRANCH   3  10
BRANCH   2  16
ATOM     16  N   LIG d   1      11.448   4.270  -0.861  0.00  0.00    -0.356 N 
ATOM     17  H   LIG d   1      11.122   3.709  -0.139  0.00  0.00     0.142 HD
ATOM     18  H   LIG d   1      12.047   3.900  -1.529  0.00  0.00     0.142 HD
ENDBRANCH   2  16
BRANCH   5  19
ATOM     19  S   LIG d   1       9.782   9.948  -1.190  0.00  0.00     0.057 S 
ATOM     20  O   LIG d   1       8.757  10.127  -0.222  0.00  0.00    -0.153 OA
ATOM     21  O   LIG d   1      10.974  10.721  -1.188  0.00  0.00    -0.153 OA
BRANCH  19  22
ATOM     22  N   LIG d   1       9.078  10.167  -2.672  0.00  0.00    -0.203 N 
ATOM     23  H   LIG d   1       9.597  10.032  -3.480  0.00  0.00     0.144 HD
ATOM     24  H   LIG d   1       8.146  10.430  -2.732  0.00  0.00     0.144 HD
ENDBRANCH  19  22
ENDBRANCH   5  19
TORSDOF 5
ENDMDL
MODEL 8
REMARK VINA RESULT:      -4.2      8.436     10.061
REMARK  5 active torsions:
REMARK  status: ('A' for Active; 'I' for Inactive)
REMARK    1  A    between atoms: C_2  and  N_16 
REMARK    2  A    between atoms: C_3  and  S_12 
REMARK    3  A    between atoms: C_5  and  S_8 
REMARK    4  A    between atoms: S_8  and  N_11 
REMARK    5  A    between atoms: S_12  and  N_15 
ROOT
ATOM      1  C   LIG d   1       9.708   6.836  -5.291  0.00  0.00    -0.019 A 
ATOM      2  C   LIG d   1       9.840   7.307  -3.990  0.00  0.00     0.053 A 
ATOM      3  C   LIG d   1       9.965   6.408  -2.939  0.00  0.00     0.128 A 
ATOM      4  C   LIG d   1       9.960   5.050  -3.187  0.00  0.00    -0.006 A 
ATOM      5  C   LIG d   1       9.829   4.583  -4.482  0.00  0.00     0.125 A 
ATOM      6  C   LIG d   1       9.703   5.475  -5.534  0.00  0.00     0.069 A 
ATOM      7 CL   LIG d   1       9.539   4.884  -7.158  0.00  0.00    -0.082 Cl
ATOM      8  H   LIG d   1       9.607   7.532  -6.111  0.00  0.00     0.065 H 
ATOM      9  H   LIG d   1      10.057   4.351  -2.370  0.00  0.00     0.066 H 
ENDROOT
BRANCH   3  10
ATOM     10  S   LIG d   1      10.133   7.001  -1.288  0.00  0.00     0.058 S 
ATOM     11  O   LIG d   1      11.301   7.811  -1.264  0.00  0.00    -0.153 OA
ATOM     12  O   LIG d   1       8.857   7.493  -0.901  0.00  0.00    -0.153 OA
BRANCH  10  13
ATOM     13  N   LIG d   1      10.446   5.690  -0.326  0.00  0.00    -0.203 N 
ATOM     14  H   LIG d   1      11.070   5.009  -0.623  0.00  0.00     0.144 HD
ATOM     15  H   LIG d   1      10.006   5.603   0.534  0.00  0.00     0.144 HD
ENDBRANCH  10  13
ENDBRANCH   3  10
BRANCH   2  16
ATOM     16  N   LIG d   1       9.846   8.681  -3.741  0.00  0.00    -0.356 N 
ATOM     17  H   LIG d   1       9.440   9.029  -2.932  0.00  0.00     0.142 HD
ATOM     18  H   LIG d   1      10.257   9.288  -4.376  0.00  0.00     0.142 HD
ENDBRANCH   2  16
BRANCH   5  19
ATOM     19  S   LIG d   1       9.823   2.849  -4.796  0.00  0.00     0.057 S 
ATOM     20  O   LIG d   1       8.532   2.533  -5.300  0.00  0.00    -0.153 OA
ATOM     21  O   LIG d   1      11.013   2.562  -5.517  0.00  0.00    -0.153 OA
BRANCH  19  22
ATOM     22  N   LIG d   1       9.959   2.085  -3.333  0.00  0.00    -0.203 N 
ATOM     23  H   LIG d   1       9.166   1.757  -2.882  0.00  0.00     0.144 HD
ATOM     24  H   LIG d   1      10.833   1.966  -2.928  0.00  0.00     0.144 HD
ENDBRANCH  19  22
ENDBRANCH   5  19
TORSDOF 5
ENDMDL
MODEL 9
REMARK VINA RESULT:      -4.1      3.760      4.672
REMARK  5 active torsions:
REMARK  status: ('A' for Active; 'I' for Inactive)
REMARK    1  A    between atoms: C_2  and  N_16 
REMARK    2  A    between atoms: C_3  and  S_12 
REMARK    3  A    between atoms: C_5  and  S_8 
REMARK    4  A    between atoms: S_8  and  N_11 
REMARK    5  A    between atoms: S_12  and  N_15 
ROOT
ATOM      1  C   LIG d   1       4.556  -2.590  -6.551  0.00  0.00    -0.019 A 
ATOM      2  C   LIG d   1       4.423  -2.163  -5.236  0.00  0.00     0.053 A 
ATOM      3  C   LIG d   1       4.039  -0.856  -4.968  0.00  0.00     0.128 A 
ATOM      4  C   LIG d   1       3.788   0.017  -6.009  0.00  0.00    -0.006 A 
ATOM      5  C   LIG d   1       3.920  -0.410  -7.318  0.00  0.00     0.125 A 
ATOM      6  C   LIG d   1       4.304  -1.712  -7.589  0.00  0.00     0.069 A 
ATOM      7 CL   LIG d   1       4.470  -2.243  -9.234  0.00  0.00    -0.082 Cl
ATOM      8  H   LIG d   1       4.859  -3.605  -6.763  0.00  0.00     0.065 H 
ATOM      9  H   LIG d   1       3.489   1.033  -5.801  0.00  0.00     0.066 H 
ENDROOT
BRANCH   3  10
ATOM     10  S   LIG d   1       3.868  -0.310  -3.301  0.00  0.00     0.058 S 
ATOM     11  O   LIG d   1       2.687  -0.917  -2.795  0.00  0.00    -0.153 OA
ATOM     12  O   LIG d   1       5.137  -0.482  -2.686  0.00  0.00    -0.153 OA
BRANCH  10  13
ATOM     13  N   LIG d   1       3.581   1.320  -3.346  0.00  0.00    -0.203 N 
ATOM     14  H   LIG d   1       3.685   1.807  -4.178  0.00  0.00     0.144 HD
ATOM     15  H   LIG d   1       3.308   1.786  -2.540  0.00  0.00     0.144 HD
ENDBRANCH  10  13
ENDBRANCH   3  10
BRANCH   2  16
ATOM     16  N   LIG d   1       4.675  -3.047  -4.185  0.00  0.00    -0.356 N 
ATOM     17  H   LIG d   1       5.587  -3.206  -3.893  0.00  0.00     0.142 HD
ATOM     18  H   LIG d   1       3.940  -3.503  -3.746  0.00  0.00     0.142 HD
ENDBRANCH   2  16
BRANCH   5  19
ATOM     19  S   LIG d   1       3.600   0.707  -8.643  0.00  0.00     0.057 S 
ATOM     20  O   LIG d   1       3.204   1.936  -8.051  0.00  0.00    -0.153 OA
ATOM     21  O   LIG d   1       4.706   0.610  -9.530  0.00  0.00    -0.153 OA
BRANCH  19  22
ATOM     22  N   LIG d   1       2.283   0.129  -9.464  0.00  0.00    -0.203 N 
ATOM     23  H   LIG d   1       2.095   0.445 -10.361  0.00  0.00     0.144 HD
ATOM     24  H   LIG d   1       1.702  -0.526  -9.047  0.00  0.00     0.144 HD
ENDBRANCH  19  22
ENDBRANCH   5  19
TORSDOF 5
ENDMDL
MODEL 10
REMARK VINA RESULT:      -4.0      9.641     11.008
REMARK  5 active torsions:
REMARK  status: ('A' for Active; 'I' for Inactive)
REMARK    1  A    between atoms: C_2  and  N_16 
REMARK    2  A    between atoms: C_3  and  S_12 
REMARK    3  A    between atoms: C_5  and  S_8 
REMARK    4  A    between atoms: S_8  and  N_11 
REMARK    5  A    between atoms: S_12  and  N_15 
ROOT
ATOM      1  C   LIG d   1      10.184 -10.989   1.020  0.00  0.00    -0.019 A 
ATOM      2  C   LIG d   1      10.055 -10.302  -0.180  0.00  0.00     0.053 A 
ATOM      3  C   LIG d   1      10.671  -9.067  -0.339  0.00  0.00     0.128 A 
ATOM      4  C   LIG d   1      11.410  -8.526   0.694  0.00  0.00    -0.006 A 
ATOM      5  C   LIG d   1      11.538  -9.212   1.888  0.00  0.00     0.125 A 
ATOM      6  C   LIG d   1      10.925 -10.443   2.051  0.00  0.00     0.069 A 
ATOM      7 CL   LIG d   1      11.087 -11.300   3.552  0.00  0.00    -0.082 Cl
ATOM      8  H   LIG d   1       9.703 -11.948   1.149  0.00  0.00     0.065 H 
ATOM      9  H   LIG d   1      11.888  -7.566   0.570  0.00  0.00     0.066 H 
ENDROOT
BRANCH   3  10
ATOM     10  S   LIG d   1      10.511  -8.192  -1.860  0.00  0.00     0.058 S 
ATOM     11  O   LIG d   1      11.182  -8.965  -2.846  0.00  0.00    -0.153 OA
ATOM     12  O   LIG d   1       9.142  -7.830  -1.979  0.00  0.00    -0.153 OA
BRANCH  10  13
ATOM     13  N   LIG d   1      11.362  -6.780  -1.706  0.00  0.00    -0.203 N 
ATOM     14  H   LIG d   1      11.205  -6.201  -0.944  0.00  0.00     0.144 HD
ATOM     15  H   LIG d   1      12.018  -6.534  -2.377  0.00  0.00     0.144 HD
ENDBRANCH  10  13
ENDBRANCH   3  10
BRANCH   2  16
ATOM     16  N   LIG d   1       9.309 -10.851  -1.224  0.00  0.00    -0.356 N 
ATOM     17  H   LIG d   1       8.346 -10.732  -1.247  0.00  0.00     0.142 HD
ATOM     18  H   LIG d   1       9.751 -11.353  -1.927  0.00  0.00     0.142 HD
ENDBRANCH   2  16
BRANCH   5  19
ATOM     19  S   LIG d   1      12.481  -8.518   3.205  0.00  0.00     0.057 S 
ATOM     20  O   LIG d   1      11.548  -8.065   4.177  0.00  0.00    -0.153 OA
ATOM     21  O   LIG d   1      13.504  -9.456   3.509  0.00  0.00    -0.153 OA
BRANCH  19  22
ATOM     22  N   LIG d   1      13.236  -7.170   2.609  0.00  0.00    -0.203 N 
ATOM     23  H   LIG d   1      13.971  -7.263   1.983  0.00  0.00     0.144 HD
ATOM     24  H   LIG d   1      12.943  -6.288   2.887  0.00  0.00     0.144 HD
ENDBRANCH  19  22
ENDBRANCH   5  19
TORSDOF 5
ENDMDL
