MODEL 1
REMARK VINA RESULT:      -4.5      0.000      0.000
REMARK  2 active torsions:
REMARK  status: ('A' for Active; 'I' for Inactive)
REMARK    1  A    between atoms: CB_1  and  CA_2 
REMARK       I    between atoms: CA_2  and  C_4 
REMARK       I    between atoms: CA_2  and  N_6 
REMARK    2  A    between atoms: N_6  and  C_7 
ROOT
ATOM      1  CA  ALA d   1       3.419   0.203  -3.990  0.00  0.00     0.059 C 
ATOM      2  HA  ALA d   1       2.488   0.641  -4.351  0.00  0.00     0.056 H 
ATOM      3  C   ALA d   1       4.063   1.140  -3.000  0.00  0.00     0.062 C 
ATOM      4  O   ALA d   1       5.167   1.581  -3.216  0.00  0.00    -0.548 OA
ATOM      5  N   ALA d   1       4.326  -0.014  -5.119  0.00  0.00    -0.316 N 
ATOM      6  H   ALA d   1       5.283   0.099  -5.001  0.00  0.00     0.149 HD
ATOM      7  OXT ALA d   1       3.410   1.485  -1.879  0.00  0.00    -0.548 OA
ENDROOT
BRANCH   1   8
ATOM      8  CB  ALA d   1       3.123  -1.135  -3.308  0.00  0.00    -0.041 C 
ATOM      9  HB1 ALA d   1       2.359  -0.992  -2.544  0.00  0.00     0.025 H 
ATOM     10  HB2 ALA d   1       2.768  -1.850  -4.050  0.00  0.00     0.025 H 
ATOM     11  HB3 ALA d   1       4.034  -1.514  -2.844  0.00  0.00     0.025 H 
ENDBRANCH   1   8
BRANCH   5  12
ATOM     12  C   UNK d   0       3.818  -0.381  -6.355  0.00  0.00     0.159 A 
ATOM     13  S   UNK d   0       4.342  -1.653  -7.415  0.00  0.00    -0.061 SA
ATOM     14  C   UNK d   0       3.145  -1.380  -8.714  0.00  0.00    -0.003 A 
ATOM     15  C   UNK d   0       2.459  -0.328  -8.209  0.00  0.00     0.037 A 
ATOM     16  H   UNK d   0       3.009  -1.907  -9.648  0.00  0.00     0.071 H 
ATOM     17  N   UNK d   0       2.816   0.149  -7.031  0.00  0.00    -0.233 NA
ATOM     18  H   UNK d   0       1.638   0.111  -8.756  0.00  0.00     0.084 H 
ENDBRANCH   5  12
TORSDOF 4
ENDMDL
MODEL 2
REMARK VINA RESULT:      -4.2      3.101      3.339
REMARK  2 active torsions:
REMARK  status: ('A' for Active; 'I' for Inactive)
REMARK    1  A    between atoms: CB_1  and  CA_2 
REMARK       I    between atoms: CA_2  and  C_4 
REMARK       I    between atoms: CA_2  and  N_6 
REMARK    2  A    between atoms: N_6  and  C_7 
ROOT
ATOM      1  CA  ALA d   1       4.112  -0.240  -3.568  0.00  0.00     0.059 C 
ATOM      2  HA  ALA d   1       4.164  -0.149  -4.653  0.00  0.00     0.056 H 
ATOM      3  C   ALA d   1       4.416   1.094  -2.937  0.00  0.00     0.062 C 
ATOM      4  O   ALA d   1       5.356   1.207  -2.186  0.00  0.00    -0.548 OA
ATOM      5  N   ALA d   1       5.092  -1.229  -3.115  0.00  0.00    -0.316 N 
ATOM      6  H   ALA d   1       5.550  -1.106  -2.268  0.00  0.00     0.149 HD
ATOM      7  OXT ALA d   1       3.644   2.158  -3.211  0.00  0.00    -0.548 OA
ENDROOT
BRANCH   1   8
ATOM      8  CB  ALA d   1       2.708  -0.689  -3.160  0.00  0.00    -0.041 C 
ATOM      9  HB1 ALA d   1       2.765  -1.662  -2.671  0.00  0.00     0.025 H 
ATOM     10  HB2 ALA d   1       2.278   0.039  -2.472  0.00  0.00     0.025 H 
ATOM     11  HB3 ALA d   1       2.079  -0.766  -4.047  0.00  0.00     0.025 H 
ENDBRANCH   1   8
BRANCH   5  12
ATOM     12  C   UNK d   0       5.365  -2.343  -3.894  0.00  0.00     0.159 A 
ATOM     13  S   UNK d   0       6.894  -2.906  -4.494  0.00  0.00    -0.061 SA
ATOM     14  C   UNK d   0       6.287  -4.348  -5.358  0.00  0.00    -0.003 A 
ATOM     15  C   UNK d   0       4.960  -4.253  -5.107  0.00  0.00     0.037 A 
ATOM     16  H   UNK d   0       6.830  -5.089  -5.928  0.00  0.00     0.071 H 
ATOM     17  N   UNK d   0       4.529  -3.244  -4.374  0.00  0.00    -0.233 NA
ATOM     18  H   UNK d   0       4.271  -4.987  -5.497  0.00  0.00     0.084 H 
ENDBRANCH   5  12
TORSDOF 4
ENDMDL
MODEL 3
REMARK VINA RESULT:      -4.2      1.700      2.016
REMARK  2 active torsions:
REMARK  status: ('A' for Active; 'I' for Inactive)
REMARK    1  A    between atoms: CB_1  and  CA_2 
REMARK       I    between atoms: CA_2  and  C_4 
REMARK       I    between atoms: CA_2  and  N_6 
REMARK    2  A    between atoms: N_6  and  C_7 
ROOT
ATOM      1  CA  ALA d   1       3.937  -0.053  -3.751  0.00  0.00     0.059 C 
ATOM      2  HA  ALA d   1       4.977   0.098  -4.043  0.00  0.00     0.056 H 
ATOM      3  C   ALA d   1       3.874  -1.024  -2.601  0.00  0.00     0.062 C 
ATOM      4  O   ALA d   1       3.263  -2.060  -2.718  0.00  0.00    -0.548 OA
ATOM      5  N   ALA d   1       3.186  -0.591  -4.887  0.00  0.00    -0.316 N 
ATOM      6  H   ALA d   1       2.470  -1.229  -4.737  0.00  0.00     0.149 HD
ATOM      7  OXT ALA d   1       4.496  -0.739  -1.446  0.00  0.00    -0.548 OA
ENDROOT
BRANCH   1   8
ATOM      8  CB  ALA d   1       3.328   1.284  -3.325  0.00  0.00    -0.041 C 
ATOM      9  HB1 ALA d   1       2.576   1.111  -2.554  0.00  0.00     0.025 H 
ATOM     10  HB2 ALA d   1       4.111   1.931  -2.930  0.00  0.00     0.025 H 
ATOM     11  HB3 ALA d   1       2.862   1.762  -4.186  0.00  0.00     0.025 H 
ENDBRANCH   1   8
BRANCH   5  12
ATOM     12  C   UNK d   0       3.496  -0.189  -6.177  0.00  0.00     0.159 A 
ATOM     13  S   UNK d   0       4.644  -0.871  -7.286  0.00  0.00    -0.061 SA
ATOM     14  C   UNK d   0       4.359   0.259  -8.641  0.00  0.00    -0.003 A 
ATOM     15  C   UNK d   0       3.409   1.060  -8.105  0.00  0.00     0.037 A 
ATOM     16  H   UNK d   0       4.821   0.295  -9.617  0.00  0.00     0.071 H 
ATOM     17  N   UNK d   0       2.997   0.813  -6.875  0.00  0.00    -0.233 NA
ATOM     18  H   UNK d   0       2.996   1.882  -8.671  0.00  0.00     0.084 H 
ENDBRANCH   5  12
TORSDOF 4
ENDMDL
MODEL 4
REMARK VINA RESULT:      -4.1      4.560      5.712
REMARK  2 active torsions:
REMARK  status: ('A' for Active; 'I' for Inactive)
REMARK    1  A    between atoms: CB_1  and  CA_2 
REMARK       I    between atoms: CA_2  and  C_4 
REMARK       I    between atoms: CA_2  and  N_6 
REMARK    2  A    between atoms: N_6  and  C_7 
ROOT
ATOM      1  CA  ALA d   1       5.118  -3.381  -5.036  0.00  0.00     0.059 C 
ATOM      2  HA  ALA d   1       4.921  -2.526  -5.683  0.00  0.00     0.056 H 
ATOM      3  C   ALA d   1       4.715  -4.650  -5.742  0.00  0.00     0.062 C 
ATOM      4  O   ALA d   1       3.870  -5.366  -5.261  0.00  0.00    -0.548 OA
ATOM      5  N   ALA d   1       4.346  -3.244  -3.799  0.00  0.00    -0.316 N 
ATOM      6  H   ALA d   1       3.983  -4.031  -3.363  0.00  0.00     0.149 HD
ATOM      7  OXT ALA d   1       5.296  -4.984  -6.905  0.00  0.00    -0.548 OA
ENDROOT
BRANCH   1   8
ATOM      8  CB  ALA d   1       6.611  -3.435  -4.702  0.00  0.00    -0.041 C 
ATOM      9  HB1 ALA d   1       7.012  -2.421  -4.671  0.00  0.00     0.025 H 
ATOM     10  HB2 ALA d   1       6.749  -3.911  -3.731  0.00  0.00     0.025 H 
ATOM     11  HB3 ALA d   1       7.133  -4.009  -5.466  0.00  0.00     0.025 H 
ENDBRANCH   1   8
BRANCH   5  12
ATOM     12  C   UNK d   0       4.133  -1.989  -3.250  0.00  0.00     0.159 A 
ATOM     13  S   UNK d   0       3.067  -0.729  -3.789  0.00  0.00    -0.061 SA
ATOM     14  C   UNK d   0       3.451   0.462  -2.513  0.00  0.00    -0.003 A 
ATOM     15  C   UNK d   0       4.372  -0.224  -1.796  0.00  0.00     0.037 A 
ATOM     16  H   UNK d   0       3.060   1.458  -2.360  0.00  0.00     0.071 H 
ATOM     17  N   UNK d   0       4.692  -1.444  -2.186  0.00  0.00    -0.233 NA
ATOM     18  H   UNK d   0       4.833   0.217  -0.925  0.00  0.00     0.084 H 
ENDBRANCH   5  12
TORSDOF 4
ENDMDL
MODEL 5
REMARK VINA RESULT:      -4.0      3.137      4.949
REMARK  2 active torsions:
REMARK  status: ('A' for Active; 'I' for Inactive)
REMARK    1  A    between atoms: CB_1  and  CA_2 
REMARK       I    between atoms: CA_2  and  C_4 
REMARK       I    between atoms: CA_2  and  N_6 
REMARK    2  A    between atoms: N_6  and  C_7 
ROOT
ATOM      1  CA  ALA d   1       4.096  -0.569  -6.612  0.00  0.00     0.059 C 
ATOM      2  HA  ALA d   1       4.841   0.220  -6.517  0.00  0.00     0.056 H 
ATOM      3  C   ALA d   1       3.396  -0.444  -7.941  0.00  0.00     0.062 C 
ATOM      4  O   ALA d   1       2.202  -0.269  -7.981  0.00  0.00    -0.548 OA
ATOM      5  N   ALA d   1       3.116  -0.446  -5.530  0.00  0.00    -0.316 N 
ATOM      6  H   ALA d   1       2.185  -0.667  -5.692  0.00  0.00     0.149 HD
ATOM      7  OXT ALA d   1       4.101  -0.525  -9.081  0.00  0.00    -0.548 OA
ENDROOT
BRANCH   1   8
ATOM      8  CB  ALA d   1       4.783  -1.933  -6.524  0.00  0.00    -0.041 C 
ATOM      9  HB1 ALA d   1       4.033  -2.708  -6.361  0.00  0.00     0.025 H 
ATOM     10  HB2 ALA d   1       5.317  -2.132  -7.453  0.00  0.00     0.025 H 
ATOM     11  HB3 ALA d   1       5.489  -1.931  -5.693  0.00  0.00     0.025 H 
ENDBRANCH   1   8
BRANCH   5  12
ATOM     12  C   UNK d   0       3.518  -0.015  -4.276  0.00  0.00     0.159 A 
ATOM     13  S   UNK d   0       4.061  -0.956  -2.922  0.00  0.00    -0.061 SA
ATOM     14  C   UNK d   0       4.349   0.402  -1.796  0.00  0.00    -0.003 A 
ATOM     15  C   UNK d   0       3.991   1.453  -2.571  0.00  0.00     0.037 A 
ATOM     16  H   UNK d   0       4.706   0.388  -0.776  0.00  0.00     0.071 H 
ATOM     17  N   UNK d   0       3.581   1.216  -3.804  0.00  0.00    -0.233 NA
ATOM     18  H   UNK d   0       4.041   2.462  -2.191  0.00  0.00     0.084 H 
ENDBRANCH   5  12
TORSDOF 4
ENDMDL
MODEL 6
REMARK VINA RESULT:      -3.9      2.438      2.891
REMARK  2 active torsions:
REMARK  status: ('A' for Active; 'I' for Inactive)
REMARK    1  A    between atoms: CB_1  and  CA_2 
REMARK       I    between atoms: CA_2  and  C_4 
REMARK       I    between atoms: CA_2  and  N_6 
REMARK    2  A    between atoms: N_6  and  C_7 
ROOT
ATOM      1  CA  ALA d   1       3.209  -0.014  -6.310  0.00  0.00     0.059 C 
ATOM      2  HA  ALA d   1       2.482  -0.686  -6.767  0.00  0.00     0.056 H 
ATOM      3  C   ALA d   1       2.647   0.535  -5.024  0.00  0.00     0.062 C 
ATOM      4  O   ALA d   1       2.500   1.727  -4.889  0.00  0.00    -0.548 OA
ATOM      5  N   ALA d   1       3.495   1.091  -7.229  0.00  0.00    -0.316 N 
ATOM      6  H   ALA d   1       3.670   1.979  -6.880  0.00  0.00     0.149 HD
ATOM      7  OXT ALA d   1       2.309  -0.300  -4.029  0.00  0.00    -0.548 OA
ENDROOT
BRANCH   1   8
ATOM      8  CB  ALA d   1       4.500  -0.780  -6.017  0.00  0.00    -0.041 C 
ATOM      9  HB1 ALA d   1       4.770  -0.650  -4.969  0.00  0.00     0.025 H 
ATOM     10  HB2 ALA d   1       4.350  -1.839  -6.225  0.00  0.00     0.025 H 
ATOM     11  HB3 ALA d   1       5.302  -0.396  -6.649  0.00  0.00     0.025 H 
ENDBRANCH   1   8
BRANCH   5  12
ATOM     12  C   UNK d   0       3.517   0.867  -8.597  0.00  0.00     0.159 A 
ATOM     13  S   UNK d   0       4.555   1.566  -9.800  0.00  0.00    -0.061 SA
ATOM     14  C   UNK d   0       3.876   0.714 -11.216  0.00  0.00    -0.003 A 
ATOM     15  C   UNK d   0       2.907  -0.024 -10.626  0.00  0.00     0.037 A 
ATOM     16  H   UNK d   0       4.158   0.775 -12.258  0.00  0.00     0.071 H 
ATOM     17  N   UNK d   0       2.750   0.072  -9.319  0.00  0.00    -0.233 NA
ATOM     18  H   UNK d   0       2.276  -0.677 -11.211  0.00  0.00     0.084 H 
ENDBRANCH   5  12
TORSDOF 4
ENDMDL
MODEL 7
REMARK VINA RESULT:      -3.9      3.057      3.657
REMARK  2 active torsions:
REMARK  status: ('A' for Active; 'I' for Inactive)
REMARK    1  A    between atoms: CB_1  and  CA_2 
REMARK       I    between atoms: CA_2  and  C_4 
REMARK       I    between atoms: CA_2  and  N_6 
REMARK    2  A    between atoms: N_6  and  C_7 
ROOT
ATOM      1  CA  ALA d   1       4.055  -0.580  -4.610  0.00  0.00     0.059 C 
ATOM      2  HA  ALA d   1       5.130  -0.406  -4.560  0.00  0.00     0.056 H 
ATOM      3  C   ALA d   1       3.358   0.295  -3.600  0.00  0.00     0.062 C 
ATOM      4  O   ALA d   1       2.695  -0.206  -2.722  0.00  0.00    -0.548 OA
ATOM      5  N   ALA d   1       3.775  -1.987  -4.313  0.00  0.00    -0.316 N 
ATOM      6  H   ALA d   1       2.970  -2.229  -3.829  0.00  0.00     0.149 HD
ATOM      7  OXT ALA d   1       3.474   1.630  -3.674  0.00  0.00    -0.548 OA
ENDROOT
BRANCH   1   8
ATOM      8  CB  ALA d   1       3.547  -0.243  -6.013  0.00  0.00    -0.041 C 
ATOM      9  HB1 ALA d   1       3.646  -1.120  -6.654  0.00  0.00     0.025 H 
ATOM     10  HB2 ALA d   1       2.500   0.052  -5.960  0.00  0.00     0.025 H 
ATOM     11  HB3 ALA d   1       4.136   0.576  -6.425  0.00  0.00     0.025 H 
ENDBRANCH   1   8
BRANCH   5  12
ATOM     12  C   UNK d   0       4.660  -2.971  -4.726  0.00  0.00     0.159 A 
ATOM     13  S   UNK d   0       6.395  -2.961  -4.695  0.00  0.00    -0.061 SA
ATOM     14  C   UNK d   0       6.650  -4.587  -5.391  0.00  0.00    -0.003 A 
ATOM     15  C   UNK d   0       5.370  -4.981  -5.588  0.00  0.00     0.037 A 
ATOM     16  H   UNK d   0       7.572  -5.110  -5.601  0.00  0.00     0.071 H 
ATOM     17  N   UNK d   0       4.398  -4.155  -5.247  0.00  0.00    -0.233 NA
ATOM     18  H   UNK d   0       5.148  -5.948  -6.014  0.00  0.00     0.084 H 
ENDBRANCH   5  12
TORSDOF 4
ENDMDL
MODEL 8
REMARK VINA RESULT:      -3.8      3.740      4.298
REMARK  2 active torsions:
REMARK  status: ('A' for Active; 'I' for Inactive)
REMARK    1  A    between atoms: CB_1  and  CA_2 
REMARK       I    between atoms: CA_2  and  C_4 
REMARK       I    between atoms: CA_2  and  N_6 
REMARK    2  A    between atoms: N_6  and  C_7 
ROOT
ATOM      1  CA  ALA d   1       4.927   0.012  -3.420  0.00  0.00     0.059 C 
ATOM      2  HA  ALA d   1       4.735  -0.058  -4.491  0.00  0.00     0.056 H 
ATOM      3  C   ALA d   1       3.645   0.344  -2.700  0.00  0.00     0.062 C 
ATOM      4  O   ALA d   1       3.565   1.357  -2.046  0.00  0.00    -0.548 OA
ATOM      5  N   ALA d   1       5.915   1.064  -3.170  0.00  0.00    -0.316 N 
ATOM      6  H   ALA d   1       5.852   1.609  -2.369  0.00  0.00     0.149 HD
ATOM      7  OXT ALA d   1       2.592  -0.484  -2.787  0.00  0.00    -0.548 OA
ENDROOT
BRANCH   1   8
ATOM      8  CB  ALA d   1       5.467  -1.326  -2.910  0.00  0.00    -0.041 C 
ATOM      9  HB1 ALA d   1       4.654  -1.898  -2.462  0.00  0.00     0.025 H 
ATOM     10  HB2 ALA d   1       5.893  -1.887  -3.741  0.00  0.00     0.025 H 
ATOM     11  HB3 ALA d   1       6.238  -1.144  -2.161  0.00  0.00     0.025 H 
ENDBRANCH   1   8
BRANCH   5  12
ATOM     12  C   UNK d   0       6.940   1.282  -4.077  0.00  0.00     0.159 A 
ATOM     13  S   UNK d   0       8.480   2.042  -3.821  0.00  0.00    -0.061 SA
ATOM     14  C   UNK d   0       9.103   1.873  -5.488  0.00  0.00    -0.003 A 
ATOM     15  C   UNK d   0       8.058   1.253  -6.086  0.00  0.00     0.037 A 
ATOM     16  H   UNK d   0      10.049   2.185  -5.905  0.00  0.00     0.071 H 
ATOM     17  N   UNK d   0       6.994   0.970  -5.358  0.00  0.00    -0.233 NA
ATOM     18  H   UNK d   0       8.096   0.994  -7.133  0.00  0.00     0.084 H 
ENDBRANCH   5  12
TORSDOF 4
ENDMDL
MODEL 9
REMARK VINA RESULT:      -3.7     11.745     12.711
REMARK  2 active torsions:
REMARK  status: ('A' for Active; 'I' for Inactive)
REMARK    1  A    between atoms: CB_1  and  CA_2 
REMARK       I    between atoms: CA_2  and  C_4 
REMARK       I    between atoms: CA_2  and  N_6 
REMARK    2  A    between atoms: N_6  and  C_7 
ROOT
ATOM      1  CA  ALA d   1       9.807   9.601  -1.356  0.00  0.00     0.059 C 
ATOM      2  HA  ALA d   1      10.559   9.369  -2.111  0.00  0.00     0.056 H 
ATOM      3  C   ALA d   1       9.256   8.319  -0.786  0.00  0.00     0.062 C 
ATOM      4  O   ALA d   1       8.076   8.073  -0.882  0.00  0.00    -0.548 OA
ATOM      5  N   ALA d   1       8.722  10.370  -1.969  0.00  0.00    -0.316 N 
ATOM      6  H   ALA d   1       7.808  10.242  -1.669  0.00  0.00     0.149 HD
ATOM      7  OXT ALA d   1      10.074   7.450  -0.172  0.00  0.00    -0.548 OA
ENDROOT
BRANCH   1   8
ATOM      8  CB  ALA d   1      10.446  10.424  -0.236  0.00  0.00    -0.041 C 
ATOM      9  HB1 ALA d   1      10.473   9.832   0.679  0.00  0.00     0.025 H 
ATOM     10  HB2 ALA d   1      11.461  10.701  -0.521  0.00  0.00     0.025 H 
ATOM     11  HB3 ALA d   1       9.857  11.326  -0.067  0.00  0.00     0.025 H 
ENDBRANCH   1   8
BRANCH   5  12
ATOM     12  C   UNK d   0       9.000  11.280  -2.977  0.00  0.00     0.159 A 
ATOM     13  S   UNK d   0       9.282  12.989  -2.855  0.00  0.00    -0.061 SA
ATOM     14  C   UNK d   0       9.548  13.304  -4.594  0.00  0.00    -0.003 A 
ATOM     15  C   UNK d   0       9.386  12.061  -5.104  0.00  0.00     0.037 A 
ATOM     16  H   UNK d   0       9.771  14.233  -5.100  0.00  0.00     0.071 H 
ATOM     17  N   UNK d   0       9.114  11.070  -4.274  0.00  0.00    -0.233 NA
ATOM     18  H   UNK d   0       9.478  11.882  -6.165  0.00  0.00     0.084 H 
ENDBRANCH   5  12
TORSDOF 4
ENDMDL
MODEL 10
REMARK VINA RESULT:      -3.7      4.158      5.141
REMARK  2 active torsions:
REMARK  status: ('A' for Active; 'I' for Inactive)
REMARK    1  A    between atoms: CB_1  and  CA_2 
REMARK       I    between atoms: CA_2  and  C_4 
REMARK       I    between atoms: CA_2  and  N_6 
REMARK    2  A    between atoms: N_6  and  C_7 
ROOT
ATOM      1  CA  ALA d   1       7.919   1.065  -4.075  0.00  0.00     0.059 C 
ATOM      2  HA  ALA d   1       8.031   0.101  -3.578  0.00  0.00     0.056 H 
ATOM      3  C   ALA d   1       9.141   1.908  -3.818  0.00  0.00     0.062 C 
ATOM      4  O   ALA d   1       9.033   2.972  -3.255  0.00  0.00    -0.548 OA
ATOM      5  N   ALA d   1       6.734   1.748  -3.552  0.00  0.00    -0.316 N 
ATOM      6  H   ALA d   1       6.733   2.714  -3.458  0.00  0.00     0.149 HD
ATOM      7  OXT ALA d   1      10.350   1.478  -4.213  0.00  0.00    -0.548 OA
ENDROOT
BRANCH   1   8
ATOM      8  CB  ALA d   1       7.758   0.846  -5.581  0.00  0.00    -0.041 C 
ATOM      9  HB1 ALA d   1       7.609   1.807  -6.074  0.00  0.00     0.025 H 
ATOM     10  HB2 ALA d   1       8.655   0.369  -5.977  0.00  0.00     0.025 H 
ATOM     11  HB3 ALA d   1       6.895   0.206  -5.765  0.00  0.00     0.025 H 
ENDBRANCH   1   8
BRANCH   5  12
ATOM     12  C   UNK d   0       5.613   1.016  -3.192  0.00  0.00     0.159 A 
ATOM     13  S   UNK d   0       5.466  -0.694  -2.931  0.00  0.00    -0.061 SA
ATOM     14  C   UNK d   0       3.727  -0.717  -2.517  0.00  0.00    -0.003 A 
ATOM     15  C   UNK d   0       3.424   0.598  -2.627  0.00  0.00     0.037 A 
ATOM     16  H   UNK d   0       3.092  -1.550  -2.256  0.00  0.00     0.071 H 
ATOM     17  N   UNK d   0       4.385   1.439  -2.965  0.00  0.00    -0.233 NA
ATOM     18  H   UNK d   0       2.421   0.952  -2.443  0.00  0.00     0.084 H 
ENDBRANCH   5  12
TORSDOF 4
ENDMDL
