MODEL 1
REMARK VINA RESULT:      -6.8      0.000      0.000
REMARK  6 active torsions:
REMARK  status: ('A' for Active; 'I' for Inactive)
REMARK    1  A    between atoms: C_1  and  C_2 
REMARK    2  A    between atoms: C_4  and  O_31 
REMARK    3  A    between atoms: C_5  and  C_23 
REMARK    4  A    between atoms: C_11  and  C_12 
REMARK    5  A    between atoms: C_23  and  N_24 
REMARK    6  A    between atoms: N_27  and  C_30 
ROOT
ATOM      1  C   LIG d   1       5.079  -0.717  -3.222  0.00  0.00    -0.033 A 
ATOM      2  C   LIG d   1       6.103  -1.596  -3.001  0.00  0.00    -0.016 A 
ATOM      3  C   LIG d   1       6.638  -2.326  -4.059  0.00  0.00     0.125 A 
ATOM      4  C   LIG d   1       6.143  -2.171  -5.344  0.00  0.00     0.051 A 
ATOM      5  C   LIG d   1       5.104  -1.282  -5.586  0.00  0.00     0.148 A 
ATOM      6  C   LIG d   1       4.567  -0.556  -4.510  0.00  0.00     0.071 A 
ATOM      7  C   LIG d   1       3.491   0.282  -5.070  0.00  0.00     0.232 A 
ATOM      8  O   LIG d   1       2.773   1.069  -4.477  0.00  0.00    -0.283 OA
ATOM      9  C   LIG d   1       3.480  -0.041  -6.503  0.00  0.00     0.179 A 
ATOM     10  C   LIG d   1       2.648   0.490  -7.440  0.00  0.00     0.027 C 
ATOM     11  O   LIG d   1       4.454  -0.954  -6.725  0.00  0.00    -0.451 OA
ATOM     12  H   LIG d   1       6.497  -1.724  -2.004  0.00  0.00     0.066 H 
ATOM     13  H   LIG d   1       1.908   1.224  -7.153  0.00  0.00     0.069 H 
ENDROOT
BRANCH   4  14
ATOM     14  C   LIG d   1       6.733  -2.967  -6.479  0.00  0.00     0.031 C 
ATOM     15  H   LIG d   1       6.976  -2.298  -7.305  0.00  0.00     0.048 H 
ATOM     16  H   LIG d   1       7.640  -3.468  -6.140  0.00  0.00     0.048 H 
BRANCH  14  17
ATOM     17  N   LIG d   1       5.760  -3.970  -6.932  0.00  0.00    -0.295 N 
ATOM     18  C   LIG d   1       5.806  -5.169  -6.083  0.00  0.00     0.012 C 
ATOM     19  C   LIG d   1       4.727  -6.154  -6.536  0.00  0.00     0.011 C 
ATOM     20  H   LIG d   1       6.786  -5.638  -6.169  0.00  0.00     0.044 H 
ATOM     21  H   LIG d   1       5.628  -4.887  -5.045  0.00  0.00     0.044 H 
ATOM     22  N   LIG d   1       4.946  -6.502  -7.947  0.00  0.00    -0.303 N 
ATOM     23  H   LIG d   1       3.744  -5.694  -6.423  0.00  0.00     0.044 H 
ATOM     24  H   LIG d   1       4.777  -7.056  -5.927  0.00  0.00     0.044 H 
ATOM     25  C   LIG d   1       4.900  -5.303  -8.796  0.00  0.00     0.011 C 
ATOM     26  C   LIG d   1       5.980  -4.319  -8.343  0.00  0.00     0.012 C 
ATOM     27  H   LIG d   1       3.920  -4.834  -8.709  0.00  0.00     0.044 H 
ATOM     28  H   LIG d   1       5.078  -5.586  -9.834  0.00  0.00     0.044 H 
ATOM     29  H   LIG d   1       5.928  -3.416  -8.952  0.00  0.00     0.044 H 
ATOM     30  H   LIG d   1       6.962  -4.779  -8.454  0.00  0.00     0.044 H 
BRANCH  22  31
ATOM     31  C   LIG d   1       3.972  -7.506  -8.399  0.00  0.00    -0.013 C 
ATOM     32  H   LIG d   1       3.671  -8.125  -7.554  0.00  0.00     0.039 H 
ATOM     33  H   LIG d   1       3.098  -7.004  -8.812  0.00  0.00     0.039 H 
ATOM     34  H   LIG d   1       4.428  -8.133  -9.165  0.00  0.00     0.039 H 
ENDBRANCH  22  31
ENDBRANCH  14  17
ENDBRANCH   4  14
BRANCH   3  35
ATOM     35  O   LIG d   1       7.654  -3.195  -3.830  0.00  0.00    -0.506 OA
ATOM     36  H   LIG d   1       8.105  -3.060  -2.985  0.00  0.00     0.292 HD
ENDBRANCH   3  35
BRANCH   1  37
ATOM     37  C   LIG d   1       4.501   0.071  -2.076  0.00  0.00    -0.039 C 
ATOM     38  H   LIG d   1       5.238   0.145  -1.277  0.00  0.00     0.028 H 
ATOM     39  H   LIG d   1       4.235   1.071  -2.419  0.00  0.00     0.028 H 
ATOM     40  H   LIG d   1       3.609  -0.434  -1.702  0.00  0.00     0.028 H 
ENDBRANCH   1  37
BRANCH  10  41
ATOM     41  C   LIG d   1       2.751   0.082  -8.792  0.00  0.00     0.133 A 
ATOM     42  O   LIG d   1       3.736   0.443  -9.643  0.00  0.00    -0.455 OA
ATOM     43  C   LIG d   1       3.530  -0.127 -10.849  0.00  0.00     0.136 A 
ATOM     44  C   LIG d   1       2.348  -0.885 -10.765  0.00  0.00     0.022 A 
ATOM     45  C   LIG d   1       4.229  -0.087 -12.049  0.00  0.00    -0.018 A 
ATOM     46  C   LIG d   1       1.870  -0.734  -9.438  0.00  0.00    -0.009 A 
ATOM     47  C   LIG d   1       1.888  -1.587 -11.885  0.00  0.00    -0.037 A 
ATOM     48  H   LIG d   1       0.979  -1.179  -9.021  0.00  0.00     0.066 H 
ATOM     49  C   LIG d   1       2.591  -1.533 -13.055  0.00  0.00     0.019 A 
ATOM     50  H   LIG d   1       0.980  -2.169 -11.824  0.00  0.00     0.064 H 
ATOM     51  C   LIG d   1       3.759  -0.786 -13.141  0.00  0.00    -0.044 A 
ATOM     52 BR   LIG d   1       1.971  -2.482 -14.568  0.00  0.00    -0.050 Br
ATOM     53  H   LIG d   1       4.305  -0.752 -14.072  0.00  0.00     0.063 H 
ATOM     54  H   LIG d   1       5.139   0.489 -12.126  0.00  0.00     0.066 H 
ENDBRANCH  10  41
TORSDOF 6
ENDMDL
MODEL 2
REMARK VINA RESULT:      -6.6      2.365      3.421
REMARK  6 active torsions:
REMARK  status: ('A' for Active; 'I' for Inactive)
REMARK    1  A    between atoms: C_1  and  C_2 
REMARK    2  A    between atoms: C_4  and  O_31 
REMARK    3  A    between atoms: C_5  and  C_23 
REMARK    4  A    between atoms: C_11  and  C_12 
REMARK    5  A    between atoms: C_23  and  N_24 
REMARK    6  A    between atoms: N_27  and  C_30 
ROOT
ATOM      1  C   LIG d   1       5.168  -0.588  -3.166  0.00  0.00    -0.033 A 
ATOM      2  C   LIG d   1       6.400  -1.148  -2.975  0.00  0.00    -0.016 A 
ATOM      3  C   LIG d   1       7.128  -1.624  -4.063  0.00  0.00     0.125 A 
ATOM      4  C   LIG d   1       6.614  -1.537  -5.347  0.00  0.00     0.051 A 
ATOM      5  C   LIG d   1       5.364  -0.970  -5.558  0.00  0.00     0.148 A 
ATOM      6  C   LIG d   1       4.636  -0.499  -4.453  0.00  0.00     0.071 A 
ATOM      7  C   LIG d   1       3.367   0.029  -4.985  0.00  0.00     0.232 A 
ATOM      8  O   LIG d   1       2.450   0.537  -4.363  0.00  0.00    -0.283 OA
ATOM      9  C   LIG d   1       3.455  -0.192  -6.435  0.00  0.00     0.179 A 
ATOM     10  C   LIG d   1       2.509   0.137  -7.357  0.00  0.00     0.027 C 
ATOM     11  O   LIG d   1       4.652  -0.771  -6.689  0.00  0.00    -0.451 OA
ATOM     12  H   LIG d   1       6.811  -1.221  -1.979  0.00  0.00     0.066 H 
ATOM     13  H   LIG d   1       1.588   0.607  -7.043  0.00  0.00     0.069 H 
ENDROOT
BRANCH   4  14
ATOM     14  C   LIG d   1       7.413  -2.056  -6.515  0.00  0.00     0.031 C 
ATOM     15  H   LIG d   1       8.326  -2.527  -6.149  0.00  0.00     0.048 H 
ATOM     16  H   LIG d   1       6.822  -2.789  -7.063  0.00  0.00     0.048 H 
BRANCH  14  17
ATOM     17  N   LIG d   1       7.760  -0.940  -7.405  0.00  0.00    -0.295 N 
ATOM     18  C   LIG d   1       7.366  -1.231  -8.790  0.00  0.00     0.012 C 
ATOM     19  C   LIG d   1       7.671  -0.017  -9.670  0.00  0.00     0.011 C 
ATOM     20  H   LIG d   1       7.925  -2.093  -9.155  0.00  0.00     0.044 H 
ATOM     21  H   LIG d   1       6.299  -1.448  -8.828  0.00  0.00     0.044 H 
ATOM     22  N   LIG d   1       9.103   0.298  -9.588  0.00  0.00    -0.303 N 
ATOM     23  H   LIG d   1       7.090   0.838  -9.324  0.00  0.00     0.044 H 
ATOM     24  H   LIG d   1       7.406  -0.240 -10.704  0.00  0.00     0.044 H 
ATOM     25  C   LIG d   1       9.497   0.588  -8.202  0.00  0.00     0.011 C 
ATOM     26  C   LIG d   1       9.193  -0.626  -7.322  0.00  0.00     0.012 C 
ATOM     27  H   LIG d   1       8.938   1.450  -7.839  0.00  0.00     0.044 H 
ATOM     28  H   LIG d   1      10.566   0.806  -8.166  0.00  0.00     0.044 H 
ATOM     29  H   LIG d   1       9.457  -0.402  -6.289  0.00  0.00     0.044 H 
ATOM     30  H   LIG d   1       9.773  -1.481  -7.670  0.00  0.00     0.044 H 
BRANCH  22  31
ATOM     31  C   LIG d   1       9.450   1.414 -10.479  0.00  0.00    -0.013 C 
ATOM     32  H   LIG d   1       9.034   2.339 -10.081  0.00  0.00     0.039 H 
ATOM     33  H   LIG d   1      10.534   1.501 -10.547  0.00  0.00     0.039 H 
ATOM     34  H   LIG d   1       9.038   1.227 -11.471  0.00  0.00     0.039 H 
ENDBRANCH  22  31
ENDBRANCH  14  17
ENDBRANCH   4  14
BRANCH   3  35
ATOM     35  O   LIG d   1       8.350  -2.178  -3.863  0.00  0.00    -0.506 OA
ATOM     36  H   LIG d   1       8.740  -2.567  -4.658  0.00  0.00     0.292 HD
ENDBRANCH   3  35
BRANCH   1  37
ATOM     37  C   LIG d   1       4.382  -0.074  -1.987  0.00  0.00    -0.039 C 
ATOM     38  H   LIG d   1       3.898   0.865  -2.255  0.00  0.00     0.028 H 
ATOM     39  H   LIG d   1       3.625  -0.807  -1.708  0.00  0.00     0.028 H 
ATOM     40  H   LIG d   1       5.056   0.091  -1.146  0.00  0.00     0.028 H 
ENDBRANCH   1  37
BRANCH  10  41
ATOM     41  C   LIG d   1       2.731  -0.137  -8.728  0.00  0.00     0.133 A 
ATOM     42  O   LIG d   1       3.761   0.337  -9.462  0.00  0.00    -0.455 OA
ATOM     43  C   LIG d   1       3.671  -0.123 -10.727  0.00  0.00     0.136 A 
ATOM     44  C   LIG d   1       2.519  -0.926 -10.807  0.00  0.00     0.022 A 
ATOM     45  C   LIG d   1       4.456   0.055 -11.860  0.00  0.00    -0.018 A 
ATOM     46  C   LIG d   1       1.936  -0.918  -9.515  0.00  0.00    -0.009 A 
ATOM     47  C   LIG d   1       2.174  -1.534 -12.020  0.00  0.00    -0.037 A 
ATOM     48  H   LIG d   1       1.036  -1.432  -9.212  0.00  0.00     0.066 H 
ATOM     49  C   LIG d   1       2.961  -1.345 -13.121  0.00  0.00     0.019 A 
ATOM     50  H   LIG d   1       1.290  -2.150 -12.085  0.00  0.00     0.064 H 
ATOM     51  C   LIG d   1       4.100  -0.553 -13.045  0.00  0.00    -0.044 A 
ATOM     52 BR   LIG d   1       2.497  -2.166 -14.760  0.00  0.00    -0.050 Br
ATOM     53  H   LIG d   1       4.713  -0.412 -13.923  0.00  0.00     0.063 H 
ATOM     54  H   LIG d   1       5.344   0.668 -11.812  0.00  0.00     0.066 H 
ENDBRANCH  10  41
TORSDOF 6
ENDMDL
MODEL 3
REMARK VINA RESULT:      -6.3      3.636      8.072
REMARK  6 active torsions:
REMARK  status: ('A' for Active; 'I' for Inactive)
REMARK    1  A    between atoms: C_1  and  C_2 
REMARK    2  A    between atoms: C_4  and  O_31 
REMARK    3  A    between atoms: C_5  and  C_23 
REMARK    4  A    between atoms: C_11  and  C_12 
REMARK    5  A    between atoms: C_23  and  N_24 
REMARK    6  A    between atoms: N_27  and  C_30 
ROOT
ATOM      1  C   LIG d   1       3.485  -5.906 -11.252  0.00  0.00    -0.033 A 
ATOM      2  C   LIG d   1       2.600  -5.258 -12.068  0.00  0.00    -0.016 A 
ATOM      3  C   LIG d   1       1.988  -4.083 -11.642  0.00  0.00     0.125 A 
ATOM      4  C   LIG d   1       2.266  -3.557 -10.391  0.00  0.00     0.051 A 
ATOM      5  C   LIG d   1       3.163  -4.202  -9.549  0.00  0.00     0.148 A 
ATOM      6  C   LIG d   1       3.770  -5.391  -9.987  0.00  0.00     0.071 A 
ATOM      7  C   LIG d   1       4.648  -5.838  -8.891  0.00  0.00     0.232 A 
ATOM      8  O   LIG d   1       5.363  -6.825  -8.862  0.00  0.00    -0.283 OA
ATOM      9  C   LIG d   1       4.472  -4.825  -7.841  0.00  0.00     0.179 A 
ATOM     10  C   LIG d   1       5.087  -4.811  -6.626  0.00  0.00     0.027 C 
ATOM     11  O   LIG d   1       3.597  -3.902  -8.305  0.00  0.00    -0.451 OA
ATOM     12  H   LIG d   1       2.376  -5.658 -13.046  0.00  0.00     0.066 H 
ATOM     13  H   LIG d   1       5.779  -5.598  -6.361  0.00  0.00     0.069 H 
ENDROOT
BRANCH   4  14
ATOM     14  C   LIG d   1       1.596  -2.283  -9.942  0.00  0.00     0.031 C 
ATOM     15  H   LIG d   1       0.871  -1.970 -10.694  0.00  0.00     0.048 H 
ATOM     16  H   LIG d   1       1.084  -2.455  -8.996  0.00  0.00     0.048 H 
BRANCH  14  17
ATOM     17  N   LIG d   1       2.607  -1.232  -9.769  0.00  0.00    -0.295 N 
ATOM     18  C   LIG d   1       2.401  -0.506  -8.508  0.00  0.00     0.012 C 
ATOM     19  C   LIG d   1       3.518   0.524  -8.327  0.00  0.00     0.011 C 
ATOM     20  H   LIG d   1       1.437   0.003  -8.535  0.00  0.00     0.044 H 
ATOM     21  H   LIG d   1       2.416  -1.209  -7.676  0.00  0.00     0.044 H 
ATOM     22  N   LIG d   1       3.520   1.447  -9.470  0.00  0.00    -0.303 N 
ATOM     23  H   LIG d   1       4.479   0.012  -8.272  0.00  0.00     0.044 H 
ATOM     24  H   LIG d   1       3.352   1.084  -7.407  0.00  0.00     0.044 H 
ATOM     25  C   LIG d   1       3.726   0.721 -10.730  0.00  0.00     0.011 C 
ATOM     26  C   LIG d   1       2.608  -0.308 -10.912  0.00  0.00     0.012 C 
ATOM     27  H   LIG d   1       4.689   0.212 -10.703  0.00  0.00     0.044 H 
ATOM     28  H   LIG d   1       3.710   1.426 -11.563  0.00  0.00     0.044 H 
ATOM     29  H   LIG d   1       2.776  -0.869 -11.832  0.00  0.00     0.044 H 
ATOM     30  H   LIG d   1       1.647   0.204 -10.966  0.00  0.00     0.044 H 
BRANCH  22  31
ATOM     31  C   LIG d   1       4.532   2.499  -9.296  0.00  0.00    -0.013 C 
ATOM     32  H   LIG d   1       4.763   2.607  -8.236  0.00  0.00     0.039 H 
ATOM     33  H   LIG d   1       5.435   2.227  -9.840  0.00  0.00     0.039 H 
ATOM     34  H   LIG d   1       4.144   3.442  -9.681  0.00  0.00     0.039 H 
ENDBRANCH  22  31
ENDBRANCH  14  17
ENDBRANCH   4  14
BRANCH   3  35
ATOM     35  O   LIG d   1       1.111  -3.446 -12.459  0.00  0.00    -0.506 OA
ATOM     36  H   LIG d   1       0.444  -4.027 -12.849  0.00  0.00     0.292 HD
ENDBRANCH   3  35
BRANCH   1  37
ATOM     37  C   LIG d   1       4.146  -7.178 -11.716  0.00  0.00    -0.039 C 
ATOM     38  H   LIG d   1       4.729  -6.978 -12.614  0.00  0.00     0.028 H 
ATOM     39  H   LIG d   1       4.804  -7.552 -10.932  0.00  0.00     0.028 H 
ATOM     40  H   LIG d   1       3.382  -7.924 -11.936  0.00  0.00     0.028 H 
ENDBRANCH   1  37
BRANCH  10  41
ATOM     41  C   LIG d   1       4.818  -3.766  -5.709  0.00  0.00     0.133 A 
ATOM     42  O   LIG d   1       4.489  -3.933  -4.410  0.00  0.00    -0.455 OA
ATOM     43  C   LIG d   1       4.306  -2.731  -3.826  0.00  0.00     0.136 A 
ATOM     44  C   LIG d   1       4.522  -1.745  -4.807  0.00  0.00     0.022 A 
ATOM     45  C   LIG d   1       3.966  -2.344  -2.536  0.00  0.00    -0.018 A 
ATOM     46  C   LIG d   1       4.849  -2.435  -6.002  0.00  0.00    -0.009 A 
ATOM     47  C   LIG d   1       4.393  -0.391  -4.475  0.00  0.00    -0.037 A 
ATOM     48  H   LIG d   1       5.077  -1.990  -6.959  0.00  0.00     0.066 H 
ATOM     49  C   LIG d   1       4.057  -0.035  -3.200  0.00  0.00     0.019 A 
ATOM     50  H   LIG d   1       4.557   0.368  -5.225  0.00  0.00     0.064 H 
ATOM     51  C   LIG d   1       3.843  -1.005  -2.230  0.00  0.00    -0.044 A 
ATOM     52 BR   LIG d   1       3.882   1.794  -2.751  0.00  0.00    -0.050 Br
ATOM     53  H   LIG d   1       3.579  -0.709  -1.226  0.00  0.00     0.063 H 
ATOM     54  H   LIG d   1       3.799  -3.091  -1.774  0.00  0.00     0.066 H 
ENDBRANCH  10  41
TORSDOF 6
ENDMDL
MODEL 4
REMARK VINA RESULT:      -5.9     10.466     11.807
REMARK  6 active torsions:
REMARK  status: ('A' for Active; 'I' for Inactive)
REMARK    1  A    between atoms: C_1  and  C_2 
REMARK    2  A    between atoms: C_4  and  O_31 
REMARK    3  A    between atoms: C_5  and  C_23 
REMARK    4  A    between atoms: C_11  and  C_12 
REMARK    5  A    between atoms: C_23  and  N_24 
REMARK    6  A    between atoms: N_27  and  C_30 
ROOT
ATOM      1  C   LIG d   1      10.764   9.444  -0.175  0.00  0.00    -0.033 A 
ATOM      2  C   LIG d   1      11.404   8.376   0.388  0.00  0.00    -0.016 A 
ATOM      3  C   LIG d   1      11.838   7.321  -0.410  0.00  0.00     0.125 A 
ATOM      4  C   LIG d   1      11.628   7.340  -1.780  0.00  0.00     0.051 A 
ATOM      5  C   LIG d   1      10.979   8.418  -2.368  0.00  0.00     0.148 A 
ATOM      6  C   LIG d   1      10.540   9.474  -1.552  0.00  0.00     0.071 A 
ATOM      7  C   LIG d   1       9.891  10.449  -2.447  0.00  0.00     0.232 A 
ATOM      8  O   LIG d   1       9.377  11.513  -2.146  0.00  0.00    -0.283 OA
ATOM      9  C   LIG d   1      10.003   9.853  -3.785  0.00  0.00     0.179 A 
ATOM     10  C   LIG d   1       9.543  10.393  -4.948  0.00  0.00     0.027 C 
ATOM     11  O   LIG d   1      10.657   8.674  -3.655  0.00  0.00    -0.451 OA
ATOM     12  H   LIG d   1      11.574   8.350   1.454  0.00  0.00     0.066 H 
ATOM     13  H   LIG d   1       9.041  11.350  -4.937  0.00  0.00     0.069 H 
ENDROOT
BRANCH   4  14
ATOM     14  C   LIG d   1      12.104   6.192  -2.632  0.00  0.00     0.031 C 
ATOM     15  H   LIG d   1      12.651   6.579  -3.491  0.00  0.00     0.048 H 
ATOM     16  H   LIG d   1      12.760   5.550  -2.043  0.00  0.00     0.048 H 
BRANCH  14  17
ATOM     17  N   LIG d   1      10.948   5.415  -3.097  0.00  0.00    -0.295 N 
ATOM     18  C   LIG d   1      11.022   4.026  -2.624  0.00  0.00     0.012 C 
ATOM     19  C   LIG d   1       9.764   3.273  -3.062  0.00  0.00     0.011 C 
ATOM     20  H   LIG d   1      11.902   3.543  -3.051  0.00  0.00     0.044 H 
ATOM     21  H   LIG d   1      11.093   4.014  -1.537  0.00  0.00     0.044 H 
ATOM     22  N   LIG d   1       9.650   3.323  -4.526  0.00  0.00    -0.303 N 
ATOM     23  H   LIG d   1       8.887   3.738  -2.612  0.00  0.00     0.044 H 
ATOM     24  H   LIG d   1       9.830   2.234  -2.738  0.00  0.00     0.044 H 
ATOM     25  C   LIG d   1       9.576   4.712  -4.998  0.00  0.00     0.011 C 
ATOM     26  C   LIG d   1      10.834   5.465  -4.561  0.00  0.00     0.012 C 
ATOM     27  H   LIG d   1       8.696   5.194  -4.571  0.00  0.00     0.044 H 
ATOM     28  H   LIG d   1       9.504   4.723  -6.086  0.00  0.00     0.044 H 
ATOM     29  H   LIG d   1      10.767   6.504  -4.885  0.00  0.00     0.044 H 
ATOM     30  H   LIG d   1      11.711   4.999  -5.010  0.00  0.00     0.044 H 
BRANCH  22  31
ATOM     31  C   LIG d   1       8.493   2.545  -4.991  0.00  0.00    -0.013 C 
ATOM     32  H   LIG d   1       8.071   1.988  -4.155  0.00  0.00     0.039 H 
ATOM     33  H   LIG d   1       7.740   3.221  -5.395  0.00  0.00     0.039 H 
ATOM     34  H   LIG d   1       8.812   1.850  -5.768  0.00  0.00     0.039 H 
ENDBRANCH  22  31
ENDBRANCH  14  17
ENDBRANCH   4  14
BRANCH   3  35
ATOM     35  O   LIG d   1      12.474   6.266   0.158  0.00  0.00    -0.506 OA
ATOM     36  H   LIG d   1      12.775   5.600  -0.476  0.00  0.00     0.292 HD
ENDBRANCH   3  35
BRANCH   1  37
ATOM     37  C   LIG d   1      10.294  10.585   0.691  0.00  0.00    -0.039 C 
ATOM     38  H   LIG d   1       9.826  11.346   0.068  0.00  0.00     0.028 H 
ATOM     39  H   LIG d   1       9.571  10.215   1.418  0.00  0.00     0.028 H 
ATOM     40  H   LIG d   1      11.147  11.018   1.214  0.00  0.00     0.028 H 
ENDBRANCH   1  37
BRANCH  10  41
ATOM     41  C   LIG d   1       9.723   9.701  -6.170  0.00  0.00     0.133 A 
ATOM     42  O   LIG d   1      10.536  10.090  -7.175  0.00  0.00    -0.455 OA
ATOM     43  C   LIG d   1      10.471   9.201  -8.187  0.00  0.00     0.136 A 
ATOM     44  C   LIG d   1       9.561   8.196  -7.811  0.00  0.00     0.022 A 
ATOM     45  C   LIG d   1      11.094   9.126  -9.427  0.00  0.00    -0.018 A 
ATOM     46  C   LIG d   1       9.098   8.540  -6.516  0.00  0.00    -0.009 A 
ATOM     47  C   LIG d   1       9.293   7.135  -8.685  0.00  0.00    -0.037 A 
ATOM     48  H   LIG d   1       8.386   7.988  -5.920  0.00  0.00     0.066 H 
ATOM     49  C   LIG d   1       9.918   7.082  -9.899  0.00  0.00     0.019 A 
ATOM     50  H   LIG d   1       8.595   6.362  -8.400  0.00  0.00     0.064 H 
ATOM     51  C   LIG d   1      10.816   8.074 -10.273  0.00  0.00    -0.044 A 
ATOM     52 BR   LIG d   1       9.556   5.650 -11.079  0.00  0.00    -0.050 Br
ATOM     53  H   LIG d   1      11.303   8.019 -11.235  0.00  0.00     0.063 H 
ATOM     54  H   LIG d   1      11.795   9.891  -9.727  0.00  0.00     0.066 H 
ENDBRANCH  10  41
TORSDOF 6
ENDMDL
MODEL 5
REMARK VINA RESULT:      -5.8      3.425      7.443
REMARK  6 active torsions:
REMARK  status: ('A' for Active; 'I' for Inactive)
REMARK    1  A    between atoms: C_1  and  C_2 
REMARK    2  A    between atoms: C_4  and  O_31 
REMARK    3  A    between atoms: C_5  and  C_23 
REMARK    4  A    between atoms: C_11  and  C_12 
REMARK    5  A    between atoms: C_23  and  N_24 
REMARK    6  A    between atoms: N_27  and  C_30 
ROOT
ATOM      1  C   LIG d   1       2.025  -0.817 -10.347  0.00  0.00    -0.033 A 
ATOM      2  C   LIG d   1       2.469   0.394  -9.893  0.00  0.00    -0.016 A 
ATOM      3  C   LIG d   1       3.431   0.454  -8.889  0.00  0.00     0.125 A 
ATOM      4  C   LIG d   1       3.949  -0.708  -8.339  0.00  0.00     0.051 A 
ATOM      5  C   LIG d   1       3.509  -1.946  -8.788  0.00  0.00     0.148 A 
ATOM      6  C   LIG d   1       2.534  -1.995  -9.798  0.00  0.00     0.071 A 
ATOM      7  C   LIG d   1       2.269  -3.422 -10.052  0.00  0.00     0.232 A 
ATOM      8  O   LIG d   1       1.492  -3.905 -10.858  0.00  0.00    -0.283 OA
ATOM      9  C   LIG d   1       3.152  -4.133  -9.119  0.00  0.00     0.179 A 
ATOM     10  C   LIG d   1       3.261  -5.484  -8.985  0.00  0.00     0.027 C 
ATOM     11  O   LIG d   1       3.848  -3.202  -8.424  0.00  0.00    -0.451 OA
ATOM     12  H   LIG d   1       2.073   1.305 -10.315  0.00  0.00     0.066 H 
ATOM     13  H   LIG d   1       2.662  -6.138  -9.601  0.00  0.00     0.069 H 
ENDROOT
BRANCH   4  14
ATOM     14  C   LIG d   1       4.990  -0.627  -7.252  0.00  0.00     0.031 C 
ATOM     15  H   LIG d   1       5.878  -1.180  -7.559  0.00  0.00     0.048 H 
ATOM     16  H   LIG d   1       5.254   0.416  -7.078  0.00  0.00     0.048 H 
BRANCH  14  17
ATOM     17  N   LIG d   1       4.453  -1.210  -6.015  0.00  0.00    -0.295 N 
ATOM     18  C   LIG d   1       3.941  -0.165  -5.119  0.00  0.00     0.012 C 
ATOM     19  C   LIG d   1       3.321  -0.816  -3.882  0.00  0.00     0.011 C 
ATOM     20  H   LIG d   1       4.760   0.487  -4.815  0.00  0.00     0.044 H 
ATOM     21  H   LIG d   1       3.184   0.422  -5.639  0.00  0.00     0.044 H 
ATOM     22  N   LIG d   1       4.333  -1.637  -3.204  0.00  0.00    -0.303 N 
ATOM     23  H   LIG d   1       2.483  -1.446  -4.183  0.00  0.00     0.044 H 
ATOM     24  H   LIG d   1       2.965  -0.042  -3.201  0.00  0.00     0.044 H 
ATOM     25  C   LIG d   1       4.845  -2.683  -4.100  0.00  0.00     0.011 C 
ATOM     26  C   LIG d   1       5.466  -2.032  -5.337  0.00  0.00     0.012 C 
ATOM     27  H   LIG d   1       4.025  -3.334  -4.404  0.00  0.00     0.044 H 
ATOM     28  H   LIG d   1       5.602  -3.270  -3.578  0.00  0.00     0.044 H 
ATOM     29  H   LIG d   1       5.820  -2.807  -6.017  0.00  0.00     0.044 H 
ATOM     30  H   LIG d   1       6.303  -1.401  -5.035  0.00  0.00     0.044 H 
BRANCH  22  31
ATOM     31  C   LIG d   1       3.795  -2.220  -1.966  0.00  0.00    -0.013 C 
ATOM     32  H   LIG d   1       2.734  -1.987  -1.887  0.00  0.00     0.039 H 
ATOM     33  H   LIG d   1       3.930  -3.301  -1.985  0.00  0.00     0.039 H 
ATOM     34  H   LIG d   1       4.324  -1.803  -1.109  0.00  0.00     0.039 H 
ENDBRANCH  22  31
ENDBRANCH  14  17
ENDBRANCH   4  14
BRANCH   3  35
ATOM     35  O   LIG d   1       3.866   1.660  -8.445  0.00  0.00    -0.506 OA
ATOM     36  H   LIG d   1       4.829   1.749  -8.428  0.00  0.00     0.292 HD
ENDBRANCH   3  35
BRANCH   1  37
ATOM     37  C   LIG d   1       0.984  -0.879 -11.435  0.00  0.00    -0.039 C 
ATOM     38  H   LIG d   1       0.559  -1.882 -11.474  0.00  0.00     0.028 H 
ATOM     39  H   LIG d   1       0.194  -0.158 -11.223  0.00  0.00     0.028 H 
ATOM     40  H   LIG d   1       1.446  -0.642 -12.393  0.00  0.00     0.028 H 
ENDBRANCH   1  37
BRANCH  10  41
ATOM     41  C   LIG d   1       4.160  -6.031  -8.037  0.00  0.00     0.133 A 
ATOM     42  O   LIG d   1       3.885  -7.057  -7.203  0.00  0.00    -0.455 OA
ATOM     43  C   LIG d   1       4.963  -7.325  -6.437  0.00  0.00     0.136 A 
ATOM     44  C   LIG d   1       5.976  -6.418  -6.797  0.00  0.00     0.022 A 
ATOM     45  C   LIG d   1       5.211  -8.262  -5.442  0.00  0.00    -0.018 A 
ATOM     46  C   LIG d   1       5.436  -5.602  -7.823  0.00  0.00    -0.009 A 
ATOM     47  C   LIG d   1       7.218  -6.466  -6.152  0.00  0.00    -0.037 A 
ATOM     48  H   LIG d   1       5.939  -4.795  -8.334  0.00  0.00     0.066 H 
ATOM     49  C   LIG d   1       7.438  -7.396  -5.175  0.00  0.00     0.019 A 
ATOM     50  H   LIG d   1       7.998  -5.771  -6.424  0.00  0.00     0.064 H 
ATOM     51  C   LIG d   1       6.440  -8.293  -4.818  0.00  0.00    -0.044 A 
ATOM     52 BR   LIG d   1       9.115  -7.462  -4.303  0.00  0.00    -0.050 Br
ATOM     53  H   LIG d   1       6.628  -9.023  -4.044  0.00  0.00     0.063 H 
ATOM     54  H   LIG d   1       4.442  -8.965  -5.157  0.00  0.00     0.066 H 
ENDBRANCH  10  41
TORSDOF 6
ENDMDL
MODEL 6
REMARK VINA RESULT:      -5.8      3.334      6.803
REMARK  6 active torsions:
REMARK  status: ('A' for Active; 'I' for Inactive)
REMARK    1  A    between atoms: C_1  and  C_2 
REMARK    2  A    between atoms: C_4  and  O_31 
REMARK    3  A    between atoms: C_5  and  C_23 
REMARK    4  A    between atoms: C_11  and  C_12 
REMARK    5  A    between atoms: C_23  and  N_24 
REMARK    6  A    between atoms: N_27  and  C_30 
ROOT
ATOM      1  C   LIG d   1       3.083   0.759  -8.936  0.00  0.00    -0.033 A 
ATOM      2  C   LIG d   1       2.894   0.575 -10.277  0.00  0.00    -0.016 A 
ATOM      3  C   LIG d   1       3.162  -0.662 -10.857  0.00  0.00     0.125 A 
ATOM      4  C   LIG d   1       3.621  -1.717 -10.086  0.00  0.00     0.051 A 
ATOM      5  C   LIG d   1       3.818  -1.548  -8.722  0.00  0.00     0.148 A 
ATOM      6  C   LIG d   1       3.550  -0.293  -8.148  0.00  0.00     0.071 A 
ATOM      7  C   LIG d   1       3.858  -0.419  -6.712  0.00  0.00     0.232 A 
ATOM      8  O   LIG d   1       3.758   0.437  -5.849  0.00  0.00    -0.283 OA
ATOM      9  C   LIG d   1       4.310  -1.807  -6.551  0.00  0.00     0.179 A 
ATOM     10  C   LIG d   1       4.705  -2.395  -5.389  0.00  0.00     0.027 C 
ATOM     11  O   LIG d   1       4.249  -2.401  -7.767  0.00  0.00    -0.451 OA
ATOM     12  H   LIG d   1       2.537   1.390 -10.888  0.00  0.00     0.066 H 
ATOM     13  H   LIG d   1       4.705  -1.828  -4.469  0.00  0.00     0.069 H 
ENDROOT
BRANCH   4  14
ATOM     14  C   LIG d   1       3.906  -3.051 -10.728  0.00  0.00     0.031 C 
ATOM     15  H   LIG d   1       3.870  -2.947 -11.812  0.00  0.00     0.048 H 
ATOM     16  H   LIG d   1       4.897  -3.394 -10.429  0.00  0.00     0.048 H 
BRANCH  14  17
ATOM     17  N   LIG d   1       2.898  -4.028 -10.295  0.00  0.00    -0.295 N 
ATOM     18  C   LIG d   1       3.435  -5.395 -10.343  0.00  0.00     0.012 C 
ATOM     19  C   LIG d   1       2.385  -6.372  -9.812  0.00  0.00     0.011 C 
ATOM     20  H   LIG d   1       3.683  -5.653 -11.373  0.00  0.00     0.044 H 
ATOM     21  H   LIG d   1       4.332  -5.456  -9.728  0.00  0.00     0.044 H 
ATOM     22  N   LIG d   1       1.162  -6.260 -10.619  0.00  0.00    -0.303 N 
ATOM     23  H   LIG d   1       2.157  -6.132  -8.773  0.00  0.00     0.044 H 
ATOM     24  H   LIG d   1       2.769  -7.390  -9.873  0.00  0.00     0.044 H 
ATOM     25  C   LIG d   1       0.625  -4.894 -10.572  0.00  0.00     0.011 C 
ATOM     26  C   LIG d   1       1.676  -3.916 -11.104  0.00  0.00     0.012 C 
ATOM     27  H   LIG d   1       0.378  -4.637  -9.542  0.00  0.00     0.044 H 
ATOM     28  H   LIG d   1      -0.273  -4.834 -11.188  0.00  0.00     0.044 H 
ATOM     29  H   LIG d   1       1.290  -2.899 -11.041  0.00  0.00     0.044 H 
ATOM     30  H   LIG d   1       1.904  -4.158 -12.142  0.00  0.00     0.044 H 
BRANCH  22  31
ATOM     31  C   LIG d   1       0.154  -7.239 -10.187  0.00  0.00    -0.013 C 
ATOM     32  H   LIG d   1       0.534  -7.797  -9.332  0.00  0.00     0.039 H 
ATOM     33  H   LIG d   1      -0.760  -6.717  -9.905  0.00  0.00     0.039 H 
ATOM     34  H   LIG d   1      -0.058  -7.927 -11.005  0.00  0.00     0.039 H 
ENDBRANCH  22  31
ENDBRANCH  14  17
ENDBRANCH   4  14
BRANCH   3  35
ATOM     35  O   LIG d   1       2.971  -0.835 -12.189  0.00  0.00    -0.506 OA
ATOM     36  H   LIG d   1       2.041  -0.875 -12.451  0.00  0.00     0.292 HD
ENDBRANCH   3  35
BRANCH   1  37
ATOM     37  C   LIG d   1       2.793   2.099  -8.310  0.00  0.00    -0.039 C 
ATOM     38  H   LIG d   1       3.683   2.460  -7.795  0.00  0.00     0.028 H 
ATOM     39  H   LIG d   1       2.510   2.809  -9.087  0.00  0.00     0.028 H 
ATOM     40  H   LIG d   1       1.976   1.997  -7.596  0.00  0.00     0.028 H 
ENDBRANCH   1  37
BRANCH  10  41
ATOM     41  C   LIG d   1       5.118  -3.749  -5.385  0.00  0.00     0.133 A 
ATOM     42  O   LIG d   1       4.292  -4.817  -5.431  0.00  0.00    -0.455 OA
ATOM     43  C   LIG d   1       5.015  -5.956  -5.415  0.00  0.00     0.136 A 
ATOM     44  C   LIG d   1       6.373  -5.596  -5.347  0.00  0.00     0.022 A 
ATOM     45  C   LIG d   1       4.668  -7.301  -5.448  0.00  0.00    -0.018 A 
ATOM     46  C   LIG d   1       6.411  -4.179  -5.329  0.00  0.00    -0.009 A 
ATOM     47  C   LIG d   1       7.357  -6.591  -5.312  0.00  0.00    -0.037 A 
ATOM     48  H   LIG d   1       7.294  -3.560  -5.280  0.00  0.00     0.066 H 
ATOM     49  C   LIG d   1       6.993  -7.907  -5.345  0.00  0.00     0.019 A 
ATOM     50  H   LIG d   1       8.401  -6.319  -5.259  0.00  0.00     0.064 H 
ATOM     51  C   LIG d   1       5.653  -8.266  -5.412  0.00  0.00    -0.044 A 
ATOM     52 BR   LIG d   1       8.322  -9.251  -5.298  0.00  0.00    -0.050 Br
ATOM     53  H   LIG d   1       5.379  -9.310  -5.438  0.00  0.00     0.063 H 
ATOM     54  H   LIG d   1       3.629  -7.590  -5.502  0.00  0.00     0.066 H 
ENDBRANCH  10  41
TORSDOF 6
ENDMDL
MODEL 7
REMARK VINA RESULT:      -5.8     10.611     13.006
REMARK  6 active torsions:
REMARK  status: ('A' for Active; 'I' for Inactive)
REMARK    1  A    between atoms: C_1  and  C_2 
REMARK    2  A    between atoms: C_4  and  O_31 
REMARK    3  A    between atoms: C_5  and  C_23 
REMARK    4  A    between atoms: C_11  and  C_12 
REMARK    5  A    between atoms: C_23  and  N_24 
REMARK    6  A    between atoms: N_27  and  C_30 
ROOT
ATOM      1  C   LIG d   1      11.204   9.254   1.051  0.00  0.00    -0.033 A 
ATOM      2  C   LIG d   1      10.830  10.518   0.689  0.00  0.00    -0.016 A 
ATOM      3  C   LIG d   1      10.287  10.753  -0.571  0.00  0.00     0.125 A 
ATOM      4  C   LIG d   1      10.119   9.713  -1.471  0.00  0.00     0.051 A 
ATOM      5  C   LIG d   1      10.493   8.422  -1.120  0.00  0.00     0.148 A 
ATOM      6  C   LIG d   1      11.046   8.198   0.152  0.00  0.00     0.071 A 
ATOM      7  C   LIG d   1      11.347   6.757   0.227  0.00  0.00     0.232 A 
ATOM      8  O   LIG d   1      11.832   6.143   1.162  0.00  0.00    -0.283 OA
ATOM      9  C   LIG d   1      10.929   6.225  -1.077  0.00  0.00     0.179 A 
ATOM     10  C   LIG d   1      11.012   4.927  -1.481  0.00  0.00     0.027 C 
ATOM     11  O   LIG d   1      10.435   7.257  -1.801  0.00  0.00    -0.451 OA
ATOM     12  H   LIG d   1      10.956  11.336   1.382  0.00  0.00     0.066 H 
ATOM     13  H   LIG d   1      11.417   4.179  -0.814  0.00  0.00     0.069 H 
ENDROOT
BRANCH   4  14
ATOM     14  C   LIG d   1       9.528   9.982  -2.831  0.00  0.00     0.031 C 
ATOM     15  H   LIG d   1       8.667   9.332  -2.988  0.00  0.00     0.048 H 
ATOM     16  H   LIG d   1       9.212  11.023  -2.891  0.00  0.00     0.048 H 
BRANCH  14  17
ATOM     17  N   LIG d   1      10.538   9.715  -3.864  0.00  0.00    -0.295 N 
ATOM     18  C   LIG d   1      11.060  10.969  -4.425  0.00  0.00     0.012 C 
ATOM     19  C   LIG d   1      12.162  10.651  -5.438  0.00  0.00     0.011 C 
ATOM     20  H   LIG d   1      10.254  11.509  -4.923  0.00  0.00     0.044 H 
ATOM     21  H   LIG d   1      11.469  11.584  -3.625  0.00  0.00     0.044 H 
ATOM     22  N   LIG d   1      11.618   9.790  -6.496  0.00  0.00    -0.303 N 
ATOM     23  H   LIG d   1      12.981  10.136  -4.935  0.00  0.00     0.044 H 
ATOM     24  H   LIG d   1      12.532  11.578  -5.878  0.00  0.00     0.044 H 
ATOM     25  C   LIG d   1      11.096   8.536  -5.935  0.00  0.00     0.011 C 
ATOM     26  C   LIG d   1       9.993   8.853  -4.923  0.00  0.00     0.012 C 
ATOM     27  H   LIG d   1      11.903   7.997  -5.438  0.00  0.00     0.044 H 
ATOM     28  H   LIG d   1      10.688   7.921  -6.738  0.00  0.00     0.044 H 
ATOM     29  H   LIG d   1       9.625   7.926  -4.484  0.00  0.00     0.044 H 
ATOM     30  H   LIG d   1       9.175   9.369  -5.426  0.00  0.00     0.044 H 
BRANCH  22  31
ATOM     31  C   LIG d   1      12.629   9.524  -7.531  0.00  0.00    -0.013 C 
ATOM     32  H   LIG d   1      12.155   9.535  -8.512  0.00  0.00     0.039 H 
ATOM     33  H   LIG d   1      13.400  10.291  -7.490  0.00  0.00     0.039 H 
ATOM     34  H   LIG d   1      13.078   8.546  -7.356  0.00  0.00     0.039 H 
ENDBRANCH  22  31
ENDBRANCH  14  17
ENDBRANCH   4  14
BRANCH   3  35
ATOM     35  O   LIG d   1       9.918  12.011  -0.920  0.00  0.00    -0.506 OA
ATOM     36  H   LIG d   1       9.274  12.046  -1.641  0.00  0.00     0.292 HD
ENDBRANCH   3  35
BRANCH   1  37
ATOM     37  C   LIG d   1      11.793   9.002   2.415  0.00  0.00    -0.039 C 
ATOM     38  H   LIG d   1      11.077   9.301   3.180  0.00  0.00     0.028 H 
ATOM     39  H   LIG d   1      12.020   7.942   2.523  0.00  0.00     0.028 H 
ATOM     40  H   LIG d   1      12.709   9.583   2.527  0.00  0.00     0.028 H 
ENDBRANCH   1  37
BRANCH  10  41
ATOM     41  C   LIG d   1      10.569   4.558  -2.773  0.00  0.00     0.133 A 
ATOM     42  O   LIG d   1      10.834   5.234  -3.912  0.00  0.00    -0.455 OA
ATOM     43  C   LIG d   1      10.263   4.605  -4.961  0.00  0.00     0.136 A 
ATOM     44  C   LIG d   1       9.592   3.473  -4.464  0.00  0.00     0.022 A 
ATOM     45  C   LIG d   1      10.231   4.871  -6.324  0.00  0.00    -0.018 A 
ATOM     46  C   LIG d   1       9.803   3.466  -3.062  0.00  0.00    -0.009 A 
ATOM     47  C   LIG d   1       8.900   2.631  -5.342  0.00  0.00    -0.037 A 
ATOM     48  H   LIG d   1       9.430   2.737  -2.358  0.00  0.00     0.066 H 
ATOM     49  C   LIG d   1       8.881   2.913  -6.679  0.00  0.00     0.019 A 
ATOM     50  H   LIG d   1       8.383   1.761  -4.964  0.00  0.00     0.064 H 
ATOM     51  C   LIG d   1       9.543   4.030  -7.172  0.00  0.00    -0.044 A 
ATOM     52 BR   LIG d   1       7.947   1.775  -7.866  0.00  0.00    -0.050 Br
ATOM     53  H   LIG d   1       9.520   4.240  -8.231  0.00  0.00     0.063 H 
ATOM     54  H   LIG d   1      10.743   5.736  -6.718  0.00  0.00     0.066 H 
ENDBRANCH  10  41
TORSDOF 6
ENDMDL
MODEL 8
REMARK VINA RESULT:      -5.8     11.307     14.498
REMARK  6 active torsions:
REMARK  status: ('A' for Active; 'I' for Inactive)
REMARK    1  A    between atoms: C_1  and  C_2 
REMARK    2  A    between atoms: C_4  and  O_31 
REMARK    3  A    between atoms: C_5  and  C_23 
REMARK    4  A    between atoms: C_11  and  C_12 
REMARK    5  A    between atoms: C_23  and  N_24 
REMARK    6  A    between atoms: N_27  and  C_30 
ROOT
ATOM      1  C   LIG d   1       9.550   5.844  -8.470  0.00  0.00    -0.033 A 
ATOM      2  C   LIG d   1       9.106   7.024  -8.998  0.00  0.00    -0.016 A 
ATOM      3  C   LIG d   1       9.017   8.158  -8.196  0.00  0.00     0.125 A 
ATOM      4  C   LIG d   1       9.375   8.106  -6.859  0.00  0.00     0.051 A 
ATOM      5  C   LIG d   1       9.829   6.915  -6.306  0.00  0.00     0.148 A 
ATOM      6  C   LIG d   1       9.909   5.775  -7.123  0.00  0.00     0.071 A 
ATOM      7  C   LIG d   1      10.407   4.684  -6.267  0.00  0.00     0.232 A 
ATOM      8  O   LIG d   1      10.626   3.527  -6.583  0.00  0.00    -0.283 OA
ATOM      9  C   LIG d   1      10.583   5.303  -4.946  0.00  0.00     0.179 A 
ATOM     10  C   LIG d   1      11.029   4.681  -3.820  0.00  0.00     0.027 C 
ATOM     11  O   LIG d   1      10.233   6.606  -5.055  0.00  0.00    -0.451 OA
ATOM     12  H   LIG d   1       8.824   7.076 -10.039  0.00  0.00     0.066 H 
ATOM     13  H   LIG d   1      11.292   3.633  -3.849  0.00  0.00     0.069 H 
ENDROOT
BRANCH   4  14
ATOM     14  C   LIG d   1       9.274   9.343  -6.002  0.00  0.00     0.031 C 
ATOM     15  H   LIG d   1       8.795  10.139  -6.571  0.00  0.00     0.048 H 
ATOM     16  H   LIG d   1       8.680   9.123  -5.115  0.00  0.00     0.048 H 
BRANCH  14  17
ATOM     17  N   LIG d   1      10.620   9.770  -5.598  0.00  0.00    -0.295 N 
ATOM     18  C   LIG d   1      10.686   9.998  -4.148  0.00  0.00     0.012 C 
ATOM     19  C   LIG d   1      12.119  10.364  -3.757  0.00  0.00     0.011 C 
ATOM     20  H   LIG d   1      10.016  10.814  -3.877  0.00  0.00     0.044 H 
ATOM     21  H   LIG d   1      10.386   9.092  -3.623  0.00  0.00     0.044 H 
ATOM     22  N   LIG d   1      12.535  11.563  -4.496  0.00  0.00    -0.303 N 
ATOM     23  H   LIG d   1      12.786   9.536  -4.003  0.00  0.00     0.044 H 
ATOM     24  H   LIG d   1      12.166  10.562  -2.686  0.00  0.00     0.044 H 
ATOM     25  C   LIG d   1      12.469  11.335  -5.946  0.00  0.00     0.011 C 
ATOM     26  C   LIG d   1      11.035  10.970  -6.338  0.00  0.00     0.012 C 
ATOM     27  H   LIG d   1      13.139  10.520  -6.217  0.00  0.00     0.044 H 
ATOM     28  H   LIG d   1      12.770  12.243  -6.471  0.00  0.00     0.044 H 
ATOM     29  H   LIG d   1      10.990  10.772  -7.408  0.00  0.00     0.044 H 
ATOM     30  H   LIG d   1      10.369  11.798  -6.091  0.00  0.00     0.044 H 
BRANCH  22  31
ATOM     31  C   LIG d   1      13.882  11.991  -4.091  0.00  0.00    -0.013 C 
ATOM     32  H   LIG d   1      14.609  11.242  -4.402  0.00  0.00     0.039 H 
ATOM     33  H   LIG d   1      14.118  12.944  -4.564  0.00  0.00     0.039 H 
ATOM     34  H   LIG d   1      13.916  12.104  -3.008  0.00  0.00     0.039 H 
ENDBRANCH  22  31
ENDBRANCH  14  17
ENDBRANCH   4  14
BRANCH   3  35
ATOM     35  O   LIG d   1       8.575   9.325  -8.729  0.00  0.00    -0.506 OA
ATOM     36  H   LIG d   1       7.620   9.353  -8.879  0.00  0.00     0.292 HD
ENDBRANCH   3  35
BRANCH   1  37
ATOM     37  C   LIG d   1       9.645   4.617  -9.340  0.00  0.00    -0.039 C 
ATOM     38  H   LIG d   1       8.948   4.706 -10.172  0.00  0.00     0.028 H 
ATOM     39  H   LIG d   1      10.661   4.522  -9.725  0.00  0.00     0.028 H 
ATOM     40  H   LIG d   1       9.397   3.734  -8.750  0.00  0.00     0.028 H 
ENDBRANCH   1  37
BRANCH  10  41
ATOM     41  C   LIG d   1      11.149   5.408  -2.610  0.00  0.00     0.133 A 
ATOM     42  O   LIG d   1      10.832   4.939  -1.384  0.00  0.00    -0.455 OA
ATOM     43  C   LIG d   1      11.070   5.888  -0.456  0.00  0.00     0.136 A 
ATOM     44  C   LIG d   1      11.557   7.026  -1.126  0.00  0.00     0.022 A 
ATOM     45  C   LIG d   1      10.923   5.924   0.926  0.00  0.00    -0.018 A 
ATOM     46  C   LIG d   1      11.597   6.691  -2.503  0.00  0.00    -0.009 A 
ATOM     47  C   LIG d   1      11.885   8.177  -0.400  0.00  0.00    -0.037 A 
ATOM     48  H   LIG d   1      11.920   7.330  -3.312  0.00  0.00     0.066 H 
ATOM     49  C   LIG d   1      11.732   8.189   0.957  0.00  0.00     0.019 A 
ATOM     50  H   LIG d   1      12.258   9.052  -0.912  0.00  0.00     0.064 H 
ATOM     51  C   LIG d   1      11.252   7.068   1.622  0.00  0.00    -0.044 A 
ATOM     52 BR   LIG d   1      12.176   9.743   1.939  0.00  0.00    -0.050 Br
ATOM     53  H   LIG d   1      11.136   7.091   2.695  0.00  0.00     0.063 H 
ATOM     54  H   LIG d   1      10.552   5.058   1.452  0.00  0.00     0.066 H 
ENDBRANCH  10  41
TORSDOF 6
ENDMDL
MODEL 9
REMARK VINA RESULT:      -5.7     10.871     13.851
REMARK  6 active torsions:
REMARK  status: ('A' for Active; 'I' for Inactive)
REMARK    1  A    between atoms: C_1  and  C_2 
REMARK    2  A    between atoms: C_4  and  O_31 
REMARK    3  A    between atoms: C_5  and  C_23 
REMARK    4  A    between atoms: C_11  and  C_12 
REMARK    5  A    between atoms: C_23  and  N_24 
REMARK    6  A    between atoms: N_27  and  C_30 
ROOT
ATOM      1  C   LIG d   1       9.806   6.987 -10.665  0.00  0.00    -0.033 A 
ATOM      2  C   LIG d   1      10.286   8.231 -10.962  0.00  0.00    -0.016 A 
ATOM      3  C   LIG d   1      10.915   8.991  -9.980  0.00  0.00     0.125 A 
ATOM      4  C   LIG d   1      11.061   8.498  -8.693  0.00  0.00     0.051 A 
ATOM      5  C   LIG d   1      10.579   7.235  -8.374  0.00  0.00     0.148 A 
ATOM      6  C   LIG d   1       9.941   6.479  -9.372  0.00  0.00     0.071 A 
ATOM      7  C   LIG d   1       9.538   5.211  -8.740  0.00  0.00     0.232 A 
ATOM      8  O   LIG d   1       8.960   4.269  -9.256  0.00  0.00    -0.283 OA
ATOM      9  C   LIG d   1       9.991   5.333  -7.347  0.00  0.00     0.179 A 
ATOM     10  C   LIG d   1       9.841   4.398  -6.368  0.00  0.00     0.027 C 
ATOM     11  O   LIG d   1      10.595   6.537  -7.217  0.00  0.00    -0.451 OA
ATOM     12  H   LIG d   1      10.179   8.626 -11.961  0.00  0.00     0.066 H 
ATOM     13  H   LIG d   1       9.349   3.461  -6.586  0.00  0.00     0.069 H 
ENDROOT
BRANCH   4  14
ATOM     14  C   LIG d   1      11.744   9.332  -7.639  0.00  0.00     0.031 C 
ATOM     15  H   LIG d   1      12.432   8.706  -7.071  0.00  0.00     0.048 H 
ATOM     16  H   LIG d   1      12.299  10.139  -8.118  0.00  0.00     0.048 H 
BRANCH  14  17
ATOM     17  N   LIG d   1      10.736   9.900  -6.735  0.00  0.00    -0.295 N 
ATOM     18  C   LIG d   1      10.705  11.365  -6.834  0.00  0.00     0.012 C 
ATOM     19  C   LIG d   1       9.592  11.912  -5.938  0.00  0.00     0.011 C 
ATOM     20  H   LIG d   1      11.664  11.772  -6.511  0.00  0.00     0.044 H 
ATOM     21  H   LIG d   1      10.517  11.657  -7.867  0.00  0.00     0.044 H 
ATOM     22  N   LIG d   1       9.827  11.485  -4.553  0.00  0.00    -0.303 N 
ATOM     23  H   LIG d   1       8.629  11.527  -6.279  0.00  0.00     0.044 H 
ATOM     24  H   LIG d   1       9.585  13.001  -5.987  0.00  0.00     0.044 H 
ATOM     25  C   LIG d   1       9.857  10.019  -4.453  0.00  0.00     0.011 C 
ATOM     26  C   LIG d   1      10.972   9.473  -5.348  0.00  0.00     0.012 C 
ATOM     27  H   LIG d   1       8.899   9.613  -4.776  0.00  0.00     0.044 H 
ATOM     28  H   LIG d   1      10.046   9.728  -3.419  0.00  0.00     0.044 H 
ATOM     29  H   LIG d   1      10.976   8.384  -5.299  0.00  0.00     0.044 H 
ATOM     30  H   LIG d   1      11.933   9.858  -5.009  0.00  0.00     0.044 H 
BRANCH  22  31
ATOM     31  C   LIG d   1       8.818  12.053  -3.647  0.00  0.00    -0.013 C 
ATOM     32  H   LIG d   1       8.245  11.247  -3.190  0.00  0.00     0.039 H 
ATOM     33  H   LIG d   1       9.314  12.634  -2.870  0.00  0.00     0.039 H 
ATOM     34  H   LIG d   1       8.147  12.701  -4.213  0.00  0.00     0.039 H 
ENDBRANCH  22  31
ENDBRANCH  14  17
ENDBRANCH   4  14
BRANCH   3  35
ATOM     35  O   LIG d   1      11.389  10.226 -10.284  0.00  0.00    -0.506 OA
ATOM     36  H   LIG d   1      10.935  10.649 -11.026  0.00  0.00     0.292 HD
ENDBRANCH   3  35
BRANCH   1  37
ATOM     37  C   LIG d   1       9.126   6.166 -11.731  0.00  0.00    -0.039 C 
ATOM     38  H   LIG d   1       9.522   6.439 -12.708  0.00  0.00     0.028 H 
ATOM     39  H   LIG d   1       9.310   5.108 -11.547  0.00  0.00     0.028 H 
ATOM     40  H   LIG d   1       8.053   6.358 -11.706  0.00  0.00     0.028 H 
ENDBRANCH   1  37
BRANCH  10  41
ATOM     41  C   LIG d   1      10.330   4.655  -5.064  0.00  0.00     0.133 A 
ATOM     42  O   LIG d   1      11.619   4.538  -4.677  0.00  0.00    -0.455 OA
ATOM     43  C   LIG d   1      11.735   4.862  -3.372  0.00  0.00     0.136 A 
ATOM     44  C   LIG d   1      10.452   5.194  -2.901  0.00  0.00     0.022 A 
ATOM     45  C   LIG d   1      12.815   4.911  -2.499  0.00  0.00    -0.018 A 
ATOM     46  C   LIG d   1       9.572   5.054  -4.003  0.00  0.00    -0.009 A 
ATOM     47  C   LIG d   1      10.276   5.569  -1.563  0.00  0.00    -0.037 A 
ATOM     48  H   LIG d   1       8.506   5.229  -4.002  0.00  0.00     0.066 H 
ATOM     49  C   LIG d   1      11.353   5.610  -0.723  0.00  0.00     0.019 A 
ATOM     50  H   LIG d   1       9.292   5.824  -1.197  0.00  0.00     0.064 H 
ATOM     51  C   LIG d   1      12.620   5.282  -1.186  0.00  0.00    -0.044 A 
ATOM     52 BR   LIG d   1      11.115   6.116   1.084  0.00  0.00    -0.050 Br
ATOM     53  H   LIG d   1      13.462   5.319  -0.511  0.00  0.00     0.063 H 
ATOM     54  H   LIG d   1      13.805   4.659  -2.849  0.00  0.00     0.066 H 
ENDBRANCH  10  41
TORSDOF 6
ENDMDL
