MODEL 1
REMARK VINA RESULT:      -6.7      0.000      0.000
REMARK  6 active torsions:
REMARK  status: ('A' for Active; 'I' for Inactive)
REMARK    1  A    between atoms: C_1  and  C_2 
REMARK    2  A    between atoms: C_2  and  O_3 
REMARK    3  A    between atoms: O_3  and  C_4 
REMARK    4  A    between atoms: C_11  and  C_27 
REMARK    5  A    between atoms: C_12  and  O_15 
REMARK    6  A    between atoms: O_15  and  C_16 
ROOT
ATOM      1  C   LIG d   1       3.649  -1.347 -13.894  0.00  0.00     0.124 A 
ATOM      2  C   LIG d   1       2.542  -2.000 -13.357  0.00  0.00    -0.019 A 
ATOM      3  C   LIG d   1       2.094  -1.687 -12.106  0.00  0.00    -0.044 A 
ATOM      4  C   LIG d   1       2.752  -0.706 -11.361  0.00  0.00     0.068 A 
ATOM      5  C   LIG d   1       3.870  -0.041 -11.894  0.00  0.00     0.142 A 
ATOM      6  C   LIG d   1       4.312  -0.372 -13.168  0.00  0.00     0.023 A 
ATOM      7  O   LIG d   1       4.497   0.904 -11.167  0.00  0.00    -0.456 OA
ATOM      8  C   LIG d   1       4.093   1.250  -9.936  0.00  0.00     0.148 A 
ATOM      9  C   LIG d   1       3.036   0.673  -9.329  0.00  0.00     0.213 A 
ATOM     10  C   LIG d   1       2.300  -0.339 -10.008  0.00  0.00     0.235 A 
ATOM     11  O   LIG d   1       1.337  -0.880  -9.490  0.00  0.00    -0.283 OA
ATOM     12  H   LIG d   1       2.034  -2.760 -13.934  0.00  0.00     0.065 H 
ATOM     13  H   LIG d   1       1.236  -2.195 -11.694  0.00  0.00     0.063 H 
ATOM     14  H   LIG d   1       5.170   0.130 -13.592  0.00  0.00     0.069 H 
ENDROOT
BRANCH   9  15
ATOM     15  O   LIG d   1       2.674   1.060  -8.075  0.00  0.00    -0.449 OA
BRANCH  15  16
ATOM     16  C   LIG d   1       3.148   0.343  -7.023  0.00  0.00     0.133 A 
ATOM     17  C   LIG d   1       2.655   0.577  -5.746  0.00  0.00     0.026 A 
ATOM     18  C   LIG d   1       3.142  -0.158  -4.678  0.00  0.00     0.165 A 
ATOM     19  H   LIG d   1       1.895   1.327  -5.587  0.00  0.00     0.069 H 
ATOM     20  C   LIG d   1       4.120  -1.121  -4.884  0.00  0.00     0.162 A 
ATOM     21  O   LIG d   1       2.664   0.059  -3.419  0.00  0.00    -0.488 OA
ATOM     22  C   LIG d   1       4.611  -1.353  -6.157  0.00  0.00    -0.013 A 
ATOM     23  O   LIG d   1       4.589  -1.842  -3.823  0.00  0.00    -0.488 OA
ATOM     24  C   LIG d   1       4.124  -0.621  -7.226  0.00  0.00    -0.016 A 
ATOM     25  H   LIG d   1       5.371  -2.104  -6.316  0.00  0.00     0.066 H 
ATOM     26  H   LIG d   1       4.506  -0.800  -8.220  0.00  0.00     0.066 H 
ATOM     27  C   LIG d   1       5.363  -1.107  -2.868  0.00  0.00     0.093 C 
ATOM     28  C   LIG d   1       4.459  -0.421  -1.856  0.00  0.00     0.016 C 
ATOM     29  H   LIG d   1       5.957  -0.356  -3.387  0.00  0.00     0.070 H 
ATOM     30  H   LIG d   1       6.031  -1.793  -2.346  0.00  0.00     0.070 H 
ATOM     31  C   LIG d   1       3.582   0.646  -2.494  0.00  0.00     0.093 C 
ATOM     32  H   LIG d   1       5.078   0.044  -1.089  0.00  0.00     0.033 H 
ATOM     33  H   LIG d   1       3.820  -1.168  -1.388  0.00  0.00     0.033 H 
ATOM     34  H   LIG d   1       4.214   1.361  -3.021  0.00  0.00     0.070 H 
ATOM     35  H   LIG d   1       3.025   1.165  -1.715  0.00  0.00     0.070 H 
ENDBRANCH  15  16
ENDBRANCH   9  15
BRANCH   8  36
ATOM     36  C   LIG d   1       4.853   2.322  -9.201  0.00  0.00    -0.003 C 
ATOM     37  H   LIG d   1       4.494   3.302  -9.513  0.00  0.00     0.031 H 
ATOM     38  H   LIG d   1       4.699   2.205  -8.128  0.00  0.00     0.031 H 
ATOM     39  H   LIG d   1       5.915   2.234  -9.427  0.00  0.00     0.031 H 
ENDBRANCH   8  36
BRANCH   1  40
ATOM     40  O   LIG d   1       4.083  -1.670 -15.139  0.00  0.00    -0.492 OA
BRANCH  40  41
ATOM     41  C   LIG d   1       4.544  -0.598 -15.963  0.00  0.00     0.087 C 
ATOM     42  H   LIG d   1       4.934   0.203 -15.335  0.00  0.00     0.069 H 
ATOM     43  H   LIG d   1       5.334  -0.959 -16.622  0.00  0.00     0.069 H 
BRANCH  41  44
ATOM     44  C   LIG d   1       3.382  -0.066 -16.806  0.00  0.00    -0.031 C 
ATOM     45  H   LIG d   1       2.483  -0.640 -16.586  0.00  0.00     0.026 H 
ATOM     46  H   LIG d   1       3.211   0.983 -16.566  0.00  0.00     0.026 H 
ATOM     47  H   LIG d   1       3.627  -0.162 -17.864  0.00  0.00     0.026 H 
ENDBRANCH  41  44
ENDBRANCH  40  41
ENDBRANCH   1  40
TORSDOF 6
ENDMDL
MODEL 2
REMARK VINA RESULT:      -6.6      6.359      9.422
REMARK  6 active torsions:
REMARK  status: ('A' for Active; 'I' for Inactive)
REMARK    1  A    between atoms: C_1  and  C_2 
REMARK    2  A    between atoms: C_2  and  O_3 
REMARK    3  A    between atoms: O_3  and  C_4 
REMARK    4  A    between atoms: C_11  and  C_27 
REMARK    5  A    between atoms: C_12  and  O_15 
REMARK    6  A    between atoms: O_15  and  C_16 
ROOT
ATOM      1  C   LIG d   1       5.426  -0.669  -2.934  0.00  0.00     0.124 A 
ATOM      2  C   LIG d   1       4.366  -1.508  -2.601  0.00  0.00    -0.019 A 
ATOM      3  C   LIG d   1       4.203  -2.703  -3.241  0.00  0.00    -0.044 A 
ATOM      4  C   LIG d   1       5.106  -3.083  -4.236  0.00  0.00     0.068 A 
ATOM      5  C   LIG d   1       6.180  -2.243  -4.578  0.00  0.00     0.142 A 
ATOM      6  C   LIG d   1       6.331  -1.032  -3.918  0.00  0.00     0.023 A 
ATOM      7  O   LIG d   1       7.045  -2.621  -5.539  0.00  0.00    -0.456 OA
ATOM      8  C   LIG d   1       6.931  -3.785  -6.193  0.00  0.00     0.148 A 
ATOM      9  C   LIG d   1       5.937  -4.663  -5.947  0.00  0.00     0.213 A 
ATOM     10  C   LIG d   1       4.966  -4.364  -4.950  0.00  0.00     0.235 A 
ATOM     11  O   LIG d   1       4.055  -5.136  -4.699  0.00  0.00    -0.283 OA
ATOM     12  H   LIG d   1       3.667  -1.212  -1.832  0.00  0.00     0.065 H 
ATOM     13  H   LIG d   1       3.380  -3.351  -2.980  0.00  0.00     0.063 H 
ATOM     14  H   LIG d   1       7.151  -0.375  -4.169  0.00  0.00     0.069 H 
ENDROOT
BRANCH   9  15
ATOM     15  O   LIG d   1       5.867  -5.829  -6.646  0.00  0.00    -0.449 OA
BRANCH  15  16
ATOM     16  C   LIG d   1       6.046  -6.992  -5.967  0.00  0.00     0.133 A 
ATOM     17  C   LIG d   1       4.988  -7.878  -5.817  0.00  0.00     0.026 A 
ATOM     18  C   LIG d   1       5.178  -9.062  -5.125  0.00  0.00     0.165 A 
ATOM     19  H   LIG d   1       4.022  -7.645  -6.238  0.00  0.00     0.069 H 
ATOM     20  C   LIG d   1       6.420  -9.359  -4.582  0.00  0.00     0.162 A 
ATOM     21  O   LIG d   1       4.147  -9.943  -4.972  0.00  0.00    -0.488 OA
ATOM     22  C   LIG d   1       7.475  -8.476  -4.732  0.00  0.00    -0.013 A 
ATOM     23  O   LIG d   1       6.596 -10.532  -3.905  0.00  0.00    -0.488 OA
ATOM     24  C   LIG d   1       7.287  -7.293  -5.425  0.00  0.00    -0.016 A 
ATOM     25  H   LIG d   1       8.441  -8.709  -4.310  0.00  0.00     0.066 H 
ATOM     26  H   LIG d   1       8.109  -6.602  -5.543  0.00  0.00     0.066 H 
ATOM     27  C   LIG d   1       5.906 -10.636  -2.653  0.00  0.00     0.093 C 
ATOM     28  C   LIG d   1       4.475 -11.103  -2.864  0.00  0.00     0.016 C 
ATOM     29  H   LIG d   1       5.897  -9.662  -2.165  0.00  0.00     0.070 H 
ATOM     30  H   LIG d   1       6.428 -11.351  -2.016  0.00  0.00     0.070 H 
ATOM     31  C   LIG d   1       3.645 -10.094  -3.642  0.00  0.00     0.093 C 
ATOM     32  H   LIG d   1       4.011 -11.268  -1.892  0.00  0.00     0.033 H 
ATOM     33  H   LIG d   1       4.488 -12.045  -3.412  0.00  0.00     0.033 H 
ATOM     34  H   LIG d   1       3.683  -9.130  -3.133  0.00  0.00     0.070 H 
ATOM     35  H   LIG d   1       2.612 -10.436  -3.685  0.00  0.00     0.070 H 
ENDBRANCH  15  16
ENDBRANCH   9  15
BRANCH   8  36
ATOM     36  C   LIG d   1       7.950  -4.125  -7.249  0.00  0.00    -0.003 C 
ATOM     37  H   LIG d   1       8.540  -3.239  -7.483  0.00  0.00     0.031 H 
ATOM     38  H   LIG d   1       8.607  -4.911  -6.879  0.00  0.00     0.031 H 
ATOM     39  H   LIG d   1       7.440  -4.471  -8.148  0.00  0.00     0.031 H 
ENDBRANCH   8  36
BRANCH   1  40
ATOM     40  O   LIG d   1       5.575   0.517  -2.288  0.00  0.00    -0.492 OA
BRANCH  40  41
ATOM     41  C   LIG d   1       4.391   1.125  -1.770  0.00  0.00     0.087 C 
ATOM     42  H   LIG d   1       3.787   0.373  -1.262  0.00  0.00     0.069 H 
ATOM     43  H   LIG d   1       4.664   1.908  -1.062  0.00  0.00     0.069 H 
BRANCH  41  44
ATOM     44  C   LIG d   1       3.585   1.735  -2.919  0.00  0.00    -0.031 C 
ATOM     45  H   LIG d   1       4.193   2.479  -3.433  0.00  0.00     0.026 H 
ATOM     46  H   LIG d   1       3.301   0.950  -3.620  0.00  0.00     0.026 H 
ATOM     47  H   LIG d   1       2.688   2.210  -2.522  0.00  0.00     0.026 H 
ENDBRANCH  41  44
ENDBRANCH  40  41
ENDBRANCH   1  40
TORSDOF 6
ENDMDL
MODEL 3
REMARK VINA RESULT:      -6.5      2.369      3.475
REMARK  6 active torsions:
REMARK  status: ('A' for Active; 'I' for Inactive)
REMARK    1  A    between atoms: C_1  and  C_2 
REMARK    2  A    between atoms: C_2  and  O_3 
REMARK    3  A    between atoms: O_3  and  C_4 
REMARK    4  A    between atoms: C_11  and  C_27 
REMARK    5  A    between atoms: C_12  and  O_15 
REMARK    6  A    between atoms: O_15  and  C_16 
ROOT
ATOM      1  C   LIG d   1      -0.181  -3.054 -12.458  0.00  0.00     0.124 A 
ATOM      2  C   LIG d   1       0.129  -4.014 -11.497  0.00  0.00    -0.019 A 
ATOM      3  C   LIG d   1       1.107  -3.778 -10.575  0.00  0.00    -0.044 A 
ATOM      4  C   LIG d   1       1.802  -2.568 -10.598  0.00  0.00     0.068 A 
ATOM      5  C   LIG d   1       1.497  -1.593 -11.564  0.00  0.00     0.142 A 
ATOM      6  C   LIG d   1       0.499  -1.848 -12.494  0.00  0.00     0.023 A 
ATOM      7  O   LIG d   1       2.174  -0.428 -11.577  0.00  0.00    -0.456 OA
ATOM      8  C   LIG d   1       3.140  -0.148 -10.691  0.00  0.00     0.148 A 
ATOM      9  C   LIG d   1       3.515  -1.012  -9.726  0.00  0.00     0.213 A 
ATOM     10  C   LIG d   1       2.865  -2.275  -9.621  0.00  0.00     0.235 A 
ATOM     11  O   LIG d   1       3.176  -3.080  -8.759  0.00  0.00    -0.283 OA
ATOM     12  H   LIG d   1      -0.410  -4.951 -11.481  0.00  0.00     0.065 H 
ATOM     13  H   LIG d   1       1.343  -4.525  -9.832  0.00  0.00     0.063 H 
ATOM     14  H   LIG d   1       0.253  -1.110 -13.243  0.00  0.00     0.069 H 
ENDROOT
BRANCH   9  15
ATOM     15  O   LIG d   1       4.507  -0.677  -8.856  0.00  0.00    -0.449 OA
BRANCH  15  16
ATOM     16  C   LIG d   1       4.173  -0.475  -7.554  0.00  0.00     0.133 A 
ATOM     17  C   LIG d   1       4.970  -0.999  -6.545  0.00  0.00     0.026 A 
ATOM     18  C   LIG d   1       4.624  -0.789  -5.220  0.00  0.00     0.165 A 
ATOM     19  H   LIG d   1       5.855  -1.566  -6.791  0.00  0.00     0.069 H 
ATOM     20  C   LIG d   1       3.486  -0.062  -4.905  0.00  0.00     0.162 A 
ATOM     21  O   LIG d   1       5.401  -1.295  -4.219  0.00  0.00    -0.488 OA
ATOM     22  C   LIG d   1       2.691   0.460  -5.911  0.00  0.00    -0.013 A 
ATOM     23  O   LIG d   1       3.158   0.142  -3.594  0.00  0.00    -0.488 OA
ATOM     24  C   LIG d   1       3.036   0.253  -7.235  0.00  0.00    -0.016 A 
ATOM     25  H   LIG d   1       1.806   1.026  -5.664  0.00  0.00     0.066 H 
ATOM     26  H   LIG d   1       2.417   0.659  -8.023  0.00  0.00     0.066 H 
ATOM     27  C   LIG d   1       2.744  -1.023  -2.871  0.00  0.00     0.093 C 
ATOM     28  C   LIG d   1       3.948  -1.781  -2.335  0.00  0.00     0.016 C 
ATOM     29  H   LIG d   1       2.175  -1.676  -3.533  0.00  0.00     0.070 H 
ATOM     30  H   LIG d   1       2.110  -0.719  -2.037  0.00  0.00     0.070 H 
ATOM     31  C   LIG d   1       4.818  -2.347  -3.447  0.00  0.00     0.093 C 
ATOM     32  H   LIG d   1       3.599  -2.601  -1.707  0.00  0.00     0.033 H 
ATOM     33  H   LIG d   1       4.549  -1.105  -1.727  0.00  0.00     0.033 H 
ATOM     34  H   LIG d   1       4.205  -2.973  -4.097  0.00  0.00     0.070 H 
ATOM     35  H   LIG d   1       5.610  -2.953  -3.008  0.00  0.00     0.070 H 
ENDBRANCH  15  16
ENDBRANCH   9  15
BRANCH   8  36
ATOM     36  C   LIG d   1       3.838   1.184 -10.779  0.00  0.00    -0.003 C 
ATOM     37  H   LIG d   1       4.911   1.026 -10.882  0.00  0.00     0.031 H 
ATOM     38  H   LIG d   1       3.467   1.731 -11.645  0.00  0.00     0.031 H 
ATOM     39  H   LIG d   1       3.640   1.759  -9.875  0.00  0.00     0.031 H 
ENDBRANCH   8  36
BRANCH   1  40
ATOM     40  O   LIG d   1      -1.157  -3.304 -13.369  0.00  0.00    -0.492 OA
BRANCH  40  41
ATOM     41  C   LIG d   1      -2.508  -3.189 -12.919  0.00  0.00     0.087 C 
ATOM     42  H   LIG d   1      -3.071  -4.069 -13.231  0.00  0.00     0.069 H 
ATOM     43  H   LIG d   1      -2.524  -3.115 -11.832  0.00  0.00     0.069 H 
BRANCH  41  44
ATOM     44  C   LIG d   1      -3.143  -1.935 -13.526  0.00  0.00    -0.031 C 
ATOM     45  H   LIG d   1      -3.157  -2.025 -14.611  0.00  0.00     0.026 H 
ATOM     46  H   LIG d   1      -4.162  -1.831 -13.156  0.00  0.00     0.026 H 
ATOM     47  H   LIG d   1      -2.560  -1.059 -13.240  0.00  0.00     0.026 H 
ENDBRANCH  41  44
ENDBRANCH  40  41
ENDBRANCH   1  40
TORSDOF 6
ENDMDL
MODEL 4
REMARK VINA RESULT:      -6.1      6.627      9.513
REMARK  6 active torsions:
REMARK  status: ('A' for Active; 'I' for Inactive)
REMARK    1  A    between atoms: C_1  and  C_2 
REMARK    2  A    between atoms: C_2  and  O_3 
REMARK    3  A    between atoms: O_3  and  C_4 
REMARK    4  A    between atoms: C_11  and  C_27 
REMARK    5  A    between atoms: C_12  and  O_15 
REMARK    6  A    between atoms: O_15  and  C_16 
ROOT
ATOM      1  C   LIG d   1       9.672   7.923  -5.448  0.00  0.00     0.124 A 
ATOM      2  C   LIG d   1       9.684   7.728  -4.068  0.00  0.00    -0.019 A 
ATOM      3  C   LIG d   1       9.703   6.466  -3.548  0.00  0.00    -0.044 A 
ATOM      4  C   LIG d   1       9.711   5.365  -4.407  0.00  0.00     0.068 A 
ATOM      5  C   LIG d   1       9.699   5.551  -5.800  0.00  0.00     0.142 A 
ATOM      6  C   LIG d   1       9.680   6.841  -6.312  0.00  0.00     0.023 A 
ATOM      7  O   LIG d   1       9.707   4.481  -6.619  0.00  0.00    -0.456 OA
ATOM      8  C   LIG d   1       9.731   3.223  -6.157  0.00  0.00     0.148 A 
ATOM      9  C   LIG d   1       9.738   2.931  -4.841  0.00  0.00     0.213 A 
ATOM     10  C   LIG d   1       9.731   3.987  -3.886  0.00  0.00     0.235 A 
ATOM     11  O   LIG d   1       9.741   3.760  -2.687  0.00  0.00    -0.283 OA
ATOM     12  H   LIG d   1       9.677   8.582  -3.405  0.00  0.00     0.065 H 
ATOM     13  H   LIG d   1       9.712   6.320  -2.479  0.00  0.00     0.063 H 
ATOM     14  H   LIG d   1       9.671   7.001  -7.381  0.00  0.00     0.069 H 
ENDROOT
BRANCH   9  15
ATOM     15  O   LIG d   1       9.757   1.634  -4.428  0.00  0.00    -0.449 OA
BRANCH  15  16
ATOM     16  C   LIG d   1       8.574   0.968  -4.362  0.00  0.00     0.133 A 
ATOM     17  C   LIG d   1       7.473   1.568  -3.767  0.00  0.00     0.026 A 
ATOM     18  C   LIG d   1       6.270   0.884  -3.704  0.00  0.00     0.165 A 
ATOM     19  H   LIG d   1       7.553   2.563  -3.356  0.00  0.00     0.069 H 
ATOM     20  C   LIG d   1       6.168  -0.395  -4.232  0.00  0.00     0.162 A 
ATOM     21  O   LIG d   1       5.179   1.463  -3.125  0.00  0.00    -0.488 OA
ATOM     22  C   LIG d   1       7.267  -0.993  -4.825  0.00  0.00    -0.013 A 
ATOM     23  O   LIG d   1       4.976  -1.058  -4.167  0.00  0.00    -0.488 OA
ATOM     24  C   LIG d   1       8.469  -0.311  -4.891  0.00  0.00    -0.016 A 
ATOM     25  H   LIG d   1       7.185  -1.988  -5.236  0.00  0.00     0.066 H 
ATOM     26  H   LIG d   1       9.327  -0.775  -5.353  0.00  0.00     0.066 H 
ATOM     27  C   LIG d   1       4.554  -1.450  -2.855  0.00  0.00     0.093 C 
ATOM     28  C   LIG d   1       3.830  -0.309  -2.159  0.00  0.00     0.016 C 
ATOM     29  H   LIG d   1       5.426  -1.734  -2.266  0.00  0.00     0.070 H 
ATOM     30  H   LIG d   1       3.883  -2.306  -2.937  0.00  0.00     0.070 H 
ATOM     31  C   LIG d   1       4.740   0.880  -1.896  0.00  0.00     0.093 C 
ATOM     32  H   LIG d   1       3.436  -0.670  -1.209  0.00  0.00     0.033 H 
ATOM     33  H   LIG d   1       2.998   0.015  -2.783  0.00  0.00     0.033 H 
ATOM     34  H   LIG d   1       5.609   0.547  -1.326  0.00  0.00     0.070 H 
ATOM     35  H   LIG d   1       4.197   1.627  -1.317  0.00  0.00     0.070 H 
ENDBRANCH  15  16
ENDBRANCH   9  15
BRANCH   8  36
ATOM     36  C   LIG d   1       9.743   2.089  -7.149  0.00  0.00    -0.003 C 
ATOM     37  H   LIG d   1       9.623   1.143  -6.621  0.00  0.00     0.031 H 
ATOM     38  H   LIG d   1       8.924   2.217  -7.856  0.00  0.00     0.031 H 
ATOM     39  H   LIG d   1      10.691   2.088  -7.687  0.00  0.00     0.031 H 
ENDBRANCH   8  36
BRANCH   1  40
ATOM     40  O   LIG d   1       9.653   9.185  -5.950  0.00  0.00    -0.492 OA
BRANCH  40  41
ATOM     41  C   LIG d   1      10.300  10.199  -5.180  0.00  0.00     0.087 C 
ATOM     42  H   LIG d   1      10.627   9.780  -4.227  0.00  0.00     0.069 H 
ATOM     43  H   LIG d   1      11.166  10.574  -5.726  0.00  0.00     0.069 H 
BRANCH  41  44
ATOM     44  C   LIG d   1       9.322  11.348  -4.924  0.00  0.00    -0.031 C 
ATOM     45  H   LIG d   1       9.355  11.623  -3.870  0.00  0.00     0.026 H 
ATOM     46  H   LIG d   1       9.604  12.207  -5.532  0.00  0.00     0.026 H 
ATOM     47  H   LIG d   1       8.313  11.031  -5.187  0.00  0.00     0.026 H 
ENDBRANCH  41  44
ENDBRANCH  40  41
ENDBRANCH   1  40
TORSDOF 6
ENDMDL
MODEL 5
REMARK VINA RESULT:      -6.1      6.790     10.359
REMARK  6 active torsions:
REMARK  status: ('A' for Active; 'I' for Inactive)
REMARK    1  A    between atoms: C_1  and  C_2 
REMARK    2  A    between atoms: C_2  and  O_3 
REMARK    3  A    between atoms: O_3  and  C_4 
REMARK    4  A    between atoms: C_11  and  C_27 
REMARK    5  A    between atoms: C_12  and  O_15 
REMARK    6  A    between atoms: O_15  and  C_16 
ROOT
ATOM      1  C   LIG d   1      10.120   7.493  -2.450  0.00  0.00     0.124 A 
ATOM      2  C   LIG d   1      10.454   6.611  -1.424  0.00  0.00    -0.019 A 
ATOM      3  C   LIG d   1      10.493   5.266  -1.654  0.00  0.00    -0.044 A 
ATOM      4  C   LIG d   1      10.194   4.773  -2.926  0.00  0.00     0.068 A 
ATOM      5  C   LIG d   1       9.855   5.654  -3.967  0.00  0.00     0.142 A 
ATOM      6  C   LIG d   1       9.820   7.019  -3.717  0.00  0.00     0.023 A 
ATOM      7  O   LIG d   1       9.568   5.167  -5.190  0.00  0.00    -0.456 OA
ATOM      8  C   LIG d   1       9.596   3.856  -5.466  0.00  0.00     0.148 A 
ATOM      9  C   LIG d   1       9.904   2.924  -4.542  0.00  0.00     0.213 A 
ATOM     10  C   LIG d   1      10.224   3.329  -3.214  0.00  0.00     0.235 A 
ATOM     11  O   LIG d   1      10.510   2.514  -2.353  0.00  0.00    -0.283 OA
ATOM     12  H   LIG d   1      10.685   6.995  -0.441  0.00  0.00     0.065 H 
ATOM     13  H   LIG d   1      10.753   4.587  -0.857  0.00  0.00     0.063 H 
ATOM     14  H   LIG d   1       9.562   7.710  -4.506  0.00  0.00     0.069 H 
ENDROOT
BRANCH   9  15
ATOM     15  O   LIG d   1       9.912   1.605  -4.877  0.00  0.00    -0.449 OA
BRANCH  15  16
ATOM     16  C   LIG d   1       8.775   0.888  -4.676  0.00  0.00     0.133 A 
ATOM     17  C   LIG d   1       7.670   1.491  -4.092  0.00  0.00     0.026 A 
ATOM     18  C   LIG d   1       6.514   0.755  -3.890  0.00  0.00     0.165 A 
ATOM     19  H   LIG d   1       7.710   2.529  -3.796  0.00  0.00     0.069 H 
ATOM     20  C   LIG d   1       6.463  -0.579  -4.269  0.00  0.00     0.162 A 
ATOM     21  O   LIG d   1       5.419   1.336  -3.320  0.00  0.00    -0.488 OA
ATOM     22  C   LIG d   1       7.566  -1.179  -4.851  0.00  0.00    -0.013 A 
ATOM     23  O   LIG d   1       5.316  -1.293  -4.069  0.00  0.00    -0.488 OA
ATOM     24  C   LIG d   1       8.721  -0.445  -5.055  0.00  0.00    -0.016 A 
ATOM     25  H   LIG d   1       7.524  -2.217  -5.146  0.00  0.00     0.066 H 
ATOM     26  H   LIG d   1       9.583  -0.912  -5.509  0.00  0.00     0.066 H 
ATOM     27  C   LIG d   1       4.981  -1.558  -2.701  0.00  0.00     0.093 C 
ATOM     28  C   LIG d   1       4.224  -0.387  -2.096  0.00  0.00     0.016 C 
ATOM     29  H   LIG d   1       5.895  -1.727  -2.132  0.00  0.00     0.070 H 
ATOM     30  H   LIG d   1       4.359  -2.452  -2.653  0.00  0.00     0.070 H 
ATOM     31  C   LIG d   1       5.074   0.872  -2.013  0.00  0.00     0.093 C 
ATOM     32  H   LIG d   1       3.897  -0.659  -1.092  0.00  0.00     0.033 H 
ATOM     33  H   LIG d   1       3.346  -0.179  -2.707  0.00  0.00     0.033 H 
ATOM     34  H   LIG d   1       5.986   0.652  -1.458  0.00  0.00     0.070 H 
ATOM     35  H   LIG d   1       4.515   1.648  -1.492  0.00  0.00     0.070 H 
ENDBRANCH  15  16
ENDBRANCH   9  15
BRANCH   8  36
ATOM     36  C   LIG d   1       9.267   3.405  -6.865  0.00  0.00    -0.003 C 
ATOM     37  H   LIG d   1       8.296   3.805  -7.157  0.00  0.00     0.031 H 
ATOM     38  H   LIG d   1      10.030   3.767  -7.553  0.00  0.00     0.031 H 
ATOM     39  H   LIG d   1       9.236   2.316  -6.898  0.00  0.00     0.031 H 
ENDBRANCH   8  36
BRANCH   1  40
ATOM     40  O   LIG d   1      10.085   8.828  -2.206  0.00  0.00    -0.492 OA
BRANCH  40  41
ATOM     41  C   LIG d   1      10.198   9.697  -3.334  0.00  0.00     0.087 C 
ATOM     42  H   LIG d   1      10.210   9.105  -4.250  0.00  0.00     0.069 H 
ATOM     43  H   LIG d   1       9.348  10.379  -3.355  0.00  0.00     0.069 H 
BRANCH  41  44
ATOM     44  C   LIG d   1      11.496  10.502  -3.230  0.00  0.00    -0.031 C 
ATOM     45  H   LIG d   1      12.339   9.867  -3.499  0.00  0.00     0.026 H 
ATOM     46  H   LIG d   1      11.450  11.353  -3.910  0.00  0.00     0.026 H 
ATOM     47  H   LIG d   1      11.620  10.860  -2.208  0.00  0.00     0.026 H 
ENDBRANCH  41  44
ENDBRANCH  40  41
ENDBRANCH   1  40
TORSDOF 6
ENDMDL
MODEL 6
REMARK VINA RESULT:      -6.0      6.596      8.629
REMARK  6 active torsions:
REMARK  status: ('A' for Active; 'I' for Inactive)
REMARK    1  A    between atoms: C_1  and  C_2 
REMARK    2  A    between atoms: C_2  and  O_3 
REMARK    3  A    between atoms: O_3  and  C_4 
REMARK    4  A    between atoms: C_11  and  C_27 
REMARK    5  A    between atoms: C_12  and  O_15 
REMARK    6  A    between atoms: O_15  and  C_16 
ROOT
ATOM      1  C   LIG d   1       9.699   7.082  -7.856  0.00  0.00     0.124 A 
ATOM      2  C   LIG d   1       9.522   6.019  -8.739  0.00  0.00    -0.019 A 
ATOM      3  C   LIG d   1       9.510   4.733  -8.281  0.00  0.00    -0.044 A 
ATOM      4  C   LIG d   1       9.679   4.484  -6.918  0.00  0.00     0.068 A 
ATOM      5  C   LIG d   1       9.859   5.549  -6.018  0.00  0.00     0.142 A 
ATOM      6  C   LIG d   1       9.867   6.851  -6.501  0.00  0.00     0.023 A 
ATOM      7  O   LIG d   1      10.020   5.297  -4.704  0.00  0.00    -0.456 OA
ATOM      8  C   LIG d   1      10.013   4.053  -4.205  0.00  0.00     0.148 A 
ATOM      9  C   LIG d   1       9.853   2.960  -4.978  0.00  0.00     0.213 A 
ATOM     10  C   LIG d   1       9.674   3.112  -6.383  0.00  0.00     0.235 A 
ATOM     11  O   LIG d   1       9.523   2.145  -7.112  0.00  0.00    -0.283 OA
ATOM     12  H   LIG d   1       9.392   6.214  -9.795  0.00  0.00     0.065 H 
ATOM     13  H   LIG d   1       9.373   3.913  -8.969  0.00  0.00     0.063 H 
ATOM     14  H   LIG d   1      10.004   7.681  -5.823  0.00  0.00     0.069 H 
ENDROOT
BRANCH   9  15
ATOM     15  O   LIG d   1       9.859   1.719  -4.418  0.00  0.00    -0.449 OA
BRANCH  15  16
ATOM     16  C   LIG d   1       8.684   1.040  -4.358  0.00  0.00     0.133 A 
ATOM     17  C   LIG d   1       7.578   1.619  -3.751  0.00  0.00     0.026 A 
ATOM     18  C   LIG d   1       6.383   0.922  -3.694  0.00  0.00     0.165 A 
ATOM     19  H   LIG d   1       7.649   2.609  -3.325  0.00  0.00     0.069 H 
ATOM     20  C   LIG d   1       6.293  -0.350  -4.240  0.00  0.00     0.162 A 
ATOM     21  O   LIG d   1       5.288   1.481  -3.103  0.00  0.00    -0.488 OA
ATOM     22  C   LIG d   1       7.396  -0.927  -4.846  0.00  0.00    -0.013 A 
ATOM     23  O   LIG d   1       5.107  -1.026  -4.182  0.00  0.00    -0.488 OA
ATOM     24  C   LIG d   1       8.590  -0.232  -4.905  0.00  0.00    -0.016 A 
ATOM     25  H   LIG d   1       7.323  -1.917  -5.271  0.00  0.00     0.066 H 
ATOM     26  H   LIG d   1       9.452  -0.680  -5.377  0.00  0.00     0.066 H 
ATOM     27  C   LIG d   1       4.694  -1.442  -2.875  0.00  0.00     0.093 C 
ATOM     28  C   LIG d   1       3.960  -0.320  -2.159  0.00  0.00     0.016 C 
ATOM     29  H   LIG d   1       5.571  -1.726  -2.293  0.00  0.00     0.070 H 
ATOM     30  H   LIG d   1       4.032  -2.304  -2.967  0.00  0.00     0.070 H 
ATOM     31  C   LIG d   1       4.859   0.875  -1.881  0.00  0.00     0.093 C 
ATOM     32  H   LIG d   1       3.573  -0.698  -1.213  0.00  0.00     0.033 H 
ATOM     33  H   LIG d   1       3.123   0.005  -2.776  0.00  0.00     0.033 H 
ATOM     34  H   LIG d   1       5.732   0.543  -1.319  0.00  0.00     0.070 H 
ATOM     35  H   LIG d   1       4.309   1.608  -1.290  0.00  0.00     0.070 H 
ENDBRANCH  15  16
ENDBRANCH   9  15
BRANCH   8  36
ATOM     36  C   LIG d   1      10.195   3.868  -2.721  0.00  0.00    -0.003 C 
ATOM     37  H   LIG d   1      10.989   4.527  -2.368  0.00  0.00     0.031 H 
ATOM     38  H   LIG d   1       9.265   4.113  -2.208  0.00  0.00     0.031 H 
ATOM     39  H   LIG d   1      10.463   2.832  -2.514  0.00  0.00     0.031 H 
ENDBRANCH   8  36
BRANCH   1  40
ATOM     40  O   LIG d   1       9.708   8.355  -8.327  0.00  0.00    -0.492 OA
BRANCH  40  41
ATOM     41  C   LIG d   1       9.589   9.404  -7.365  0.00  0.00     0.087 C 
ATOM     42  H   LIG d   1       8.592   9.842  -7.426  0.00  0.00     0.069 H 
ATOM     43  H   LIG d   1       9.746   9.000  -6.365  0.00  0.00     0.069 H 
BRANCH  41  44
ATOM     44  C   LIG d   1      10.638  10.480  -7.650  0.00  0.00    -0.031 C 
ATOM     45  H   LIG d   1      10.175  11.304  -8.193  0.00  0.00     0.026 H 
ATOM     46  H   LIG d   1      11.045  10.849  -6.709  0.00  0.00     0.026 H 
ATOM     47  H   LIG d   1      11.442  10.054  -8.252  0.00  0.00     0.026 H 
ENDBRANCH  41  44
ENDBRANCH  40  41
ENDBRANCH   1  40
TORSDOF 6
ENDMDL
MODEL 7
REMARK VINA RESULT:      -6.0      6.065      9.909
REMARK  6 active torsions:
REMARK  status: ('A' for Active; 'I' for Inactive)
REMARK    1  A    between atoms: C_1  and  C_2 
REMARK    2  A    between atoms: C_2  and  O_3 
REMARK    3  A    between atoms: O_3  and  C_4 
REMARK    4  A    between atoms: C_11  and  C_27 
REMARK    5  A    between atoms: C_12  and  O_15 
REMARK    6  A    between atoms: O_15  and  C_16 
ROOT
ATOM      1  C   LIG d   1       5.525  -0.810  -4.302  0.00  0.00     0.124 A 
ATOM      2  C   LIG d   1       4.931  -1.582  -5.298  0.00  0.00    -0.019 A 
ATOM      3  C   LIG d   1       5.455  -2.796  -5.637  0.00  0.00    -0.044 A 
ATOM      4  C   LIG d   1       6.596  -3.263  -4.982  0.00  0.00     0.068 A 
ATOM      5  C   LIG d   1       7.203  -2.491  -3.976  0.00  0.00     0.142 A 
ATOM      6  C   LIG d   1       6.657  -1.260  -3.643  0.00  0.00     0.023 A 
ATOM      7  O   LIG d   1       8.304  -2.953  -3.350  0.00  0.00    -0.456 OA
ATOM      8  C   LIG d   1       8.854  -4.139  -3.644  0.00  0.00     0.148 A 
ATOM      9  C   LIG d   1       8.356  -4.957  -4.594  0.00  0.00     0.213 A 
ATOM     10  C   LIG d   1       7.193  -4.567  -5.318  0.00  0.00     0.235 A 
ATOM     11  O   LIG d   1       6.713  -5.283  -6.181  0.00  0.00    -0.283 OA
ATOM     12  H   LIG d   1       4.048  -1.218  -5.804  0.00  0.00     0.065 H 
ATOM     13  H   LIG d   1       4.991  -3.391  -6.408  0.00  0.00     0.063 H 
ATOM     14  H   LIG d   1       7.112  -0.654  -2.872  0.00  0.00     0.069 H 
ENDROOT
BRANCH   9  15
ATOM     15  O   LIG d   1       8.959  -6.149  -4.855  0.00  0.00    -0.449 OA
BRANCH  15  16
ATOM     16  C   LIG d   1       8.454  -7.263  -4.262  0.00  0.00     0.133 A 
ATOM     17  C   LIG d   1       7.416  -7.959  -4.866  0.00  0.00     0.026 A 
ATOM     18  C   LIG d   1       6.907  -9.095  -4.258  0.00  0.00     0.165 A 
ATOM     19  H   LIG d   1       7.008  -7.619  -5.805  0.00  0.00     0.069 H 
ATOM     20  C   LIG d   1       7.431  -9.531  -3.049  0.00  0.00     0.162 A 
ATOM     21  O   LIG d   1       5.889  -9.790  -4.842  0.00  0.00    -0.488 OA
ATOM     22  C   LIG d   1       8.466  -8.836  -2.448  0.00  0.00    -0.013 A 
ATOM     23  O   LIG d   1       6.924 -10.654  -2.461  0.00  0.00    -0.488 OA
ATOM     24  C   LIG d   1       8.977  -7.703  -3.055  0.00  0.00    -0.016 A 
ATOM     25  H   LIG d   1       8.874  -9.178  -1.508  0.00  0.00     0.066 H 
ATOM     26  H   LIG d   1       9.785  -7.159  -2.587  0.00  0.00     0.066 H 
ATOM     27  C   LIG d   1       5.585 -10.542  -1.962  0.00  0.00     0.093 C 
ATOM     28  C   LIG d   1       4.575 -10.801  -3.068  0.00  0.00     0.016 C 
ATOM     29  H   LIG d   1       5.432  -9.540  -1.563  0.00  0.00     0.070 H 
ATOM     30  H   LIG d   1       5.439 -11.271  -1.164  0.00  0.00     0.070 H 
ATOM     31  C   LIG d   1       4.632  -9.747  -4.163  0.00  0.00     0.093 C 
ATOM     32  H   LIG d   1       3.574 -10.808  -2.637  0.00  0.00     0.033 H 
ATOM     33  H   LIG d   1       4.774 -11.777  -3.508  0.00  0.00     0.033 H 
ATOM     34  H   LIG d   1       4.498  -8.760  -3.718  0.00  0.00     0.070 H 
ATOM     35  H   LIG d   1       3.831  -9.930  -4.879  0.00  0.00     0.070 H 
ENDBRANCH  15  16
ENDBRANCH   9  15
BRANCH   8  36
ATOM     36  C   LIG d   1      10.081  -4.575  -2.887  0.00  0.00    -0.003 C 
ATOM     37  H   LIG d   1      10.293  -3.858  -2.094  0.00  0.00     0.031 H 
ATOM     38  H   LIG d   1       9.908  -5.558  -2.450  0.00  0.00     0.031 H 
ATOM     39  H   LIG d   1      10.930  -4.625  -3.569  0.00  0.00     0.031 H 
ENDBRANCH   8  36
BRANCH   1  40
ATOM     40  O   LIG d   1       4.991   0.396  -3.976  0.00  0.00    -0.492 OA
BRANCH  40  41
ATOM     41  C   LIG d   1       5.509   1.041  -2.812  0.00  0.00     0.087 C 
ATOM     42  H   LIG d   1       6.409   0.523  -2.479  0.00  0.00     0.069 H 
ATOM     43  H   LIG d   1       5.753   2.077  -3.047  0.00  0.00     0.069 H 
BRANCH  41  44
ATOM     44  C   LIG d   1       4.459   1.005  -1.699  0.00  0.00    -0.031 C 
ATOM     45  H   LIG d   1       4.835   1.542  -0.829  0.00  0.00     0.026 H 
ATOM     46  H   LIG d   1       3.542   1.477  -2.050  0.00  0.00     0.026 H 
ATOM     47  H   LIG d   1       4.253  -0.031  -1.427  0.00  0.00     0.026 H 
ENDBRANCH  41  44
ENDBRANCH  40  41
ENDBRANCH   1  40
TORSDOF 6
ENDMDL
MODEL 8
REMARK VINA RESULT:      -5.9      1.572      8.167
REMARK  6 active torsions:
REMARK  status: ('A' for Active; 'I' for Inactive)
REMARK    1  A    between atoms: C_1  and  C_2 
REMARK    2  A    between atoms: C_2  and  O_3 
REMARK    3  A    between atoms: O_3  and  C_4 
REMARK    4  A    between atoms: C_11  and  C_27 
REMARK    5  A    between atoms: C_12  and  O_15 
REMARK    6  A    between atoms: O_15  and  C_16 
ROOT
ATOM      1  C   LIG d   1       4.634  -1.936  -4.702  0.00  0.00     0.124 A 
ATOM      2  C   LIG d   1       5.400  -2.736  -5.546  0.00  0.00    -0.019 A 
ATOM      3  C   LIG d   1       5.536  -2.416  -6.866  0.00  0.00    -0.044 A 
ATOM      4  C   LIG d   1       4.901  -1.280  -7.371  0.00  0.00     0.068 A 
ATOM      5  C   LIG d   1       4.125  -0.467  -6.527  0.00  0.00     0.142 A 
ATOM      6  C   LIG d   1       3.998  -0.806  -5.187  0.00  0.00     0.023 A 
ATOM      7  O   LIG d   1       3.517   0.628  -7.026  0.00  0.00    -0.456 OA
ATOM      8  C   LIG d   1       3.623   0.986  -8.313  0.00  0.00     0.148 A 
ATOM      9  C   LIG d   1       4.337   0.275  -9.209  0.00  0.00     0.213 A 
ATOM     10  C   LIG d   1       5.021  -0.901  -8.789  0.00  0.00     0.235 A 
ATOM     11  O   LIG d   1       5.680  -1.566  -9.572  0.00  0.00    -0.283 OA
ATOM     12  H   LIG d   1       5.891  -3.616  -5.154  0.00  0.00     0.065 H 
ATOM     13  H   LIG d   1       6.131  -3.039  -7.517  0.00  0.00     0.063 H 
ATOM     14  H   LIG d   1       3.405  -0.191  -4.525  0.00  0.00     0.069 H 
ENDROOT
BRANCH   9  15
ATOM     15  O   LIG d   1       4.406   0.683 -10.506  0.00  0.00    -0.449 OA
BRANCH  15  16
ATOM     16  C   LIG d   1       3.795  -0.081 -11.449  0.00  0.00     0.133 A 
ATOM     17  C   LIG d   1       2.521  -0.581 -11.218  0.00  0.00     0.026 A 
ATOM     18  C   LIG d   1       1.903  -1.358 -12.183  0.00  0.00     0.165 A 
ATOM     19  H   LIG d   1       2.013  -0.364 -10.290  0.00  0.00     0.069 H 
ATOM     20  C   LIG d   1       2.558  -1.638 -13.375  0.00  0.00     0.162 A 
ATOM     21  O   LIG d   1       0.650  -1.853 -11.970  0.00  0.00    -0.488 OA
ATOM     22  C   LIG d   1       3.828  -1.139 -13.604  0.00  0.00    -0.013 A 
ATOM     23  O   LIG d   1       1.937  -2.403 -14.321  0.00  0.00    -0.488 OA
ATOM     24  C   LIG d   1       4.446  -0.361 -12.642  0.00  0.00    -0.016 A 
ATOM     25  H   LIG d   1       4.335  -1.357 -14.533  0.00  0.00     0.066 H 
ATOM     26  H   LIG d   1       5.438   0.029 -12.819  0.00  0.00     0.066 H 
ATOM     27  C   LIG d   1       1.746  -3.780 -13.978  0.00  0.00     0.093 C 
ATOM     28  C   LIG d   1       0.478  -3.962 -13.160  0.00  0.00     0.016 C 
ATOM     29  H   LIG d   1       2.600  -4.129 -13.397  0.00  0.00     0.070 H 
ATOM     30  H   LIG d   1       1.672  -4.369 -14.893  0.00  0.00     0.070 H 
ATOM     31  C   LIG d   1       0.556  -3.270 -11.808  0.00  0.00     0.093 C 
ATOM     32  H   LIG d   1       0.309  -5.027 -13.003  0.00  0.00     0.033 H 
ATOM     33  H   LIG d   1      -0.364  -3.552 -13.718  0.00  0.00     0.033 H 
ATOM     34  H   LIG d   1       1.435  -3.629 -11.272  0.00  0.00     0.070 H 
ATOM     35  H   LIG d   1      -0.338  -3.508 -11.232  0.00  0.00     0.070 H 
ENDBRANCH  15  16
ENDBRANCH   9  15
BRANCH   8  36
ATOM     36  C   LIG d   1       2.911   2.229  -8.778  0.00  0.00    -0.003 C 
ATOM     37  H   LIG d   1       2.731   2.165  -9.851  0.00  0.00     0.031 H 
ATOM     38  H   LIG d   1       1.960   2.320  -8.255  0.00  0.00     0.031 H 
ATOM     39  H   LIG d   1       3.528   3.102  -8.565  0.00  0.00     0.031 H 
ENDBRANCH   8  36
BRANCH   1  40
ATOM     40  O   LIG d   1       4.508  -2.267  -3.391  0.00  0.00    -0.492 OA
BRANCH  40  41
ATOM     41  C   LIG d   1       3.609  -1.482  -2.607  0.00  0.00     0.087 C 
ATOM     42  H   LIG d   1       2.939  -0.929  -3.266  0.00  0.00     0.069 H 
ATOM     43  H   LIG d   1       3.022  -2.136  -1.961  0.00  0.00     0.069 H 
BRANCH  41  44
ATOM     44  C   LIG d   1       4.406  -0.499  -1.747  0.00  0.00    -0.031 C 
ATOM     45  H   LIG d   1       4.161  -0.655  -0.696  0.00  0.00     0.026 H 
ATOM     46  H   LIG d   1       5.472  -0.665  -1.900  0.00  0.00     0.026 H 
ATOM     47  H   LIG d   1       4.152   0.522  -2.032  0.00  0.00     0.026 H 
ENDBRANCH  41  44
ENDBRANCH  40  41
ENDBRANCH   1  40
TORSDOF 6
ENDMDL
MODEL 9
REMARK VINA RESULT:      -5.8      3.894      8.238
REMARK  6 active torsions:
REMARK  status: ('A' for Active; 'I' for Inactive)
REMARK    1  A    between atoms: C_1  and  C_2 
REMARK    2  A    between atoms: C_2  and  O_3 
REMARK    3  A    between atoms: O_3  and  C_4 
REMARK    4  A    between atoms: C_11  and  C_27 
REMARK    5  A    between atoms: C_12  and  O_15 
REMARK    6  A    between atoms: O_15  and  C_16 
ROOT
ATOM      1  C   LIG d   1       4.329  -0.394  -5.445  0.00  0.00     0.124 A 
ATOM      2  C   LIG d   1       5.004  -1.611  -5.492  0.00  0.00    -0.019 A 
ATOM      3  C   LIG d   1       4.823  -2.462  -6.544  0.00  0.00    -0.044 A 
ATOM      4  C   LIG d   1       3.953  -2.108  -7.577  0.00  0.00     0.068 A 
ATOM      5  C   LIG d   1       3.267  -0.882  -7.539  0.00  0.00     0.142 A 
ATOM      6  C   LIG d   1       3.464  -0.028  -6.462  0.00  0.00     0.023 A 
ATOM      7  O   LIG d   1       2.431  -0.551  -8.542  0.00  0.00    -0.456 OA
ATOM      8  C   LIG d   1       2.223  -1.350  -9.598  0.00  0.00     0.148 A 
ATOM      9  C   LIG d   1       2.825  -2.549  -9.733  0.00  0.00     0.213 A 
ATOM     10  C   LIG d   1       3.730  -2.998  -8.730  0.00  0.00     0.235 A 
ATOM     11  O   LIG d   1       4.295  -4.075  -8.821  0.00  0.00    -0.283 OA
ATOM     12  H   LIG d   1       5.677  -1.884  -4.691  0.00  0.00     0.065 H 
ATOM     13  H   LIG d   1       5.348  -3.404  -6.577  0.00  0.00     0.063 H 
ATOM     14  H   LIG d   1       2.944   0.918  -6.418  0.00  0.00     0.069 H 
ENDROOT
BRANCH   9  15
ATOM     15  O   LIG d   1       2.572  -3.322 -10.825  0.00  0.00    -0.449 OA
BRANCH  15  16
ATOM     16  C   LIG d   1       1.679  -4.338 -10.694  0.00  0.00     0.133 A 
ATOM     17  C   LIG d   1       0.325  -4.101 -10.888  0.00  0.00     0.026 A 
ATOM     18  C   LIG d   1      -0.579  -5.142 -10.754  0.00  0.00     0.165 A 
ATOM     19  H   LIG d   1      -0.022  -3.111 -11.142  0.00  0.00     0.069 H 
ATOM     20  C   LIG d   1      -0.132  -6.414 -10.426  0.00  0.00     0.162 A 
ATOM     21  O   LIG d   1      -1.912  -4.924 -10.945  0.00  0.00    -0.488 OA
ATOM     22  C   LIG d   1       1.218  -6.649 -10.233  0.00  0.00    -0.013 A 
ATOM     23  O   LIG d   1      -1.033  -7.433 -10.301  0.00  0.00    -0.488 OA
ATOM     24  C   LIG d   1       2.123  -5.611 -10.368  0.00  0.00    -0.016 A 
ATOM     25  H   LIG d   1       1.564  -7.640  -9.978  0.00  0.00     0.066 H 
ATOM     26  H   LIG d   1       3.177  -5.793 -10.217  0.00  0.00     0.066 H 
ATOM     27  C   LIG d   1      -1.923  -7.340  -9.182  0.00  0.00     0.093 C 
ATOM     28  C   LIG d   1      -3.124  -6.471  -9.519  0.00  0.00     0.016 C 
ATOM     29  H   LIG d   1      -1.392  -6.907  -8.334  0.00  0.00     0.070 H 
ATOM     30  H   LIG d   1      -2.267  -8.340  -8.915  0.00  0.00     0.070 H 
ATOM     31  C   LIG d   1      -2.735  -5.024  -9.781  0.00  0.00     0.093 C 
ATOM     32  H   LIG d   1      -3.827  -6.503  -8.687  0.00  0.00     0.033 H 
ATOM     33  H   LIG d   1      -3.612  -6.871 -10.407  0.00  0.00     0.033 H 
ATOM     34  H   LIG d   1      -2.187  -4.639  -8.920  0.00  0.00     0.070 H 
ATOM     35  H   LIG d   1      -3.638  -4.431  -9.926  0.00  0.00     0.070 H 
ENDBRANCH  15  16
ENDBRANCH   9  15
BRANCH   8  36
ATOM     36  C   LIG d   1       1.273  -0.893 -10.674  0.00  0.00    -0.003 C 
ATOM     37  H   LIG d   1       1.595  -1.291 -11.636  0.00  0.00     0.031 H 
ATOM     38  H   LIG d   1       0.269  -1.253 -10.450  0.00  0.00     0.031 H 
ATOM     39  H   LIG d   1       1.267   0.196 -10.715  0.00  0.00     0.031 H 
ENDBRANCH   8  36
BRANCH   1  40
ATOM     40  O   LIG d   1       4.520   0.442  -4.392  0.00  0.00    -0.492 OA
BRANCH  40  41
ATOM     41  C   LIG d   1       3.456   0.544  -3.444  0.00  0.00     0.087 C 
ATOM     42  H   LIG d   1       2.692   1.222  -3.826  0.00  0.00     0.069 H 
ATOM     43  H   LIG d   1       3.019  -0.440  -3.281  0.00  0.00     0.069 H 
BRANCH  41  44
ATOM     44  C   LIG d   1       4.002   1.085  -2.120  0.00  0.00    -0.031 C 
ATOM     45  H   LIG d   1       3.831   2.160  -2.070  0.00  0.00     0.026 H 
ATOM     46  H   LIG d   1       3.492   0.597  -1.291  0.00  0.00     0.026 H 
ATOM     47  H   LIG d   1       5.072   0.883  -2.059  0.00  0.00     0.026 H 
ENDBRANCH  41  44
ENDBRANCH  40  41
ENDBRANCH   1  40
TORSDOF 6
ENDMDL
MODEL 10
REMARK VINA RESULT:      -5.8      6.353     10.255
REMARK  6 active torsions:
REMARK  status: ('A' for Active; 'I' for Inactive)
REMARK    1  A    between atoms: C_1  and  C_2 
REMARK    2  A    between atoms: C_2  and  O_3 
REMARK    3  A    between atoms: O_3  and  C_4 
REMARK    4  A    between atoms: C_11  and  C_27 
REMARK    5  A    between atoms: C_12  and  O_15 
REMARK    6  A    between atoms: O_15  and  C_16 
ROOT
ATOM      1  C   LIG d   1       9.951  -8.109  -1.887  0.00  0.00     0.124 A 
ATOM      2  C   LIG d   1      10.300  -6.875  -1.340  0.00  0.00    -0.019 A 
ATOM      3  C   LIG d   1       9.918  -5.716  -1.952  0.00  0.00    -0.044 A 
ATOM      4  C   LIG d   1       9.176  -5.769  -3.133  0.00  0.00     0.068 A 
ATOM      5  C   LIG d   1       8.820  -7.008  -3.692  0.00  0.00     0.142 A 
ATOM      6  C   LIG d   1       9.215  -8.178  -3.058  0.00  0.00     0.023 A 
ATOM      7  O   LIG d   1       8.103  -7.048  -4.832  0.00  0.00    -0.456 OA
ATOM      8  C   LIG d   1       7.701  -5.938  -5.468  0.00  0.00     0.148 A 
ATOM      9  C   LIG d   1       7.991  -4.699  -5.021  0.00  0.00     0.213 A 
ATOM     10  C   LIG d   1       8.745  -4.541  -3.824  0.00  0.00     0.235 A 
ATOM     11  O   LIG d   1       9.023  -3.436  -3.389  0.00  0.00    -0.283 OA
ATOM     12  H   LIG d   1      10.875  -6.836  -0.426  0.00  0.00     0.065 H 
ATOM     13  H   LIG d   1      10.189  -4.763  -1.524  0.00  0.00     0.063 H 
ATOM     14  H   LIG d   1       8.950  -9.139  -3.475  0.00  0.00     0.069 H 
ENDROOT
BRANCH   9  15
ATOM     15  O   LIG d   1       7.562  -3.606  -5.710  0.00  0.00    -0.449 OA
BRANCH  15  16
ATOM     16  C   LIG d   1       6.540  -2.881  -5.185  0.00  0.00     0.133 A 
ATOM     17  C   LIG d   1       6.660  -1.504  -5.060  0.00  0.00     0.026 A 
ATOM     18  C   LIG d   1       5.614  -0.770  -4.525  0.00  0.00     0.165 A 
ATOM     19  H   LIG d   1       7.564  -1.006  -5.379  0.00  0.00     0.069 H 
ATOM     20  C   LIG d   1       4.454  -1.410  -4.113  0.00  0.00     0.162 A 
ATOM     21  O   LIG d   1       5.718   0.585  -4.399  0.00  0.00    -0.488 OA
ATOM     22  C   LIG d   1       4.335  -2.783  -4.238  0.00  0.00    -0.013 A 
ATOM     23  O   LIG d   1       3.428  -0.675  -3.591  0.00  0.00    -0.488 OA
ATOM     24  C   LIG d   1       5.378  -3.518  -4.775  0.00  0.00    -0.016 A 
ATOM     25  H   LIG d   1       3.431  -3.280  -3.919  0.00  0.00     0.066 H 
ATOM     26  H   LIG d   1       5.287  -4.590  -4.873  0.00  0.00     0.066 H 
ATOM     27  C   LIG d   1       3.680  -0.080  -2.312  0.00  0.00     0.093 C 
ATOM     28  C   LIG d   1       4.403   1.249  -2.469  0.00  0.00     0.016 C 
ATOM     29  H   LIG d   1       4.295  -0.754  -1.715  0.00  0.00     0.070 H 
ATOM     30  H   LIG d   1       2.731   0.085  -1.801  0.00  0.00     0.070 H 
ATOM     31  C   LIG d   1       5.793   1.085  -3.062  0.00  0.00     0.093 C 
ATOM     32  H   LIG d   1       4.489   1.721  -1.491  0.00  0.00     0.033 H 
ATOM     33  H   LIG d   1       3.816   1.895  -3.121  0.00  0.00     0.033 H 
ATOM     34  H   LIG d   1       6.364   0.386  -2.449  0.00  0.00     0.070 H 
ATOM     35  H   LIG d   1       6.297   2.051  -3.068  0.00  0.00     0.070 H 
ENDBRANCH  15  16
ENDBRANCH   9  15
BRANCH   8  36
ATOM     36  C   LIG d   1       6.898  -6.080  -6.734  0.00  0.00    -0.003 C 
ATOM     37  H   LIG d   1       6.261  -6.961  -6.663  0.00  0.00     0.031 H 
ATOM     38  H   LIG d   1       6.279  -5.194  -6.872  0.00  0.00     0.031 H 
ATOM     39  H   LIG d   1       7.574  -6.186  -7.583  0.00  0.00     0.031 H 
ENDBRANCH   8  36
BRANCH   1  40
ATOM     40  O   LIG d   1      10.339  -9.253  -1.267  0.00  0.00    -0.492 OA
BRANCH  40  41
ATOM     41  C   LIG d   1       9.638 -10.448  -1.615  0.00  0.00     0.087 C 
ATOM     42  H   LIG d   1       9.007 -10.260  -2.484  0.00  0.00     0.069 H 
ATOM     43  H   LIG d   1      10.354 -11.235  -1.852  0.00  0.00     0.069 H 
BRANCH  41  44
ATOM     44  C   LIG d   1       8.766 -10.890  -0.437  0.00  0.00    -0.031 C 
ATOM     45  H   LIG d   1       9.201 -10.525   0.493  0.00  0.00     0.026 H 
ATOM     46  H   LIG d   1       7.763 -10.482  -0.555  0.00  0.00     0.026 H 
ATOM     47  H   LIG d   1       8.714 -11.980  -0.413  0.00  0.00     0.026 H 
ENDBRANCH  41  44
ENDBRANCH  40  41
ENDBRANCH   1  40
TORSDOF 6
ENDMDL
