MODEL 1
REMARK VINA RESULT:      -5.6      0.000      0.000
REMARK  2 active torsions:
REMARK  status: ('A' for Active; 'I' for Inactive)
REMARK    1  A    between atoms: C_2  and  C_11 
REMARK    2  A    between atoms: C_4  and  C_9 
ROOT
ATOM      1  C   LIG d   1       3.857  -2.179  -2.300  0.00  0.00     0.057 C 
ATOM      2  C   LIG d   1       4.394  -0.745  -2.073  0.00  0.00     0.051 C 
ATOM      3  H   LIG d   1       4.557  -0.552  -1.013  0.00  0.00     0.041 H 
ATOM      4  C   LIG d   1       5.734  -0.791  -2.840  0.00  0.00     0.150 C 
ATOM      5  H   LIG d   1       6.548  -1.051  -2.162  0.00  0.00     0.080 H 
ATOM      6  O   LIG d   1       5.572  -1.825  -3.850  0.00  0.00    -0.455 OA
ATOM      7  C   LIG d   1       4.535  -2.625  -3.577  0.00  0.00     0.308 C 
ATOM      8  O   LIG d   1       4.191  -3.566  -4.251  0.00  0.00    -0.251 OA
ATOM      9  H   LIG d   1       4.138  -2.828  -1.470  0.00  0.00     0.038 H 
ATOM     10  H   LIG d   1       2.775  -2.165  -2.426  0.00  0.00     0.038 H 
ENDROOT
BRANCH   2  11
ATOM     11  C   LIG d   1       3.465   0.279  -2.670  0.00  0.00     0.049 C 
ATOM     12  O   LIG d   1       3.292   1.337  -2.112  0.00  0.00    -0.549 OA
ATOM     13  O   LIG d   1       2.824   0.014  -3.820  0.00  0.00    -0.549 OA
ENDBRANCH   2  11
BRANCH   4  14
ATOM     14  C   LIG d   1       6.006   0.539  -3.494  0.00  0.00     0.083 C 
ATOM     15  O   LIG d   1       6.329   1.488  -2.820  0.00  0.00    -0.546 OA
ATOM     16  O   LIG d   1       5.890   0.670  -4.824  0.00  0.00    -0.546 OA
ENDBRANCH   4  14
TORSDOF 2
ENDMDL
MODEL 2
REMARK VINA RESULT:      -5.0      1.436      2.101
REMARK  2 active torsions:
REMARK  status: ('A' for Active; 'I' for Inactive)
REMARK    1  A    between atoms: C_2  and  C_11 
REMARK    2  A    between atoms: C_4  and  C_9 
ROOT
ATOM      1  C   LIG d   1       4.374  -2.411  -3.708  0.00  0.00     0.057 C 
ATOM      2  C   LIG d   1       3.561  -1.173  -3.259  0.00  0.00     0.051 C 
ATOM      3  H   LIG d   1       2.632  -1.471  -2.773  0.00  0.00     0.041 H 
ATOM      4  C   LIG d   1       4.529  -0.516  -2.250  0.00  0.00     0.150 C 
ATOM      5  H   LIG d   1       4.304  -0.855  -1.238  0.00  0.00     0.080 H 
ATOM      6  O   LIG d   1       5.859  -0.952  -2.642  0.00  0.00    -0.455 OA
ATOM      7  C   LIG d   1       5.812  -2.015  -3.453  0.00  0.00     0.308 C 
ATOM      8  O   LIG d   1       6.777  -2.577  -3.914  0.00  0.00    -0.251 OA
ATOM      9  H   LIG d   1       4.105  -3.282  -3.111  0.00  0.00     0.038 H 
ATOM     10  H   LIG d   1       4.214  -2.608  -4.768  0.00  0.00     0.038 H 
ENDROOT
BRANCH   2  11
ATOM     11  C   LIG d   1       3.289  -0.255  -4.422  0.00  0.00     0.049 C 
ATOM     12  O   LIG d   1       2.200   0.252  -4.551  0.00  0.00    -0.549 OA
ATOM     13  O   LIG d   1       4.257  -0.004  -5.319  0.00  0.00    -0.549 OA
ENDBRANCH   2  11
BRANCH   4  14
ATOM     14  C   LIG d   1       4.426   0.985  -2.331  0.00  0.00     0.083 C 
ATOM     15  O   LIG d   1       3.435   1.545  -1.927  0.00  0.00    -0.546 OA
ATOM     16  O   LIG d   1       5.435   1.700  -2.851  0.00  0.00    -0.546 OA
ENDBRANCH   4  14
TORSDOF 2
ENDMDL
MODEL 3
REMARK VINA RESULT:      -5.0      1.195      3.801
REMARK  2 active torsions:
REMARK  status: ('A' for Active; 'I' for Inactive)
REMARK    1  A    between atoms: C_2  and  C_11 
REMARK    2  A    between atoms: C_4  and  C_9 
ROOT
ATOM      1  C   LIG d   1       4.597   0.893  -1.915  0.00  0.00     0.057 C 
ATOM      2  C   LIG d   1       4.922  -0.592  -2.202  0.00  0.00     0.051 C 
ATOM      3  H   LIG d   1       4.994  -1.163  -1.276  0.00  0.00     0.041 H 
ATOM      4  C   LIG d   1       3.688  -1.026  -3.025  0.00  0.00     0.150 C 
ATOM      5  H   LIG d   1       2.934  -1.464  -2.371  0.00  0.00     0.080 H 
ATOM      6  O   LIG d   1       3.178   0.191  -3.637  0.00  0.00    -0.455 OA
ATOM      7  C   LIG d   1       3.660   1.285  -3.036  0.00  0.00     0.308 C 
ATOM      8  O   LIG d   1       3.386   2.420  -3.345  0.00  0.00    -0.251 OA
ATOM      9  H   LIG d   1       4.102   0.996  -0.949  0.00  0.00     0.038 H 
ATOM     10  H   LIG d   1       5.504   1.495  -1.947  0.00  0.00     0.038 H 
ENDROOT
BRANCH   2  11
ATOM     11  C   LIG d   1       6.184  -0.721  -3.013  0.00  0.00     0.049 C 
ATOM     12  O   LIG d   1       6.861  -1.719  -2.925  0.00  0.00    -0.549 OA
ATOM     13  O   LIG d   1       6.561   0.275  -3.831  0.00  0.00    -0.549 OA
ENDBRANCH   2  11
BRANCH   4  14
ATOM     14  C   LIG d   1       4.093  -2.014  -4.088  0.00  0.00     0.083 C 
ATOM     15  O   LIG d   1       4.291  -1.637  -5.218  0.00  0.00    -0.546 OA
ATOM     16  O   LIG d   1       4.235  -3.312  -3.779  0.00  0.00    -0.546 OA
ENDBRANCH   4  14
TORSDOF 2
ENDMDL
MODEL 4
REMARK VINA RESULT:      -4.9      1.951      2.717
REMARK  2 active torsions:
REMARK  status: ('A' for Active; 'I' for Inactive)
REMARK    1  A    between atoms: C_2  and  C_11 
REMARK    2  A    between atoms: C_4  and  C_9 
ROOT
ATOM      1  C   LIG d   1       2.352   0.163  -4.670  0.00  0.00     0.057 C 
ATOM      2  C   LIG d   1       3.396  -0.082  -3.553  0.00  0.00     0.051 C 
ATOM      3  H   LIG d   1       3.064  -0.866  -2.873  0.00  0.00     0.041 H 
ATOM      4  C   LIG d   1       4.623  -0.541  -4.372  0.00  0.00     0.150 C 
ATOM      5  H   LIG d   1       4.646  -1.630  -4.436  0.00  0.00     0.080 H 
ATOM      6  O   LIG d   1       4.451   0.037  -5.694  0.00  0.00    -0.455 OA
ATOM      7  C   LIG d   1       3.191   0.436  -5.899  0.00  0.00     0.308 C 
ATOM      8  O   LIG d   1       2.782   0.941  -6.918  0.00  0.00    -0.251 OA
ATOM      9  H   LIG d   1       1.735  -0.724  -4.817  0.00  0.00     0.038 H 
ATOM     10  H   LIG d   1       1.733   1.026  -4.430  0.00  0.00     0.038 H 
ENDROOT
BRANCH   2  11
ATOM     11  C   LIG d   1       3.693   1.190  -2.804  0.00  0.00     0.049 C 
ATOM     12  O   LIG d   1       3.999   1.147  -1.636  0.00  0.00    -0.549 OA
ATOM     13  O   LIG d   1       3.612   2.374  -3.433  0.00  0.00    -0.549 OA
ENDBRANCH   2  11
BRANCH   4  14
ATOM     14  C   LIG d   1       5.892  -0.031  -3.739  0.00  0.00     0.083 C 
ATOM     15  O   LIG d   1       6.395  -0.635  -2.822  0.00  0.00    -0.546 OA
ATOM     16  O   LIG d   1       6.463   1.095  -4.194  0.00  0.00    -0.546 OA
ENDBRANCH   4  14
TORSDOF 2
ENDMDL
MODEL 5
REMARK VINA RESULT:      -4.8      1.688      3.541
REMARK  2 active torsions:
REMARK  status: ('A' for Active; 'I' for Inactive)
REMARK    1  A    between atoms: C_2  and  C_11 
REMARK    2  A    between atoms: C_4  and  C_9 
ROOT
ATOM      1  C   LIG d   1       4.271  -1.026  -1.938  0.00  0.00     0.057 C 
ATOM      2  C   LIG d   1       4.304  -1.673  -3.344  0.00  0.00     0.051 C 
ATOM      3  H   LIG d   1       3.571  -2.476  -3.422  0.00  0.00     0.041 H 
ATOM      4  C   LIG d   1       3.916  -0.479  -4.244  0.00  0.00     0.150 C 
ATOM      5  H   LIG d   1       2.840  -0.478  -4.424  0.00  0.00     0.080 H 
ATOM      6  O   LIG d   1       4.302   0.712  -3.503  0.00  0.00    -0.455 OA
ATOM      7  C   LIG d   1       4.502   0.444  -2.207  0.00  0.00     0.308 C 
ATOM      8  O   LIG d   1       4.821   1.259  -1.374  0.00  0.00    -0.251 OA
ATOM      9  H   LIG d   1       3.299  -1.182  -1.469  0.00  0.00     0.038 H 
ATOM     10  H   LIG d   1       5.067  -1.431  -1.314  0.00  0.00     0.038 H 
ENDROOT
BRANCH   2  11
ATOM     11  C   LIG d   1       5.686  -2.172  -3.676  0.00  0.00     0.049 C 
ATOM     12  O   LIG d   1       5.825  -3.163  -4.353  0.00  0.00    -0.549 OA
ATOM     13  O   LIG d   1       6.764  -1.517  -3.214  0.00  0.00    -0.549 OA
ENDBRANCH   2  11
BRANCH   4  14
ATOM     14  C   LIG d   1       4.663  -0.546  -5.550  0.00  0.00     0.083 C 
ATOM     15  O   LIG d   1       5.619   0.169  -5.736  0.00  0.00    -0.546 OA
ATOM     16  O   LIG d   1       4.270  -1.401  -6.506  0.00  0.00    -0.546 OA
ENDBRANCH   4  14
TORSDOF 2
ENDMDL
MODEL 6
REMARK VINA RESULT:      -4.6      1.657      3.666
REMARK  2 active torsions:
REMARK  status: ('A' for Active; 'I' for Inactive)
REMARK    1  A    between atoms: C_2  and  C_11 
REMARK    2  A    between atoms: C_4  and  C_9 
ROOT
ATOM      1  C   LIG d   1       7.186  -0.154  -3.853  0.00  0.00     0.057 C 
ATOM      2  C   LIG d   1       5.751  -0.440  -3.348  0.00  0.00     0.051 C 
ATOM      3  H   LIG d   1       5.734  -1.311  -2.693  0.00  0.00     0.041 H 
ATOM      4  C   LIG d   1       5.436   0.852  -2.561  0.00  0.00     0.150 C 
ATOM      5  H   LIG d   1       5.682   0.719  -1.507  0.00  0.00     0.080 H 
ATOM      6  O   LIG d   1       6.277   1.883  -3.147  0.00  0.00    -0.455 OA
ATOM      7  C   LIG d   1       7.271   1.357  -3.872  0.00  0.00     0.308 C 
ATOM      8  O   LIG d   1       8.114   1.995  -4.456  0.00  0.00    -0.251 OA
ATOM      9  H   LIG d   1       7.922  -0.571  -3.166  0.00  0.00     0.038 H 
ATOM     10  H   LIG d   1       7.324  -0.557  -4.856  0.00  0.00     0.038 H 
ENDROOT
BRANCH   2  11
ATOM     11  C   LIG d   1       4.798  -0.615  -4.501  0.00  0.00     0.049 C 
ATOM     12  O   LIG d   1       3.892  -1.411  -4.422  0.00  0.00    -0.549 OA
ATOM     13  O   LIG d   1       4.958   0.110  -5.620  0.00  0.00    -0.549 OA
ENDBRANCH   2  11
BRANCH   4  14
ATOM     14  C   LIG d   1       3.981   1.214  -2.716  0.00  0.00     0.083 C 
ATOM     15  O   LIG d   1       3.140   0.611  -2.093  0.00  0.00    -0.546 OA
ATOM     16  O   LIG d   1       3.621   2.207  -3.543  0.00  0.00    -0.546 OA
ENDBRANCH   4  14
TORSDOF 2
ENDMDL
MODEL 7
REMARK VINA RESULT:      -4.5      1.346      3.026
REMARK  2 active torsions:
REMARK  status: ('A' for Active; 'I' for Inactive)
REMARK    1  A    between atoms: C_2  and  C_11 
REMARK    2  A    between atoms: C_4  and  C_9 
ROOT
ATOM      1  C   LIG d   1       6.761  -1.189  -3.435  0.00  0.00     0.057 C 
ATOM      2  C   LIG d   1       5.442  -0.882  -2.687  0.00  0.00     0.051 C 
ATOM      3  H   LIG d   1       5.491  -1.224  -1.653  0.00  0.00     0.041 H 
ATOM      4  C   LIG d   1       5.396   0.661  -2.759  0.00  0.00     0.150 C 
ATOM      5  H   LIG d   1       5.841   1.093  -1.862  0.00  0.00     0.080 H 
ATOM      6  O   LIG d   1       6.178   1.022  -3.931  0.00  0.00    -0.455 OA
ATOM      7  C   LIG d   1       6.960   0.012  -4.334  0.00  0.00     0.308 C 
ATOM      8  O   LIG d   1       7.713   0.055  -5.277  0.00  0.00    -0.251 OA
ATOM      9  H   LIG d   1       7.588  -1.281  -2.730  0.00  0.00     0.038 H 
ATOM     10  H   LIG d   1       6.660  -2.097  -4.029  0.00  0.00     0.038 H 
ENDROOT
BRANCH   2  11
ATOM     11  C   LIG d   1       4.263  -1.490  -3.400  0.00  0.00     0.049 C 
ATOM     12  O   LIG d   1       4.276  -1.605  -4.603  0.00  0.00    -0.549 OA
ATOM     13  O   LIG d   1       3.193  -1.901  -2.699  0.00  0.00    -0.549 OA
ENDBRANCH   2  11
BRANCH   4  14
ATOM     14  C   LIG d   1       3.974   1.133  -2.915  0.00  0.00     0.083 C 
ATOM     15  O   LIG d   1       3.271   1.261  -1.942  0.00  0.00    -0.546 OA
ATOM     16  O   LIG d   1       3.489   1.414  -4.134  0.00  0.00    -0.546 OA
ENDBRANCH   4  14
TORSDOF 2
ENDMDL
MODEL 8
REMARK VINA RESULT:      -4.5      1.603      2.511
REMARK  2 active torsions:
REMARK  status: ('A' for Active; 'I' for Inactive)
REMARK    1  A    between atoms: C_2  and  C_11 
REMARK    2  A    between atoms: C_4  and  C_9 
ROOT
ATOM      1  C   LIG d   1       6.449  -1.271  -3.495  0.00  0.00     0.057 C 
ATOM      2  C   LIG d   1       5.558  -0.015  -3.342  0.00  0.00     0.051 C 
ATOM      3  H   LIG d   1       6.151   0.896  -3.411  0.00  0.00     0.041 H 
ATOM      4  C   LIG d   1       4.613  -0.155  -4.557  0.00  0.00     0.150 C 
ATOM      5  H   LIG d   1       5.009   0.403  -5.407  0.00  0.00     0.080 H 
ATOM      6  O   LIG d   1       4.576  -1.576  -4.862  0.00  0.00    -0.455 OA
ATOM      7  C   LIG d   1       5.592  -2.232  -4.290  0.00  0.00     0.308 C 
ATOM      8  O   LIG d   1       5.795  -3.418  -4.394  0.00  0.00    -0.251 OA
ATOM      9  H   LIG d   1       7.360  -1.028  -4.042  0.00  0.00     0.038 H 
ATOM     10  H   LIG d   1       6.687  -1.691  -2.518  0.00  0.00     0.038 H 
ENDROOT
BRANCH   2  11
ATOM     11  C   LIG d   1       4.784  -0.057  -2.050  0.00  0.00     0.049 C 
ATOM     12  O   LIG d   1       4.535   0.968  -1.460  0.00  0.00    -0.549 OA
ATOM     13  O   LIG d   1       4.375  -1.235  -1.550  0.00  0.00    -0.549 OA
ENDBRANCH   2  11
BRANCH   4  14
ATOM     14  C   LIG d   1       3.235   0.340  -4.205  0.00  0.00     0.083 C 
ATOM     15  O   LIG d   1       2.372  -0.446  -3.896  0.00  0.00    -0.546 OA
ATOM     16  O   LIG d   1       2.966   1.655  -4.233  0.00  0.00    -0.546 OA
ENDBRANCH   4  14
TORSDOF 2
ENDMDL
MODEL 9
REMARK VINA RESULT:      -4.4      1.726      2.971
REMARK  2 active torsions:
REMARK  status: ('A' for Active; 'I' for Inactive)
REMARK    1  A    between atoms: C_2  and  C_11 
REMARK    2  A    between atoms: C_4  and  C_9 
ROOT
ATOM      1  C   LIG d   1       2.238  -0.305  -3.833  0.00  0.00     0.057 C 
ATOM      2  C   LIG d   1       3.394  -1.247  -3.421  0.00  0.00     0.051 C 
ATOM      3  H   LIG d   1       3.037  -2.268  -3.284  0.00  0.00     0.041 H 
ATOM      4  C   LIG d   1       4.328  -1.147  -4.648  0.00  0.00     0.150 C 
ATOM      5  H   LIG d   1       4.111  -1.952  -5.352  0.00  0.00     0.080 H 
ATOM      6  O   LIG d   1       4.040   0.142  -5.255  0.00  0.00    -0.455 OA
ATOM      7  C   LIG d   1       2.874   0.641  -4.827  0.00  0.00     0.308 C 
ATOM      8  O   LIG d   1       2.400   1.693  -5.183  0.00  0.00    -0.251 OA
ATOM      9  H   LIG d   1       1.433  -0.871  -4.303  0.00  0.00     0.038 H 
ATOM     10  H   LIG d   1       1.867   0.243  -2.967  0.00  0.00     0.038 H 
ENDROOT
BRANCH   2  11
ATOM     11  C   LIG d   1       4.082  -0.746  -2.178  0.00  0.00     0.049 C 
ATOM     12  O   LIG d   1       4.120   0.438  -1.943  0.00  0.00    -0.549 OA
ATOM     13  O   LIG d   1       4.659  -1.617  -1.333  0.00  0.00    -0.549 OA
ENDBRANCH   2  11
BRANCH   4  14
ATOM     14  C   LIG d   1       5.769  -1.210  -4.213  0.00  0.00     0.083 C 
ATOM     15  O   LIG d   1       6.424  -0.197  -4.148  0.00  0.00    -0.546 OA
ATOM     16  O   LIG d   1       6.324  -2.390  -3.897  0.00  0.00    -0.546 OA
ENDBRANCH   4  14
TORSDOF 2
ENDMDL
MODEL 10
REMARK VINA RESULT:      -4.2      1.876      2.817
REMARK  2 active torsions:
REMARK  status: ('A' for Active; 'I' for Inactive)
REMARK    1  A    between atoms: C_2  and  C_11 
REMARK    2  A    between atoms: C_4  and  C_9 
ROOT
ATOM      1  C   LIG d   1       4.694  -1.176  -5.879  0.00  0.00     0.057 C 
ATOM      2  C   LIG d   1       4.308  -1.071  -4.384  0.00  0.00     0.051 C 
ATOM      3  H   LIG d   1       4.164  -2.059  -3.947  0.00  0.00     0.041 H 
ATOM      4  C   LIG d   1       5.555  -0.378  -3.790  0.00  0.00     0.150 C 
ATOM      5  H   LIG d   1       6.254  -1.124  -3.411  0.00  0.00     0.080 H 
ATOM      6  O   LIG d   1       6.154   0.360  -4.890  0.00  0.00    -0.455 OA
ATOM      7  C   LIG d   1       5.701  -0.065  -6.076  0.00  0.00     0.308 C 
ATOM      8  O   LIG d   1       6.046   0.376  -7.146  0.00  0.00    -0.251 OA
ATOM      9  H   LIG d   1       5.148  -2.145  -6.089  0.00  0.00     0.038 H 
ATOM     10  H   LIG d   1       3.821  -1.017  -6.511  0.00  0.00     0.038 H 
ENDROOT
BRANCH   2  11
ATOM     11  C   LIG d   1       3.079  -0.218  -4.203  0.00  0.00     0.049 C 
ATOM     12  O   LIG d   1       2.219  -0.554  -3.425  0.00  0.00    -0.549 OA
ATOM     13  O   LIG d   1       2.938   0.914  -4.912  0.00  0.00    -0.549 OA
ENDBRANCH   2  11
BRANCH   4  14
ATOM     14  C   LIG d   1       5.150   0.565  -2.687  0.00  0.00     0.083 C 
ATOM     15  O   LIG d   1       5.292   1.756  -2.829  0.00  0.00    -0.546 OA
ATOM     16  O   LIG d   1       4.631   0.083  -1.547  0.00  0.00    -0.546 OA
ENDBRANCH   4  14
TORSDOF 2
ENDMDL
