MODEL 1
REMARK VINA RESULT:      -5.8      0.000      0.000
REMARK  9 active torsions:
REMARK  status: ('A' for Active; 'I' for Inactive)
REMARK    1  A    between atoms: C_1  and  C_2 
REMARK    2  A    between atoms: C_2  and  C_3 
REMARK    3  A    between atoms: C_2  and  C_4 
REMARK    4  A    between atoms: C_4  and  N_5 
REMARK    5  A    between atoms: C_13  and  C_19 
REMARK    6  A    between atoms: C_19  and  O_21 
REMARK    7  A    between atoms: O_21  and  C_22 
REMARK    8  A    between atoms: C_22  and  C_23 
REMARK    9  A    between atoms: C_22  and  C_24 
ROOT
ATOM      1  N   LIG d   1       3.203  -0.165  -6.277  0.00  0.00    -0.298 N 
ATOM      2  C   LIG d   1       2.753   0.410  -4.987  0.00  0.00     0.048 C 
ATOM      3  C   LIG d   1       3.557  -0.327  -3.962  0.00  0.00     0.116 C 
ATOM      4  C   LIG d   1       3.918   0.210  -2.623  0.00  0.00    -0.052 C 
ATOM      5  C   LIG d   1       4.401  -0.857  -1.974  0.00  0.00    -0.056 C 
ATOM      6  C   LIG d   1       4.290  -2.057  -2.921  0.00  0.00     0.092 C 
ATOM      7  H   LIG d   1       4.263  -3.039  -2.449  0.00  0.00     0.065 H 
ATOM      8  O   LIG d   1       3.092  -1.677  -3.690  0.00  0.00    -0.359 OA
ATOM      9  C   LIG d   1       5.386  -1.870  -4.020  0.00  0.00     0.100 C 
ATOM     10  H   LIG d   1       5.402  -2.718  -4.704  0.00  0.00     0.045 H 
ATOM     11  C   LIG d   1       4.900  -0.596  -4.735  0.00  0.00     0.085 C 
ATOM     12  H   LIG d   1       5.613   0.226  -4.659  0.00  0.00     0.043 H 
ATOM     13  C   LIG d   1       4.389  -0.809  -6.131  0.00  0.00     0.223 C 
ATOM     14  O   LIG d   1       4.947  -1.456  -6.992  0.00  0.00    -0.275 OA
ATOM     15  H   LIG d   1       1.688   0.231  -4.840  0.00  0.00     0.050 H 
ATOM     16  H   LIG d   1       2.970   1.477  -4.947  0.00  0.00     0.050 H 
ATOM     17  H   LIG d   1       3.814   1.221  -2.261  0.00  0.00     0.060 H 
ATOM     18  H   LIG d   1       4.795  -0.869  -0.969  0.00  0.00     0.060 H 
ENDROOT
BRANCH   9  19
ATOM     19  C   LIG d   1       6.742  -1.657  -3.399  0.00  0.00     0.314 C 
ATOM     20  O   LIG d   1       7.230  -0.551  -3.378  0.00  0.00    -0.250 OA
BRANCH  19  21
ATOM     21  O   LIG d   1       7.407  -2.694  -2.868  0.00  0.00    -0.462 OA
BRANCH  21  22
ATOM     22  C   LIG d   1       8.498  -3.249  -3.650  0.00  0.00     0.098 C 
ATOM     23  H   LIG d   1       9.022  -2.442  -4.165  0.00  0.00     0.073 H 
BRANCH  22  24
ATOM     24  C   LIG d   1       9.471  -3.979  -2.723  0.00  0.00    -0.028 C 
ATOM     25  H   LIG d   1       9.161  -3.838  -1.688  0.00  0.00     0.026 H 
ATOM     26  H   LIG d   1       9.472  -5.042  -2.961  0.00  0.00     0.026 H 
ATOM     27  H   LIG d   1      10.475  -3.575  -2.859  0.00  0.00     0.026 H 
ENDBRANCH  22  24
BRANCH  22  28
ATOM     28  C   LIG d   1       7.939  -4.232  -4.679  0.00  0.00    -0.028 C 
ATOM     29  H   LIG d   1       6.957  -3.893  -5.010  0.00  0.00     0.026 H 
ATOM     30  H   LIG d   1       8.612  -4.285  -5.535  0.00  0.00     0.026 H 
ATOM     31  H   LIG d   1       7.847  -5.219  -4.227  0.00  0.00     0.026 H 
ENDBRANCH  22  28
ENDBRANCH  21  22
ENDBRANCH  19  21
ENDBRANCH   9  19
BRANCH   1  32
ATOM     32  C   LIG d   1       2.468  -0.052  -7.540  0.00  0.00     0.017 C 
ATOM     33  H   LIG d   1       2.329  -1.045  -7.969  0.00  0.00     0.047 H 
ATOM     34  H   LIG d   1       1.495   0.403  -7.354  0.00  0.00     0.047 H 
BRANCH  32  35
ATOM     35  C   LIG d   1       3.260   0.820  -8.516  0.00  0.00    -0.031 C 
ATOM     36  H   LIG d   1       4.325   0.719  -8.309  0.00  0.00     0.031 H 
BRANCH  35  37
ATOM     37  C   LIG d   1       2.973   0.371  -9.949  0.00  0.00    -0.061 C 
ATOM     38  H   LIG d   1       2.274   1.065 -10.415  0.00  0.00     0.023 H 
ATOM     39  H   LIG d   1       3.902   0.354 -10.518  0.00  0.00     0.023 H 
ATOM     40  H   LIG d   1       2.538  -0.629  -9.937  0.00  0.00     0.023 H 
ENDBRANCH  35  37
BRANCH  35  41
ATOM     41  C   LIG d   1       2.845   2.282  -8.346  0.00  0.00    -0.061 C 
ATOM     42  H   LIG d   1       1.872   2.330  -7.857  0.00  0.00     0.023 H 
ATOM     43  H   LIG d   1       3.585   2.802  -7.737  0.00  0.00     0.023 H 
ATOM     44  H   LIG d   1       2.782   2.758  -9.326  0.00  0.00     0.023 H 
ENDBRANCH  35  41
ENDBRANCH  32  35
ENDBRANCH   1  32
TORSDOF 9
ENDMDL
MODEL 2
REMARK VINA RESULT:      -5.2      2.514      6.199
REMARK  9 active torsions:
REMARK  status: ('A' for Active; 'I' for Inactive)
REMARK    1  A    between atoms: C_1  and  C_2 
REMARK    2  A    between atoms: C_2  and  C_3 
REMARK    3  A    between atoms: C_2  and  C_4 
REMARK    4  A    between atoms: C_4  and  N_5 
REMARK    5  A    between atoms: C_13  and  C_19 
REMARK    6  A    between atoms: C_19  and  O_21 
REMARK    7  A    between atoms: O_21  and  C_22 
REMARK    8  A    between atoms: C_22  and  C_23 
REMARK    9  A    between atoms: C_22  and  C_24 
ROOT
ATOM      1  N   LIG d   1       4.717  -0.721  -5.257  0.00  0.00    -0.298 N 
ATOM      2  C   LIG d   1       3.435  -0.116  -5.689  0.00  0.00     0.048 C 
ATOM      3  C   LIG d   1       3.534  -0.084  -7.182  0.00  0.00     0.116 C 
ATOM      4  C   LIG d   1       2.372  -0.114  -8.109  0.00  0.00    -0.052 C 
ATOM      5  C   LIG d   1       2.908   0.184  -9.299  0.00  0.00    -0.056 C 
ATOM      6  C   LIG d   1       4.404   0.436  -9.076  0.00  0.00     0.092 C 
ATOM      7  H   LIG d   1       4.902   1.052  -9.824  0.00  0.00     0.065 H 
ATOM      8  O   LIG d   1       4.379   0.977  -7.706  0.00  0.00    -0.359 OA
ATOM      9  C   LIG d   1       5.062  -0.956  -8.805  0.00  0.00     0.100 C 
ATOM     10  H   LIG d   1       6.142  -0.861  -8.689  0.00  0.00     0.045 H 
ATOM     11  C   LIG d   1       4.400  -1.365  -7.477  0.00  0.00     0.085 C 
ATOM     12  H   LIG d   1       3.806  -2.274  -7.567  0.00  0.00     0.043 H 
ATOM     13  C   LIG d   1       5.316  -1.370  -6.287  0.00  0.00     0.223 C 
ATOM     14  O   LIG d   1       6.419  -1.875  -6.253  0.00  0.00    -0.275 OA
ATOM     15  H   LIG d   1       3.335   0.893  -5.290  0.00  0.00     0.050 H 
ATOM     16  H   LIG d   1       2.594  -0.736  -5.376  0.00  0.00     0.050 H 
ATOM     17  H   LIG d   1       1.339  -0.325  -7.876  0.00  0.00     0.060 H 
ATOM     18  H   LIG d   1       2.384   0.238 -10.241  0.00  0.00     0.060 H 
ENDROOT
BRANCH   9  19
ATOM     19  C   LIG d   1       4.726  -1.934  -9.900  0.00  0.00     0.314 C 
ATOM     20  O   LIG d   1       5.149  -1.758 -11.019  0.00  0.00    -0.250 OA
BRANCH  19  21
ATOM     21  O   LIG d   1       3.958  -3.002  -9.634  0.00  0.00    -0.462 OA
BRANCH  21  22
ATOM     22  C   LIG d   1       3.049  -3.438 -10.680  0.00  0.00     0.098 C 
ATOM     23  H   LIG d   1       3.269  -2.897 -11.601  0.00  0.00     0.073 H 
BRANCH  22  24
ATOM     24  C   LIG d   1       3.227  -4.939 -10.917  0.00  0.00    -0.028 C 
ATOM     25  H   LIG d   1       2.256  -5.431 -10.869  0.00  0.00     0.026 H 
ATOM     26  H   LIG d   1       3.670  -5.102 -11.899  0.00  0.00     0.026 H 
ATOM     27  H   LIG d   1       3.882  -5.352 -10.149  0.00  0.00     0.026 H 
ENDBRANCH  22  24
BRANCH  22  28
ATOM     28  C   LIG d   1       1.607  -3.155 -10.254  0.00  0.00    -0.028 C 
ATOM     29  H   LIG d   1       1.520  -3.264  -9.173  0.00  0.00     0.026 H 
ATOM     30  H   LIG d   1       1.337  -2.140 -10.540  0.00  0.00     0.026 H 
ATOM     31  H   LIG d   1       0.939  -3.862 -10.744  0.00  0.00     0.026 H 
ENDBRANCH  22  28
ENDBRANCH  21  22
ENDBRANCH  19  21
ENDBRANCH   9  19
BRANCH   1  32
ATOM     32  C   LIG d   1       5.263  -0.632  -3.900  0.00  0.00     0.017 C 
ATOM     33  H   LIG d   1       5.885  -1.506  -3.701  0.00  0.00     0.047 H 
ATOM     34  H   LIG d   1       5.867   0.272  -3.810  0.00  0.00     0.047 H 
BRANCH  32  35
ATOM     35  C   LIG d   1       4.116  -0.580  -2.890  0.00  0.00    -0.031 C 
ATOM     36  H   LIG d   1       3.207  -0.246  -3.390  0.00  0.00     0.031 H 
BRANCH  35  37
ATOM     37  C   LIG d   1       3.891  -1.974  -2.300  0.00  0.00    -0.061 C 
ATOM     38  H   LIG d   1       4.747  -2.608  -2.531  0.00  0.00     0.023 H 
ATOM     39  H   LIG d   1       3.776  -1.897  -1.220  0.00  0.00     0.023 H 
ATOM     40  H   LIG d   1       2.990  -2.410  -2.732  0.00  0.00     0.023 H 
ENDBRANCH  35  37
BRANCH  35  41
ATOM     41  C   LIG d   1       4.468   0.398  -1.767  0.00  0.00    -0.061 C 
ATOM     42  H   LIG d   1       4.301  -0.080  -0.802  0.00  0.00     0.023 H 
ATOM     43  H   LIG d   1       5.515   0.688  -1.853  0.00  0.00     0.023 H 
ATOM     44  H   LIG d   1       3.838   1.285  -1.848  0.00  0.00     0.023 H 
ENDBRANCH  35  41
ENDBRANCH  32  35
ENDBRANCH   1  32
TORSDOF 9
ENDMDL
MODEL 3
REMARK VINA RESULT:      -5.1      2.050      3.963
REMARK  9 active torsions:
REMARK  status: ('A' for Active; 'I' for Inactive)
REMARK    1  A    between atoms: C_1  and  C_2 
REMARK    2  A    between atoms: C_2  and  C_3 
REMARK    3  A    between atoms: C_2  and  C_4 
REMARK    4  A    between atoms: C_4  and  N_5 
REMARK    5  A    between atoms: C_13  and  C_19 
REMARK    6  A    between atoms: C_19  and  O_21 
REMARK    7  A    between atoms: O_21  and  C_22 
REMARK    8  A    between atoms: C_22  and  C_23 
REMARK    9  A    between atoms: C_22  and  C_24 
ROOT
ATOM      1  N   LIG d   1       3.216  -1.016  -8.123  0.00  0.00    -0.298 N 
ATOM      2  C   LIG d   1       3.912  -2.325  -8.111  0.00  0.00     0.048 C 
ATOM      3  C   LIG d   1       5.099  -2.097  -7.228  0.00  0.00     0.116 C 
ATOM      4  C   LIG d   1       5.786  -3.156  -6.443  0.00  0.00    -0.052 C 
ATOM      5  C   LIG d   1       6.909  -2.561  -6.023  0.00  0.00    -0.056 C 
ATOM      6  C   LIG d   1       6.915  -1.140  -6.596  0.00  0.00     0.092 C 
ATOM      7  H   LIG d   1       7.892  -0.665  -6.688  0.00  0.00     0.065 H 
ATOM      8  O   LIG d   1       6.184  -1.361  -7.857  0.00  0.00    -0.359 OA
ATOM      9  C   LIG d   1       5.844  -0.325  -5.802  0.00  0.00     0.100 C 
ATOM     10  H   LIG d   1       5.829   0.717  -6.123  0.00  0.00     0.045 H 
ATOM     11  C   LIG d   1       4.542  -1.042  -6.202  0.00  0.00     0.085 C 
ATOM     12  H   LIG d   1       4.034  -1.496  -5.351  0.00  0.00     0.043 H 
ATOM     13  C   LIG d   1       3.624  -0.244  -7.083  0.00  0.00     0.223 C 
ATOM     14  O   LIG d   1       3.299   0.909  -6.896  0.00  0.00    -0.275 OA
ATOM     15  H   LIG d   1       4.231  -2.597  -9.117  0.00  0.00     0.050 H 
ATOM     16  H   LIG d   1       3.268  -3.098  -7.692  0.00  0.00     0.050 H 
ATOM     17  H   LIG d   1       5.457  -4.167  -6.257  0.00  0.00     0.060 H 
ATOM     18  H   LIG d   1       7.670  -3.001  -5.395  0.00  0.00     0.060 H 
ENDROOT
BRANCH   9  19
ATOM     19  C   LIG d   1       6.081  -0.425  -4.318  0.00  0.00     0.314 C 
ATOM     20  O   LIG d   1       7.154  -0.114  -3.855  0.00  0.00    -0.250 OA
BRANCH  19  21
ATOM     21  O   LIG d   1       5.102  -0.859  -3.508  0.00  0.00    -0.462 OA
BRANCH  21  22
ATOM     22  C   LIG d   1       4.107   0.115  -3.096  0.00  0.00     0.098 C 
ATOM     23  H   LIG d   1       4.051   0.913  -3.838  0.00  0.00     0.073 H 
BRANCH  22  24
ATOM     24  C   LIG d   1       2.744  -0.568  -2.979  0.00  0.00    -0.028 C 
ATOM     25  H   LIG d   1       2.410  -0.537  -1.942  0.00  0.00     0.026 H 
ATOM     26  H   LIG d   1       2.022  -0.050  -3.609  0.00  0.00     0.026 H 
ATOM     27  H   LIG d   1       2.829  -1.607  -3.301  0.00  0.00     0.026 H 
ENDBRANCH  22  24
BRANCH  22  28
ATOM     28  C   LIG d   1       4.501   0.705  -1.741  0.00  0.00    -0.028 C 
ATOM     29  H   LIG d   1       5.419   1.284  -1.850  0.00  0.00     0.026 H 
ATOM     30  H   LIG d   1       3.703   1.353  -1.381  0.00  0.00     0.026 H 
ATOM     31  H   LIG d   1       4.665  -0.102  -1.028  0.00  0.00     0.026 H 
ENDBRANCH  22  28
ENDBRANCH  21  22
ENDBRANCH  19  21
ENDBRANCH   9  19
BRANCH   1  32
ATOM     32  C   LIG d   1       2.222  -0.611  -9.119  0.00  0.00     0.017 C 
ATOM     33  H   LIG d   1       1.367  -1.286  -9.074  0.00  0.00     0.047 H 
ATOM     34  H   LIG d   1       1.893   0.407  -8.911  0.00  0.00     0.047 H 
BRANCH  32  35
ATOM     35  C   LIG d   1       2.845  -0.670 -10.516  0.00  0.00    -0.031 C 
ATOM     36  H   LIG d   1       3.574  -1.479 -10.554  0.00  0.00     0.031 H 
BRANCH  35  37
ATOM     37  C   LIG d   1       1.749  -0.920 -11.553  0.00  0.00    -0.061 C 
ATOM     38  H   LIG d   1       0.866  -0.335 -11.297  0.00  0.00     0.023 H 
ATOM     39  H   LIG d   1       2.108  -0.625 -12.539  0.00  0.00     0.023 H 
ATOM     40  H   LIG d   1       1.493  -1.980 -11.563  0.00  0.00     0.023 H 
ENDBRANCH  35  37
BRANCH  35  41
ATOM     41  C   LIG d   1       3.542   0.658 -10.819  0.00  0.00    -0.061 C 
ATOM     42  H   LIG d   1       3.237   1.405 -10.087  0.00  0.00     0.023 H 
ATOM     43  H   LIG d   1       4.622   0.521 -10.771  0.00  0.00     0.023 H 
ATOM     44  H   LIG d   1       3.263   0.994 -11.819  0.00  0.00     0.023 H 
ENDBRANCH  35  41
ENDBRANCH  32  35
ENDBRANCH   1  32
TORSDOF 9
ENDMDL
MODEL 4
REMARK VINA RESULT:      -5.1      2.116      3.742
REMARK  9 active torsions:
REMARK  status: ('A' for Active; 'I' for Inactive)
REMARK    1  A    between atoms: C_1  and  C_2 
REMARK    2  A    between atoms: C_2  and  C_3 
REMARK    3  A    between atoms: C_2  and  C_4 
REMARK    4  A    between atoms: C_4  and  N_5 
REMARK    5  A    between atoms: C_13  and  C_19 
REMARK    6  A    between atoms: C_19  and  O_21 
REMARK    7  A    between atoms: O_21  and  C_22 
REMARK    8  A    between atoms: C_22  and  C_23 
REMARK    9  A    between atoms: C_22  and  C_24 
ROOT
ATOM      1  N   LIG d   1       4.569  -1.093  -8.582  0.00  0.00    -0.298 N 
ATOM      2  C   LIG d   1       4.334  -2.406  -7.935  0.00  0.00     0.048 C 
ATOM      3  C   LIG d   1       5.227  -2.384  -6.735  0.00  0.00     0.116 C 
ATOM      4  C   LIG d   1       4.985  -3.152  -5.485  0.00  0.00    -0.052 C 
ATOM      5  C   LIG d   1       6.135  -3.031  -4.811  0.00  0.00    -0.056 C 
ATOM      6  C   LIG d   1       7.094  -2.215  -5.686  0.00  0.00     0.092 C 
ATOM      7  H   LIG d   1       8.157  -2.351  -5.487  0.00  0.00     0.065 H 
ATOM      8  O   LIG d   1       6.632  -2.615  -7.027  0.00  0.00    -0.359 OA
ATOM      9  C   LIG d   1       6.588  -0.737  -5.657  0.00  0.00     0.100 C 
ATOM     10  H   LIG d   1       7.256  -0.084  -6.218  0.00  0.00     0.045 H 
ATOM     11  C   LIG d   1       5.221  -0.857  -6.354  0.00  0.00     0.085 C 
ATOM     12  H   LIG d   1       4.391  -0.579  -5.704  0.00  0.00     0.043 H 
ATOM     13  C   LIG d   1       5.146  -0.224  -7.714  0.00  0.00     0.223 C 
ATOM     14  O   LIG d   1       5.541   0.888  -7.993  0.00  0.00    -0.275 OA
ATOM     15  H   LIG d   1       4.614  -3.218  -8.606  0.00  0.00     0.050 H 
ATOM     16  H   LIG d   1       3.290  -2.503  -7.633  0.00  0.00     0.050 H 
ATOM     17  H   LIG d   1       4.092  -3.682  -5.191  0.00  0.00     0.060 H 
ATOM     18  H   LIG d   1       6.349  -3.435  -3.832  0.00  0.00     0.060 H 
ENDROOT
BRANCH   9  19
ATOM     19  C   LIG d   1       6.429  -0.249  -4.240  0.00  0.00     0.314 C 
ATOM     20  O   LIG d   1       7.402  -0.116  -3.535  0.00  0.00    -0.250 OA
BRANCH  19  21
ATOM     21  O   LIG d   1       5.209   0.038  -3.761  0.00  0.00    -0.462 OA
BRANCH  21  22
ATOM     22  C   LIG d   1       4.954  -0.285  -2.368  0.00  0.00     0.098 C 
ATOM     23  H   LIG d   1       5.881  -0.614  -1.896  0.00  0.00     0.073 H 
BRANCH  22  24
ATOM     24  C   LIG d   1       4.427   0.956  -1.645  0.00  0.00    -0.028 C 
ATOM     25  H   LIG d   1       5.054   1.165  -0.778  0.00  0.00     0.026 H 
ATOM     26  H   LIG d   1       4.448   1.808  -2.323  0.00  0.00     0.026 H 
ATOM     27  H   LIG d   1       3.402   0.777  -1.317  0.00  0.00     0.026 H 
ENDBRANCH  22  24
BRANCH  22  28
ATOM     28  C   LIG d   1       3.914  -1.404  -2.286  0.00  0.00    -0.028 C 
ATOM     29  H   LIG d   1       4.270  -2.182  -1.609  0.00  0.00     0.026 H 
ATOM     30  H   LIG d   1       2.975  -0.999  -1.912  0.00  0.00     0.026 H 
ATOM     31  H   LIG d   1       3.759  -1.829  -3.277  0.00  0.00     0.026 H 
ENDBRANCH  22  28
ENDBRANCH  21  22
ENDBRANCH  19  21
ENDBRANCH   9  19
BRANCH   1  32
ATOM     32  C   LIG d   1       4.222  -0.776  -9.970  0.00  0.00     0.017 C 
ATOM     33  H   LIG d   1       4.546   0.239 -10.202  0.00  0.00     0.047 H 
ATOM     34  H   LIG d   1       4.721  -1.478 -10.638  0.00  0.00     0.047 H 
BRANCH  32  35
ATOM     35  C   LIG d   1       2.708  -0.884 -10.157  0.00  0.00    -0.031 C 
ATOM     36  H   LIG d   1       2.361  -1.838  -9.759  0.00  0.00     0.031 H 
BRANCH  35  37
ATOM     37  C   LIG d   1       2.019   0.260  -9.411  0.00  0.00    -0.061 C 
ATOM     38  H   LIG d   1       2.214   1.200  -9.928  0.00  0.00     0.023 H 
ATOM     39  H   LIG d   1       0.945   0.079  -9.379  0.00  0.00     0.023 H 
ATOM     40  H   LIG d   1       2.408   0.318  -8.395  0.00  0.00     0.023 H 
ENDBRANCH  35  37
BRANCH  35  41
ATOM     41  C   LIG d   1       2.370  -0.800 -11.646  0.00  0.00    -0.061 C 
ATOM     42  H   LIG d   1       1.750  -1.651 -11.928  0.00  0.00     0.023 H 
ATOM     43  H   LIG d   1       1.829   0.126 -11.844  0.00  0.00     0.023 H 
ATOM     44  H   LIG d   1       3.292  -0.813 -12.229  0.00  0.00     0.023 H 
ENDBRANCH  35  41
ENDBRANCH  32  35
ENDBRANCH   1  32
TORSDOF 9
ENDMDL
MODEL 5
REMARK VINA RESULT:      -5.1      2.537      6.415
REMARK  9 active torsions:
REMARK  status: ('A' for Active; 'I' for Inactive)
REMARK    1  A    between atoms: C_1  and  C_2 
REMARK    2  A    between atoms: C_2  and  C_3 
REMARK    3  A    between atoms: C_2  and  C_4 
REMARK    4  A    between atoms: C_4  and  N_5 
REMARK    5  A    between atoms: C_13  and  C_19 
REMARK    6  A    between atoms: C_19  and  O_21 
REMARK    7  A    between atoms: O_21  and  C_22 
REMARK    8  A    between atoms: C_22  and  C_23 
REMARK    9  A    between atoms: C_22  and  C_24 
ROOT
ATOM      1  N   LIG d   1       4.773  -0.585  -5.194  0.00  0.00    -0.298 N 
ATOM      2  C   LIG d   1       3.456  -0.075  -5.645  0.00  0.00     0.048 C 
ATOM      3  C   LIG d   1       3.555  -0.083  -7.138  0.00  0.00     0.116 C 
ATOM      4  C   LIG d   1       2.399  -0.214  -8.063  0.00  0.00    -0.052 C 
ATOM      5  C   LIG d   1       2.917   0.079  -9.262  0.00  0.00    -0.056 C 
ATOM      6  C   LIG d   1       4.393   0.430  -9.048  0.00  0.00     0.092 C 
ATOM      7  H   LIG d   1       4.854   1.053  -9.815  0.00  0.00     0.065 H 
ATOM      8  O   LIG d   1       4.333   1.011  -7.695  0.00  0.00    -0.359 OA
ATOM      9  C   LIG d   1       5.137  -0.908  -8.734  0.00  0.00     0.100 C 
ATOM     10  H   LIG d   1       6.208  -0.742  -8.621  0.00  0.00     0.045 H 
ATOM     11  C   LIG d   1       4.500  -1.316  -7.393  0.00  0.00     0.085 C 
ATOM     12  H   LIG d   1       3.963  -2.263  -7.454  0.00  0.00     0.043 H 
ATOM     13  C   LIG d   1       5.413  -1.227  -6.205  0.00  0.00     0.223 C 
ATOM     14  O   LIG d   1       6.544  -1.660  -6.155  0.00  0.00    -0.275 OA
ATOM     15  H   LIG d   1       3.292   0.938  -5.278  0.00  0.00     0.050 H 
ATOM     16  H   LIG d   1       2.655  -0.736  -5.312  0.00  0.00     0.050 H 
ATOM     17  H   LIG d   1       1.381  -0.482  -7.824  0.00  0.00     0.060 H 
ATOM     18  H   LIG d   1       2.391   0.071 -10.206  0.00  0.00     0.060 H 
ENDROOT
BRANCH   9  19
ATOM     19  C   LIG d   1       4.864  -1.939  -9.798  0.00  0.00     0.314 C 
ATOM     20  O   LIG d   1       4.236  -2.936  -9.526  0.00  0.00    -0.250 OA
BRANCH  19  21
ATOM     21  O   LIG d   1       5.315  -1.751 -11.048  0.00  0.00    -0.462 OA
BRANCH  21  22
ATOM     22  C   LIG d   1       4.335  -1.807 -12.118  0.00  0.00     0.098 C 
ATOM     23  H   LIG d   1       3.363  -2.083 -11.707  0.00  0.00     0.073 H 
BRANCH  22  24
ATOM     24  C   LIG d   1       4.234  -0.436 -12.789  0.00  0.00    -0.028 C 
ATOM     25  H   LIG d   1       3.450  -0.459 -13.546  0.00  0.00     0.026 H 
ATOM     26  H   LIG d   1       3.994   0.318 -12.040  0.00  0.00     0.026 H 
ATOM     27  H   LIG d   1       5.186  -0.191 -13.260  0.00  0.00     0.026 H 
ENDBRANCH  22  24
BRANCH  22  28
ATOM     28  C   LIG d   1       4.767  -2.850 -13.151  0.00  0.00    -0.028 C 
ATOM     29  H   LIG d   1       4.763  -2.401 -14.144  0.00  0.00     0.026 H 
ATOM     30  H   LIG d   1       5.771  -3.200 -12.915  0.00  0.00     0.026 H 
ATOM     31  H   LIG d   1       4.074  -3.690 -13.130  0.00  0.00     0.026 H 
ENDBRANCH  22  28
ENDBRANCH  21  22
ENDBRANCH  19  21
ENDBRANCH   9  19
BRANCH   1  32
ATOM     32  C   LIG d   1       5.311  -0.420  -3.841  0.00  0.00     0.017 C 
ATOM     33  H   LIG d   1       5.989  -1.243  -3.617  0.00  0.00     0.047 H 
ATOM     34  H   LIG d   1       5.852   0.525  -3.779  0.00  0.00     0.047 H 
BRANCH  32  35
ATOM     35  C   LIG d   1       4.161  -0.415  -2.832  0.00  0.00    -0.031 C 
ATOM     36  H   LIG d   1       3.232  -0.157  -3.341  0.00  0.00     0.031 H 
BRANCH  35  37
ATOM     37  C   LIG d   1       4.029  -1.802  -2.202  0.00  0.00    -0.061 C 
ATOM     38  H   LIG d   1       3.046  -2.212  -2.429  0.00  0.00     0.023 H 
ATOM     39  H   LIG d   1       4.799  -2.459  -2.605  0.00  0.00     0.023 H 
ATOM     40  H   LIG d   1       4.149  -1.723  -1.121  0.00  0.00     0.023 H 
ENDBRANCH  35  37
BRANCH  35  41
ATOM     41  C   LIG d   1       4.446   0.617  -1.739  0.00  0.00    -0.061 C 
ATOM     42  H   LIG d   1       3.537   1.177  -1.521  0.00  0.00     0.023 H 
ATOM     43  H   LIG d   1       4.785   0.107  -0.837  0.00  0.00     0.023 H 
ATOM     44  H   LIG d   1       5.222   1.304  -2.081  0.00  0.00     0.023 H 
ENDBRANCH  35  41
ENDBRANCH  32  35
ENDBRANCH   1  32
TORSDOF 9
ENDMDL
MODEL 6
REMARK VINA RESULT:      -5.1      3.003      6.998
REMARK  9 active torsions:
REMARK  status: ('A' for Active; 'I' for Inactive)
REMARK    1  A    between atoms: C_1  and  C_2 
REMARK    2  A    between atoms: C_2  and  C_3 
REMARK    3  A    between atoms: C_2  and  C_4 
REMARK    4  A    between atoms: C_4  and  N_5 
REMARK    5  A    between atoms: C_13  and  C_19 
REMARK    6  A    between atoms: C_19  and  O_21 
REMARK    7  A    between atoms: O_21  and  C_22 
REMARK    8  A    between atoms: C_22  and  C_23 
REMARK    9  A    between atoms: C_22  and  C_24 
ROOT
ATOM      1  N   LIG d   1       3.789  -0.660  -6.406  0.00  0.00    -0.298 N 
ATOM      2  C   LIG d   1       3.260   0.720  -6.521  0.00  0.00     0.048 C 
ATOM      3  C   LIG d   1       3.503   1.084  -7.953  0.00  0.00     0.116 C 
ATOM      4  C   LIG d   1       2.701   2.070  -8.724  0.00  0.00    -0.052 C 
ATOM      5  C   LIG d   1       3.416   2.256  -9.840  0.00  0.00    -0.056 C 
ATOM      6  C   LIG d   1       4.683   1.403  -9.719  0.00  0.00     0.092 C 
ATOM      7  H   LIG d   1       5.534   1.720 -10.322  0.00  0.00     0.065 H 
ATOM      8  O   LIG d   1       4.882   1.431  -8.259  0.00  0.00    -0.359 OA
ATOM      9  C   LIG d   1       4.247  -0.087  -9.903  0.00  0.00     0.100 C 
ATOM     10  H   LIG d   1       5.110  -0.752  -9.881  0.00  0.00     0.045 H 
ATOM     11  C   LIG d   1       3.351  -0.307  -8.671  0.00  0.00     0.085 C 
ATOM     12  H   LIG d   1       2.320  -0.543  -8.938  0.00  0.00     0.043 H 
ATOM     13  C   LIG d   1       3.919  -1.230  -7.632  0.00  0.00     0.223 C 
ATOM     14  O   LIG d   1       4.418  -2.313  -7.852  0.00  0.00    -0.275 OA
ATOM     15  H   LIG d   1       3.802   1.394  -5.858  0.00  0.00     0.050 H 
ATOM     16  H   LIG d   1       2.193   0.741  -6.299  0.00  0.00     0.050 H 
ATOM     17  H   LIG d   1       1.763   2.528  -8.448  0.00  0.00     0.060 H 
ATOM     18  H   LIG d   1       3.149   2.891 -10.672  0.00  0.00     0.060 H 
ENDROOT
BRANCH   9  19
ATOM     19  C   LIG d   1       3.465  -0.265 -11.179  0.00  0.00     0.314 C 
ATOM     20  O   LIG d   1       4.008  -0.106 -12.247  0.00  0.00    -0.250 OA
BRANCH  19  21
ATOM     21  O   LIG d   1       2.167  -0.602 -11.129  0.00  0.00    -0.462 OA
BRANCH  21  22
ATOM     22  C   LIG d   1       1.802  -1.904 -11.660  0.00  0.00     0.098 C 
ATOM     23  H   LIG d   1       2.607  -2.275 -12.296  0.00  0.00     0.073 H 
BRANCH  22  24
ATOM     24  C   LIG d   1       1.575  -2.880 -10.504  0.00  0.00    -0.028 C 
ATOM     25  H   LIG d   1       1.228  -2.332  -9.629  0.00  0.00     0.026 H 
ATOM     26  H   LIG d   1       0.825  -3.617 -10.793  0.00  0.00     0.026 H 
ATOM     27  H   LIG d   1       2.511  -3.388 -10.268  0.00  0.00     0.026 H 
ENDBRANCH  22  24
BRANCH  22  28
ATOM     28  C   LIG d   1       0.519  -1.779 -12.482  0.00  0.00    -0.028 C 
ATOM     29  H   LIG d   1      -0.039  -0.901 -12.154  0.00  0.00     0.026 H 
ATOM     30  H   LIG d   1       0.772  -1.674 -13.537  0.00  0.00     0.026 H 
ATOM     31  H   LIG d   1      -0.092  -2.670 -12.341  0.00  0.00     0.026 H 
ENDBRANCH  22  28
ENDBRANCH  21  22
ENDBRANCH  19  21
ENDBRANCH   9  19
BRANCH   1  32
ATOM     32  C   LIG d   1       4.124  -1.320  -5.142  0.00  0.00     0.017 C 
ATOM     33  H   LIG d   1       3.496  -2.202  -5.015  0.00  0.00     0.047 H 
ATOM     34  H   LIG d   1       5.173  -1.618  -5.155  0.00  0.00     0.047 H 
BRANCH  32  35
ATOM     35  C   LIG d   1       3.885  -0.352  -3.981  0.00  0.00    -0.031 C 
ATOM     36  H   LIG d   1       3.600   0.624  -4.376  0.00  0.00     0.031 H 
BRANCH  35  37
ATOM     37  C   LIG d   1       2.764  -0.890  -3.091  0.00  0.00    -0.061 C 
ATOM     38  H   LIG d   1       2.578  -1.936  -3.334  0.00  0.00     0.023 H 
ATOM     39  H   LIG d   1       3.059  -0.807  -2.045  0.00  0.00     0.023 H 
ATOM     40  H   LIG d   1       1.856  -0.310  -3.259  0.00  0.00     0.023 H 
ENDBRANCH  35  37
BRANCH  35  41
ATOM     41  C   LIG d   1       5.168  -0.213  -3.160  0.00  0.00    -0.061 C 
ATOM     42  H   LIG d   1       5.110  -0.857  -2.283  0.00  0.00     0.023 H 
ATOM     43  H   LIG d   1       6.023  -0.505  -3.770  0.00  0.00     0.023 H 
ATOM     44  H   LIG d   1       5.286   0.824  -2.843  0.00  0.00     0.023 H 
ENDBRANCH  35  41
ENDBRANCH  32  35
ENDBRANCH   1  32
TORSDOF 9
ENDMDL
MODEL 7
REMARK VINA RESULT:      -5.0      2.551      5.997
REMARK  9 active torsions:
REMARK  status: ('A' for Active; 'I' for Inactive)
REMARK    1  A    between atoms: C_1  and  C_2 
REMARK    2  A    between atoms: C_2  and  C_3 
REMARK    3  A    between atoms: C_2  and  C_4 
REMARK    4  A    between atoms: C_4  and  N_5 
REMARK    5  A    between atoms: C_13  and  C_19 
REMARK    6  A    between atoms: C_19  and  O_21 
REMARK    7  A    between atoms: O_21  and  C_22 
REMARK    8  A    between atoms: C_22  and  C_23 
REMARK    9  A    between atoms: C_22  and  C_24 
ROOT
ATOM      1  N   LIG d   1       5.829  -0.912  -3.772  0.00  0.00    -0.298 N 
ATOM      2  C   LIG d   1       6.893   0.105  -3.597  0.00  0.00     0.048 C 
ATOM      3  C   LIG d   1       7.436   0.305  -4.977  0.00  0.00     0.116 C 
ATOM      4  C   LIG d   1       8.083   1.553  -5.460  0.00  0.00    -0.052 C 
ATOM      5  C   LIG d   1       8.625   1.197  -6.631  0.00  0.00    -0.056 C 
ATOM      6  C   LIG d   1       8.335  -0.294  -6.834  0.00  0.00     0.092 C 
ATOM      7  H   LIG d   1       9.009  -0.827  -7.504  0.00  0.00     0.065 H 
ATOM      8  O   LIG d   1       8.322  -0.754  -5.433  0.00  0.00    -0.359 OA
ATOM      9  C   LIG d   1       6.813  -0.419  -7.171  0.00  0.00     0.100 C 
ATOM     10  H   LIG d   1       6.544  -1.454  -7.382  0.00  0.00     0.045 H 
ATOM     11  C   LIG d   1       6.159   0.066  -5.865  0.00  0.00     0.085 C 
ATOM     12  H   LIG d   1       5.558   0.964  -6.005  0.00  0.00     0.043 H 
ATOM     13  C   LIG d   1       5.457  -1.000  -5.075  0.00  0.00     0.223 C 
ATOM     14  O   LIG d   1       4.680  -1.813  -5.529  0.00  0.00    -0.275 OA
ATOM     15  H   LIG d   1       7.670  -0.266  -2.929  0.00  0.00     0.050 H 
ATOM     16  H   LIG d   1       6.473   1.036  -3.214  0.00  0.00     0.050 H 
ATOM     17  H   LIG d   1       8.109   2.519  -4.979  0.00  0.00     0.060 H 
ATOM     18  H   LIG d   1       9.167   1.841  -7.307  0.00  0.00     0.060 H 
ENDROOT
BRANCH   9  19
ATOM     19  C   LIG d   1       6.443   0.476  -8.325  0.00  0.00     0.314 C 
ATOM     20  O   LIG d   1       6.958   0.312  -9.407  0.00  0.00    -0.250 OA
BRANCH  19  21
ATOM     21  O   LIG d   1       5.540   1.455  -8.154  0.00  0.00    -0.462 OA
BRANCH  21  22
ATOM     22  C   LIG d   1       4.291   1.335  -8.884  0.00  0.00     0.098 C 
ATOM     23  H   LIG d   1       4.425   0.652  -9.724  0.00  0.00     0.073 H 
BRANCH  22  24
ATOM     24  C   LIG d   1       3.206   0.791  -7.953  0.00  0.00    -0.028 C 
ATOM     25  H   LIG d   1       3.044   1.492  -7.135  0.00  0.00     0.026 H 
ATOM     26  H   LIG d   1       2.279   0.663  -8.511  0.00  0.00     0.026 H 
ATOM     27  H   LIG d   1       3.523  -0.171  -7.549  0.00  0.00     0.026 H 
ENDBRANCH  22  24
BRANCH  22  28
ATOM     28  C   LIG d   1       3.872   2.710  -9.407  0.00  0.00    -0.028 C 
ATOM     29  H   LIG d   1       3.240   2.587 -10.287  0.00  0.00     0.026 H 
ATOM     30  H   LIG d   1       3.317   3.239  -8.633  0.00  0.00     0.026 H 
ATOM     31  H   LIG d   1       4.759   3.282  -9.676  0.00  0.00     0.026 H 
ENDBRANCH  22  28
ENDBRANCH  21  22
ENDBRANCH  19  21
ENDBRANCH   9  19
BRANCH   1  32
ATOM     32  C   LIG d   1       5.257  -1.714  -2.688  0.00  0.00     0.017 C 
ATOM     33  H   LIG d   1       4.852  -2.640  -3.095  0.00  0.00     0.047 H 
ATOM     34  H   LIG d   1       6.034  -1.946  -1.959  0.00  0.00     0.047 H 
BRANCH  32  35
ATOM     35  C   LIG d   1       4.138  -0.924  -2.005  0.00  0.00    -0.031 C 
ATOM     36  H   LIG d   1       3.920  -1.370  -1.034  0.00  0.00     0.031 H 
BRANCH  35  37
ATOM     37  C   LIG d   1       4.582   0.527  -1.813  0.00  0.00    -0.061 C 
ATOM     38  H   LIG d   1       4.704   0.732  -0.749  0.00  0.00     0.023 H 
ATOM     39  H   LIG d   1       5.530   0.688  -2.325  0.00  0.00     0.023 H 
ATOM     40  H   LIG d   1       3.828   1.196  -2.227  0.00  0.00     0.023 H 
ENDBRANCH  35  37
BRANCH  35  41
ATOM     41  C   LIG d   1       2.882  -0.962  -2.876  0.00  0.00    -0.061 C 
ATOM     42  H   LIG d   1       3.139  -0.690  -3.900  0.00  0.00     0.023 H 
ATOM     43  H   LIG d   1       2.460  -1.968  -2.863  0.00  0.00     0.023 H 
ATOM     44  H   LIG d   1       2.147  -0.256  -2.486  0.00  0.00     0.023 H 
ENDBRANCH  35  41
ENDBRANCH  32  35
ENDBRANCH   1  32
TORSDOF 9
ENDMDL
MODEL 8
REMARK VINA RESULT:      -4.9      2.799      6.621
REMARK  9 active torsions:
REMARK  status: ('A' for Active; 'I' for Inactive)
REMARK    1  A    between atoms: C_1  and  C_2 
REMARK    2  A    between atoms: C_2  and  C_3 
REMARK    3  A    between atoms: C_2  and  C_4 
REMARK    4  A    between atoms: C_4  and  N_5 
REMARK    5  A    between atoms: C_13  and  C_19 
REMARK    6  A    between atoms: C_19  and  O_21 
REMARK    7  A    between atoms: O_21  and  C_22 
REMARK    8  A    between atoms: C_22  and  C_23 
REMARK    9  A    between atoms: C_22  and  C_24 
ROOT
ATOM      1  N   LIG d   1       4.050  -0.273  -5.021  0.00  0.00    -0.298 N 
ATOM      2  C   LIG d   1       5.384  -0.867  -5.275  0.00  0.00     0.048 C 
ATOM      3  C   LIG d   1       5.272  -1.435  -6.655  0.00  0.00     0.116 C 
ATOM      4  C   LIG d   1       6.414  -1.626  -7.588  0.00  0.00    -0.052 C 
ATOM      5  C   LIG d   1       5.899  -2.375  -8.570  0.00  0.00    -0.056 C 
ATOM      6  C   LIG d   1       4.442  -2.672  -8.202  0.00  0.00     0.092 C 
ATOM      7  H   LIG d   1       4.003  -3.558  -8.661  0.00  0.00     0.065 H 
ATOM      8  O   LIG d   1       4.538  -2.688  -6.732  0.00  0.00    -0.359 OA
ATOM      9  C   LIG d   1       3.643  -1.344  -8.405  0.00  0.00     0.100 C 
ATOM     10  H   LIG d   1       2.581  -1.494  -8.212  0.00  0.00     0.045 H 
ATOM     11  C   LIG d   1       4.273  -0.431  -7.339  0.00  0.00     0.085 C 
ATOM     12  H   LIG d   1       4.766   0.440  -7.770  0.00  0.00     0.043 H 
ATOM     13  C   LIG d   1       3.374  -0.091  -6.185  0.00  0.00     0.223 C 
ATOM     14  O   LIG d   1       2.225   0.285  -6.277  0.00  0.00    -0.275 OA
ATOM     15  H   LIG d   1       5.595  -1.655  -4.552  0.00  0.00     0.050 H 
ATOM     16  H   LIG d   1       6.158  -0.100  -5.240  0.00  0.00     0.050 H 
ATOM     17  H   LIG d   1       7.421  -1.249  -7.494  0.00  0.00     0.060 H 
ATOM     18  H   LIG d   1       6.416  -2.709  -9.458  0.00  0.00     0.060 H 
ENDROOT
BRANCH   9  19
ATOM     19  C   LIG d   1       3.862  -0.790  -9.789  0.00  0.00     0.314 C 
ATOM     20  O   LIG d   1       4.335   0.314  -9.930  0.00  0.00    -0.250 OA
BRANCH  19  21
ATOM     21  O   LIG d   1       3.534  -1.521 -10.866  0.00  0.00    -0.462 OA
BRANCH  21  22
ATOM     22  C   LIG d   1       2.699  -0.882 -11.868  0.00  0.00     0.098 C 
ATOM     23  H   LIG d   1       2.906   0.188 -11.884  0.00  0.00     0.073 H 
BRANCH  22  24
ATOM     24  C   LIG d   1       3.002  -1.482 -13.242  0.00  0.00    -0.028 C 
ATOM     25  H   LIG d   1       3.638  -2.359 -13.123  0.00  0.00     0.026 H 
ATOM     26  H   LIG d   1       2.070  -1.771 -13.726  0.00  0.00     0.026 H 
ATOM     27  H   LIG d   1       3.517  -0.741 -13.855  0.00  0.00     0.026 H 
ENDBRANCH  22  24
BRANCH  22  28
ATOM     28  C   LIG d   1       1.225  -1.111 -11.525  0.00  0.00    -0.028 C 
ATOM     29  H   LIG d   1       1.142  -1.923 -10.802  0.00  0.00     0.026 H 
ATOM     30  H   LIG d   1       0.806  -0.201 -11.098  0.00  0.00     0.026 H 
ATOM     31  H   LIG d   1       0.679  -1.374 -12.430  0.00  0.00     0.026 H 
ENDBRANCH  22  28
ENDBRANCH  21  22
ENDBRANCH  19  21
ENDBRANCH   9  19
BRANCH   1  32
ATOM     32  C   LIG d   1       3.531   0.073  -3.695  0.00  0.00     0.017 C 
ATOM     33  H   LIG d   1       3.266   1.130  -3.674  0.00  0.00     0.047 H 
ATOM     34  H   LIG d   1       2.647  -0.529  -3.484  0.00  0.00     0.047 H 
BRANCH  32  35
ATOM     35  C   LIG d   1       4.602  -0.207  -2.639  0.00  0.00    -0.031 C 
ATOM     36  H   LIG d   1       5.576  -0.288  -3.123  0.00  0.00     0.031 H 
BRANCH  35  37
ATOM     37  C   LIG d   1       4.629   0.937  -1.625  0.00  0.00    -0.061 C 
ATOM     38  H   LIG d   1       5.278   0.668  -0.792  0.00  0.00     0.023 H 
ATOM     39  H   LIG d   1       5.009   1.839  -2.105  0.00  0.00     0.023 H 
ATOM     40  H   LIG d   1       3.620   1.119  -1.255  0.00  0.00     0.023 H 
ENDBRANCH  35  37
BRANCH  35  41
ATOM     41  C   LIG d   1       4.280  -1.519  -1.921  0.00  0.00    -0.061 C 
ATOM     42  H   LIG d   1       4.196  -2.323  -2.651  0.00  0.00     0.023 H 
ATOM     43  H   LIG d   1       5.076  -1.751  -1.213  0.00  0.00     0.023 H 
ATOM     44  H   LIG d   1       3.335  -1.416  -1.384  0.00  0.00     0.023 H 
ENDBRANCH  35  41
ENDBRANCH  32  35
ENDBRANCH   1  32
TORSDOF 9
ENDMDL
MODEL 9
REMARK VINA RESULT:      -4.8      3.060      6.233
REMARK  9 active torsions:
REMARK  status: ('A' for Active; 'I' for Inactive)
REMARK    1  A    between atoms: C_1  and  C_2 
REMARK    2  A    between atoms: C_2  and  C_3 
REMARK    3  A    between atoms: C_2  and  C_4 
REMARK    4  A    between atoms: C_4  and  N_5 
REMARK    5  A    between atoms: C_13  and  C_19 
REMARK    6  A    between atoms: C_19  and  O_21 
REMARK    7  A    between atoms: O_21  and  C_22 
REMARK    8  A    between atoms: C_22  and  C_23 
REMARK    9  A    between atoms: C_22  and  C_24 
ROOT
ATOM      1  N   LIG d   1       5.500  -5.743  -5.892  0.00  0.00    -0.298 N 
ATOM      2  C   LIG d   1       6.757  -5.169  -5.356  0.00  0.00     0.048 C 
ATOM      3  C   LIG d   1       6.594  -3.694  -5.551  0.00  0.00     0.116 C 
ATOM      4  C   LIG d   1       7.253  -2.652  -4.721  0.00  0.00    -0.052 C 
ATOM      5  C   LIG d   1       7.031  -1.519  -5.399  0.00  0.00    -0.056 C 
ATOM      6  C   LIG d   1       6.263  -1.891  -6.672  0.00  0.00     0.092 C 
ATOM      7  H   LIG d   1       6.341  -1.189  -7.502  0.00  0.00     0.065 H 
ATOM      8  O   LIG d   1       6.799  -3.242  -6.918  0.00  0.00    -0.359 OA
ATOM      9  C   LIG d   1       4.807  -2.255  -6.234  0.00  0.00     0.100 C 
ATOM     10  H   LIG d   1       4.184  -2.481  -7.099  0.00  0.00     0.045 H 
ATOM     11  C   LIG d   1       5.040  -3.514  -5.379  0.00  0.00     0.085 C 
ATOM     12  H   LIG d   1       4.735  -3.379  -4.341  0.00  0.00     0.043 H 
ATOM     13  C   LIG d   1       4.536  -4.792  -5.984  0.00  0.00     0.223 C 
ATOM     14  O   LIG d   1       3.439  -4.950  -6.478  0.00  0.00    -0.275 OA
ATOM     15  H   LIG d   1       7.615  -5.537  -5.917  0.00  0.00     0.050 H 
ATOM     16  H   LIG d   1       6.864  -5.404  -4.296  0.00  0.00     0.050 H 
ATOM     17  H   LIG d   1       7.787  -2.779  -3.792  0.00  0.00     0.060 H 
ATOM     18  H   LIG d   1       7.336  -0.526  -5.103  0.00  0.00     0.060 H 
ENDROOT
BRANCH   9  19
ATOM     19  C   LIG d   1       4.200  -1.148  -5.411  0.00  0.00     0.314 C 
ATOM     20  O   LIG d   1       4.165  -0.021  -5.847  0.00  0.00    -0.250 OA
BRANCH  19  21
ATOM     21  O   LIG d   1       3.696  -1.414  -4.196  0.00  0.00    -0.462 OA
BRANCH  21  22
ATOM     22  C   LIG d   1       4.247  -0.670  -3.077  0.00  0.00     0.098 C 
ATOM     23  H   LIG d   1       5.179  -0.193  -3.382  0.00  0.00     0.073 H 
BRANCH  22  24
ATOM     24  C   LIG d   1       3.248   0.399  -2.633  0.00  0.00    -0.028 C 
ATOM     25  H   LIG d   1       3.327   1.265  -3.290  0.00  0.00     0.026 H 
ATOM     26  H   LIG d   1       2.237  -0.005  -2.684  0.00  0.00     0.026 H 
ATOM     27  H   LIG d   1       3.468   0.700  -1.608  0.00  0.00     0.026 H 
ENDBRANCH  22  24
BRANCH  22  28
ATOM     28  C   LIG d   1       4.520  -1.627  -1.914  0.00  0.00    -0.028 C 
ATOM     29  H   LIG d   1       3.984  -2.561  -2.079  0.00  0.00     0.026 H 
ATOM     30  H   LIG d   1       5.589  -1.828  -1.853  0.00  0.00     0.026 H 
ATOM     31  H   LIG d   1       4.181  -1.173  -0.984  0.00  0.00     0.026 H 
ENDBRANCH  22  28
ENDBRANCH  21  22
ENDBRANCH  19  21
ENDBRANCH   9  19
BRANCH   1  32
ATOM     32  C   LIG d   1       5.322  -7.148  -6.270  0.00  0.00     0.017 C 
ATOM     33  H   LIG d   1       4.266  -7.342  -6.459  0.00  0.00     0.047 H 
ATOM     34  H   LIG d   1       5.898  -7.356  -7.173  0.00  0.00     0.047 H 
BRANCH  32  35
ATOM     35  C   LIG d   1       5.811  -8.048  -5.134  0.00  0.00    -0.031 C 
ATOM     36  H   LIG d   1       6.087  -7.434  -4.278  0.00  0.00     0.031 H 
BRANCH  35  37
ATOM     37  C   LIG d   1       4.695  -9.013  -4.732  0.00  0.00    -0.061 C 
ATOM     38  H   LIG d   1       3.903  -8.985  -5.480  0.00  0.00     0.023 H 
ATOM     39  H   LIG d   1       5.095 -10.024  -4.664  0.00  0.00     0.023 H 
ATOM     40  H   LIG d   1       4.290  -8.717  -3.764  0.00  0.00     0.023 H 
ENDBRANCH  35  37
BRANCH  35  41
ATOM     41  C   LIG d   1       7.030  -8.845  -5.604  0.00  0.00    -0.061 C 
ATOM     42  H   LIG d   1       7.631  -8.230  -6.273  0.00  0.00     0.023 H 
ATOM     43  H   LIG d   1       7.629  -9.136  -4.740  0.00  0.00     0.023 H 
ATOM     44  H   LIG d   1       6.698  -9.739  -6.133  0.00  0.00     0.023 H 
ENDBRANCH  35  41
ENDBRANCH  32  35
ENDBRANCH   1  32
TORSDOF 9
ENDMDL
