MODEL 1
REMARK VINA RESULT:      -6.4      0.000      0.000
REMARK  4 active torsions:
REMARK  status: ('A' for Active; 'I' for Inactive)
REMARK    1  A    between atoms: C_1  and  C_2 
REMARK    2  A    between atoms: C_13  and  O_15 
REMARK    3  A    between atoms: C_20  and  C_28 
REMARK    4  A    between atoms: C_23  and  O_24 
ROOT
ATOM      1  C   LIG d   1       4.607  -0.376  -3.063  0.00  0.00    -0.003 C 
ATOM      2  C   LIG d   1       4.909  -1.757  -2.537  0.00  0.00    -0.045 C 
ATOM      3  C   LIG d   1       4.819  -2.806  -3.656  0.00  0.00    -0.049 C 
ATOM      4  C   LIG d   1       5.083  -2.176  -5.015  0.00  0.00    -0.032 C 
ATOM      5  H   LIG d   1       6.033  -1.637  -4.989  0.00  0.00     0.031 H 
ATOM      6  C   LIG d   1       3.949  -1.208  -5.368  0.00  0.00    -0.034 C 
ATOM      7  H   LIG d   1       3.076  -1.819  -5.675  0.00  0.00     0.031 H 
ATOM      8  C   LIG d   1       3.533  -0.417  -4.168  0.00  0.00    -0.030 C 
ATOM      9  H   LIG d   1       2.616  -0.884  -3.744  0.00  0.00     0.031 H 
ATOM     10  C   LIG d   1       3.230   1.074  -4.375  0.00  0.00    -0.047 C 
ATOM     11  C   LIG d   1       3.252   1.640  -2.927  0.00  0.00    -0.026 C 
ATOM     12  C   LIG d   1       3.917   0.557  -2.043  0.00  0.00     0.061 C 
ATOM     13  H   LIG d   1       3.173   0.004  -1.481  0.00  0.00     0.060 H 
ATOM     14  C   LIG d   1       4.370  -0.373  -6.571  0.00  0.00    -0.049 C 
ATOM     15  C   LIG d   1       4.688  -1.328  -7.728  0.00  0.00    -0.049 C 
ATOM     16  C   LIG d   1       4.379  -2.771  -7.336  0.00  0.00    -0.028 C 
ATOM     17  H   LIG d   1       3.313  -2.852  -7.081  0.00  0.00     0.031 H 
ATOM     18  C   LIG d   1       5.211  -3.216  -6.130  0.00  0.00    -0.022 C 
ATOM     19  C   LIG d   1       4.671  -4.562  -5.638  0.00  0.00    -0.016 C 
ATOM     20  C   LIG d   1       4.612  -5.537  -6.779  0.00  0.00     0.029 C 
ATOM     21  C   LIG d   1       4.571  -6.857  -6.501  0.00  0.00     0.087 C 
ATOM     22  C   LIG d   1       4.602  -5.131  -8.115  0.00  0.00     0.162 C 
ATOM     23  O   LIG d   1       4.550  -5.983  -8.981  0.00  0.00    -0.292 OA
ATOM     24  C   LIG d   1       4.651  -3.689  -8.528  0.00  0.00     0.014 C 
ATOM     25  H   LIG d   1       5.915  -1.775  -2.099  0.00  0.00     0.027 H 
ATOM     26  H   LIG d   1       4.194  -2.012  -1.743  0.00  0.00     0.027 H 
ATOM     27  H   LIG d   1       3.820  -3.252  -3.648  0.00  0.00     0.027 H 
ATOM     28  H   LIG d   1       5.551  -3.595  -3.466  0.00  0.00     0.027 H 
ATOM     29  H   LIG d   1       2.238   1.201  -4.815  0.00  0.00     0.027 H 
ATOM     30  H   LIG d   1       3.981   1.554  -4.996  0.00  0.00     0.027 H 
ATOM     31  H   LIG d   1       2.235   1.829  -2.587  0.00  0.00     0.029 H 
ATOM     32  H   LIG d   1       3.834   2.560  -2.896  0.00  0.00     0.029 H 
ATOM     33  H   LIG d   1       3.556   0.289  -6.866  0.00  0.00     0.027 H 
ATOM     34  H   LIG d   1       5.256   0.213  -6.335  0.00  0.00     0.027 H 
ATOM     35  H   LIG d   1       5.735  -1.226  -8.003  0.00  0.00     0.027 H 
ATOM     36  H   LIG d   1       4.068  -1.052  -8.586  0.00  0.00     0.027 H 
ATOM     37  H   LIG d   1       5.327  -4.959  -4.865  0.00  0.00     0.032 H 
ATOM     38  H   LIG d   1       3.668  -4.427  -5.234  0.00  0.00     0.032 H 
ATOM     39  H   LIG d   1       4.531  -7.577  -7.305  0.00  0.00     0.102 H 
ATOM     40  H   LIG d   1       3.877  -3.519  -9.286  0.00  0.00     0.035 H 
ATOM     41  H   LIG d   1       5.617  -3.463  -8.971  0.00  0.00     0.035 H 
ENDROOT
BRANCH   1  42
ATOM     42  C   LIG d   1       5.886   0.334  -3.511  0.00  0.00    -0.057 C 
ATOM     43  H   LIG d   1       5.660   1.375  -3.745  0.00  0.00     0.024 H 
ATOM     44  H   LIG d   1       6.624   0.294  -2.710  0.00  0.00     0.024 H 
ATOM     45  H   LIG d   1       6.284  -0.159  -4.397  0.00  0.00     0.024 H 
ENDBRANCH   1  42
BRANCH  12  46
ATOM     46  O   LIG d   1       4.896   1.139  -1.184  0.00  0.00    -0.391 OA
ATOM     47  H   LIG d   1       4.712   2.058  -0.946  0.00  0.00     0.210 HD
ENDBRANCH  12  46
BRANCH  18  48
ATOM     48  C   LIG d   1       6.687  -3.362  -6.510  0.00  0.00    -0.059 C 
ATOM     49  H   LIG d   1       6.828  -4.286  -7.070  0.00  0.00     0.024 H 
ATOM     50  H   LIG d   1       6.990  -2.514  -7.124  0.00  0.00     0.024 H 
ATOM     51  H   LIG d   1       7.294  -3.389  -5.604  0.00  0.00     0.024 H 
ENDBRANCH  18  48
BRANCH  21  52
ATOM     52  O   LIG d   1       4.580  -7.275  -5.222  0.00  0.00    -0.514 OA
ATOM     53  H   LIG d   1       4.351  -6.511  -4.619  0.00  0.00     0.291 HD
ENDBRANCH  21  52
TORSDOF 4
ENDMDL
MODEL 2
REMARK VINA RESULT:      -6.3      3.086      4.376
REMARK  4 active torsions:
REMARK  status: ('A' for Active; 'I' for Inactive)
REMARK    1  A    between atoms: C_1  and  C_2 
REMARK    2  A    between atoms: C_13  and  O_15 
REMARK    3  A    between atoms: C_20  and  C_28 
REMARK    4  A    between atoms: C_23  and  O_24 
ROOT
ATOM      1  C   LIG d   1       4.935  -0.085  -3.815  0.00  0.00    -0.003 C 
ATOM      2  C   LIG d   1       6.337   0.471  -3.800  0.00  0.00    -0.045 C 
ATOM      3  C   LIG d   1       7.376  -0.649  -3.969  0.00  0.00    -0.049 C 
ATOM      4  C   LIG d   1       6.781  -1.836  -4.711  0.00  0.00    -0.032 C 
ATOM      5  H   LIG d   1       6.340  -1.496  -5.651  0.00  0.00     0.031 H 
ATOM      6  C   LIG d   1       5.706  -2.502  -3.846  0.00  0.00    -0.034 C 
ATOM      7  H   LIG d   1       6.228  -3.087  -3.062  0.00  0.00     0.031 H 
ATOM      8  C   LIG d   1       4.873  -1.474  -3.149  0.00  0.00    -0.030 C 
ATOM      9  H   LIG d   1       5.244  -1.375  -2.104  0.00  0.00     0.031 H 
ATOM     10  C   LIG d   1       3.360  -1.724  -3.072  0.00  0.00    -0.047 C 
ATOM     11  C   LIG d   1       2.793  -0.328  -2.687  0.00  0.00    -0.026 C 
ATOM     12  C   LIG d   1       3.934   0.690  -2.930  0.00  0.00     0.061 C 
ATOM     13  H   LIG d   1       4.408   0.972  -1.997  0.00  0.00     0.060 H 
ATOM     14  C   LIG d   1       4.922  -3.486  -4.706  0.00  0.00    -0.049 C 
ATOM     15  C   LIG d   1       5.908  -4.510  -5.282  0.00  0.00    -0.049 C 
ATOM     16  C   LIG d   1       7.312  -4.276  -4.726  0.00  0.00    -0.028 C 
ATOM     17  H   LIG d   1       7.285  -4.374  -3.632  0.00  0.00     0.031 H 
ATOM     18  C   LIG d   1       7.833  -2.883  -5.086  0.00  0.00    -0.022 C 
ATOM     19  C   LIG d   1       9.117  -2.624  -4.290  0.00  0.00    -0.016 C 
ATOM     20  C   LIG d   1      10.085  -3.753  -4.504  0.00  0.00     0.029 C 
ATOM     21  C   LIG d   1      11.393  -3.539  -4.250  0.00  0.00     0.087 C 
ATOM     22  C   LIG d   1       9.685  -5.011  -4.957  0.00  0.00     0.162 C 
ATOM     23  O   LIG d   1      10.531  -5.872  -5.102  0.00  0.00    -0.292 OA
ATOM     24  C   LIG d   1       8.257  -5.346  -5.274  0.00  0.00     0.014 C 
ATOM     25  H   LIG d   1       6.455   1.203  -4.608  0.00  0.00     0.027 H 
ATOM     26  H   LIG d   1       6.516   0.990  -2.849  0.00  0.00     0.027 H 
ATOM     27  H   LIG d   1       7.720  -0.969  -2.981  0.00  0.00     0.027 H 
ATOM     28  H   LIG d   1       8.234  -0.259  -4.524  0.00  0.00     0.027 H 
ATOM     29  H   LIG d   1       3.136  -2.451  -2.289  0.00  0.00     0.027 H 
ATOM     30  H   LIG d   1       2.960  -2.061  -4.024  0.00  0.00     0.027 H 
ATOM     31  H   LIG d   1       2.502  -0.322  -1.638  0.00  0.00     0.029 H 
ATOM     32  H   LIG d   1       1.936  -0.088  -3.315  0.00  0.00     0.029 H 
ATOM     33  H   LIG d   1       4.183  -4.005  -4.096  0.00  0.00     0.027 H 
ATOM     34  H   LIG d   1       4.427  -2.966  -5.523  0.00  0.00     0.027 H 
ATOM     35  H   LIG d   1       5.912  -4.437  -6.366  0.00  0.00     0.027 H 
ATOM     36  H   LIG d   1       5.575  -5.511  -4.996  0.00  0.00     0.027 H 
ATOM     37  H   LIG d   1       9.574  -1.695  -4.626  0.00  0.00     0.032 H 
ATOM     38  H   LIG d   1       8.880  -2.555  -3.229  0.00  0.00     0.032 H 
ATOM     39  H   LIG d   1      12.109  -4.334  -4.399  0.00  0.00     0.102 H 
ATOM     40  H   LIG d   1       8.013  -6.305  -4.801  0.00  0.00     0.035 H 
ATOM     41  H   LIG d   1       8.130  -5.455  -6.347  0.00  0.00     0.035 H 
ENDROOT
BRANCH   1  42
ATOM     42  C   LIG d   1       4.358  -0.085  -5.232  0.00  0.00    -0.057 C 
ATOM     43  H   LIG d   1       3.377  -0.561  -5.225  0.00  0.00     0.024 H 
ATOM     44  H   LIG d   1       4.261   0.942  -5.586  0.00  0.00     0.024 H 
ATOM     45  H   LIG d   1       5.024  -0.636  -5.896  0.00  0.00     0.024 H 
ENDBRANCH   1  42
BRANCH  12  46
ATOM     46  O   LIG d   1       3.449   1.830  -3.636  0.00  0.00    -0.391 OA
ATOM     47  H   LIG d   1       2.999   2.477  -3.076  0.00  0.00     0.210 HD
ENDBRANCH  12  46
BRANCH  18  48
ATOM     48  C   LIG d   1       8.127  -2.780  -6.585  0.00  0.00    -0.059 C 
ATOM     49  H   LIG d   1       8.953  -3.444  -6.840  0.00  0.00     0.024 H 
ATOM     50  H   LIG d   1       7.241  -3.068  -7.150  0.00  0.00     0.024 H 
ATOM     51  H   LIG d   1       8.398  -1.752  -6.832  0.00  0.00     0.024 H 
ENDBRANCH  18  48
BRANCH  21  52
ATOM     52  O   LIG d   1      11.805  -2.335  -3.812  0.00  0.00    -0.514 OA
ATOM     53  H   LIG d   1      12.037  -2.395  -2.841  0.00  0.00     0.291 HD
ENDBRANCH  21  52
TORSDOF 4
ENDMDL
MODEL 3
REMARK VINA RESULT:      -6.2      3.773      6.827
REMARK  4 active torsions:
REMARK  status: ('A' for Active; 'I' for Inactive)
REMARK    1  A    between atoms: C_1  and  C_2 
REMARK    2  A    between atoms: C_13  and  O_15 
REMARK    3  A    between atoms: C_20  and  C_28 
REMARK    4  A    between atoms: C_23  and  O_24 
ROOT
ATOM      1  C   LIG d   1       4.761  -0.384  -3.460  0.00  0.00    -0.003 C 
ATOM      2  C   LIG d   1       5.032   0.985  -2.889  0.00  0.00    -0.045 C 
ATOM      3  C   LIG d   1       6.497   1.395  -3.110  0.00  0.00    -0.049 C 
ATOM      4  C   LIG d   1       7.083   0.685  -4.321  0.00  0.00    -0.032 C 
ATOM      5  H   LIG d   1       6.441   0.851  -5.188  0.00  0.00     0.031 H 
ATOM      6  C   LIG d   1       7.193  -0.817  -4.039  0.00  0.00    -0.034 C 
ATOM      7  H   LIG d   1       8.063  -0.964  -3.367  0.00  0.00     0.031 H 
ATOM      8  C   LIG d   1       5.984  -1.310  -3.309  0.00  0.00    -0.030 C 
ATOM      9  H   LIG d   1       6.235  -1.380  -2.227  0.00  0.00     0.031 H 
ATOM     10  C   LIG d   1       5.410  -2.670  -3.732  0.00  0.00    -0.047 C 
ATOM     11  C   LIG d   1       3.990  -2.663  -3.098  0.00  0.00    -0.026 C 
ATOM     12  C   LIG d   1       3.701  -1.199  -2.685  0.00  0.00     0.061 C 
ATOM     13  H   LIG d   1       3.838  -1.061  -1.619  0.00  0.00     0.060 H 
ATOM     14  C   LIG d   1       7.494  -1.542  -5.344  0.00  0.00    -0.049 C 
ATOM     15  C   LIG d   1       8.797  -0.972  -5.920  0.00  0.00    -0.049 C 
ATOM     16  C   LIG d   1       9.411   0.043  -4.957  0.00  0.00    -0.028 C 
ATOM     17  H   LIG d   1       9.625  -0.455  -4.001  0.00  0.00     0.031 H 
ATOM     18  C   LIG d   1       8.466   1.219  -4.703  0.00  0.00    -0.022 C 
ATOM     19  C   LIG d   1       9.028   2.053  -3.548  0.00  0.00    -0.016 C 
ATOM     20  C   LIG d   1      10.457   2.420  -3.832  0.00  0.00     0.029 C 
ATOM     21  C   LIG d   1      10.999   3.469  -3.176  0.00  0.00     0.087 C 
ATOM     22  C   LIG d   1      11.245   1.723  -4.750  0.00  0.00     0.162 C 
ATOM     23  O   LIG d   1      12.393   2.081  -4.921  0.00  0.00    -0.292 OA
ATOM     24  C   LIG d   1      10.734   0.549  -5.533  0.00  0.00     0.014 C 
ATOM     25  H   LIG d   1       4.371   1.722  -3.360  0.00  0.00     0.027 H 
ATOM     26  H   LIG d   1       4.817   0.982  -1.811  0.00  0.00     0.027 H 
ATOM     27  H   LIG d   1       7.078   1.141  -2.219  0.00  0.00     0.027 H 
ATOM     28  H   LIG d   1       6.546   2.478  -3.257  0.00  0.00     0.027 H 
ATOM     29  H   LIG d   1       6.008  -3.481  -3.310  0.00  0.00     0.027 H 
ATOM     30  H   LIG d   1       5.357  -2.765  -4.812  0.00  0.00     0.027 H 
ATOM     31  H   LIG d   1       3.972  -3.309  -2.222  0.00  0.00     0.029 H 
ATOM     32  H   LIG d   1       3.255  -3.000  -3.827  0.00  0.00     0.029 H 
ATOM     33  H   LIG d   1       7.623  -2.608  -5.155  0.00  0.00     0.027 H 
ATOM     34  H   LIG d   1       6.688  -1.389  -6.058  0.00  0.00     0.027 H 
ATOM     35  H   LIG d   1       8.593  -0.508  -6.881  0.00  0.00     0.027 H 
ATOM     36  H   LIG d   1       9.501  -1.795  -6.066  0.00  0.00     0.027 H 
ATOM     37  H   LIG d   1       8.443   2.964  -3.435  0.00  0.00     0.032 H 
ATOM     38  H   LIG d   1       8.987   1.474  -2.626  0.00  0.00     0.032 H 
ATOM     39  H   LIG d   1      12.023   3.753  -3.366  0.00  0.00     0.102 H 
ATOM     40  H   LIG d   1      11.475  -0.257  -5.472  0.00  0.00     0.035 H 
ATOM     41  H   LIG d   1      10.616   0.823  -6.578  0.00  0.00     0.035 H 
ENDROOT
BRANCH   1  42
ATOM     42  C   LIG d   1       4.270  -0.289  -4.906  0.00  0.00    -0.057 C 
ATOM     43  H   LIG d   1       5.039   0.177  -5.521  0.00  0.00     0.024 H 
ATOM     44  H   LIG d   1       4.058  -1.289  -5.285  0.00  0.00     0.024 H 
ATOM     45  H   LIG d   1       3.362   0.313  -4.943  0.00  0.00     0.024 H 
ENDBRANCH   1  42
BRANCH  12  46
ATOM     46  O   LIG d   1       2.395  -0.807  -3.101  0.00  0.00    -0.391 OA
ATOM     47  H   LIG d   1       2.300  -0.708  -4.059  0.00  0.00     0.210 HD
ENDBRANCH  12  46
BRANCH  18  48
ATOM     48  C   LIG d   1       8.334   2.095  -5.953  0.00  0.00    -0.059 C 
ATOM     49  H   LIG d   1       7.370   1.910  -6.426  0.00  0.00     0.024 H 
ATOM     50  H   LIG d   1       8.406   3.145  -5.670  0.00  0.00     0.024 H 
ATOM     51  H   LIG d   1       9.135   1.852  -6.652  0.00  0.00     0.024 H 
ENDBRANCH  18  48
BRANCH  21  52
ATOM     52  O   LIG d   1      10.261   4.158  -2.286  0.00  0.00    -0.514 OA
ATOM     53  H   LIG d   1      10.068   3.580  -1.494  0.00  0.00     0.291 HD
ENDBRANCH  21  52
TORSDOF 4
ENDMDL
MODEL 4
REMARK VINA RESULT:      -5.9      8.154     12.584
REMARK  4 active torsions:
REMARK  status: ('A' for Active; 'I' for Inactive)
REMARK    1  A    between atoms: C_1  and  C_2 
REMARK    2  A    between atoms: C_13  and  O_15 
REMARK    3  A    between atoms: C_20  and  C_28 
REMARK    4  A    between atoms: C_23  and  O_24 
ROOT
ATOM      1  C   LIG d   1       9.942   4.161  -4.636  0.00  0.00    -0.003 C 
ATOM      2  C   LIG d   1       9.171   5.429  -4.909  0.00  0.00    -0.045 C 
ATOM      3  C   LIG d   1       9.326   6.428  -3.751  0.00  0.00    -0.049 C 
ATOM      4  C   LIG d   1      10.628   6.193  -3.001  0.00  0.00    -0.032 C 
ATOM      5  H   LIG d   1      11.462   6.200  -3.705  0.00  0.00     0.031 H 
ATOM      6  C   LIG d   1      10.573   4.844  -2.275  0.00  0.00    -0.034 C 
ATOM      7  H   LIG d   1       9.929   4.975  -1.382  0.00  0.00     0.031 H 
ATOM      8  C   LIG d   1       9.928   3.805  -3.137  0.00  0.00    -0.030 C 
ATOM      9  H   LIG d   1       8.868   3.695  -2.815  0.00  0.00     0.031 H 
ATOM     10  C   LIG d   1      10.551   2.402  -3.135  0.00  0.00    -0.047 C 
ATOM     11  C   LIG d   1       9.926   1.740  -4.396  0.00  0.00    -0.026 C 
ATOM     12  C   LIG d   1       9.300   2.887  -5.228  0.00  0.00     0.061 C 
ATOM     13  H   LIG d   1       8.225   2.920  -5.096  0.00  0.00     0.060 H 
ATOM     14  C   LIG d   1      11.972   4.493  -1.785  0.00  0.00    -0.049 C 
ATOM     15  C   LIG d   1      12.453   5.619  -0.861  0.00  0.00    -0.049 C 
ATOM     16  C   LIG d   1      11.348   6.653  -0.653  0.00  0.00    -0.028 C 
ATOM     17  H   LIG d   1      10.476   6.160  -0.201  0.00  0.00     0.031 H 
ATOM     18  C   LIG d   1      10.923   7.293  -1.977  0.00  0.00    -0.022 C 
ATOM     19  C   LIG d   1       9.654   8.117  -1.733  0.00  0.00    -0.016 C 
ATOM     20  C   LIG d   1       9.877   9.071  -0.594  0.00  0.00     0.029 C 
ATOM     21  C   LIG d   1       9.071  10.148  -0.485  0.00  0.00     0.087 C 
ATOM     22  C   LIG d   1      10.887   8.889   0.353  0.00  0.00     0.162 C 
ATOM     23  O   LIG d   1      11.000   9.706   1.246  0.00  0.00    -0.292 OA
ATOM     24  C   LIG d   1      11.839   7.730   0.315  0.00  0.00     0.014 C 
ATOM     25  H   LIG d   1       9.529   5.888  -5.838  0.00  0.00     0.027 H 
ATOM     26  H   LIG d   1       8.107   5.190  -5.040  0.00  0.00     0.027 H 
ATOM     27  H   LIG d   1       8.482   6.314  -3.065  0.00  0.00     0.027 H 
ATOM     28  H   LIG d   1       9.310   7.445  -4.153  0.00  0.00     0.027 H 
ATOM     29  H   LIG d   1      10.254   1.856  -2.237  0.00  0.00     0.027 H 
ATOM     30  H   LIG d   1      11.634   2.443  -3.209  0.00  0.00     0.027 H 
ATOM     31  H   LIG d   1       9.157   1.029  -4.100  0.00  0.00     0.029 H 
ATOM     32  H   LIG d   1      10.700   1.236  -4.974  0.00  0.00     0.029 H 
ATOM     33  H   LIG d   1      11.944   3.558  -1.224  0.00  0.00     0.027 H 
ATOM     34  H   LIG d   1      12.657   4.399  -2.624  0.00  0.00     0.027 H 
ATOM     35  H   LIG d   1      13.334   6.086  -1.291  0.00  0.00     0.027 H 
ATOM     36  H   LIG d   1      12.719   5.184   0.107  0.00  0.00     0.027 H 
ATOM     37  H   LIG d   1       9.408   8.684  -2.629  0.00  0.00     0.032 H 
ATOM     38  H   LIG d   1       8.830   7.450  -1.481  0.00  0.00     0.032 H 
ATOM     39  H   LIG d   1       9.213  10.849   0.324  0.00  0.00     0.102 H 
ATOM     40  H   LIG d   1      11.897   7.296   1.321  0.00  0.00     0.035 H 
ATOM     41  H   LIG d   1      12.831   8.072   0.035  0.00  0.00     0.035 H 
ENDROOT
BRANCH   1  42
ATOM     42  C   LIG d   1      11.358   4.245  -5.208  0.00  0.00    -0.057 C 
ATOM     43  H   LIG d   1      11.869   5.112  -4.789  0.00  0.00     0.024 H 
ATOM     44  H   LIG d   1      11.909   3.339  -4.951  0.00  0.00     0.024 H 
ATOM     45  H   LIG d   1      11.307   4.343  -6.292  0.00  0.00     0.024 H 
ENDBRANCH   1  42
BRANCH  12  46
ATOM     46  O   LIG d   1       9.656   2.763  -6.603  0.00  0.00    -0.391 OA
ATOM     47  H   LIG d   1      10.374   3.349  -6.878  0.00  0.00     0.210 HD
ENDBRANCH  12  46
BRANCH  18  48
ATOM     48  C   LIG d   1      12.028   8.201  -2.525  0.00  0.00    -0.059 C 
ATOM     49  H   LIG d   1      12.860   7.590  -2.874  0.00  0.00     0.024 H 
ATOM     50  H   LIG d   1      11.636   8.790  -3.354  0.00  0.00     0.024 H 
ATOM     51  H   LIG d   1      12.373   8.869  -1.735  0.00  0.00     0.024 H 
ENDBRANCH  18  48
BRANCH  21  52
ATOM     52  O   LIG d   1       8.090  10.347  -1.384  0.00  0.00    -0.514 OA
ATOM     53  H   LIG d   1       7.534  11.130  -1.105  0.00  0.00     0.291 HD
ENDBRANCH  21  52
TORSDOF 4
ENDMDL
MODEL 5
REMARK VINA RESULT:      -5.8      9.942     13.249
REMARK  4 active torsions:
REMARK  status: ('A' for Active; 'I' for Inactive)
REMARK    1  A    between atoms: C_1  and  C_2 
REMARK    2  A    between atoms: C_13  and  O_15 
REMARK    3  A    between atoms: C_20  and  C_28 
REMARK    4  A    between atoms: C_23  and  O_24 
ROOT
ATOM      1  C   LIG d   1      10.276   6.365  -5.267  0.00  0.00    -0.003 C 
ATOM      2  C   LIG d   1       9.745   5.376  -4.260  0.00  0.00    -0.045 C 
ATOM      3  C   LIG d   1      10.116   5.795  -2.828  0.00  0.00    -0.049 C 
ATOM      4  C   LIG d   1      10.322   7.299  -2.738  0.00  0.00    -0.032 C 
ATOM      5  H   LIG d   1       9.444   7.812  -3.135  0.00  0.00     0.031 H 
ATOM      6  C   LIG d   1      11.565   7.702  -3.539  0.00  0.00    -0.034 C 
ATOM      7  H   LIG d   1      12.452   7.412  -2.940  0.00  0.00     0.031 H 
ATOM      8  C   LIG d   1      11.634   6.944  -4.827  0.00  0.00    -0.030 C 
ATOM      9  H   LIG d   1      12.347   6.099  -4.695  0.00  0.00     0.031 H 
ATOM     10  C   LIG d   1      12.073   7.718  -6.078  0.00  0.00    -0.047 C 
ATOM     11  C   LIG d   1      11.638   6.781  -7.240  0.00  0.00    -0.026 C 
ATOM     12  C   LIG d   1      10.670   5.741  -6.625  0.00  0.00     0.061 C 
ATOM     13  H   LIG d   1      11.169   4.793  -6.464  0.00  0.00     0.060 H 
ATOM     14  C   LIG d   1      11.586   9.218  -3.685  0.00  0.00    -0.049 C 
ATOM     15  C   LIG d   1      11.586   9.835  -2.280  0.00  0.00    -0.049 C 
ATOM     16  C   LIG d   1      11.674   8.745  -1.214  0.00  0.00    -0.028 C 
ATOM     17  H   LIG d   1      12.602   8.174  -1.361  0.00  0.00     0.031 H 
ATOM     18  C   LIG d   1      10.485   7.784  -1.295  0.00  0.00    -0.022 C 
ATOM     19  C   LIG d   1      10.767   6.586  -0.382  0.00  0.00    -0.016 C 
ATOM     20  C   LIG d   1      11.119   7.067   0.997  0.00  0.00     0.029 C 
ATOM     21  C   LIG d   1      10.994   6.210   2.033  0.00  0.00     0.087 C 
ATOM     22  C   LIG d   1      11.565   8.365   1.250  0.00  0.00     0.162 C 
ATOM     23  O   LIG d   1      11.832   8.675   2.394  0.00  0.00    -0.292 OA
ATOM     24  C   LIG d   1      11.730   9.394   0.169  0.00  0.00     0.014 C 
ATOM     25  H   LIG d   1       8.654   5.305  -4.349  0.00  0.00     0.027 H 
ATOM     26  H   LIG d   1      10.164   4.382  -4.466  0.00  0.00     0.027 H 
ATOM     27  H   LIG d   1      11.036   5.280  -2.532  0.00  0.00     0.027 H 
ATOM     28  H   LIG d   1       9.316   5.490  -2.148  0.00  0.00     0.027 H 
ATOM     29  H   LIG d   1      13.158   7.846  -6.083  0.00  0.00     0.027 H 
ATOM     30  H   LIG d   1      11.581   8.684  -6.147  0.00  0.00     0.027 H 
ATOM     31  H   LIG d   1      12.509   6.280  -7.659  0.00  0.00     0.029 H 
ATOM     32  H   LIG d   1      11.130   7.357  -8.012  0.00  0.00     0.029 H 
ATOM     33  H   LIG d   1      12.488   9.528  -4.212  0.00  0.00     0.027 H 
ATOM     34  H   LIG d   1      10.706   9.560  -4.227  0.00  0.00     0.027 H 
ATOM     35  H   LIG d   1      10.684  10.426  -2.146  0.00  0.00     0.027 H 
ATOM     36  H   LIG d   1      12.456  10.491  -2.190  0.00  0.00     0.027 H 
ATOM     37  H   LIG d   1       9.881   5.955  -0.323  0.00  0.00     0.032 H 
ATOM     38  H   LIG d   1      11.602   6.011  -0.782  0.00  0.00     0.032 H 
ATOM     39  H   LIG d   1      11.238   6.533   3.033  0.00  0.00     0.102 H 
ATOM     40  H   LIG d   1      12.710   9.872   0.293  0.00  0.00     0.035 H 
ATOM     41  H   LIG d   1      10.964  10.158   0.264  0.00  0.00     0.035 H 
ENDROOT
BRANCH   1  42
ATOM     42  C   LIG d   1       9.242   7.452  -5.568  0.00  0.00    -0.057 C 
ATOM     43  H   LIG d   1       9.569   8.396  -5.131  0.00  0.00     0.024 H 
ATOM     44  H   LIG d   1       9.140   7.568  -6.648  0.00  0.00     0.024 H 
ATOM     45  H   LIG d   1       8.281   7.168  -5.141  0.00  0.00     0.024 H 
ENDBRANCH   1  42
BRANCH  12  46
ATOM     46  O   LIG d   1       9.509   5.590  -7.440  0.00  0.00    -0.391 OA
ATOM     47  H   LIG d   1       9.673   5.721  -8.384  0.00  0.00     0.210 HD
ENDBRANCH  12  46
BRANCH  18  48
ATOM     48  C   LIG d   1       9.193   8.475  -0.852  0.00  0.00    -0.059 C 
ATOM     49  H   LIG d   1       8.838   8.024   0.074  0.00  0.00     0.024 H 
ATOM     50  H   LIG d   1       9.386   9.536  -0.689  0.00  0.00     0.024 H 
ATOM     51  H   LIG d   1       8.435   8.359  -1.627  0.00  0.00     0.024 H 
ENDBRANCH  18  48
BRANCH  21  52
ATOM     52  O   LIG d   1      10.565   4.952   1.817  0.00  0.00    -0.514 OA
ATOM     53  H   LIG d   1      10.369   4.512   2.692  0.00  0.00     0.291 HD
ENDBRANCH  21  52
TORSDOF 4
ENDMDL
MODEL 6
REMARK VINA RESULT:      -5.7      7.683     10.826
REMARK  4 active torsions:
REMARK  status: ('A' for Active; 'I' for Inactive)
REMARK    1  A    between atoms: C_1  and  C_2 
REMARK    2  A    between atoms: C_13  and  O_15 
REMARK    3  A    between atoms: C_20  and  C_28 
REMARK    4  A    between atoms: C_23  and  O_24 
ROOT
ATOM      1  C   LIG d   1       5.893  -9.879  -4.007  0.00  0.00    -0.003 C 
ATOM      2  C   LIG d   1       6.935  -8.797  -4.144  0.00  0.00    -0.045 C 
ATOM      3  C   LIG d   1       7.977  -8.890  -3.017  0.00  0.00    -0.049 C 
ATOM      4  C   LIG d   1       8.077 -10.311  -2.485  0.00  0.00    -0.032 C 
ATOM      5  H   LIG d   1       8.259 -10.999  -3.313  0.00  0.00     0.031 H 
ATOM      6  C   LIG d   1       6.775 -10.691  -1.772  0.00  0.00    -0.034 C 
ATOM      7  H   LIG d   1       6.778 -10.182  -0.786  0.00  0.00     0.031 H 
ATOM      8  C   LIG d   1       5.588 -10.184  -2.528  0.00  0.00    -0.030 C 
ATOM      9  H   LIG d   1       5.242  -9.244  -2.042  0.00  0.00     0.031 H 
ATOM     10  C   LIG d   1       4.371 -11.114  -2.637  0.00  0.00    -0.047 C 
ATOM     11  C   LIG d   1       3.544 -10.474  -3.788  0.00  0.00    -0.026 C 
ATOM     12  C   LIG d   1       4.486  -9.472  -4.500  0.00  0.00     0.061 C 
ATOM     13  H   LIG d   1       4.270  -8.454  -4.198  0.00  0.00     0.060 H 
ATOM     14  C   LIG d   1       6.777 -12.192  -1.512  0.00  0.00    -0.049 C 
ATOM     15  C   LIG d   1       8.011 -12.532  -0.668  0.00  0.00    -0.049 C 
ATOM     16  C   LIG d   1       8.763 -11.260  -0.279  0.00  0.00    -0.028 C 
ATOM     17  H   LIG d   1       8.093 -10.611   0.302  0.00  0.00     0.031 H 
ATOM     18  C   LIG d   1       9.245 -10.494  -1.513  0.00  0.00    -0.022 C 
ATOM     19  C   LIG d   1       9.755  -9.120  -1.063  0.00  0.00    -0.016 C 
ATOM     20  C   LIG d   1      10.768  -9.287   0.033  0.00  0.00     0.029 C 
ATOM     21  C   LIG d   1      11.629  -8.276   0.278  0.00  0.00     0.087 C 
ATOM     22  C   LIG d   1      10.858 -10.446   0.806  0.00  0.00     0.162 C 
ATOM     23  O   LIG d   1      11.704 -10.501   1.676  0.00  0.00    -0.292 OA
ATOM     24  C   LIG d   1       9.953 -11.627   0.608  0.00  0.00     0.014 C 
ATOM     25  H   LIG d   1       7.438  -8.886  -5.114  0.00  0.00     0.027 H 
ATOM     26  H   LIG d   1       6.449  -7.813  -4.106  0.00  0.00     0.027 H 
ATOM     27  H   LIG d   1       7.688  -8.214  -2.206  0.00  0.00     0.027 H 
ATOM     28  H   LIG d   1       8.949  -8.570  -3.403  0.00  0.00     0.027 H 
ATOM     29  H   LIG d   1       3.798 -11.098  -1.707  0.00  0.00     0.027 H 
ATOM     30  H   LIG d   1       4.663 -12.131  -2.882  0.00  0.00     0.027 H 
ATOM     31  H   LIG d   1       2.681  -9.951  -3.378  0.00  0.00     0.029 H 
ATOM     32  H   LIG d   1       3.218 -11.245  -4.485  0.00  0.00     0.029 H 
ATOM     33  H   LIG d   1       5.879 -12.475  -0.962  0.00  0.00     0.027 H 
ATOM     34  H   LIG d   1       6.822 -12.740  -2.451  0.00  0.00     0.027 H 
ATOM     35  H   LIG d   1       8.660 -13.199  -1.229  0.00  0.00     0.027 H 
ATOM     36  H   LIG d   1       7.680 -13.041   0.241  0.00  0.00     0.027 H 
ATOM     37  H   LIG d   1      10.221  -8.610  -1.904  0.00  0.00     0.032 H 
ATOM     38  H   LIG d   1       8.921  -8.527  -0.689  0.00  0.00     0.032 H 
ATOM     39  H   LIG d   1      12.368  -8.373   1.059  0.00  0.00     0.102 H 
ATOM     40  H   LIG d   1       9.576 -11.943   1.588  0.00  0.00     0.035 H 
ATOM     41  H   LIG d   1      10.511 -12.453   0.176  0.00  0.00     0.035 H 
ENDROOT
BRANCH   1  42
ATOM     42  C   LIG d   1       6.290 -11.127  -4.797  0.00  0.00    -0.057 C 
ATOM     43  H   LIG d   1       7.045 -10.864  -5.538  0.00  0.00     0.024 H 
ATOM     44  H   LIG d   1       6.695 -11.876  -4.115  0.00  0.00     0.024 H 
ATOM     45  H   LIG d   1       5.413 -11.533  -5.301  0.00  0.00     0.024 H 
ENDBRANCH   1  42
BRANCH  12  46
ATOM     46  O   LIG d   1       4.408  -9.628  -5.915  0.00  0.00    -0.391 OA
ATOM     47  H   LIG d   1       4.872  -8.940  -6.412  0.00  0.00     0.210 HD
ENDBRANCH  12  46
BRANCH  18  48
ATOM     48  C   LIG d   1      10.370 -11.253  -2.222  0.00  0.00    -0.059 C 
ATOM     49  H   LIG d   1      11.044 -11.680  -1.480  0.00  0.00     0.024 H 
ATOM     50  H   LIG d   1       9.944 -12.051  -2.829  0.00  0.00     0.024 H 
ATOM     51  H   LIG d   1      10.925 -10.566  -2.863  0.00  0.00     0.024 H 
ENDBRANCH  18  48
BRANCH  21  52
ATOM     52  O   LIG d   1      11.564  -7.147  -0.452  0.00  0.00    -0.514 OA
ATOM     53  H   LIG d   1      12.301  -7.144  -1.128  0.00  0.00     0.291 HD
ENDBRANCH  21  52
TORSDOF 4
ENDMDL
MODEL 7
REMARK VINA RESULT:      -5.6     12.308     14.667
REMARK  4 active torsions:
REMARK  status: ('A' for Active; 'I' for Inactive)
REMARK    1  A    between atoms: C_1  and  C_2 
REMARK    2  A    between atoms: C_13  and  O_15 
REMARK    3  A    between atoms: C_20  and  C_28 
REMARK    4  A    between atoms: C_23  and  O_24 
ROOT
ATOM      1  C   LIG d   1      10.289  10.198  -5.337  0.00  0.00    -0.003 C 
ATOM      2  C   LIG d   1       9.854   8.782  -5.051  0.00  0.00    -0.045 C 
ATOM      3  C   LIG d   1      10.186   8.385  -3.604  0.00  0.00    -0.049 C 
ATOM      4  C   LIG d   1      10.251   9.610  -2.705  0.00  0.00    -0.032 C 
ATOM      5  H   LIG d   1       9.328  10.186  -2.805  0.00  0.00     0.031 H 
ATOM      6  C   LIG d   1      11.449  10.480  -3.099  0.00  0.00    -0.034 C 
ATOM      7  H   LIG d   1      12.361   9.983  -2.709  0.00  0.00     0.031 H 
ATOM      8  C   LIG d   1      11.588  10.551  -4.587  0.00  0.00    -0.030 C 
ATOM      9  H   LIG d   1      12.376   9.829  -4.898  0.00  0.00     0.031 H 
ATOM     10  C   LIG d   1      11.952  11.911  -5.198  0.00  0.00    -0.047 C 
ATOM     11  C   LIG d   1      11.605  11.723  -6.702  0.00  0.00    -0.026 C 
ATOM     12  C   LIG d   1      10.738  10.443  -6.795  0.00  0.00     0.061 C 
ATOM     13  H   LIG d   1      11.324   9.603  -7.147  0.00  0.00     0.060 H 
ATOM     14  C   LIG d   1      11.328  11.829  -2.402  0.00  0.00    -0.049 C 
ATOM     15  C   LIG d   1      11.273  11.583  -0.889  0.00  0.00    -0.049 C 
ATOM     16  C   LIG d   1      11.463  10.100  -0.577  0.00  0.00    -0.028 C 
ATOM     17  H   LIG d   1      12.440   9.776  -0.962  0.00  0.00     0.031 H 
ATOM     18  C   LIG d   1      10.369   9.246  -1.223  0.00  0.00    -0.022 C 
ATOM     19  C   LIG d   1      10.762   7.771  -1.090  0.00  0.00    -0.016 C 
ATOM     20  C   LIG d   1      11.069   7.453   0.346  0.00  0.00     0.029 C 
ATOM     21  C   LIG d   1      11.026   6.165   0.747  0.00  0.00     0.087 C 
ATOM     22  C   LIG d   1      11.393   8.437   1.282  0.00  0.00     0.162 C 
ATOM     23  O   LIG d   1      11.631   8.097   2.424  0.00  0.00    -0.292 OA
ATOM     24  C   LIG d   1      11.460   9.897   0.938  0.00  0.00     0.014 C 
ATOM     25  H   LIG d   1       8.774   8.685  -5.219  0.00  0.00     0.027 H 
ATOM     26  H   LIG d   1      10.363   8.096  -5.741  0.00  0.00     0.027 H 
ATOM     27  H   LIG d   1      11.149   7.867  -3.588  0.00  0.00     0.027 H 
ATOM     28  H   LIG d   1       9.418   7.698  -3.238  0.00  0.00     0.027 H 
ATOM     29  H   LIG d   1      13.020  12.107  -5.079  0.00  0.00     0.027 H 
ATOM     30  H   LIG d   1      11.371  12.717  -4.759  0.00  0.00     0.027 H 
ATOM     31  H   LIG d   1      12.518  11.600  -7.281  0.00  0.00     0.029 H 
ATOM     32  H   LIG d   1      11.044  12.584  -7.065  0.00  0.00     0.029 H 
ATOM     33  H   LIG d   1      12.198  12.445  -2.632  0.00  0.00     0.027 H 
ATOM     34  H   LIG d   1      10.421  12.339  -2.716  0.00  0.00     0.027 H 
ATOM     35  H   LIG d   1      10.320  11.933  -0.501  0.00  0.00     0.027 H 
ATOM     36  H   LIG d   1      12.078  12.152  -0.415  0.00  0.00     0.027 H 
ATOM     37  H   LIG d   1       9.939   7.142  -1.425  0.00  0.00     0.032 H 
ATOM     38  H   LIG d   1      11.647   7.573  -1.694  0.00  0.00     0.032 H 
ATOM     39  H   LIG d   1      11.240   5.912   1.775  0.00  0.00     0.102 H 
ATOM     40  H   LIG d   1      12.391  10.307   1.349  0.00  0.00     0.035 H 
ATOM     41  H   LIG d   1      10.626  10.424   1.392  0.00  0.00     0.035 H 
ENDROOT
BRANCH   1  42
ATOM     42  C   LIG d   1       9.158  11.189  -5.055  0.00  0.00    -0.057 C 
ATOM     43  H   LIG d   1       8.203  10.738  -5.328  0.00  0.00     0.024 H 
ATOM     44  H   LIG d   1       9.151  11.440  -3.994  0.00  0.00     0.024 H 
ATOM     45  H   LIG d   1       9.313  12.094  -5.641  0.00  0.00     0.024 H 
ENDBRANCH   1  42
BRANCH  12  46
ATOM     46  O   LIG d   1       9.596  10.668  -7.619  0.00  0.00    -0.391 OA
ATOM     47  H   LIG d   1       9.086  11.453  -7.378  0.00  0.00     0.210 HD
ENDBRANCH  12  46
BRANCH  18  48
ATOM     48  C   LIG d   1       9.019   9.482  -0.542  0.00  0.00    -0.059 C 
ATOM     49  H   LIG d   1       9.155  10.137   0.319  0.00  0.00     0.024 H 
ATOM     50  H   LIG d   1       8.332   9.949  -1.248  0.00  0.00     0.024 H 
ATOM     51  H   LIG d   1       8.607   8.528  -0.211  0.00  0.00     0.024 H 
ENDBRANCH  18  48
BRANCH  21  52
ATOM     52  O   LIG d   1      10.716   5.197  -0.135  0.00  0.00    -0.514 OA
ATOM     53  H   LIG d   1      11.515   4.613  -0.283  0.00  0.00     0.291 HD
ENDBRANCH  21  52
TORSDOF 4
ENDMDL
MODEL 8
REMARK VINA RESULT:      -5.6      7.308     10.160
REMARK  4 active torsions:
REMARK  status: ('A' for Active; 'I' for Inactive)
REMARK    1  A    between atoms: C_1  and  C_2 
REMARK    2  A    between atoms: C_13  and  O_15 
REMARK    3  A    between atoms: C_20  and  C_28 
REMARK    4  A    between atoms: C_23  and  O_24 
ROOT
ATOM      1  C   LIG d   1       9.584 -11.619  -0.094  0.00  0.00    -0.003 C 
ATOM      2  C   LIG d   1       8.285 -12.385  -0.123  0.00  0.00    -0.045 C 
ATOM      3  C   LIG d   1       7.280 -11.730  -1.083  0.00  0.00    -0.049 C 
ATOM      4  C   LIG d   1       7.999 -10.943  -2.169  0.00  0.00    -0.032 C 
ATOM      5  H   LIG d   1       8.729 -11.587  -2.664  0.00  0.00     0.031 H 
ATOM      6  C   LIG d   1       8.709  -9.735  -1.549  0.00  0.00    -0.034 C 
ATOM      7  H   LIG d   1       7.933  -8.974  -1.328  0.00  0.00     0.031 H 
ATOM      8  C   LIG d   1       9.349 -10.104  -0.249  0.00  0.00    -0.030 C 
ATOM      9  H   LIG d   1       8.680  -9.770   0.576  0.00  0.00     0.031 H 
ATOM     10  C   LIG d   1      10.745  -9.532   0.039  0.00  0.00    -0.047 C 
ATOM     11  C   LIG d   1      11.252 -10.420   1.210  0.00  0.00    -0.026 C 
ATOM     12  C   LIG d   1      10.310 -11.648   1.270  0.00  0.00     0.061 C 
ATOM     13  H   LIG d   1       9.590 -11.545   2.072  0.00  0.00     0.060 H 
ATOM     14  C   LIG d   1       9.655  -9.137  -2.583  0.00  0.00    -0.049 C 
ATOM     15  C   LIG d   1       8.832  -8.746  -3.817  0.00  0.00    -0.049 C 
ATOM     16  C   LIG d   1       7.343  -8.980  -3.567  0.00  0.00    -0.028 C 
ATOM     17  H   LIG d   1       7.024  -8.371  -2.710  0.00  0.00     0.031 H 
ATOM     18  C   LIG d   1       7.050 -10.451  -3.264  0.00  0.00    -0.022 C 
ATOM     19  C   LIG d   1       5.602 -10.567  -2.775  0.00  0.00    -0.016 C 
ATOM     20  C   LIG d   1       4.677  -9.911  -3.761  0.00  0.00     0.029 C 
ATOM     21  C   LIG d   1       3.371 -10.250  -3.748  0.00  0.00     0.087 C 
ATOM     22  C   LIG d   1       5.116  -8.967  -4.692  0.00  0.00     0.162 C 
ATOM     23  O   LIG d   1       4.304  -8.480  -5.453  0.00  0.00    -0.292 OA
ATOM     24  C   LIG d   1       6.548  -8.528  -4.792  0.00  0.00     0.014 C 
ATOM     25  H   LIG d   1       8.471 -13.419  -0.437  0.00  0.00     0.027 H 
ATOM     26  H   LIG d   1       7.854 -12.413   0.887  0.00  0.00     0.027 H 
ATOM     27  H   LIG d   1       6.628 -11.060  -0.516  0.00  0.00     0.027 H 
ATOM     28  H   LIG d   1       6.663 -12.509  -1.539  0.00  0.00     0.027 H 
ATOM     29  H   LIG d   1      10.668  -8.491   0.360  0.00  0.00     0.027 H 
ATOM     30  H   LIG d   1      11.397  -9.612  -0.826  0.00  0.00     0.027 H 
ATOM     31  H   LIG d   1      11.204  -9.865   2.145  0.00  0.00     0.029 H 
ATOM     32  H   LIG d   1      12.275 -10.741   1.017  0.00  0.00     0.029 H 
ATOM     33  H   LIG d   1      10.135  -8.247  -2.176  0.00  0.00     0.027 H 
ATOM     34  H   LIG d   1      10.411  -9.865  -2.871  0.00  0.00     0.027 H 
ATOM     35  H   LIG d   1       9.168  -9.325  -4.673  0.00  0.00     0.027 H 
ATOM     36  H   LIG d   1       8.996  -7.685  -4.021  0.00  0.00     0.027 H 
ATOM     37  H   LIG d   1       5.331 -11.617  -2.679  0.00  0.00     0.032 H 
ATOM     38  H   LIG d   1       5.502 -10.071  -1.811  0.00  0.00     0.032 H 
ATOM     39  H   LIG d   1       2.687  -9.794  -4.448  0.00  0.00     0.102 H 
ATOM     40  H   LIG d   1       6.572  -7.433  -4.841  0.00  0.00     0.035 H 
ATOM     41  H   LIG d   1       6.993  -8.919  -5.702  0.00  0.00     0.035 H 
ENDROOT
BRANCH   1  42
ATOM     42  C   LIG d   1      10.570 -12.170  -1.126  0.00  0.00    -0.057 C 
ATOM     43  H   LIG d   1      11.590 -11.963  -0.802  0.00  0.00     0.024 H 
ATOM     44  H   LIG d   1      10.431 -13.248  -1.224  0.00  0.00     0.024 H 
ATOM     45  H   LIG d   1      10.393 -11.693  -2.090  0.00  0.00     0.024 H 
ENDBRANCH   1  42
BRANCH  12  46
ATOM     46  O   LIG d   1      11.061 -12.854   1.390  0.00  0.00    -0.391 OA
ATOM     47  H   LIG d   1      11.552 -13.092   0.592  0.00  0.00     0.210 HD
ENDBRANCH  12  46
BRANCH  18  48
ATOM     48  C   LIG d   1       7.240 -11.315  -4.514  0.00  0.00    -0.059 C 
ATOM     49  H   LIG d   1       8.187 -11.060  -4.991  0.00  0.00     0.024 H 
ATOM     50  H   LIG d   1       7.247 -12.367  -4.231  0.00  0.00     0.024 H 
ATOM     51  H   LIG d   1       6.421 -11.131  -5.211  0.00  0.00     0.024 H 
ENDBRANCH  18  48
BRANCH  21  52
ATOM     52  O   LIG d   1       2.921 -11.157  -2.861  0.00  0.00    -0.514 OA
ATOM     53  H   LIG d   1       3.246 -10.919  -1.945  0.00  0.00     0.291 HD
ENDBRANCH  21  52
TORSDOF 4
ENDMDL
MODEL 9
REMARK VINA RESULT:      -5.6      2.428      3.589
REMARK  4 active torsions:
REMARK  status: ('A' for Active; 'I' for Inactive)
REMARK    1  A    between atoms: C_1  and  C_2 
REMARK    2  A    between atoms: C_13  and  O_15 
REMARK    3  A    between atoms: C_20  and  C_28 
REMARK    4  A    between atoms: C_23  and  O_24 
ROOT
ATOM      1  C   LIG d   1       5.645  -1.294  -4.845  0.00  0.00    -0.003 C 
ATOM      2  C   LIG d   1       5.906  -2.592  -5.568  0.00  0.00    -0.045 C 
ATOM      3  C   LIG d   1       4.951  -2.760  -6.760  0.00  0.00    -0.049 C 
ATOM      4  C   LIG d   1       4.479  -1.409  -7.274  0.00  0.00    -0.032 C 
ATOM      5  H   LIG d   1       5.344  -0.776  -7.486  0.00  0.00     0.031 H 
ATOM      6  C   LIG d   1       3.590  -0.734  -6.224  0.00  0.00    -0.034 C 
ATOM      7  H   LIG d   1       2.603  -1.237  -6.255  0.00  0.00     0.031 H 
ATOM      8  C   LIG d   1       4.146  -0.937  -4.850  0.00  0.00    -0.030 C 
ATOM      9  H   LIG d   1       3.588  -1.771  -4.368  0.00  0.00     0.031 H 
ATOM     10  C   LIG d   1       4.098   0.257  -3.886  0.00  0.00    -0.047 C 
ATOM     11  C   LIG d   1       5.094  -0.157  -2.766  0.00  0.00    -0.026 C 
ATOM     12  C   LIG d   1       5.911  -1.348  -3.324  0.00  0.00     0.061 C 
ATOM     13  H   LIG d   1       5.552  -2.288  -2.921  0.00  0.00     0.060 H 
ATOM     14  C   LIG d   1       3.376   0.721  -6.621  0.00  0.00    -0.049 C 
ATOM     15  C   LIG d   1       2.736   0.748  -8.014  0.00  0.00    -0.049 C 
ATOM     16  C   LIG d   1       2.428  -0.670  -8.493  0.00  0.00    -0.028 C 
ATOM     17  H   LIG d   1       1.735  -1.144  -7.783  0.00  0.00     0.031 H 
ATOM     18  C   LIG d   1       3.698  -1.518  -8.586  0.00  0.00    -0.022 C 
ATOM     19  C   LIG d   1       3.291  -2.977  -8.817  0.00  0.00    -0.016 C 
ATOM     20  C   LIG d   1       2.363  -3.067  -9.995  0.00  0.00     0.029 C 
ATOM     21  C   LIG d   1       2.221  -4.256 -10.618  0.00  0.00     0.087 C 
ATOM     22  C   LIG d   1       1.646  -1.969 -10.474  0.00  0.00     0.162 C 
ATOM     23  O   LIG d   1       0.913  -2.126 -11.431  0.00  0.00    -0.292 OA
ATOM     24  C   LIG d   1       1.739  -0.605  -9.856  0.00  0.00     0.014 C 
ATOM     25  H   LIG d   1       6.943  -2.617  -5.924  0.00  0.00     0.027 H 
ATOM     26  H   LIG d   1       5.768  -3.432  -4.874  0.00  0.00     0.027 H 
ATOM     27  H   LIG d   1       4.087  -3.354  -6.446  0.00  0.00     0.027 H 
ATOM     28  H   LIG d   1       5.468  -3.299  -7.559  0.00  0.00     0.027 H 
ATOM     29  H   LIG d   1       3.093   0.371  -3.474  0.00  0.00     0.027 H 
ATOM     30  H   LIG d   1       4.412   1.177  -4.370  0.00  0.00     0.027 H 
ATOM     31  H   LIG d   1       4.546  -0.462  -1.876  0.00  0.00     0.029 H 
ATOM     32  H   LIG d   1       5.757   0.675  -2.530  0.00  0.00     0.029 H 
ATOM     33  H   LIG d   1       2.707   1.205  -5.909  0.00  0.00     0.027 H 
ATOM     34  H   LIG d   1       4.327   1.250  -6.652  0.00  0.00     0.027 H 
ATOM     35  H   LIG d   1       3.406   1.246  -8.709  0.00  0.00     0.027 H 
ATOM     36  H   LIG d   1       1.802   1.314  -7.955  0.00  0.00     0.027 H 
ATOM     37  H   LIG d   1       4.178  -3.577  -9.016  0.00  0.00     0.032 H 
ATOM     38  H   LIG d   1       2.780  -3.358  -7.933  0.00  0.00     0.032 H 
ATOM     39  H   LIG d   1       1.563  -4.345 -11.469  0.00  0.00     0.102 H 
ATOM     40  H   LIG d   1       0.723  -0.216  -9.718  0.00  0.00     0.035 H 
ATOM     41  H   LIG d   1       2.273   0.068 -10.521  0.00  0.00     0.035 H 
ENDROOT
BRANCH   1  42
ATOM     42  C   LIG d   1       6.520  -0.169  -5.402  0.00  0.00    -0.057 C 
ATOM     43  H   LIG d   1       7.215  -0.579  -6.135  0.00  0.00     0.024 H 
ATOM     44  H   LIG d   1       5.889   0.581  -5.880  0.00  0.00     0.024 H 
ATOM     45  H   LIG d   1       7.080   0.293  -4.590  0.00  0.00     0.024 H 
ENDBRANCH   1  42
BRANCH  12  46
ATOM     46  O   LIG d   1       7.303  -1.167  -3.071  0.00  0.00    -0.391 OA
ATOM     47  H   LIG d   1       7.750  -0.609  -3.722  0.00  0.00     0.210 HD
ENDBRANCH  12  46
BRANCH  18  48
ATOM     48  C   LIG d   1       4.588  -1.044  -9.738  0.00  0.00    -0.059 C 
ATOM     49  H   LIG d   1       5.055  -0.097  -9.471  0.00  0.00     0.024 H 
ATOM     50  H   LIG d   1       5.360  -1.789  -9.931  0.00  0.00     0.024 H 
ATOM     51  H   LIG d   1       3.981  -0.910 -10.635  0.00  0.00     0.024 H 
ENDBRANCH  18  48
BRANCH  21  52
ATOM     52  O   LIG d   1       2.902  -5.331 -10.178  0.00  0.00    -0.514 OA
ATOM     53  H   LIG d   1       3.792  -5.041  -9.826  0.00  0.00     0.291 HD
ENDBRANCH  21  52
TORSDOF 4
ENDMDL
MODEL 10
REMARK VINA RESULT:      -5.6     10.612     12.759
REMARK  4 active torsions:
REMARK  status: ('A' for Active; 'I' for Inactive)
REMARK    1  A    between atoms: C_1  and  C_2 
REMARK    2  A    between atoms: C_13  and  O_15 
REMARK    3  A    between atoms: C_20  and  C_28 
REMARK    4  A    between atoms: C_23  and  O_24 
ROOT
ATOM      1  C   LIG d   1      10.018   7.923  -7.879  0.00  0.00    -0.003 C 
ATOM      2  C   LIG d   1       9.530   9.131  -7.120  0.00  0.00    -0.045 C 
ATOM      3  C   LIG d   1       9.500   8.857  -5.608  0.00  0.00    -0.049 C 
ATOM      4  C   LIG d   1      10.505   7.780  -5.230  0.00  0.00    -0.032 C 
ATOM      5  H   LIG d   1      11.492   8.052  -5.611  0.00  0.00     0.031 H 
ATOM      6  C   LIG d   1      10.073   6.435  -5.824  0.00  0.00    -0.034 C 
ATOM      7  H   LIG d   1       9.235   6.055  -5.206  0.00  0.00     0.031 H 
ATOM      8  C   LIG d   1       9.550   6.613  -7.215  0.00  0.00    -0.030 C 
ATOM      9  H   LIG d   1       8.438   6.624  -7.170  0.00  0.00     0.031 H 
ATOM     10  C   LIG d   1       9.952   5.563  -8.260  0.00  0.00    -0.047 C 
ATOM     11  C   LIG d   1       9.608   6.259  -9.607  0.00  0.00    -0.026 C 
ATOM     12  C   LIG d   1       9.393   7.758  -9.283  0.00  0.00     0.061 C 
ATOM     13  H   LIG d   1       8.338   8.000  -9.247  0.00  0.00     0.060 H 
ATOM     14  C   LIG d   1      11.225   5.447  -5.694  0.00  0.00    -0.049 C 
ATOM     15  C   LIG d   1      11.587   5.326  -4.209  0.00  0.00    -0.049 C 
ATOM     16  C   LIG d   1      10.619   6.139  -3.351  0.00  0.00    -0.028 C 
ATOM     17  H   LIG d   1       9.598   5.762  -3.508  0.00  0.00     0.031 H 
ATOM     18  C   LIG d   1      10.659   7.625  -3.715  0.00  0.00    -0.022 C 
ATOM     19  C   LIG d   1       9.496   8.329  -3.009  0.00  0.00    -0.016 C 
ATOM     20  C   LIG d   1       9.530   8.021  -1.539  0.00  0.00     0.029 C 
ATOM     21  C   LIG d   1       8.879   8.844  -0.690  0.00  0.00     0.087 C 
ATOM     22  C   LIG d   1      10.211   6.920  -1.017  0.00  0.00     0.162 C 
ATOM     23  O   LIG d   1      10.188   6.739   0.185  0.00  0.00    -0.292 OA
ATOM     24  C   LIG d   1      10.971   5.951  -1.875  0.00  0.00     0.014 C 
ATOM     25  H   LIG d   1      10.185   9.987  -7.323  0.00  0.00     0.027 H 
ATOM     26  H   LIG d   1       8.519   9.394  -7.460  0.00  0.00     0.027 H 
ATOM     27  H   LIG d   1       8.494   8.535  -5.323  0.00  0.00     0.027 H 
ATOM     28  H   LIG d   1       9.731   9.782  -5.073  0.00  0.00     0.027 H 
ATOM     29  H   LIG d   1       9.352   4.658  -8.139  0.00  0.00     0.027 H 
ATOM     30  H   LIG d   1      11.010   5.322  -8.201  0.00  0.00     0.027 H 
ATOM     31  H   LIG d   1       8.698   5.832 -10.024  0.00  0.00     0.029 H 
ATOM     32  H   LIG d   1      10.433   6.141 -10.308  0.00  0.00     0.029 H 
ATOM     33  H   LIG d   1      10.920   4.470  -6.069  0.00  0.00     0.027 H 
ATOM     34  H   LIG d   1      12.093   5.800  -6.248  0.00  0.00     0.027 H 
ATOM     35  H   LIG d   1      12.607   5.668  -4.057  0.00  0.00     0.027 H 
ATOM     36  H   LIG d   1      11.520   4.273  -3.920  0.00  0.00     0.027 H 
ATOM     37  H   LIG d   1       9.582   9.406  -3.149  0.00  0.00     0.032 H 
ATOM     38  H   LIG d   1       8.552   7.978  -3.423  0.00  0.00     0.032 H 
ATOM     39  H   LIG d   1       8.891   8.645   0.371  0.00  0.00     0.102 H 
ATOM     40  H   LIG d   1      10.695   4.933  -1.576  0.00  0.00     0.035 H 
ATOM     41  H   LIG d   1      12.039   6.074  -1.719  0.00  0.00     0.035 H 
ENDROOT
BRANCH   1  42
ATOM     42  C   LIG d   1      11.534   7.974  -8.078  0.00  0.00    -0.057 C 
ATOM     43  H   LIG d   1      11.962   8.726  -7.415  0.00  0.00     0.024 H 
ATOM     44  H   LIG d   1      11.964   6.998  -7.847  0.00  0.00     0.024 H 
ATOM     45  H   LIG d   1      11.757   8.233  -9.113  0.00  0.00     0.024 H 
ENDBRANCH   1  42
BRANCH  12  46
ATOM     46  O   LIG d   1      10.088   8.580 -10.218  0.00  0.00    -0.391 OA
ATOM     47  H   LIG d   1       9.596   8.749 -11.033  0.00  0.00     0.210 HD
ENDBRANCH  12  46
BRANCH  18  48
ATOM     48  C   LIG d   1      11.984   8.258  -3.280  0.00  0.00    -0.059 C 
ATOM     49  H   LIG d   1      11.783   9.120  -2.645  0.00  0.00     0.024 H 
ATOM     50  H   LIG d   1      12.571   7.526  -2.726  0.00  0.00     0.024 H 
ATOM     51  H   LIG d   1      12.540   8.578  -4.162  0.00  0.00     0.024 H 
ENDBRANCH  18  48
BRANCH  21  52
ATOM     52  O   LIG d   1       8.214   9.912  -1.167  0.00  0.00    -0.514 OA
ATOM     53  H   LIG d   1       7.940  10.502  -0.407  0.00  0.00     0.291 HD
ENDBRANCH  21  52
TORSDOF 4
ENDMDL
