MODEL 1
REMARK VINA RESULT:      -5.8      0.000      0.000
REMARK  9 active torsions:
REMARK  status: ('A' for Active; 'I' for Inactive)
REMARK    1  A    between atoms: C_1  and  C_2 
REMARK    2  A    between atoms: C_3  and  O_27 
REMARK    3  A    between atoms: C_7  and  C_26 
REMARK    4  A    between atoms: C_10  and  O_25 
REMARK    5  A    between atoms: C_15  and  C_17 
REMARK    6  A    between atoms: C_17  and  C_18 
REMARK    7  A    between atoms: C_18  and  C_19 
REMARK    8  A    between atoms: C_19  and  C_24 
REMARK    9  A    between atoms: C_20  and  C_21 
ROOT
ATOM      1  C   LIG d   1       4.543  -1.528  -3.060  0.00  0.00    -0.022 C 
ATOM      2  C   LIG d   1       4.962  -0.332  -2.654  0.00  0.00     0.159 C 
ATOM      3  C   LIG d   1       5.787   0.520  -3.524  0.00  0.00     0.198 C 
ATOM      4  O   LIG d   1       6.036   1.668  -3.222  0.00  0.00    -0.289 OA
ATOM      5  C   LIG d   1       6.318  -0.085  -4.810  0.00  0.00     0.020 C 
ATOM      6  C   LIG d   1       5.197  -0.956  -5.385  0.00  0.00    -0.009 C 
ATOM      7  C   LIG d   1       4.895  -2.092  -4.413  0.00  0.00     0.016 C 
ATOM      8  H   LIG d   1       4.041  -2.669  -4.800  0.00  0.00     0.038 H 
ATOM      9  C   LIG d   1       6.124  -2.993  -4.256  0.00  0.00     0.066 C 
ATOM     10  H   LIG d   1       5.953  -3.766  -3.491  0.00  0.00     0.060 H 
ATOM     11  C   LIG d   1       6.482  -3.626  -5.603  0.00  0.00    -0.005 C 
ATOM     12  C   LIG d   1       6.684  -2.514  -6.609  0.00  0.00    -0.070 C 
ATOM     13  C   LIG d   1       7.777  -2.440  -7.325  0.00  0.00    -0.099 C 
ATOM     14  C   LIG d   1       5.581  -1.490  -6.761  0.00  0.00    -0.013 C 
ATOM     15  H   LIG d   1       5.941  -0.665  -7.392  0.00  0.00     0.035 H 
ATOM     16  H   LIG d   1       6.586   0.720  -5.509  0.00  0.00     0.035 H 
ATOM     17  H   LIG d   1       7.209  -0.691  -4.589  0.00  0.00     0.035 H 
ATOM     18  H   LIG d   1       7.405  -4.214  -5.498  0.00  0.00     0.034 H 
ATOM     19  H   LIG d   1       5.663  -4.285  -5.927  0.00  0.00     0.034 H 
ATOM     20  H   LIG d   1       7.906  -1.624  -8.051  0.00  0.00     0.053 H 
ATOM     21  H   LIG d   1       8.569  -3.193  -7.201  0.00  0.00     0.053 H 
ENDROOT
BRANCH  14  22
ATOM     22  C   LIG d   1       4.361  -2.146  -7.411  0.00  0.00    -0.042 C 
ATOM     23  H   LIG d   1       4.429  -3.238  -7.302  0.00  0.00     0.027 H 
ATOM     24  H   LIG d   1       3.445  -1.785  -6.920  0.00  0.00     0.027 H 
BRANCH  22  25
ATOM     25  C   LIG d   1       4.319  -1.783  -8.897  0.00  0.00    -0.031 C 
ATOM     26  H   LIG d   1       5.345  -1.672  -9.276  0.00  0.00     0.031 H 
ATOM     27  H   LIG d   1       3.806  -2.581  -9.455  0.00  0.00     0.031 H 
BRANCH  25  28
ATOM     28  C   LIG d   1       3.574  -0.486  -9.077  0.00  0.00    -0.071 C 
ATOM     29  C   LIG d   1       4.241   0.666  -9.105  0.00  0.00    -0.040 C 
ATOM     30  H   LIG d   1       5.340   0.664  -9.116  0.00  0.00     0.064 H 
BRANCH  29  31
ATOM     31  C   LIG d   1       3.507   1.939  -9.122  0.00  0.00     0.065 C 
ATOM     32  O   LIG d   1       3.430   2.582 -10.150  0.00  0.00    -0.545 OA
ATOM     33  O   LIG d   1       2.922   2.394  -7.996  0.00  0.00    -0.545 OA
ENDBRANCH  29  31
BRANCH  28  34
ATOM     34  C   LIG d   1       2.075  -0.493  -9.226  0.00  0.00    -0.043 C 
ATOM     35  H   LIG d   1       1.812  -0.502 -10.295  0.00  0.00     0.027 H 
ATOM     36  H   LIG d   1       1.655   0.408  -8.754  0.00  0.00     0.027 H 
ATOM     37  H   LIG d   1       1.662  -1.388  -8.738  0.00  0.00     0.027 H 
ENDBRANCH  28  34
ENDBRANCH  25  28
ENDBRANCH  22  25
ENDBRANCH  14  22
BRANCH   6  38
ATOM     38  C   LIG d   1       3.947  -0.085  -5.528  0.00  0.00    -0.058 C 
ATOM     39  H   LIG d   1       4.123   0.890  -5.050  0.00  0.00     0.024 H 
ATOM     40  H   LIG d   1       3.095  -0.583  -5.043  0.00  0.00     0.024 H 
ATOM     41  H   LIG d   1       3.725   0.066  -6.595  0.00  0.00     0.024 H 
ENDBRANCH   6  38
BRANCH   1  42
ATOM     42  C   LIG d   1       3.687  -2.350  -2.133  0.00  0.00    -0.040 C 
ATOM     43  H   LIG d   1       4.175  -2.422  -1.149  0.00  0.00     0.028 H 
ATOM     44  H   LIG d   1       3.556  -3.359  -2.551  0.00  0.00     0.028 H 
ATOM     45  H   LIG d   1       2.703  -1.870  -2.019  0.00  0.00     0.028 H 
ENDBRANCH   1  42
BRANCH   9  46
ATOM     46  O   LIG d   1       7.226  -2.213  -3.790  0.00  0.00    -0.391 OA
ATOM     47  H   LIG d   1       8.185  -2.699  -3.556  0.00  0.00     0.210 HD
ENDBRANCH   9  46
BRANCH   2  48
ATOM     48  O   LIG d   1       4.619   0.110  -1.415  0.00  0.00    -0.503 OA
ATOM     49  H   LIG d   1       4.682   1.183  -1.177  0.00  0.00     0.292 HD
ENDBRANCH   2  48
TORSDOF 9
ENDMDL
MODEL 2
REMARK VINA RESULT:      -5.6      2.228      5.989
REMARK  9 active torsions:
REMARK  status: ('A' for Active; 'I' for Inactive)
REMARK    1  A    between atoms: C_1  and  C_2 
REMARK    2  A    between atoms: C_3  and  O_27 
REMARK    3  A    between atoms: C_7  and  C_26 
REMARK    4  A    between atoms: C_10  and  O_25 
REMARK    5  A    between atoms: C_15  and  C_17 
REMARK    6  A    between atoms: C_17  and  C_18 
REMARK    7  A    between atoms: C_18  and  C_19 
REMARK    8  A    between atoms: C_19  and  C_24 
REMARK    9  A    between atoms: C_20  and  C_21 
ROOT
ATOM      1  C   LIG d   1       4.404  -3.048  -8.687  0.00  0.00    -0.022 C 
ATOM      2  C   LIG d   1       5.729  -2.963  -8.778  0.00  0.00     0.159 C 
ATOM      3  C   LIG d   1       6.431  -1.702  -8.495  0.00  0.00     0.198 C 
ATOM      4  O   LIG d   1       7.641  -1.661  -8.422  0.00  0.00    -0.289 OA
ATOM      5  C   LIG d   1       5.592  -0.453  -8.298  0.00  0.00     0.020 C 
ATOM      6  C   LIG d   1       4.357  -0.872  -7.494  0.00  0.00    -0.009 C 
ATOM      7  C   LIG d   1       3.542  -1.871  -8.309  0.00  0.00     0.016 C 
ATOM      8  H   LIG d   1       2.697  -2.219  -7.696  0.00  0.00     0.038 H 
ATOM      9  C   LIG d   1       3.034  -1.212  -9.596  0.00  0.00     0.066 C 
ATOM     10  H   LIG d   1       2.520  -1.943 -10.238  0.00  0.00     0.060 H 
ATOM     11  C   LIG d   1       2.111  -0.040  -9.253  0.00  0.00    -0.005 C 
ATOM     12  C   LIG d   1       2.872   0.912  -8.356  0.00  0.00    -0.070 C 
ATOM     13  C   LIG d   1       2.963   2.187  -8.645  0.00  0.00    -0.099 C 
ATOM     14  C   LIG d   1       3.522   0.346  -7.114  0.00  0.00    -0.013 C 
ATOM     15  H   LIG d   1       4.169   1.114  -6.665  0.00  0.00     0.035 H 
ATOM     16  H   LIG d   1       6.178   0.300  -7.751  0.00  0.00     0.035 H 
ATOM     17  H   LIG d   1       5.301  -0.049  -9.279  0.00  0.00     0.035 H 
ATOM     18  H   LIG d   1       1.808   0.471 -10.178  0.00  0.00     0.034 H 
ATOM     19  H   LIG d   1       1.218  -0.417  -8.733  0.00  0.00     0.034 H 
ATOM     20  H   LIG d   1       3.519   2.864  -7.981  0.00  0.00     0.053 H 
ATOM     21  H   LIG d   1       2.483   2.581  -9.554  0.00  0.00     0.053 H 
ENDROOT
BRANCH  14  22
ATOM     22  C   LIG d   1       2.441  -0.069  -6.115  0.00  0.00    -0.042 C 
ATOM     23  H   LIG d   1       1.475  -0.156  -6.633  0.00  0.00     0.027 H 
ATOM     24  H   LIG d   1       2.706  -1.040  -5.670  0.00  0.00     0.027 H 
BRANCH  22  25
ATOM     25  C   LIG d   1       2.335   0.985  -5.011  0.00  0.00    -0.031 C 
ATOM     26  H   LIG d   1       2.736   1.941  -5.378  0.00  0.00     0.031 H 
ATOM     27  H   LIG d   1       1.280   1.115  -4.727  0.00  0.00     0.031 H 
BRANCH  25  28
ATOM     28  C   LIG d   1       3.126   0.536  -3.809  0.00  0.00    -0.071 C 
ATOM     29  C   LIG d   1       4.148   1.270  -3.374  0.00  0.00    -0.040 C 
ATOM     30  H   LIG d   1       4.343   2.258  -3.815  0.00  0.00     0.064 H 
BRANCH  29  31
ATOM     31  C   LIG d   1       5.016   0.758  -2.304  0.00  0.00     0.065 C 
ATOM     32  O   LIG d   1       4.829   1.101  -1.154  0.00  0.00    -0.545 OA
ATOM     33  O   LIG d   1       6.021  -0.090  -2.600  0.00  0.00    -0.545 OA
ENDBRANCH  29  31
BRANCH  28  34
ATOM     34  C   LIG d   1       2.759  -0.741  -3.101  0.00  0.00    -0.043 C 
ATOM     35  H   LIG d   1       3.259  -1.590  -3.593  0.00  0.00     0.027 H 
ATOM     36  H   LIG d   1       1.669  -0.884  -3.142  0.00  0.00     0.027 H 
ATOM     37  H   LIG d   1       3.082  -0.685  -2.050  0.00  0.00     0.027 H 
ENDBRANCH  28  34
ENDBRANCH  25  28
ENDBRANCH  22  25
ENDBRANCH  14  22
BRANCH   6  38
ATOM     38  C   LIG d   1       4.837  -1.558  -6.213  0.00  0.00    -0.058 C 
ATOM     39  H   LIG d   1       5.814  -2.030  -6.394  0.00  0.00     0.024 H 
ATOM     40  H   LIG d   1       4.109  -2.324  -5.912  0.00  0.00     0.024 H 
ATOM     41  H   LIG d   1       4.935  -0.810  -5.412  0.00  0.00     0.024 H 
ENDBRANCH   6  38
BRANCH   1  42
ATOM     42  C   LIG d   1       3.741  -4.370  -8.973  0.00  0.00    -0.040 C 
ATOM     43  H   LIG d   1       2.710  -4.354  -8.589  0.00  0.00     0.028 H 
ATOM     44  H   LIG d   1       4.303  -5.177  -8.481  0.00  0.00     0.028 H 
ATOM     45  H   LIG d   1       3.724  -4.544 -10.060  0.00  0.00     0.028 H 
ENDBRANCH   1  42
BRANCH   9  46
ATOM     46  O   LIG d   1       4.147  -0.734 -10.354  0.00  0.00    -0.391 OA
ATOM     47  H   LIG d   1       5.022  -1.381 -10.515  0.00  0.00     0.210 HD
ENDBRANCH   9  46
BRANCH   2  48
ATOM     48  O   LIG d   1       6.446  -4.061  -9.137  0.00  0.00    -0.503 OA
ATOM     49  H   LIG d   1       7.225  -3.980  -9.910  0.00  0.00     0.292 HD
ENDBRANCH   2  48
TORSDOF 9
ENDMDL
MODEL 3
REMARK VINA RESULT:      -5.6      3.066      6.107
REMARK  9 active torsions:
REMARK  status: ('A' for Active; 'I' for Inactive)
REMARK    1  A    between atoms: C_1  and  C_2 
REMARK    2  A    between atoms: C_3  and  O_27 
REMARK    3  A    between atoms: C_7  and  C_26 
REMARK    4  A    between atoms: C_10  and  O_25 
REMARK    5  A    between atoms: C_15  and  C_17 
REMARK    6  A    between atoms: C_17  and  C_18 
REMARK    7  A    between atoms: C_18  and  C_19 
REMARK    8  A    between atoms: C_19  and  C_24 
REMARK    9  A    between atoms: C_20  and  C_21 
ROOT
ATOM      1  C   LIG d   1       5.296  -2.992  -5.506  0.00  0.00    -0.022 C 
ATOM      2  C   LIG d   1       4.563  -2.735  -6.587  0.00  0.00     0.159 C 
ATOM      3  C   LIG d   1       3.954  -1.413  -6.794  0.00  0.00     0.198 C 
ATOM      4  O   LIG d   1       3.421  -1.126  -7.846  0.00  0.00    -0.289 OA
ATOM      5  C   LIG d   1       4.010  -0.419  -5.649  0.00  0.00     0.020 C 
ATOM      6  C   LIG d   1       5.393  -0.563  -5.006  0.00  0.00    -0.009 C 
ATOM      7  C   LIG d   1       5.535  -1.968  -4.427  0.00  0.00     0.016 C 
ATOM      8  H   LIG d   1       6.555  -2.084  -4.033  0.00  0.00     0.038 H 
ATOM      9  C   LIG d   1       4.502  -2.187  -3.317  0.00  0.00     0.066 C 
ATOM     10  H   LIG d   1       4.530  -3.223  -2.949  0.00  0.00     0.060 H 
ATOM     11  C   LIG d   1       4.744  -1.194  -2.177  0.00  0.00    -0.005 C 
ATOM     12  C   LIG d   1       4.711   0.204  -2.753  0.00  0.00    -0.070 C 
ATOM     13  C   LIG d   1       3.935   1.128  -2.243  0.00  0.00    -0.099 C 
ATOM     14  C   LIG d   1       5.605   0.502  -3.936  0.00  0.00    -0.013 C 
ATOM     15  H   LIG d   1       5.346   1.491  -4.341  0.00  0.00     0.035 H 
ATOM     16  H   LIG d   1       3.864   0.598  -6.039  0.00  0.00     0.035 H 
ATOM     17  H   LIG d   1       3.216  -0.651  -4.923  0.00  0.00     0.035 H 
ATOM     18  H   LIG d   1       3.958  -1.310  -1.417  0.00  0.00     0.034 H 
ATOM     19  H   LIG d   1       5.726  -1.393  -1.721  0.00  0.00     0.034 H 
ATOM     20  H   LIG d   1       3.925   2.139  -2.675  0.00  0.00     0.053 H 
ATOM     21  H   LIG d   1       3.292   0.893  -1.382  0.00  0.00     0.053 H 
ENDROOT
BRANCH  14  22
ATOM     22  C   LIG d   1       7.067   0.491  -3.488  0.00  0.00    -0.042 C 
ATOM     23  H   LIG d   1       7.125   0.211  -2.426  0.00  0.00     0.027 H 
ATOM     24  H   LIG d   1       7.630  -0.238  -4.090  0.00  0.00     0.027 H 
BRANCH  22  25
ATOM     25  C   LIG d   1       7.670   1.885  -3.681  0.00  0.00    -0.031 C 
ATOM     26  H   LIG d   1       7.148   2.399  -4.501  0.00  0.00     0.031 H 
ATOM     27  H   LIG d   1       7.556   2.464  -2.753  0.00  0.00     0.031 H 
BRANCH  25  28
ATOM     28  C   LIG d   1       9.133   1.757  -4.018  0.00  0.00    -0.071 C 
ATOM     29  C   LIG d   1      10.037   2.450  -3.328  0.00  0.00    -0.040 C 
ATOM     30  H   LIG d   1       9.731   3.022  -2.441  0.00  0.00     0.064 H 
BRANCH  29  31
ATOM     31  C   LIG d   1      11.444   2.449  -3.754  0.00  0.00     0.065 C 
ATOM     32  O   LIG d   1      11.875   3.365  -4.427  0.00  0.00    -0.545 OA
ATOM     33  O   LIG d   1      12.254   1.433  -3.400  0.00  0.00    -0.545 OA
ENDBRANCH  29  31
BRANCH  28  34
ATOM     34  C   LIG d   1       9.573   0.845  -5.134  0.00  0.00    -0.043 C 
ATOM     35  H   LIG d   1      10.037   1.442  -5.933  0.00  0.00     0.027 H 
ATOM     36  H   LIG d   1       8.699   0.310  -5.536  0.00  0.00     0.027 H 
ATOM     37  H   LIG d   1      10.302   0.118  -4.747  0.00  0.00     0.027 H 
ENDBRANCH  28  34
ENDBRANCH  25  28
ENDBRANCH  22  25
ENDBRANCH  14  22
BRANCH   6  38
ATOM     38  C   LIG d   1       6.445  -0.374  -6.102  0.00  0.00    -0.058 C 
ATOM     39  H   LIG d   1       6.854  -1.354  -6.390  0.00  0.00     0.024 H 
ATOM     40  H   LIG d   1       7.256   0.266  -5.726  0.00  0.00     0.024 H 
ATOM     41  H   LIG d   1       5.980   0.100  -6.979  0.00  0.00     0.024 H 
ENDBRANCH   6  38
BRANCH   1  42
ATOM     42  C   LIG d   1       5.910  -4.360  -5.355  0.00  0.00    -0.040 C 
ATOM     43  H   LIG d   1       7.001  -4.263  -5.259  0.00  0.00     0.028 H 
ATOM     44  H   LIG d   1       5.673  -4.969  -6.240  0.00  0.00     0.028 H 
ATOM     45  H   LIG d   1       5.505  -4.846  -4.455  0.00  0.00     0.028 H 
ENDBRANCH   1  42
BRANCH   9  46
ATOM     46  O   LIG d   1       3.190  -1.990  -3.846  0.00  0.00    -0.391 OA
ATOM     47  H   LIG d   1       2.319  -2.431  -3.337  0.00  0.00     0.210 HD
ENDBRANCH   9  46
BRANCH   2  48
ATOM     48  O   LIG d   1       4.377  -3.710  -7.516  0.00  0.00    -0.503 OA
ATOM     49  H   LIG d   1       3.601  -3.594  -8.287  0.00  0.00     0.292 HD
ENDBRANCH   2  48
TORSDOF 9
ENDMDL
MODEL 4
REMARK VINA RESULT:      -5.4      9.751     11.465
REMARK  9 active torsions:
REMARK  status: ('A' for Active; 'I' for Inactive)
REMARK    1  A    between atoms: C_1  and  C_2 
REMARK    2  A    between atoms: C_3  and  O_27 
REMARK    3  A    between atoms: C_7  and  C_26 
REMARK    4  A    between atoms: C_10  and  O_25 
REMARK    5  A    between atoms: C_15  and  C_17 
REMARK    6  A    between atoms: C_17  and  C_18 
REMARK    7  A    between atoms: C_18  and  C_19 
REMARK    8  A    between atoms: C_19  and  C_24 
REMARK    9  A    between atoms: C_20  and  C_21 
ROOT
ATOM      1  C   LIG d   1      11.360  -8.561   1.277  0.00  0.00    -0.022 C 
ATOM      2  C   LIG d   1      12.522  -8.123   0.799  0.00  0.00     0.159 C 
ATOM      3  C   LIG d   1      12.906  -8.361  -0.601  0.00  0.00     0.198 C 
ATOM      4  O   LIG d   1      13.886  -7.830  -1.081  0.00  0.00    -0.289 OA
ATOM      5  C   LIG d   1      12.038  -9.294  -1.425  0.00  0.00     0.020 C 
ATOM      6  C   LIG d   1      10.584  -9.001  -1.039  0.00  0.00    -0.009 C 
ATOM      7  C   LIG d   1      10.379  -9.335   0.435  0.00  0.00     0.016 C 
ATOM      8  H   LIG d   1       9.353  -9.054   0.720  0.00  0.00     0.038 H 
ATOM      9  C   LIG d   1      10.611 -10.830   0.675  0.00  0.00     0.066 C 
ATOM     10  H   LIG d   1      10.554 -11.073   1.746  0.00  0.00     0.060 H 
ATOM     11  C   LIG d   1       9.597 -11.650  -0.126  0.00  0.00    -0.005 C 
ATOM     12  C   LIG d   1       9.715 -11.255  -1.582  0.00  0.00    -0.070 C 
ATOM     13  C   LIG d   1       9.890 -12.157  -2.516  0.00  0.00    -0.099 C 
ATOM     14  C   LIG d   1       9.622  -9.785  -1.925  0.00  0.00    -0.013 C 
ATOM     15  H   LIG d   1       9.893  -9.645  -2.981  0.00  0.00     0.035 H 
ATOM     16  H   LIG d   1      12.205  -9.101  -2.494  0.00  0.00     0.035 H 
ATOM     17  H   LIG d   1      12.300 -10.337  -1.194  0.00  0.00     0.035 H 
ATOM     18  H   LIG d   1       9.814 -12.721  -0.006  0.00  0.00     0.034 H 
ATOM     19  H   LIG d   1       8.582 -11.439   0.242  0.00  0.00     0.034 H 
ATOM     20  H   LIG d   1       9.973 -11.850  -3.569  0.00  0.00     0.053 H 
ATOM     21  H   LIG d   1       9.955 -13.222  -2.248  0.00  0.00     0.053 H 
ENDROOT
BRANCH  14  22
ATOM     22  C   LIG d   1       8.194  -9.293  -1.686  0.00  0.00    -0.042 C 
ATOM     23  H   LIG d   1       7.668  -9.997  -1.025  0.00  0.00     0.027 H 
ATOM     24  H   LIG d   1       8.222  -8.299  -1.215  0.00  0.00     0.027 H 
BRANCH  22  25
ATOM     25  C   LIG d   1       7.456  -9.202  -3.024  0.00  0.00    -0.031 C 
ATOM     26  H   LIG d   1       7.277  -8.146  -3.273  0.00  0.00     0.031 H 
ATOM     27  H   LIG d   1       8.067  -9.667  -3.812  0.00  0.00     0.031 H 
BRANCH  25  28
ATOM     28  C   LIG d   1       6.137  -9.924  -2.920  0.00  0.00    -0.071 C 
ATOM     29  C   LIG d   1       5.211  -9.755  -3.861  0.00  0.00    -0.040 C 
ATOM     30  H   LIG d   1       5.449  -9.186  -4.771  0.00  0.00     0.064 H 
BRANCH  29  31
ATOM     31  C   LIG d   1       3.870 -10.331  -3.683  0.00  0.00     0.065 C 
ATOM     32  O   LIG d   1       3.642 -11.465  -4.055  0.00  0.00    -0.545 OA
ATOM     33  O   LIG d   1       2.894  -9.600  -3.110  0.00  0.00    -0.545 OA
ENDBRANCH  29  31
BRANCH  28  34
ATOM     34  C   LIG d   1       5.867 -10.836  -1.751  0.00  0.00    -0.043 C 
ATOM     35  H   LIG d   1       5.202 -10.328  -1.036  0.00  0.00     0.027 H 
ATOM     36  H   LIG d   1       6.817 -11.086  -1.255  0.00  0.00     0.027 H 
ATOM     37  H   LIG d   1       5.387 -11.758  -2.109  0.00  0.00     0.027 H 
ENDBRANCH  28  34
ENDBRANCH  25  28
ENDBRANCH  22  25
ENDBRANCH  14  22
BRANCH   6  38
ATOM     38  C   LIG d   1      10.333  -7.505  -1.244  0.00  0.00    -0.058 C 
ATOM     39  H   LIG d   1      10.738  -7.196  -2.219  0.00  0.00     0.024 H 
ATOM     40  H   LIG d   1      10.827  -6.937  -0.443  0.00  0.00     0.024 H 
ATOM     41  H   LIG d   1       9.251  -7.309  -1.220  0.00  0.00     0.024 H 
ENDBRANCH   6  38
BRANCH   1  42
ATOM     42  C   LIG d   1      11.013  -8.274   2.715  0.00  0.00    -0.040 C 
ATOM     43  H   LIG d   1      11.832  -7.707   3.183  0.00  0.00     0.028 H 
ATOM     44  H   LIG d   1      10.868  -9.221   3.254  0.00  0.00     0.028 H 
ATOM     45  H   LIG d   1      10.087  -7.681   2.757  0.00  0.00     0.028 H 
ENDBRANCH   1  42
BRANCH   9  46
ATOM     46  O   LIG d   1      11.934 -11.176   0.261  0.00  0.00    -0.391 OA
ATOM     47  H   LIG d   1      12.650 -11.584   0.990  0.00  0.00     0.210 HD
ENDBRANCH   9  46
BRANCH   2  48
ATOM     48  O   LIG d   1      13.368  -7.443   1.617  0.00  0.00    -0.503 OA
ATOM     49  H   LIG d   1      14.211  -6.879   1.191  0.00  0.00     0.292 HD
ENDBRANCH   2  48
TORSDOF 9
ENDMDL
MODEL 5
REMARK VINA RESULT:      -5.0     11.465     14.178
REMARK  9 active torsions:
REMARK  status: ('A' for Active; 'I' for Inactive)
REMARK    1  A    between atoms: C_1  and  C_2 
REMARK    2  A    between atoms: C_3  and  O_27 
REMARK    3  A    between atoms: C_7  and  C_26 
REMARK    4  A    between atoms: C_10  and  O_25 
REMARK    5  A    between atoms: C_15  and  C_17 
REMARK    6  A    between atoms: C_17  and  C_18 
REMARK    7  A    between atoms: C_18  and  C_19 
REMARK    8  A    between atoms: C_19  and  C_24 
REMARK    9  A    between atoms: C_20  and  C_21 
ROOT
ATOM      1  C   LIG d   1      -3.809   0.770 -13.940  0.00  0.00    -0.022 C 
ATOM      2  C   LIG d   1      -4.470   0.100 -14.880  0.00  0.00     0.159 C 
ATOM      3  C   LIG d   1      -5.558   0.732 -15.641  0.00  0.00     0.198 C 
ATOM      4  O   LIG d   1      -6.054   0.179 -16.601  0.00  0.00    -0.289 OA
ATOM      5  C   LIG d   1      -6.041   2.096 -15.187  0.00  0.00     0.020 C 
ATOM      6  C   LIG d   1      -4.798   2.890 -14.771  0.00  0.00    -0.009 C 
ATOM      7  C   LIG d   1      -4.135   2.198 -13.584  0.00  0.00     0.016 C 
ATOM      8  H   LIG d   1      -3.206   2.734 -13.339  0.00  0.00     0.038 H 
ATOM      9  C   LIG d   1      -5.083   2.191 -12.380  0.00  0.00     0.066 C 
ATOM     10  H   LIG d   1      -4.656   1.619 -11.544  0.00  0.00     0.060 H 
ATOM     11  C   LIG d   1      -5.398   3.628 -11.956  0.00  0.00    -0.005 C 
ATOM     12  C   LIG d   1      -5.961   4.361 -13.154  0.00  0.00    -0.070 C 
ATOM     13  C   LIG d   1      -7.101   5.001 -13.080  0.00  0.00    -0.099 C 
ATOM     14  C   LIG d   1      -5.165   4.332 -14.439  0.00  0.00    -0.013 C 
ATOM     15  H   LIG d   1      -5.775   4.755 -15.250  0.00  0.00     0.035 H 
ATOM     16  H   LIG d   1      -6.564   2.594 -16.016  0.00  0.00     0.035 H 
ATOM     17  H   LIG d   1      -6.730   1.977 -14.338  0.00  0.00     0.035 H 
ATOM     18  H   LIG d   1      -6.133   3.617 -11.139  0.00  0.00     0.034 H 
ATOM     19  H   LIG d   1      -4.475   4.119 -11.612  0.00  0.00     0.034 H 
ATOM     20  H   LIG d   1      -7.495   5.529 -13.962  0.00  0.00     0.053 H 
ATOM     21  H   LIG d   1      -7.667   5.012 -12.137  0.00  0.00     0.053 H 
ENDROOT
BRANCH  14  22
ATOM     22  C   LIG d   1      -3.887   5.156 -14.268  0.00  0.00    -0.042 C 
ATOM     23  H   LIG d   1      -3.591   5.159 -13.209  0.00  0.00     0.027 H 
ATOM     24  H   LIG d   1      -3.082   4.713 -14.873  0.00  0.00     0.027 H 
BRANCH  22  25
ATOM     25  C   LIG d   1      -4.141   6.593 -14.730  0.00  0.00    -0.031 C 
ATOM     26  H   LIG d   1      -4.923   6.596 -15.503  0.00  0.00     0.031 H 
ATOM     27  H   LIG d   1      -4.469   7.200 -13.874  0.00  0.00     0.031 H 
BRANCH  25  28
ATOM     28  C   LIG d   1      -2.870   7.169 -15.299  0.00  0.00    -0.071 C 
ATOM     29  C   LIG d   1      -2.017   7.810 -14.503  0.00  0.00    -0.040 C 
ATOM     30  H   LIG d   1      -2.178   7.817 -13.416  0.00  0.00     0.064 H 
BRANCH  29  31
ATOM     31  C   LIG d   1      -0.859   8.508 -15.080  0.00  0.00     0.065 C 
ATOM     32  O   LIG d   1       0.255   8.036 -14.962  0.00  0.00    -0.545 OA
ATOM     33  O   LIG d   1      -1.032   9.671 -15.737  0.00  0.00    -0.545 OA
ENDBRANCH  29  31
BRANCH  28  34
ATOM     34  C   LIG d   1      -2.567   7.020 -16.767  0.00  0.00    -0.043 C 
ATOM     35  H   LIG d   1      -3.286   6.322 -17.221  0.00  0.00     0.027 H 
ATOM     36  H   LIG d   1      -1.546   6.628 -16.893  0.00  0.00     0.027 H 
ATOM     37  H   LIG d   1      -2.646   8.001 -17.259  0.00  0.00     0.027 H 
ENDBRANCH  28  34
ENDBRANCH  25  28
ENDBRANCH  22  25
ENDBRANCH  14  22
BRANCH   6  38
ATOM     38  C   LIG d   1      -3.821   2.890 -15.949  0.00  0.00    -0.058 C 
ATOM     39  H   LIG d   1      -2.911   2.339 -15.671  0.00  0.00     0.024 H 
ATOM     40  H   LIG d   1      -3.559   3.925 -16.209  0.00  0.00     0.024 H 
ATOM     41  H   LIG d   1      -4.293   2.403 -16.816  0.00  0.00     0.024 H 
ENDBRANCH   6  38
BRANCH   1  42
ATOM     42  C   LIG d   1      -2.693   0.077 -13.203  0.00  0.00    -0.040 C 
ATOM     43  H   LIG d   1      -2.565   0.539 -12.213  0.00  0.00     0.028 H 
ATOM     44  H   LIG d   1      -1.759   0.172 -13.776  0.00  0.00     0.028 H 
ATOM     45  H   LIG d   1      -2.941  -0.989 -13.080  0.00  0.00     0.028 H 
ENDBRANCH   1  42
BRANCH   9  46
ATOM     46  O   LIG d   1      -6.295   1.525 -12.737  0.00  0.00    -0.391 OA
ATOM     47  H   LIG d   1      -7.174   1.592 -12.079  0.00  0.00     0.210 HD
ENDBRANCH   9  46
BRANCH   2  48
ATOM     48  O   LIG d   1      -4.134  -1.191 -15.141  0.00  0.00    -0.503 OA
ATOM     49  H   LIG d   1      -3.104  -1.537 -14.967  0.00  0.00     0.292 HD
ENDBRANCH   2  48
TORSDOF 9
ENDMDL
MODEL 6
REMARK VINA RESULT:      -5.0      1.589      3.894
REMARK  9 active torsions:
REMARK  status: ('A' for Active; 'I' for Inactive)
REMARK    1  A    between atoms: C_1  and  C_2 
REMARK    2  A    between atoms: C_3  and  O_27 
REMARK    3  A    between atoms: C_7  and  C_26 
REMARK    4  A    between atoms: C_10  and  O_25 
REMARK    5  A    between atoms: C_15  and  C_17 
REMARK    6  A    between atoms: C_17  and  C_18 
REMARK    7  A    between atoms: C_18  and  C_19 
REMARK    8  A    between atoms: C_19  and  C_24 
REMARK    9  A    between atoms: C_20  and  C_21 
ROOT
ATOM      1  C   LIG d   1       8.039  -1.620  -5.198  0.00  0.00    -0.022 C 
ATOM      2  C   LIG d   1       8.170  -2.941  -5.291  0.00  0.00     0.159 C 
ATOM      3  C   LIG d   1       7.007  -3.831  -5.156  0.00  0.00     0.198 C 
ATOM      4  O   LIG d   1       7.094  -5.017  -5.396  0.00  0.00    -0.289 OA
ATOM      5  C   LIG d   1       5.695  -3.218  -4.704  0.00  0.00     0.020 C 
ATOM      6  C   LIG d   1       5.577  -1.859  -5.403  0.00  0.00    -0.009 C 
ATOM      7  C   LIG d   1       6.713  -0.954  -4.935  0.00  0.00     0.016 C 
ATOM      8  H   LIG d   1       6.662  -0.008  -5.495  0.00  0.00     0.038 H 
ATOM      9  C   LIG d   1       6.594  -0.693  -3.430  0.00  0.00     0.066 C 
ATOM     10  H   LIG d   1       7.454  -0.116  -3.060  0.00  0.00     0.060 H 
ATOM     11  C   LIG d   1       5.278   0.029  -3.129  0.00  0.00    -0.005 C 
ATOM     12  C   LIG d   1       4.144  -0.806  -3.680  0.00  0.00    -0.070 C 
ATOM     13  C   LIG d   1       3.130  -1.152  -2.926  0.00  0.00    -0.099 C 
ATOM     14  C   LIG d   1       4.217  -1.228  -5.131  0.00  0.00    -0.013 C 
ATOM     15  H   LIG d   1       3.421  -1.960  -5.333  0.00  0.00     0.035 H 
ATOM     16  H   LIG d   1       4.864  -3.878  -4.992  0.00  0.00     0.035 H 
ATOM     17  H   LIG d   1       5.704  -3.095  -3.611  0.00  0.00     0.035 H 
ATOM     18  H   LIG d   1       5.167   0.149  -2.042  0.00  0.00     0.034 H 
ATOM     19  H   LIG d   1       5.286   1.020  -3.608  0.00  0.00     0.034 H 
ATOM     20  H   LIG d   1       2.315  -1.760  -3.345  0.00  0.00     0.053 H 
ATOM     21  H   LIG d   1       3.094  -0.837  -1.873  0.00  0.00     0.053 H 
ENDROOT
BRANCH  14  22
ATOM     22  C   LIG d   1       4.034  -0.003  -6.029  0.00  0.00    -0.042 C 
ATOM     23  H   LIG d   1       4.031   0.908  -5.413  0.00  0.00     0.027 H 
ATOM     24  H   LIG d   1       4.861   0.047  -6.753  0.00  0.00     0.027 H 
BRANCH  22  25
ATOM     25  C   LIG d   1       2.705  -0.115  -6.780  0.00  0.00    -0.031 C 
ATOM     26  H   LIG d   1       2.330  -1.146  -6.709  0.00  0.00     0.031 H 
ATOM     27  H   LIG d   1       1.973   0.574  -6.333  0.00  0.00     0.031 H 
BRANCH  25  28
ATOM     28  C   LIG d   1       2.915   0.246  -8.228  0.00  0.00    -0.071 C 
ATOM     29  C   LIG d   1       3.925   1.039  -8.576  0.00  0.00    -0.040 C 
ATOM     30  H   LIG d   1       4.674   1.336  -7.828  0.00  0.00     0.064 H 
BRANCH  29  31
ATOM     31  C   LIG d   1       4.038   1.519  -9.961  0.00  0.00     0.065 C 
ATOM     32  O   LIG d   1       3.512   2.565 -10.286  0.00  0.00    -0.545 OA
ATOM     33  O   LIG d   1       4.723   0.798 -10.870  0.00  0.00    -0.545 OA
ENDBRANCH  29  31
BRANCH  28  34
ATOM     34  C   LIG d   1       1.981  -0.293  -9.281  0.00  0.00    -0.043 C 
ATOM     35  H   LIG d   1       1.126  -0.786  -8.795  0.00  0.00     0.027 H 
ATOM     36  H   LIG d   1       2.516  -1.022  -9.908  0.00  0.00     0.027 H 
ATOM     37  H   LIG d   1       1.619   0.535  -9.909  0.00  0.00     0.027 H 
ENDBRANCH  28  34
ENDBRANCH  25  28
ENDBRANCH  22  25
ENDBRANCH  14  22
BRANCH   6  38
ATOM     38  C   LIG d   1       5.720  -2.089  -6.910  0.00  0.00    -0.058 C 
ATOM     39  H   LIG d   1       5.978  -1.140  -7.402  0.00  0.00     0.024 H 
ATOM     40  H   LIG d   1       4.770  -2.467  -7.315  0.00  0.00     0.024 H 
ATOM     41  H   LIG d   1       6.516  -2.826  -7.094  0.00  0.00     0.024 H 
ENDBRANCH   6  38
BRANCH   1  42
ATOM     42  C   LIG d   1       9.263  -0.757  -5.361  0.00  0.00    -0.040 C 
ATOM     43  H   LIG d   1       9.376  -0.110  -4.479  0.00  0.00     0.028 H 
ATOM     44  H   LIG d   1       9.157  -0.134  -6.262  0.00  0.00     0.028 H 
ATOM     45  H   LIG d   1      10.153  -1.397  -5.461  0.00  0.00     0.028 H 
ENDBRANCH   1  42
BRANCH   9  46
ATOM     46  O   LIG d   1       6.622  -1.938  -2.731  0.00  0.00    -0.391 OA
ATOM     47  H   LIG d   1       7.239  -2.048  -1.826  0.00  0.00     0.210 HD
ENDBRANCH   9  46
BRANCH   2  48
ATOM     48  O   LIG d   1       9.399  -3.477  -5.516  0.00  0.00    -0.503 OA
ATOM     49  H   LIG d   1       9.503  -4.365  -6.156  0.00  0.00     0.292 HD
ENDBRANCH   2  48
TORSDOF 9
ENDMDL
MODEL 7
REMARK VINA RESULT:      -5.0      8.393     10.423
REMARK  9 active torsions:
REMARK  status: ('A' for Active; 'I' for Inactive)
REMARK    1  A    between atoms: C_1  and  C_2 
REMARK    2  A    between atoms: C_3  and  O_27 
REMARK    3  A    between atoms: C_7  and  C_26 
REMARK    4  A    between atoms: C_10  and  O_25 
REMARK    5  A    between atoms: C_15  and  C_17 
REMARK    6  A    between atoms: C_17  and  C_18 
REMARK    7  A    between atoms: C_18  and  C_19 
REMARK    8  A    between atoms: C_19  and  C_24 
REMARK    9  A    between atoms: C_20  and  C_21 
ROOT
ATOM      1  C   LIG d   1      11.159   6.576   1.090  0.00  0.00    -0.022 C 
ATOM      2  C   LIG d   1      11.506   7.795   1.496  0.00  0.00     0.159 C 
ATOM      3  C   LIG d   1      11.840   8.851   0.529  0.00  0.00     0.198 C 
ATOM      4  O   LIG d   1      12.001  10.000   0.887  0.00  0.00    -0.289 OA
ATOM      5  C   LIG d   1      11.979   8.459  -0.930  0.00  0.00     0.020 C 
ATOM      6  C   LIG d   1      10.874   7.438  -1.220  0.00  0.00    -0.009 C 
ATOM      7  C   LIG d   1      11.102   6.194  -0.367  0.00  0.00     0.016 C 
ATOM      8  H   LIG d   1      10.265   5.498  -0.529  0.00  0.00     0.038 H 
ATOM      9  C   LIG d   1      12.431   5.532  -0.744  0.00  0.00     0.066 C 
ATOM     10  H   LIG d   1      12.654   4.685  -0.079  0.00  0.00     0.060 H 
ATOM     11  C   LIG d   1      12.393   5.083  -2.207  0.00  0.00    -0.005 C 
ATOM     12  C   LIG d   1      12.063   6.287  -3.062  0.00  0.00    -0.070 C 
ATOM     13  C   LIG d   1      12.817   6.621  -4.080  0.00  0.00    -0.099 C 
ATOM     14  C   LIG d   1      10.834   7.093  -2.704  0.00  0.00    -0.013 C 
ATOM     15  H   LIG d   1      10.825   8.017  -3.300  0.00  0.00     0.035 H 
ATOM     16  H   LIG d   1      11.863   9.351  -1.562  0.00  0.00     0.035 H 
ATOM     17  H   LIG d   1      12.972   8.017  -1.097  0.00  0.00     0.035 H 
ATOM     18  H   LIG d   1      13.373   4.674  -2.491  0.00  0.00     0.034 H 
ATOM     19  H   LIG d   1      11.622   4.308  -2.333  0.00  0.00     0.034 H 
ATOM     20  H   LIG d   1      12.561   7.500  -4.690  0.00  0.00     0.053 H 
ATOM     21  H   LIG d   1      13.708   6.024  -4.325  0.00  0.00     0.053 H 
ENDROOT
BRANCH  14  22
ATOM     22  C   LIG d   1       9.579   6.271  -3.003  0.00  0.00    -0.042 C 
ATOM     23  H   LIG d   1       9.777   5.209  -2.796  0.00  0.00     0.027 H 
ATOM     24  H   LIG d   1       8.752   6.621  -2.368  0.00  0.00     0.027 H 
BRANCH  22  25
ATOM     25  C   LIG d   1       9.198   6.440  -4.476  0.00  0.00    -0.031 C 
ATOM     26  H   LIG d   1       8.133   6.703  -4.550  0.00  0.00     0.031 H 
ATOM     27  H   LIG d   1       9.806   7.240  -4.922  0.00  0.00     0.031 H 
BRANCH  25  28
ATOM     28  C   LIG d   1       9.449   5.148  -5.211  0.00  0.00    -0.071 C 
ATOM     29  C   LIG d   1       9.256   3.985  -4.595  0.00  0.00    -0.040 C 
ATOM     30  H   LIG d   1       8.803   3.960  -3.594  0.00  0.00     0.064 H 
BRANCH  29  31
ATOM     31  C   LIG d   1       9.649   2.731  -5.255  0.00  0.00     0.065 C 
ATOM     32  O   LIG d   1       8.829   2.093  -5.885  0.00  0.00    -0.545 OA
ATOM     33  O   LIG d   1      10.919   2.288  -5.159  0.00  0.00    -0.545 OA
ENDBRANCH  29  31
BRANCH  28  34
ATOM     34  C   LIG d   1       9.917   5.176  -6.643  0.00  0.00    -0.043 C 
ATOM     35  H   LIG d   1      10.497   4.266  -6.856  0.00  0.00     0.027 H 
ATOM     36  H   LIG d   1      10.551   6.061  -6.805  0.00  0.00     0.027 H 
ATOM     37  H   LIG d   1       9.046   5.222  -7.313  0.00  0.00     0.027 H 
ENDBRANCH  28  34
ENDBRANCH  25  28
ENDBRANCH  22  25
ENDBRANCH  14  22
BRANCH   6  38
ATOM     38  C   LIG d   1       9.535   8.066  -0.826  0.00  0.00    -0.058 C 
ATOM     39  H   LIG d   1       9.707   9.075  -0.424  0.00  0.00     0.024 H 
ATOM     40  H   LIG d   1       9.049   7.444  -0.061  0.00  0.00     0.024 H 
ATOM     41  H   LIG d   1       8.886   8.132  -1.712  0.00  0.00     0.024 H 
ENDBRANCH   6  38
BRANCH   1  42
ATOM     42  C   LIG d   1      10.811   5.539   2.125  0.00  0.00    -0.040 C 
ATOM     43  H   LIG d   1      11.632   5.458   2.854  0.00  0.00     0.028 H 
ATOM     44  H   LIG d   1      10.660   4.566   1.635  0.00  0.00     0.028 H 
ATOM     45  H   LIG d   1       9.888   5.835   2.646  0.00  0.00     0.028 H 
ENDBRANCH   1  42
BRANCH   9  46
ATOM     46  O   LIG d   1      13.494   6.468  -0.563  0.00  0.00    -0.391 OA
ATOM     47  H   LIG d   1      14.422   6.157  -0.059  0.00  0.00     0.210 HD
ENDBRANCH   9  46
BRANCH   2  48
ATOM     48  O   LIG d   1      11.550   8.069   2.827  0.00  0.00    -0.503 OA
ATOM     49  H   LIG d   1      12.316   8.752   3.223  0.00  0.00     0.292 HD
ENDBRANCH   2  48
TORSDOF 9
ENDMDL
MODEL 8
REMARK VINA RESULT:      -5.0      3.314      6.206
REMARK  9 active torsions:
REMARK  status: ('A' for Active; 'I' for Inactive)
REMARK    1  A    between atoms: C_1  and  C_2 
REMARK    2  A    between atoms: C_3  and  O_27 
REMARK    3  A    between atoms: C_7  and  C_26 
REMARK    4  A    between atoms: C_10  and  O_25 
REMARK    5  A    between atoms: C_15  and  C_17 
REMARK    6  A    between atoms: C_17  and  C_18 
REMARK    7  A    between atoms: C_18  and  C_19 
REMARK    8  A    between atoms: C_19  and  C_24 
REMARK    9  A    between atoms: C_20  and  C_21 
ROOT
ATOM      1  C   LIG d   1       5.896  -5.257  -8.196  0.00  0.00    -0.022 C 
ATOM      2  C   LIG d   1       6.331  -6.499  -7.992  0.00  0.00     0.159 C 
ATOM      3  C   LIG d   1       6.838  -6.920  -6.678  0.00  0.00     0.198 C 
ATOM      4  O   LIG d   1       7.085  -8.085  -6.446  0.00  0.00    -0.289 OA
ATOM      5  C   LIG d   1       7.045  -5.851  -5.622  0.00  0.00     0.020 C 
ATOM      6  C   LIG d   1       5.869  -4.876  -5.743  0.00  0.00    -0.009 C 
ATOM      7  C   LIG d   1       5.910  -4.208  -7.114  0.00  0.00     0.016 C 
ATOM      8  H   LIG d   1       5.023  -3.565  -7.219  0.00  0.00     0.038 H 
ATOM      9  C   LIG d   1       7.191  -3.381  -7.260  0.00  0.00     0.066 C 
ATOM     10  H   LIG d   1       7.280  -2.964  -8.274  0.00  0.00     0.060 H 
ATOM     11  C   LIG d   1       7.217  -2.270  -6.208  0.00  0.00    -0.005 C 
ATOM     12  C   LIG d   1       7.072  -2.908  -4.843  0.00  0.00    -0.070 C 
ATOM     13  C   LIG d   1       7.928  -2.657  -3.885  0.00  0.00    -0.099 C 
ATOM     14  C   LIG d   1       5.906  -3.844  -4.622  0.00  0.00    -0.013 C 
ATOM     15  H   LIG d   1       6.031  -4.352  -3.655  0.00  0.00     0.035 H 
ATOM     16  H   LIG d   1       7.065  -6.318  -4.627  0.00  0.00     0.035 H 
ATOM     17  H   LIG d   1       8.000  -5.335  -5.805  0.00  0.00     0.035 H 
ATOM     18  H   LIG d   1       8.170  -1.726  -6.272  0.00  0.00     0.034 H 
ATOM     19  H   LIG d   1       6.385  -1.573  -6.390  0.00  0.00     0.034 H 
ATOM     20  H   LIG d   1       7.806  -3.130  -2.899  0.00  0.00     0.053 H 
ATOM     21  H   LIG d   1       8.771  -1.973  -4.064  0.00  0.00     0.053 H 
ENDROOT
BRANCH  14  22
ATOM     22  C   LIG d   1       4.601  -3.045  -4.622  0.00  0.00    -0.042 C 
ATOM     23  H   LIG d   1       4.747  -2.103  -5.170  0.00  0.00     0.027 H 
ATOM     24  H   LIG d   1       3.811  -3.634  -5.111  0.00  0.00     0.027 H 
BRANCH  22  25
ATOM     25  C   LIG d   1       4.191  -2.739  -3.180  0.00  0.00    -0.031 C 
ATOM     26  H   LIG d   1       3.227  -3.223  -2.963  0.00  0.00     0.031 H 
ATOM     27  H   LIG d   1       4.958  -3.122  -2.491  0.00  0.00     0.031 H 
BRANCH  25  28
ATOM     28  C   LIG d   1       4.056  -1.248  -3.002  0.00  0.00    -0.071 C 
ATOM     29  C   LIG d   1       5.135  -0.507  -2.763  0.00  0.00    -0.040 C 
ATOM     30  H   LIG d   1       6.135  -0.960  -2.812  0.00  0.00     0.064 H 
BRANCH  29  31
ATOM     31  C   LIG d   1       4.989   0.918  -2.434  0.00  0.00     0.065 C 
ATOM     32  O   LIG d   1       5.034   1.753  -3.316  0.00  0.00    -0.545 OA
ATOM     33  O   LIG d   1       4.806   1.299  -1.154  0.00  0.00    -0.545 OA
ENDBRANCH  29  31
BRANCH  28  34
ATOM     34  C   LIG d   1       2.700  -0.598  -3.095  0.00  0.00    -0.043 C 
ATOM     35  H   LIG d   1       2.732   0.389  -2.610  0.00  0.00     0.027 H 
ATOM     36  H   LIG d   1       1.954  -1.231  -2.591  0.00  0.00     0.027 H 
ATOM     37  H   LIG d   1       2.423  -0.478  -4.153  0.00  0.00     0.027 H 
ENDBRANCH  28  34
ENDBRANCH  25  28
ENDBRANCH  22  25
ENDBRANCH  14  22
BRANCH   6  38
ATOM     38  C   LIG d   1       4.573  -5.683  -5.627  0.00  0.00    -0.058 C 
ATOM     39  H   LIG d   1       3.898  -5.412  -6.452  0.00  0.00     0.024 H 
ATOM     40  H   LIG d   1       4.088  -5.460  -4.666  0.00  0.00     0.024 H 
ATOM     41  H   LIG d   1       4.804  -6.757  -5.681  0.00  0.00     0.024 H 
ENDBRANCH   6  38
BRANCH   1  42
ATOM     42  C   LIG d   1       5.372  -4.887  -9.559  0.00  0.00    -0.040 C 
ATOM     43  H   LIG d   1       5.965  -5.399 -10.331  0.00  0.00     0.028 H 
ATOM     44  H   LIG d   1       5.450  -3.798  -9.699  0.00  0.00     0.028 H 
ATOM     45  H   LIG d   1       4.319  -5.194  -9.643  0.00  0.00     0.028 H 
ENDBRANCH   1  42
BRANCH   9  46
ATOM     46  O   LIG d   1       8.325  -4.230  -7.081  0.00  0.00    -0.391 OA
ATOM     47  H   LIG d   1       9.231  -4.075  -7.686  0.00  0.00     0.210 HD
ENDBRANCH   9  46
BRANCH   2  48
ATOM     48  O   LIG d   1       6.304  -7.392  -9.017  0.00  0.00    -0.503 OA
ATOM     49  H   LIG d   1       6.710  -8.405  -8.875  0.00  0.00     0.292 HD
ENDBRANCH   2  48
TORSDOF 9
ENDMDL
MODEL 9
REMARK VINA RESULT:      -4.9     10.536     12.356
REMARK  9 active torsions:
REMARK  status: ('A' for Active; 'I' for Inactive)
REMARK    1  A    between atoms: C_1  and  C_2 
REMARK    2  A    between atoms: C_3  and  O_27 
REMARK    3  A    between atoms: C_7  and  C_26 
REMARK    4  A    between atoms: C_10  and  O_25 
REMARK    5  A    between atoms: C_15  and  C_17 
REMARK    6  A    between atoms: C_17  and  C_18 
REMARK    7  A    between atoms: C_18  and  C_19 
REMARK    8  A    between atoms: C_19  and  C_24 
REMARK    9  A    between atoms: C_20  and  C_21 
ROOT
ATOM      1  C   LIG d   1      10.590   6.457  -1.352  0.00  0.00    -0.022 C 
ATOM      2  C   LIG d   1      10.833   6.532  -0.045  0.00  0.00     0.159 C 
ATOM      3  C   LIG d   1      11.273   7.790   0.575  0.00  0.00     0.198 C 
ATOM      4  O   LIG d   1      11.342   7.903   1.782  0.00  0.00    -0.289 OA
ATOM      5  C   LIG d   1      11.640   8.942  -0.341  0.00  0.00     0.020 C 
ATOM      6  C   LIG d   1      10.624   8.936  -1.488  0.00  0.00    -0.009 C 
ATOM      7  C   LIG d   1      10.763   7.636  -2.275  0.00  0.00     0.016 C 
ATOM      8  H   LIG d   1       9.983   7.609  -3.050  0.00  0.00     0.038 H 
ATOM      9  C   LIG d   1      12.154   7.551  -2.911  0.00  0.00     0.066 C 
ATOM     10  H   LIG d   1      12.303   6.581  -3.408  0.00  0.00     0.060 H 
ATOM     11  C   LIG d   1      12.348   8.707  -3.896  0.00  0.00    -0.005 C 
ATOM     12  C   LIG d   1      12.110  10.004  -3.155  0.00  0.00    -0.070 C 
ATOM     13  C   LIG d   1      12.996  10.969  -3.179  0.00  0.00    -0.099 C 
ATOM     14  C   LIG d   1      10.816  10.152  -2.387  0.00  0.00    -0.013 C 
ATOM     15  H   LIG d   1      10.865  11.063  -1.772  0.00  0.00     0.035 H 
ATOM     16  H   LIG d   1      11.590   9.886   0.220  0.00  0.00     0.035 H 
ATOM     17  H   LIG d   1      12.661   8.795  -0.723  0.00  0.00     0.035 H 
ATOM     18  H   LIG d   1      13.372   8.681  -4.295  0.00  0.00     0.034 H 
ATOM     19  H   LIG d   1      11.630   8.607  -4.724  0.00  0.00     0.034 H 
ATOM     20  H   LIG d   1      12.805  11.905  -2.634  0.00  0.00     0.053 H 
ATOM     21  H   LIG d   1      13.932  10.844  -3.743  0.00  0.00     0.053 H 
ENDROOT
BRANCH  14  22
ATOM     22  C   LIG d   1       9.647  10.251  -3.368  0.00  0.00    -0.042 C 
ATOM     23  H   LIG d   1       9.825   9.579  -4.220  0.00  0.00     0.027 H 
ATOM     24  H   LIG d   1       8.716   9.959  -2.859  0.00  0.00     0.027 H 
BRANCH  22  25
ATOM     25  C   LIG d   1       9.523  11.691  -3.870  0.00  0.00    -0.031 C 
ATOM     26  H   LIG d   1       8.522  12.078  -3.631  0.00  0.00     0.031 H 
ATOM     27  H   LIG d   1      10.285  12.316  -3.381  0.00  0.00     0.031 H 
BRANCH  25  28
ATOM     28  C   LIG d   1       9.731  11.722  -5.363  0.00  0.00    -0.071 C 
ATOM     29  C   LIG d   1       9.902  12.886  -5.986  0.00  0.00    -0.040 C 
ATOM     30  H   LIG d   1      10.009  13.811  -5.403  0.00  0.00     0.064 H 
BRANCH  29  31
ATOM     31  C   LIG d   1       9.946  12.932  -7.455  0.00  0.00     0.065 C 
ATOM     32  O   LIG d   1       8.927  13.126  -8.087  0.00  0.00    -0.545 OA
ATOM     33  O   LIG d   1      11.117  12.758  -8.099  0.00  0.00    -0.545 OA
ENDBRANCH  29  31
BRANCH  28  34
ATOM     34  C   LIG d   1       9.746  10.436  -6.148  0.00  0.00    -0.043 C 
ATOM     35  H   LIG d   1       9.663  10.662  -7.222  0.00  0.00     0.027 H 
ATOM     36  H   LIG d   1       8.897   9.808  -5.839  0.00  0.00     0.027 H 
ATOM     37  H   LIG d   1      10.687   9.900  -5.956  0.00  0.00     0.027 H 
ENDBRANCH  28  34
ENDBRANCH  25  28
ENDBRANCH  22  25
ENDBRANCH  14  22
BRANCH   6  38
ATOM     38  C   LIG d   1       9.221   8.993  -0.877  0.00  0.00    -0.058 C 
ATOM     39  H   LIG d   1       8.497   8.558  -1.581  0.00  0.00     0.024 H 
ATOM     40  H   LIG d   1       8.952  10.040  -0.673  0.00  0.00     0.024 H 
ATOM     41  H   LIG d   1       9.208   8.422   0.063  0.00  0.00     0.024 H 
ENDBRANCH   6  38
BRANCH   1  42
ATOM     42  C   LIG d   1      10.126   5.146  -1.930  0.00  0.00    -0.040 C 
ATOM     43  H   LIG d   1       9.778   4.490  -1.118  0.00  0.00     0.028 H 
ATOM     44  H   LIG d   1      10.960   4.662  -2.459  0.00  0.00     0.028 H 
ATOM     45  H   LIG d   1       9.300   5.327  -2.634  0.00  0.00     0.028 H 
ENDBRANCH   1  42
BRANCH   9  46
ATOM     46  O   LIG d   1      13.147   7.628  -1.888  0.00  0.00    -0.391 OA
ATOM     47  H   LIG d   1      14.212   7.523  -2.145  0.00  0.00     0.210 HD
ENDBRANCH   9  46
BRANCH   2  48
ATOM     48  O   LIG d   1      10.670   5.425   0.728  0.00  0.00    -0.503 OA
ATOM     49  H   LIG d   1      10.467   5.532   1.804  0.00  0.00     0.292 HD
ENDBRANCH   2  48
TORSDOF 9
ENDMDL
