MODEL 1
REMARK VINA RESULT:      -6.0      0.000      0.000
REMARK  9 active torsions:
REMARK  status: ('A' for Active; 'I' for Inactive)
REMARK    1  A    between atoms: C_1  and  N_2 
REMARK    2  A    between atoms: C_9  and  O_28 
REMARK    3  A    between atoms: C_11  and  C_13 
REMARK    4  A    between atoms: N_17  and  C_18 
REMARK    5  A    between atoms: C_21  and  O_26 
REMARK    6  A    between atoms: C_22  and  O_24 
REMARK    7  A    between atoms: O_24  and  C_25 
REMARK    8  A    between atoms: O_26  and  C_27 
REMARK    9  A    between atoms: O_28  and  C_29 
ROOT
ATOM      1  N   LIG d   1       6.216  -2.488  -7.997  0.00  0.00    -0.292 N 
ATOM      2  C   LIG d   1       6.066  -3.833  -7.417  0.00  0.00     0.004 C 
ATOM      3  C   LIG d   1       6.434  -3.765  -5.935  0.00  0.00    -0.014 C 
ATOM      4  C   LIG d   1       5.687  -2.637  -5.270  0.00  0.00    -0.034 A 
ATOM      5  C   LIG d   1       5.607  -2.624  -3.885  0.00  0.00    -0.012 A 
ATOM      6  C   LIG d   1       4.936  -1.607  -3.230  0.00  0.00     0.170 A 
ATOM      7  C   LIG d   1       4.337  -0.590  -3.966  0.00  0.00     0.208 A 
ATOM      8  C   LIG d   1       4.418  -0.605  -5.350  0.00  0.00     0.171 A 
ATOM      9  C   LIG d   1       5.095  -1.631  -6.004  0.00  0.00     0.026 A 
ATOM     10  C   LIG d   1       5.153  -1.604  -7.509  0.00  0.00     0.102 C 
ATOM     11  H   LIG d   1       4.203  -1.975  -7.921  0.00  0.00     0.060 H 
ATOM     12  O   LIG d   1       3.744   0.286  -3.100  0.00  0.00    -0.449 OA
ATOM     13  C   LIG d   1       4.334   0.014  -1.816  0.00  0.00     0.233 C 
ATOM     14  O   LIG d   1       4.718  -1.371  -1.903  0.00  0.00    -0.453 OA
ATOM     15  H   LIG d   1       5.025  -4.167  -7.532  0.00  0.00     0.043 H 
ATOM     16  H   LIG d   1       6.736  -4.533  -7.939  0.00  0.00     0.043 H 
ATOM     17  H   LIG d   1       6.165  -4.714  -5.447  0.00  0.00     0.033 H 
ATOM     18  H   LIG d   1       7.515  -3.593  -5.832  0.00  0.00     0.033 H 
ATOM     19  H   LIG d   1       6.071  -3.415  -3.315  0.00  0.00     0.066 H 
ATOM     20  H   LIG d   1       5.198   0.677  -1.660  0.00  0.00     0.117 H 
ATOM     21  H   LIG d   1       3.589   0.191  -1.025  0.00  0.00     0.117 H 
ENDROOT
BRANCH  10  22
ATOM     22  C   LIG d   1       5.425  -0.197  -7.971  0.00  0.00     0.178 A 
ATOM     23  N   LIG d   1       4.784   0.458  -8.964  0.00  0.00    -0.195 N 
ATOM     24  N   LIG d   1       5.388   1.728  -9.018  0.00  0.00    -0.039 NA
ATOM     25  N   LIG d   1       6.297   1.743  -8.104  0.00  0.00    -0.023 NA
ATOM     26  N   LIG d   1       6.321   0.620  -7.483  0.00  0.00    -0.111 NA
BRANCH  23  27
ATOM     27  C   LIG d   1       3.740  -0.024  -9.768  0.00  0.00     0.073 A 
ATOM     28  C   LIG d   1       3.969  -0.304 -11.107  0.00  0.00     0.009 A 
ATOM     29  C   LIG d   1       2.938  -0.785 -11.898  0.00  0.00     0.164 A 
ATOM     30  H   LIG d   1       4.950  -0.151 -11.532  0.00  0.00     0.068 H 
ATOM     31  C   LIG d   1       1.673  -0.976 -11.350  0.00  0.00     0.162 A 
ATOM     32  C   LIG d   1       1.448  -0.690 -10.012  0.00  0.00    -0.014 A 
ATOM     33  C   LIG d   1       2.477  -0.215  -9.223  0.00  0.00    -0.033 A 
ATOM     34  H   LIG d   1       0.466  -0.839  -9.587  0.00  0.00     0.066 H 
ATOM     35  H   LIG d   1       2.300   0.007  -8.182  0.00  0.00     0.064 H 
BRANCH  29  36
ATOM     36  O   LIG d   1       3.161  -1.066 -13.210  0.00  0.00    -0.491 OA
BRANCH  36  37
ATOM     37  C   LIG d   1       4.439  -0.711 -13.742  0.00  0.00     0.079 C 
ATOM     38  H   LIG d   1       4.524   0.384 -13.788  0.00  0.00     0.066 H 
ATOM     39  H   LIG d   1       4.543  -1.129 -14.754  0.00  0.00     0.066 H 
ATOM     40  H   LIG d   1       5.231  -1.114 -13.095  0.00  0.00     0.066 H 
ENDBRANCH  36  37
ENDBRANCH  29  36
BRANCH  31  41
ATOM     41  O   LIG d   1       0.659  -1.444 -12.126  0.00  0.00    -0.491 OA
BRANCH  41  42
ATOM     42  C   LIG d   1       0.413  -2.851 -12.093  0.00  0.00     0.079 C 
ATOM     43  H   LIG d   1       0.358  -3.189 -11.047  0.00  0.00     0.066 H 
ATOM     44  H   LIG d   1       1.230  -3.379 -12.606  0.00  0.00     0.066 H 
ATOM     45  H   LIG d   1      -0.540  -3.069 -12.599  0.00  0.00     0.066 H 
ENDBRANCH  41  42
ENDBRANCH  31  41
ENDBRANCH  23  27
ENDBRANCH  10  22
BRANCH   1  46
ATOM     46  C   LIG d   1       6.221  -2.545  -9.465  0.00  0.00    -0.012 C 
ATOM     47  H   LIG d   1       6.952  -3.295  -9.801  0.00  0.00     0.039 H 
ATOM     48  H   LIG d   1       6.493  -1.559  -9.869  0.00  0.00     0.039 H 
ATOM     49  H   LIG d   1       5.219  -2.824  -9.824  0.00  0.00     0.039 H 
ENDBRANCH   1  46
BRANCH   8  50
ATOM     50  O   LIG d   1       3.834   0.388  -6.073  0.00  0.00    -0.491 OA
BRANCH  50  51
ATOM     51  C   LIG d   1       2.430   0.583  -5.892  0.00  0.00     0.079 C 
ATOM     52  H   LIG d   1       2.245   1.611  -5.548  0.00  0.00     0.066 H 
ATOM     53  H   LIG d   1       2.056  -0.128  -5.140  0.00  0.00     0.066 H 
ATOM     54  H   LIG d   1       1.910   0.415  -6.846  0.00  0.00     0.066 H 
ENDBRANCH  50  51
ENDBRANCH   8  50
TORSDOF 9
ENDMDL
MODEL 2
REMARK VINA RESULT:      -5.8      1.543      1.945
REMARK  9 active torsions:
REMARK  status: ('A' for Active; 'I' for Inactive)
REMARK    1  A    between atoms: C_1  and  N_2 
REMARK    2  A    between atoms: C_9  and  O_28 
REMARK    3  A    between atoms: C_11  and  C_13 
REMARK    4  A    between atoms: N_17  and  C_18 
REMARK    5  A    between atoms: C_21  and  O_26 
REMARK    6  A    between atoms: C_22  and  O_24 
REMARK    7  A    between atoms: O_24  and  C_25 
REMARK    8  A    between atoms: O_26  and  C_27 
REMARK    9  A    between atoms: O_28  and  C_29 
ROOT
ATOM      1  N   LIG d   1       6.975  -2.218  -7.082  0.00  0.00    -0.292 N 
ATOM      2  C   LIG d   1       7.096  -3.372  -6.177  0.00  0.00     0.004 C 
ATOM      3  C   LIG d   1       7.310  -2.852  -4.755  0.00  0.00    -0.014 C 
ATOM      4  C   LIG d   1       6.266  -1.817  -4.422  0.00  0.00    -0.034 A 
ATOM      5  C   LIG d   1       6.068  -1.484  -3.090  0.00  0.00    -0.012 A 
ATOM      6  C   LIG d   1       5.123  -0.537  -2.736  0.00  0.00     0.170 A 
ATOM      7  C   LIG d   1       4.368   0.087  -3.724  0.00  0.00     0.208 A 
ATOM      8  C   LIG d   1       4.567  -0.249  -5.055  0.00  0.00     0.171 A 
ATOM      9  C   LIG d   1       5.519  -1.203  -5.405  0.00  0.00     0.026 A 
ATOM     10  C   LIG d   1       5.697  -1.533  -6.863  0.00  0.00     0.102 C 
ATOM     11  H   LIG d   1       4.899  -2.218  -7.187  0.00  0.00     0.060 H 
ATOM     12  O   LIG d   1       3.515   0.973  -3.129  0.00  0.00    -0.449 OA
ATOM     13  C   LIG d   1       4.041   1.181  -1.805  0.00  0.00     0.233 C 
ATOM     14  O   LIG d   1       4.745  -0.043  -1.521  0.00  0.00    -0.453 OA
ATOM     15  H   LIG d   1       6.176  -3.972  -6.223  0.00  0.00     0.043 H 
ATOM     16  H   LIG d   1       7.953  -3.990  -6.484  0.00  0.00     0.043 H 
ATOM     17  H   LIG d   1       7.231  -3.688  -4.044  0.00  0.00     0.033 H 
ATOM     18  H   LIG d   1       8.308  -2.398  -4.677  0.00  0.00     0.033 H 
ATOM     19  H   LIG d   1       6.654  -1.969  -2.325  0.00  0.00     0.066 H 
ATOM     20  H   LIG d   1       4.709   2.055  -1.808  0.00  0.00     0.117 H 
ATOM     21  H   LIG d   1       3.211   1.356  -1.104  0.00  0.00     0.117 H 
ENDROOT
BRANCH  10  22
ATOM     22  C   LIG d   1       5.669  -0.261  -7.669  0.00  0.00     0.178 A 
ATOM     23  N   LIG d   1       4.797   0.045  -8.654  0.00  0.00    -0.195 N 
ATOM     24  N   LIG d   1       5.174   1.326  -9.096  0.00  0.00    -0.039 NA
ATOM     25  N   LIG d   1       6.190   1.678  -8.384  0.00  0.00    -0.023 NA
ATOM     26  N   LIG d   1       6.483   0.755  -7.542  0.00  0.00    -0.111 NA
BRANCH  23  27
ATOM     27  C   LIG d   1       3.741  -0.745  -9.132  0.00  0.00     0.073 A 
ATOM     28  C   LIG d   1       3.851  -2.128  -9.128  0.00  0.00     0.009 A 
ATOM     29  C   LIG d   1       2.805  -2.906  -9.596  0.00  0.00     0.164 A 
ATOM     30  H   LIG d   1       4.750  -2.598  -8.757  0.00  0.00     0.068 H 
ATOM     31  C   LIG d   1       1.650  -2.299 -10.079  0.00  0.00     0.162 A 
ATOM     32  C   LIG d   1       1.546  -0.917 -10.086  0.00  0.00    -0.014 A 
ATOM     33  C   LIG d   1       2.587  -0.142  -9.614  0.00  0.00    -0.033 A 
ATOM     34  H   LIG d   1       0.648  -0.446 -10.460  0.00  0.00     0.066 H 
ATOM     35  H   LIG d   1       2.504   0.935  -9.621  0.00  0.00     0.064 H 
BRANCH  29  36
ATOM     36  O   LIG d   1       2.909  -4.263  -9.588  0.00  0.00    -0.491 OA
BRANCH  36  37
ATOM     37  C   LIG d   1       3.569  -4.856  -8.467  0.00  0.00     0.079 C 
ATOM     38  H   LIG d   1       4.658  -4.772  -8.598  0.00  0.00     0.066 H 
ATOM     39  H   LIG d   1       3.289  -5.918  -8.398  0.00  0.00     0.066 H 
ATOM     40  H   LIG d   1       3.268  -4.337  -7.547  0.00  0.00     0.066 H 
ENDBRANCH  36  37
ENDBRANCH  29  36
BRANCH  31  41
ATOM     41  O   LIG d   1       0.623  -3.061 -10.543  0.00  0.00    -0.491 OA
BRANCH  41  42
ATOM     42  C   LIG d   1       0.477  -3.160 -11.961  0.00  0.00     0.079 C 
ATOM     43  H   LIG d   1      -0.249  -2.410 -12.307  0.00  0.00     0.066 H 
ATOM     44  H   LIG d   1       0.118  -4.166 -12.223  0.00  0.00     0.066 H 
ATOM     45  H   LIG d   1       1.450  -2.980 -12.443  0.00  0.00     0.066 H 
ENDBRANCH  41  42
ENDBRANCH  31  41
ENDBRANCH  23  27
ENDBRANCH  10  22
BRANCH   1  46
ATOM     46  C   LIG d   1       7.118  -2.631  -8.484  0.00  0.00    -0.012 C 
ATOM     47  H   LIG d   1       6.137  -2.600  -8.979  0.00  0.00     0.039 H 
ATOM     48  H   LIG d   1       7.517  -3.656  -8.525  0.00  0.00     0.039 H 
ATOM     49  H   LIG d   1       7.810  -1.949  -8.999  0.00  0.00     0.039 H 
ENDBRANCH   1  46
BRANCH   8  50
ATOM     50  O   LIG d   1       3.830   0.358  -6.023  0.00  0.00    -0.491 OA
BRANCH  50  51
ATOM     51  C   LIG d   1       2.409   0.296  -5.892  0.00  0.00     0.079 C 
ATOM     52  H   LIG d   1       2.082   1.005  -5.116  0.00  0.00     0.066 H 
ATOM     53  H   LIG d   1       2.112  -0.723  -5.605  0.00  0.00     0.066 H 
ATOM     54  H   LIG d   1       1.940   0.559  -6.851  0.00  0.00     0.066 H 
ENDBRANCH  50  51
ENDBRANCH   8  50
TORSDOF 9
ENDMDL
MODEL 3
REMARK VINA RESULT:      -5.7      3.294      4.671
REMARK  9 active torsions:
REMARK  status: ('A' for Active; 'I' for Inactive)
REMARK    1  A    between atoms: C_1  and  N_2 
REMARK    2  A    between atoms: C_9  and  O_28 
REMARK    3  A    between atoms: C_11  and  C_13 
REMARK    4  A    between atoms: N_17  and  C_18 
REMARK    5  A    between atoms: C_21  and  O_26 
REMARK    6  A    between atoms: C_22  and  O_24 
REMARK    7  A    between atoms: O_24  and  C_25 
REMARK    8  A    between atoms: O_26  and  C_27 
REMARK    9  A    between atoms: O_28  and  C_29 
ROOT
ATOM      1  N   LIG d   1       7.791  -3.456  -5.612  0.00  0.00    -0.292 N 
ATOM      2  C   LIG d   1       8.971  -2.773  -5.055  0.00  0.00     0.004 C 
ATOM      3  C   LIG d   1       8.704  -1.268  -5.055  0.00  0.00    -0.014 C 
ATOM      4  C   LIG d   1       7.370  -0.981  -4.415  0.00  0.00    -0.034 A 
ATOM      5  C   LIG d   1       7.101   0.317  -4.003  0.00  0.00    -0.012 A 
ATOM      6  C   LIG d   1       5.889   0.629  -3.414  0.00  0.00     0.170 A 
ATOM      7  C   LIG d   1       4.933  -0.365  -3.233  0.00  0.00     0.208 A 
ATOM      8  C   LIG d   1       5.205  -1.661  -3.645  0.00  0.00     0.171 A 
ATOM      9  C   LIG d   1       6.426  -1.970  -4.237  0.00  0.00     0.026 A 
ATOM     10  C   LIG d   1       6.674  -3.392  -4.665  0.00  0.00     0.102 C 
ATOM     11  H   LIG d   1       6.951  -3.998  -3.790  0.00  0.00     0.060 H 
ATOM     12  O   LIG d   1       3.834   0.188  -2.638  0.00  0.00    -0.449 OA
ATOM     13  C   LIG d   1       3.969   1.609  -2.828  0.00  0.00     0.233 C 
ATOM     14  O   LIG d   1       5.392   1.806  -2.931  0.00  0.00    -0.453 OA
ATOM     15  H   LIG d   1       9.145  -3.124  -4.028  0.00  0.00     0.043 H 
ATOM     16  H   LIG d   1       9.851  -2.999  -5.675  0.00  0.00     0.043 H 
ATOM     17  H   LIG d   1       9.496  -0.756  -4.488  0.00  0.00     0.033 H 
ATOM     18  H   LIG d   1       8.696  -0.897  -6.091  0.00  0.00     0.033 H 
ATOM     19  H   LIG d   1       7.845   1.087  -4.143  0.00  0.00     0.066 H 
ATOM     20  H   LIG d   1       3.439   1.908  -3.744  0.00  0.00     0.117 H 
ATOM     21  H   LIG d   1       3.536   2.136  -1.965  0.00  0.00     0.117 H 
ENDROOT
BRANCH  10  22
ATOM     22  C   LIG d   1       5.433  -3.937  -5.322  0.00  0.00     0.178 A 
ATOM     23  N   LIG d   1       4.815  -3.430  -6.411  0.00  0.00    -0.195 N 
ATOM     24  N   LIG d   1       3.715  -4.276  -6.639  0.00  0.00    -0.039 NA
ATOM     25  N   LIG d   1       3.749  -5.181  -5.721  0.00  0.00    -0.023 NA
ATOM     26  N   LIG d   1       4.756  -4.991  -4.948  0.00  0.00    -0.111 NA
BRANCH  23  27
ATOM     27  C   LIG d   1       5.191  -2.302  -7.156  0.00  0.00     0.073 A 
ATOM     28  C   LIG d   1       4.472  -1.121  -7.038  0.00  0.00     0.009 A 
ATOM     29  C   LIG d   1       4.848  -0.007  -7.770  0.00  0.00     0.164 A 
ATOM     30  H   LIG d   1       3.623  -1.069  -6.373  0.00  0.00     0.068 H 
ATOM     31  C   LIG d   1       5.939  -0.078  -8.632  0.00  0.00     0.162 A 
ATOM     32  C   LIG d   1       6.651  -1.261  -8.751  0.00  0.00    -0.014 A 
ATOM     33  C   LIG d   1       6.279  -2.370  -8.016  0.00  0.00    -0.033 A 
ATOM     34  H   LIG d   1       7.498  -1.316  -9.419  0.00  0.00     0.066 H 
ATOM     35  H   LIG d   1       6.834  -3.291  -8.111  0.00  0.00     0.064 H 
BRANCH  29  36
ATOM     36  O   LIG d   1       4.149   1.154  -7.652  0.00  0.00    -0.491 OA
BRANCH  36  37
ATOM     37  C   LIG d   1       2.949   1.270  -8.419  0.00  0.00     0.079 C 
ATOM     38  H   LIG d   1       3.060   2.083  -9.151  0.00  0.00     0.066 H 
ATOM     39  H   LIG d   1       2.106   1.493  -7.748  0.00  0.00     0.066 H 
ATOM     40  H   LIG d   1       2.757   0.324  -8.946  0.00  0.00     0.066 H 
ENDBRANCH  36  37
ENDBRANCH  29  36
BRANCH  31  41
ATOM     41  O   LIG d   1       6.307   1.013  -9.355  0.00  0.00    -0.491 OA
BRANCH  41  42
ATOM     42  C   LIG d   1       7.410   1.777  -8.863  0.00  0.00     0.079 C 
ATOM     43  H   LIG d   1       7.961   2.213  -9.710  0.00  0.00     0.066 H 
ATOM     44  H   LIG d   1       8.081   1.122  -8.288  0.00  0.00     0.066 H 
ATOM     45  H   LIG d   1       7.037   2.582  -8.212  0.00  0.00     0.066 H 
ENDBRANCH  41  42
ENDBRANCH  31  41
ENDBRANCH  23  27
ENDBRANCH  10  22
BRANCH   1  46
ATOM     46  C   LIG d   1       8.106  -4.847  -5.964  0.00  0.00    -0.012 C 
ATOM     47  H   LIG d   1       7.572  -5.123  -6.885  0.00  0.00     0.039 H 
ATOM     48  H   LIG d   1       7.793  -5.512  -5.145  0.00  0.00     0.039 H 
ATOM     49  H   LIG d   1       9.189  -4.949  -6.124  0.00  0.00     0.039 H 
ENDBRANCH   1  46
BRANCH   8  50
ATOM     50  O   LIG d   1       4.273  -2.636  -3.470  0.00  0.00    -0.491 OA
BRANCH  50  51
ATOM     51  C   LIG d   1       3.606  -2.677  -2.207  0.00  0.00     0.079 C 
ATOM     52  H   LIG d   1       4.353  -2.724  -1.400  0.00  0.00     0.066 H 
ATOM     53  H   LIG d   1       2.962  -3.567  -2.162  0.00  0.00     0.066 H 
ATOM     54  H   LIG d   1       2.992  -1.773  -2.086  0.00  0.00     0.066 H 
ENDBRANCH  50  51
ENDBRANCH   8  50
TORSDOF 9
ENDMDL
MODEL 4
REMARK VINA RESULT:      -5.5      3.375      6.458
REMARK  9 active torsions:
REMARK  status: ('A' for Active; 'I' for Inactive)
REMARK    1  A    between atoms: C_1  and  N_2 
REMARK    2  A    between atoms: C_9  and  O_28 
REMARK    3  A    between atoms: C_11  and  C_13 
REMARK    4  A    between atoms: N_17  and  C_18 
REMARK    5  A    between atoms: C_21  and  O_26 
REMARK    6  A    between atoms: C_22  and  O_24 
REMARK    7  A    between atoms: O_24  and  C_25 
REMARK    8  A    between atoms: O_26  and  C_27 
REMARK    9  A    between atoms: O_28  and  C_29 
ROOT
ATOM      1  N   LIG d   1       6.566  -2.854  -7.943  0.00  0.00    -0.292 N 
ATOM      2  C   LIG d   1       7.808  -2.147  -8.296  0.00  0.00     0.004 C 
ATOM      3  C   LIG d   1       8.474  -1.665  -7.007  0.00  0.00    -0.014 C 
ATOM      4  C   LIG d   1       8.579  -2.803  -6.024  0.00  0.00    -0.034 A 
ATOM      5  C   LIG d   1       9.450  -2.671  -4.952  0.00  0.00    -0.012 A 
ATOM      6  C   LIG d   1       9.578  -3.688  -4.023  0.00  0.00     0.170 A 
ATOM      7  C   LIG d   1       8.826  -4.850  -4.163  0.00  0.00     0.208 A 
ATOM      8  C   LIG d   1       7.957  -4.979  -5.236  0.00  0.00     0.171 A 
ATOM      9  C   LIG d   1       7.832  -3.953  -6.168  0.00  0.00     0.026 A 
ATOM     10  C   LIG d   1       6.876  -4.142  -7.316  0.00  0.00     0.102 C 
ATOM     11  H   LIG d   1       7.342  -4.777  -8.084  0.00  0.00     0.060 H 
ATOM     12  O   LIG d   1       9.126  -5.693  -3.130  0.00  0.00    -0.449 OA
ATOM     13  C   LIG d   1       9.763  -4.869  -2.136  0.00  0.00     0.233 C 
ATOM     14  O   LIG d   1      10.351  -3.801  -2.902  0.00  0.00    -0.453 OA
ATOM     15  H   LIG d   1       8.480  -2.833  -8.832  0.00  0.00     0.043 H 
ATOM     16  H   LIG d   1       7.570  -1.287  -8.940  0.00  0.00     0.043 H 
ATOM     17  H   LIG d   1       9.482  -1.288  -7.234  0.00  0.00     0.033 H 
ATOM     18  H   LIG d   1       7.872  -0.858  -6.563  0.00  0.00     0.033 H 
ATOM     19  H   LIG d   1      10.034  -1.769  -4.845  0.00  0.00     0.066 H 
ATOM     20  H   LIG d   1       9.009  -4.505  -1.423  0.00  0.00     0.117 H 
ATOM     21  H   LIG d   1      10.519  -5.462  -1.599  0.00  0.00     0.117 H 
ENDROOT
BRANCH  10  22
ATOM     22  C   LIG d   1       5.603  -4.766  -6.806  0.00  0.00     0.178 A 
ATOM     23  N   LIG d   1       4.730  -4.209  -5.938  0.00  0.00    -0.195 N 
ATOM     24  N   LIG d   1       3.714  -5.166  -5.771  0.00  0.00    -0.039 NA
ATOM     25  N   LIG d   1       4.032  -6.175  -6.510  0.00  0.00    -0.023 NA
ATOM     26  N   LIG d   1       5.136  -5.945  -7.122  0.00  0.00    -0.111 NA
BRANCH  23  27
ATOM     27  C   LIG d   1       4.818  -2.945  -5.335  0.00  0.00     0.073 A 
ATOM     28  C   LIG d   1       4.283  -1.834  -5.971  0.00  0.00     0.009 A 
ATOM     29  C   LIG d   1       4.365  -0.588  -5.371  0.00  0.00     0.164 A 
ATOM     30  H   LIG d   1       3.799  -1.940  -6.931  0.00  0.00     0.068 H 
ATOM     31  C   LIG d   1       4.994  -0.451  -4.137  0.00  0.00     0.162 A 
ATOM     32  C   LIG d   1       5.532  -1.563  -3.508  0.00  0.00    -0.014 A 
ATOM     33  C   LIG d   1       5.445  -2.806  -4.104  0.00  0.00    -0.033 A 
ATOM     34  H   LIG d   1       6.020  -1.457  -2.549  0.00  0.00     0.066 H 
ATOM     35  H   LIG d   1       5.865  -3.671  -3.613  0.00  0.00     0.064 H 
BRANCH  29  36
ATOM     36  O   LIG d   1       3.836   0.502  -5.990  0.00  0.00    -0.491 OA
BRANCH  36  37
ATOM     37  C   LIG d   1       2.998   0.262  -7.123  0.00  0.00     0.079 C 
ATOM     38  H   LIG d   1       1.946   0.255  -6.804  0.00  0.00     0.066 H 
ATOM     39  H   LIG d   1       3.253  -0.711  -7.566  0.00  0.00     0.066 H 
ATOM     40  H   LIG d   1       3.151   1.056  -7.867  0.00  0.00     0.066 H 
ENDBRANCH  36  37
ENDBRANCH  29  36
BRANCH  31  41
ATOM     41  O   LIG d   1       5.080   0.771  -3.548  0.00  0.00    -0.491 OA
BRANCH  41  42
ATOM     42  C   LIG d   1       4.777   0.843  -2.154  0.00  0.00     0.079 C 
ATOM     43  H   LIG d   1       4.188   1.750  -1.953  0.00  0.00     0.066 H 
ATOM     44  H   LIG d   1       5.713   0.879  -1.577  0.00  0.00     0.066 H 
ATOM     45  H   LIG d   1       4.198  -0.045  -1.859  0.00  0.00     0.066 H 
ENDBRANCH  41  42
ENDBRANCH  31  41
ENDBRANCH  23  27
ENDBRANCH  10  22
BRANCH   1  46
ATOM     46  C   LIG d   1       5.710  -3.034  -9.123  0.00  0.00    -0.012 C 
ATOM     47  H   LIG d   1       6.301  -2.867 -10.035  0.00  0.00     0.039 H 
ATOM     48  H   LIG d   1       4.879  -2.313  -9.087  0.00  0.00     0.039 H 
ATOM     49  H   LIG d   1       5.307  -4.057  -9.131  0.00  0.00     0.039 H 
ENDBRANCH   1  46
BRANCH   8  50
ATOM     50  O   LIG d   1       7.220  -6.114  -5.377  0.00  0.00    -0.491 OA
BRANCH  50  51
ATOM     51  C   LIG d   1       7.935  -7.323  -5.637  0.00  0.00     0.079 C 
ATOM     52  H   LIG d   1       7.579  -8.112  -4.958  0.00  0.00     0.066 H 
ATOM     53  H   LIG d   1       9.010  -7.156  -5.473  0.00  0.00     0.066 H 
ATOM     54  H   LIG d   1       7.767  -7.632  -6.680  0.00  0.00     0.066 H 
ENDBRANCH  50  51
ENDBRANCH   8  50
TORSDOF 9
ENDMDL
MODEL 5
REMARK VINA RESULT:      -5.5      3.448      5.144
REMARK  9 active torsions:
REMARK  status: ('A' for Active; 'I' for Inactive)
REMARK    1  A    between atoms: C_1  and  N_2 
REMARK    2  A    between atoms: C_9  and  O_28 
REMARK    3  A    between atoms: C_11  and  C_13 
REMARK    4  A    between atoms: N_17  and  C_18 
REMARK    5  A    between atoms: C_21  and  O_26 
REMARK    6  A    between atoms: C_22  and  O_24 
REMARK    7  A    between atoms: O_24  and  C_25 
REMARK    8  A    between atoms: O_26  and  C_27 
REMARK    9  A    between atoms: O_28  and  C_29 
ROOT
ATOM      1  N   LIG d   1       7.540  -1.884  -4.298  0.00  0.00    -0.292 N 
ATOM      2  C   LIG d   1       8.830  -2.386  -4.798  0.00  0.00     0.004 C 
ATOM      3  C   LIG d   1       8.930  -3.876  -4.469  0.00  0.00    -0.014 C 
ATOM      4  C   LIG d   1       7.683  -4.590  -4.925  0.00  0.00    -0.034 A 
ATOM      5  C   LIG d   1       7.719  -5.972  -5.039  0.00  0.00    -0.012 A 
ATOM      6  C   LIG d   1       6.599  -6.671  -5.452  0.00  0.00     0.170 A 
ATOM      7  C   LIG d   1       5.428  -5.983  -5.753  0.00  0.00     0.208 A 
ATOM      8  C   LIG d   1       5.395  -4.602  -5.639  0.00  0.00     0.171 A 
ATOM      9  C   LIG d   1       6.526  -3.903  -5.224  0.00  0.00     0.026 A 
ATOM     10  C   LIG d   1       6.441  -2.403  -5.118  0.00  0.00     0.102 C 
ATOM     11  H   LIG d   1       6.538  -1.956  -6.118  0.00  0.00     0.060 H 
ATOM     12  O   LIG d   1       4.475  -6.886  -6.131  0.00  0.00    -0.449 OA
ATOM     13  C   LIG d   1       4.950  -8.163  -5.666  0.00  0.00     0.233 C 
ATOM     14  O   LIG d   1       6.381  -8.006  -5.641  0.00  0.00    -0.453 OA
ATOM     15  H   LIG d   1       8.883  -2.238  -5.886  0.00  0.00     0.043 H 
ATOM     16  H   LIG d   1       9.650  -1.838  -4.312  0.00  0.00     0.043 H 
ATOM     17  H   LIG d   1       9.803  -4.306  -4.981  0.00  0.00     0.033 H 
ATOM     18  H   LIG d   1       9.043  -4.004  -3.382  0.00  0.00     0.033 H 
ATOM     19  H   LIG d   1       8.629  -6.505  -4.806  0.00  0.00     0.066 H 
ATOM     20  H   LIG d   1       4.535  -8.368  -4.668  0.00  0.00     0.117 H 
ATOM     21  H   LIG d   1       4.629  -8.950  -6.365  0.00  0.00     0.117 H 
ENDROOT
BRANCH  10  22
ATOM     22  C   LIG d   1       5.127  -2.023  -4.487  0.00  0.00     0.178 A 
ATOM     23  N   LIG d   1       4.209  -1.175  -4.998  0.00  0.00    -0.195 N 
ATOM     24  N   LIG d   1       3.167  -1.145  -4.053  0.00  0.00    -0.039 NA
ATOM     25  N   LIG d   1       3.515  -1.935  -3.095  0.00  0.00    -0.023 NA
ATOM     26  N   LIG d   1       4.661  -2.457  -3.344  0.00  0.00    -0.111 NA
BRANCH  23  27
ATOM     27  C   LIG d   1       4.278  -0.474  -6.212  0.00  0.00     0.073 A 
ATOM     28  C   LIG d   1       5.487  -0.369  -6.884  0.00  0.00     0.009 A 
ATOM     29  C   LIG d   1       5.552   0.318  -8.085  0.00  0.00     0.164 A 
ATOM     30  H   LIG d   1       6.376  -0.826  -6.474  0.00  0.00     0.068 H 
ATOM     31  C   LIG d   1       4.408   0.911  -8.608  0.00  0.00     0.162 A 
ATOM     32  C   LIG d   1       3.203   0.808  -7.931  0.00  0.00    -0.014 A 
ATOM     33  C   LIG d   1       3.137   0.118  -6.736  0.00  0.00    -0.033 A 
ATOM     34  H   LIG d   1       2.314   1.268  -8.338  0.00  0.00     0.066 H 
ATOM     35  H   LIG d   1       2.198   0.040  -6.210  0.00  0.00     0.064 H 
BRANCH  29  36
ATOM     36  O   LIG d   1       6.736   0.418  -8.748  0.00  0.00    -0.491 OA
BRANCH  36  37
ATOM     37  C   LIG d   1       7.892  -0.113  -8.097  0.00  0.00     0.079 C 
ATOM     38  H   LIG d   1       8.158  -1.077  -8.554  0.00  0.00     0.066 H 
ATOM     39  H   LIG d   1       7.674  -0.261  -7.029  0.00  0.00     0.066 H 
ATOM     40  H   LIG d   1       8.730   0.590  -8.207  0.00  0.00     0.066 H 
ENDBRANCH  36  37
ENDBRANCH  29  36
BRANCH  31  41
ATOM     41  O   LIG d   1       4.471   1.590  -9.785  0.00  0.00    -0.491 OA
BRANCH  41  42
ATOM     42  C   LIG d   1       3.885   0.964 -10.928  0.00  0.00     0.079 C 
ATOM     43  H   LIG d   1       2.821   1.238 -10.991  0.00  0.00     0.066 H 
ATOM     44  H   LIG d   1       3.977  -0.128 -10.835  0.00  0.00     0.066 H 
ATOM     45  H   LIG d   1       4.406   1.300 -11.837  0.00  0.00     0.066 H 
ENDBRANCH  41  42
ENDBRANCH  31  41
ENDBRANCH  23  27
ENDBRANCH  10  22
BRANCH   1  46
ATOM     46  C   LIG d   1       7.524  -0.415  -4.265  0.00  0.00    -0.012 C 
ATOM     47  H   LIG d   1       8.161  -0.023  -5.070  0.00  0.00     0.039 H 
ATOM     48  H   LIG d   1       7.904  -0.066  -3.293  0.00  0.00     0.039 H 
ATOM     49  H   LIG d   1       6.494  -0.056  -4.405  0.00  0.00     0.039 H 
ENDBRANCH   1  46
BRANCH   8  50
ATOM     50  O   LIG d   1       4.253  -3.925  -5.933  0.00  0.00    -0.491 OA
BRANCH  50  51
ATOM     51  C   LIG d   1       3.861  -3.880  -7.306  0.00  0.00     0.079 C 
ATOM     52  H   LIG d   1       3.887  -4.896  -7.728  0.00  0.00     0.066 H 
ATOM     53  H   LIG d   1       4.554  -3.234  -7.864  0.00  0.00     0.066 H 
ATOM     54  H   LIG d   1       2.840  -3.477  -7.383  0.00  0.00     0.066 H 
ENDBRANCH  50  51
ENDBRANCH   8  50
TORSDOF 9
ENDMDL
MODEL 6
REMARK VINA RESULT:      -5.4      3.504      6.363
REMARK  9 active torsions:
REMARK  status: ('A' for Active; 'I' for Inactive)
REMARK    1  A    between atoms: C_1  and  N_2 
REMARK    2  A    between atoms: C_9  and  O_28 
REMARK    3  A    between atoms: C_11  and  C_13 
REMARK    4  A    between atoms: N_17  and  C_18 
REMARK    5  A    between atoms: C_21  and  O_26 
REMARK    6  A    between atoms: C_22  and  O_24 
REMARK    7  A    between atoms: O_24  and  C_25 
REMARK    8  A    between atoms: O_26  and  C_27 
REMARK    9  A    between atoms: O_28  and  C_29 
ROOT
ATOM      1  N   LIG d   1       7.835  -2.068  -6.856  0.00  0.00    -0.292 N 
ATOM      2  C   LIG d   1       7.873  -3.199  -5.914  0.00  0.00     0.004 C 
ATOM      3  C   LIG d   1       7.853  -2.645  -4.490  0.00  0.00    -0.014 C 
ATOM      4  C   LIG d   1       6.728  -1.654  -4.337  0.00  0.00    -0.034 A 
ATOM      5  C   LIG d   1       6.323  -1.307  -3.057  0.00  0.00    -0.012 A 
ATOM      6  C   LIG d   1       5.296  -0.399  -2.867  0.00  0.00     0.170 A 
ATOM      7  C   LIG d   1       4.667   0.171  -3.969  0.00  0.00     0.208 A 
ATOM      8  C   LIG d   1       5.073  -0.178  -5.248  0.00  0.00     0.171 A 
ATOM      9  C   LIG d   1       6.106  -1.093  -5.433  0.00  0.00     0.026 A 
ATOM     10  C   LIG d   1       6.510  -1.441  -6.842  0.00  0.00     0.102 C 
ATOM     11  H   LIG d   1       5.799  -2.168  -7.260  0.00  0.00     0.060 H 
ATOM     12  O   LIG d   1       3.698   1.027  -3.525  0.00  0.00    -0.449 OA
ATOM     13  C   LIG d   1       4.015   1.282  -2.144  0.00  0.00     0.233 C 
ATOM     14  O   LIG d   1       4.723   0.098  -1.732  0.00  0.00    -0.453 OA
ATOM     15  H   LIG d   1       6.996  -3.842  -6.080  0.00  0.00     0.043 H 
ATOM     16  H   LIG d   1       8.792  -3.782  -6.079  0.00  0.00     0.043 H 
ATOM     17  H   LIG d   1       7.708  -3.470  -3.778  0.00  0.00     0.033 H 
ATOM     18  H   LIG d   1       8.809  -2.143  -4.279  0.00  0.00     0.033 H 
ATOM     19  H   LIG d   1       6.812  -1.751  -2.203  0.00  0.00     0.066 H 
ATOM     20  H   LIG d   1       4.637   2.186  -2.072  0.00  0.00     0.117 H 
ATOM     21  H   LIG d   1       3.084   1.431  -1.576  0.00  0.00     0.117 H 
ENDROOT
BRANCH  10  22
ATOM     22  C   LIG d   1       6.545  -0.185  -7.673  0.00  0.00     0.178 A 
ATOM     23  N   LIG d   1       7.393   0.854  -7.519  0.00  0.00    -0.195 N 
ATOM     24  N   LIG d   1       7.037   1.774  -8.521  0.00  0.00    -0.039 NA
ATOM     25  N   LIG d   1       6.053   1.250  -9.170  0.00  0.00    -0.023 NA
ATOM     26  N   LIG d   1       5.763   0.099  -8.682  0.00  0.00    -0.111 NA
BRANCH  23  27
ATOM     27  C   LIG d   1       8.413   0.987  -6.564  0.00  0.00     0.073 A 
ATOM     28  C   LIG d   1       8.183   1.701  -5.397  0.00  0.00     0.009 A 
ATOM     29  C   LIG d   1       9.189   1.827  -4.453  0.00  0.00     0.164 A 
ATOM     30  H   LIG d   1       7.218   2.155  -5.222  0.00  0.00     0.068 H 
ATOM     31  C   LIG d   1      10.432   1.246  -4.683  0.00  0.00     0.162 A 
ATOM     32  C   LIG d   1      10.660   0.538  -5.853  0.00  0.00    -0.014 A 
ATOM     33  C   LIG d   1       9.655   0.408  -6.790  0.00  0.00    -0.033 A 
ATOM     34  H   LIG d   1      11.626   0.086  -6.030  0.00  0.00     0.066 H 
ATOM     35  H   LIG d   1       9.834  -0.143  -7.701  0.00  0.00     0.064 H 
BRANCH  29  36
ATOM     36  O   LIG d   1       8.963   2.522  -3.306  0.00  0.00    -0.491 OA
BRANCH  36  37
ATOM     37  C   LIG d   1       9.507   3.841  -3.228  0.00  0.00     0.079 C 
ATOM     38  H   LIG d   1      10.089   3.942  -2.300  0.00  0.00     0.066 H 
ATOM     39  H   LIG d   1       8.688   4.575  -3.229  0.00  0.00     0.066 H 
ATOM     40  H   LIG d   1      10.161   4.020  -4.093  0.00  0.00     0.066 H 
ENDBRANCH  36  37
ENDBRANCH  29  36
BRANCH  31  41
ATOM     41  O   LIG d   1      11.423   1.372  -3.760  0.00  0.00    -0.491 OA
BRANCH  41  42
ATOM     42  C   LIG d   1      12.599   0.584  -3.958  0.00  0.00     0.079 C 
ATOM     43  H   LIG d   1      13.166   0.981  -4.814  0.00  0.00     0.066 H 
ATOM     44  H   LIG d   1      12.312  -0.458  -4.160  0.00  0.00     0.066 H 
ATOM     45  H   LIG d   1      13.223   0.624  -3.053  0.00  0.00     0.066 H 
ENDBRANCH  41  42
ENDBRANCH  31  41
ENDBRANCH  23  27
ENDBRANCH  10  22
BRANCH   1  46
ATOM     46  C   LIG d   1       8.199  -2.500  -8.212  0.00  0.00    -0.012 C 
ATOM     47  H   LIG d   1       9.151  -2.033  -8.502  0.00  0.00     0.039 H 
ATOM     48  H   LIG d   1       7.411  -2.197  -8.917  0.00  0.00     0.039 H 
ATOM     49  H   LIG d   1       8.307  -3.594  -8.232  0.00  0.00     0.039 H 
ENDBRANCH   1  46
BRANCH   8  50
ATOM     50  O   LIG d   1       4.460   0.376  -6.328  0.00  0.00    -0.491 OA
BRANCH  50  51
ATOM     51  C   LIG d   1       3.078   0.067  -6.519  0.00  0.00     0.079 C 
ATOM     52  H   LIG d   1       2.929  -1.018  -6.420  0.00  0.00     0.066 H 
ATOM     53  H   LIG d   1       2.766   0.390  -7.523  0.00  0.00     0.066 H 
ATOM     54  H   LIG d   1       2.477   0.591  -5.762  0.00  0.00     0.066 H 
ENDBRANCH  50  51
ENDBRANCH   8  50
TORSDOF 9
ENDMDL
MODEL 7
REMARK VINA RESULT:      -5.3      3.154      7.121
REMARK  9 active torsions:
REMARK  status: ('A' for Active; 'I' for Inactive)
REMARK    1  A    between atoms: C_1  and  N_2 
REMARK    2  A    between atoms: C_9  and  O_28 
REMARK    3  A    between atoms: C_11  and  C_13 
REMARK    4  A    between atoms: N_17  and  C_18 
REMARK    5  A    between atoms: C_21  and  O_26 
REMARK    6  A    between atoms: C_22  and  O_24 
REMARK    7  A    between atoms: O_24  and  C_25 
REMARK    8  A    between atoms: O_26  and  C_27 
REMARK    9  A    between atoms: O_28  and  C_29 
ROOT
ATOM      1  N   LIG d   1       4.648  -0.776  -3.722  0.00  0.00    -0.292 N 
ATOM      2  C   LIG d   1       3.206  -1.072  -3.726  0.00  0.00     0.004 C 
ATOM      3  C   LIG d   1       2.493   0.008  -4.539  0.00  0.00    -0.014 C 
ATOM      4  C   LIG d   1       3.170   0.179  -5.875  0.00  0.00    -0.034 A 
ATOM      5  C   LIG d   1       2.484   0.842  -6.883  0.00  0.00    -0.012 A 
ATOM      6  C   LIG d   1       3.065   1.025  -8.125  0.00  0.00     0.170 A 
ATOM      7  C   LIG d   1       4.347   0.543  -8.364  0.00  0.00     0.208 A 
ATOM      8  C   LIG d   1       5.031  -0.120  -7.356  0.00  0.00     0.171 A 
ATOM      9  C   LIG d   1       4.440  -0.302  -6.108  0.00  0.00     0.026 A 
ATOM     10  C   LIG d   1       5.222  -1.030  -5.047  0.00  0.00     0.102 C 
ATOM     11  H   LIG d   1       5.167  -2.114  -5.225  0.00  0.00     0.060 H 
ATOM     12  O   LIG d   1       4.696   0.846  -9.650  0.00  0.00    -0.449 OA
ATOM     13  C   LIG d   1       3.777   1.875 -10.064  0.00  0.00     0.233 C 
ATOM     14  O   LIG d   1       2.608   1.632  -9.260  0.00  0.00    -0.453 OA
ATOM     15  H   LIG d   1       3.037  -2.058  -4.181  0.00  0.00     0.043 H 
ATOM     16  H   LIG d   1       2.830  -1.074  -2.692  0.00  0.00     0.043 H 
ATOM     17  H   LIG d   1       1.445  -0.286  -4.699  0.00  0.00     0.033 H 
ATOM     18  H   LIG d   1       2.527   0.962  -3.992  0.00  0.00     0.033 H 
ATOM     19  H   LIG d   1       1.488   1.215  -6.696  0.00  0.00     0.066 H 
ATOM     20  H   LIG d   1       4.220   2.862  -9.868  0.00  0.00     0.117 H 
ATOM     21  H   LIG d   1       3.573   1.771 -11.140  0.00  0.00     0.117 H 
ENDROOT
BRANCH  10  22
ATOM     22  C   LIG d   1       6.652  -0.556  -5.069  0.00  0.00     0.178 A 
ATOM     23  N   LIG d   1       7.754  -1.336  -5.090  0.00  0.00    -0.195 N 
ATOM     24  N   LIG d   1       8.839  -0.442  -5.105  0.00  0.00    -0.039 NA
ATOM     25  N   LIG d   1       8.339   0.746  -5.092  0.00  0.00    -0.023 NA
ATOM     26  N   LIG d   1       7.057   0.687  -5.076  0.00  0.00    -0.111 NA
BRANCH  23  27
ATOM     27  C   LIG d   1       7.806  -2.739  -5.098  0.00  0.00     0.073 A 
ATOM     28  C   LIG d   1       8.513  -3.412  -4.112  0.00  0.00     0.009 A 
ATOM     29  C   LIG d   1       8.558  -4.797  -4.118  0.00  0.00     0.164 A 
ATOM     30  H   LIG d   1       9.025  -2.858  -3.339  0.00  0.00     0.068 H 
ATOM     31  C   LIG d   1       7.904  -5.509  -5.119  0.00  0.00     0.162 A 
ATOM     32  C   LIG d   1       7.203  -4.831  -6.104  0.00  0.00    -0.014 A 
ATOM     33  C   LIG d   1       7.153  -3.451  -6.095  0.00  0.00    -0.033 A 
ATOM     34  H   LIG d   1       6.694  -5.385  -6.881  0.00  0.00     0.066 H 
ATOM     35  H   LIG d   1       6.608  -2.926  -6.864  0.00  0.00     0.064 H 
BRANCH  29  36
ATOM     36  O   LIG d   1       9.246  -5.459  -3.149  0.00  0.00    -0.491 OA
BRANCH  36  37
ATOM     37  C   LIG d   1       9.935  -4.664  -2.183  0.00  0.00     0.079 C 
ATOM     38  H   LIG d   1       9.343  -3.764  -1.961  0.00  0.00     0.066 H 
ATOM     39  H   LIG d   1      10.915  -4.367  -2.585  0.00  0.00     0.066 H 
ATOM     40  H   LIG d   1      10.078  -5.246  -1.262  0.00  0.00     0.066 H 
ENDBRANCH  36  37
ENDBRANCH  29  36
BRANCH  31  41
ATOM     41  O   LIG d   1       7.950  -6.868  -5.129  0.00  0.00    -0.491 OA
BRANCH  41  42
ATOM     42  C   LIG d   1       6.713  -7.558  -5.310  0.00  0.00     0.079 C 
ATOM     43  H   LIG d   1       6.913  -8.620  -5.520  0.00  0.00     0.066 H 
ATOM     44  H   LIG d   1       6.165  -7.114  -6.154  0.00  0.00     0.066 H 
ATOM     45  H   LIG d   1       6.108  -7.473  -4.395  0.00  0.00     0.066 H 
ENDBRANCH  41  42
ENDBRANCH  31  41
ENDBRANCH  23  27
ENDBRANCH  10  22
BRANCH   1  46
ATOM     46  C   LIG d   1       5.342  -1.556  -2.688  0.00  0.00    -0.012 C 
ATOM     47  H   LIG d   1       6.258  -1.029  -2.383  0.00  0.00     0.039 H 
ATOM     48  H   LIG d   1       5.605  -2.546  -3.090  0.00  0.00     0.039 H 
ATOM     49  H   LIG d   1       4.682  -1.679  -1.817  0.00  0.00     0.039 H 
ENDBRANCH   1  46
BRANCH   8  50
ATOM     50  O   LIG d   1       6.284  -0.594  -7.586  0.00  0.00    -0.491 OA
BRANCH  50  51
ATOM     51  C   LIG d   1       6.452  -1.469  -8.703  0.00  0.00     0.079 C 
ATOM     52  H   LIG d   1       6.727  -2.472  -8.344  0.00  0.00     0.066 H 
ATOM     53  H   LIG d   1       7.249  -1.082  -9.355  0.00  0.00     0.066 H 
ATOM     54  H   LIG d   1       5.511  -1.527  -9.269  0.00  0.00     0.066 H 
ENDBRANCH  50  51
ENDBRANCH   8  50
TORSDOF 9
ENDMDL
MODEL 8
REMARK VINA RESULT:      -5.3     10.122     12.633
REMARK  9 active torsions:
REMARK  status: ('A' for Active; 'I' for Inactive)
REMARK    1  A    between atoms: C_1  and  N_2 
REMARK    2  A    between atoms: C_9  and  O_28 
REMARK    3  A    between atoms: C_11  and  C_13 
REMARK    4  A    between atoms: N_17  and  C_18 
REMARK    5  A    between atoms: C_21  and  O_26 
REMARK    6  A    between atoms: C_22  and  O_24 
REMARK    7  A    between atoms: O_24  and  C_25 
REMARK    8  A    between atoms: O_26  and  C_27 
REMARK    9  A    between atoms: O_28  and  C_29 
ROOT
ATOM      1  N   LIG d   1      12.614   8.323  -1.716  0.00  0.00    -0.292 N 
ATOM      2  C   LIG d   1      13.873   8.263  -2.476  0.00  0.00     0.004 C 
ATOM      3  C   LIG d   1      13.639   7.430  -3.737  0.00  0.00    -0.014 C 
ATOM      4  C   LIG d   1      12.414   7.926  -4.462  0.00  0.00    -0.034 A 
ATOM      5  C   LIG d   1      12.232   7.547  -5.784  0.00  0.00    -0.012 A 
ATOM      6  C   LIG d   1      11.121   7.975  -6.490  0.00  0.00     0.170 A 
ATOM      7  C   LIG d   1      10.181   8.790  -5.869  0.00  0.00     0.208 A 
ATOM      8  C   LIG d   1      10.366   9.168  -4.547  0.00  0.00     0.171 A 
ATOM      9  C   LIG d   1      11.485   8.735  -3.842  0.00  0.00     0.026 A 
ATOM     10  C   LIG d   1      11.643   9.174  -2.410  0.00  0.00     0.102 C 
ATOM     11  H   LIG d   1      12.029  10.204  -2.380  0.00  0.00     0.060 H 
ATOM     12  O   LIG d   1       9.188   9.073  -6.764  0.00  0.00    -0.449 OA
ATOM     13  C   LIG d   1       9.322   8.092  -7.809  0.00  0.00     0.233 C 
ATOM     14  O   LIG d   1      10.720   7.746  -7.775  0.00  0.00    -0.453 OA
ATOM     15  H   LIG d   1      14.184   9.281  -2.751  0.00  0.00     0.043 H 
ATOM     16  H   LIG d   1      14.653   7.796  -1.857  0.00  0.00     0.043 H 
ATOM     17  H   LIG d   1      14.512   7.515  -4.400  0.00  0.00     0.033 H 
ATOM     18  H   LIG d   1      13.493   6.376  -3.458  0.00  0.00     0.033 H 
ATOM     19  H   LIG d   1      12.963   6.915  -6.265  0.00  0.00     0.066 H 
ATOM     20  H   LIG d   1       8.674   7.231  -7.589  0.00  0.00     0.117 H 
ATOM     21  H   LIG d   1       9.026   8.538  -8.770  0.00  0.00     0.117 H 
ENDROOT
BRANCH  10  22
ATOM     22  C   LIG d   1      10.311   9.080  -1.712  0.00  0.00     0.178 A 
ATOM     23  N   LIG d   1       9.589   7.956  -1.512  0.00  0.00    -0.195 N 
ATOM     24  N   LIG d   1       8.436   8.376  -0.825  0.00  0.00    -0.039 NA
ATOM     25  N   LIG d   1       8.542   9.651  -0.671  0.00  0.00    -0.023 NA
ATOM     26  N   LIG d   1       9.640  10.071  -1.184  0.00  0.00    -0.111 NA
BRANCH  23  27
ATOM     27  C   LIG d   1       9.920   6.650  -1.903  0.00  0.00     0.073 A 
ATOM     28  C   LIG d   1       9.386   6.118  -3.068  0.00  0.00     0.009 A 
ATOM     29  C   LIG d   1       9.718   4.830  -3.456  0.00  0.00     0.164 A 
ATOM     30  H   LIG d   1       8.715   6.709  -3.674  0.00  0.00     0.068 H 
ATOM     31  C   LIG d   1      10.578   4.069  -2.670  0.00  0.00     0.162 A 
ATOM     32  C   LIG d   1      11.105   4.602  -1.504  0.00  0.00    -0.014 A 
ATOM     33  C   LIG d   1      10.778   5.888  -1.121  0.00  0.00    -0.033 A 
ATOM     34  H   LIG d   1      11.773   4.010  -0.895  0.00  0.00     0.066 H 
ATOM     35  H   LIG d   1      11.189   6.301  -0.213  0.00  0.00     0.064 H 
BRANCH  29  36
ATOM     36  O   LIG d   1       9.200   4.309  -4.601  0.00  0.00    -0.491 OA
BRANCH  36  37
ATOM     37  C   LIG d   1       9.843   4.667  -5.826  0.00  0.00     0.079 C 
ATOM     38  H   LIG d   1       9.673   5.734  -6.030  0.00  0.00     0.066 H 
ATOM     39  H   LIG d   1       9.426   4.066  -6.647  0.00  0.00     0.066 H 
ATOM     40  H   LIG d   1      10.922   4.476  -5.743  0.00  0.00     0.066 H 
ENDBRANCH  36  37
ENDBRANCH  29  36
BRANCH  31  41
ATOM     41  O   LIG d   1      10.902   2.803  -3.047  0.00  0.00    -0.491 OA
BRANCH  41  42
ATOM     42  C   LIG d   1      12.179   2.614  -3.659  0.00  0.00     0.079 C 
ATOM     43  H   LIG d   1      12.968   2.709  -2.898  0.00  0.00     0.066 H 
ATOM     44  H   LIG d   1      12.327   3.376  -4.438  0.00  0.00     0.066 H 
ATOM     45  H   LIG d   1      12.224   1.612  -4.112  0.00  0.00     0.066 H 
ENDBRANCH  41  42
ENDBRANCH  31  41
ENDBRANCH  23  27
ENDBRANCH  10  22
BRANCH   1  46
ATOM     46  C   LIG d   1      12.848   8.799  -0.347  0.00  0.00    -0.012 C 
ATOM     47  H   LIG d   1      13.201   9.840  -0.374  0.00  0.00     0.039 H 
ATOM     48  H   LIG d   1      13.609   8.167   0.137  0.00  0.00     0.039 H 
ATOM     49  H   LIG d   1      11.910   8.745   0.226  0.00  0.00     0.039 H 
ENDBRANCH   1  46
BRANCH   8  50
ATOM     50  O   LIG d   1       9.449   9.965  -3.937  0.00  0.00    -0.491 OA
BRANCH  50  51
ATOM     51  C   LIG d   1       9.264  11.274  -4.478  0.00  0.00     0.079 C 
ATOM     52  H   LIG d   1       8.812  11.925  -3.715  0.00  0.00     0.066 H 
ATOM     53  H   LIG d   1       8.600  11.218  -5.353  0.00  0.00     0.066 H 
ATOM     54  H   LIG d   1      10.237  11.686  -4.782  0.00  0.00     0.066 H 
ENDBRANCH  50  51
ENDBRANCH   8  50
TORSDOF 9
ENDMDL
MODEL 9
REMARK VINA RESULT:      -5.3      3.964      5.828
REMARK  9 active torsions:
REMARK  status: ('A' for Active; 'I' for Inactive)
REMARK    1  A    between atoms: C_1  and  N_2 
REMARK    2  A    between atoms: C_9  and  O_28 
REMARK    3  A    between atoms: C_11  and  C_13 
REMARK    4  A    between atoms: N_17  and  C_18 
REMARK    5  A    between atoms: C_21  and  O_26 
REMARK    6  A    between atoms: C_22  and  O_24 
REMARK    7  A    between atoms: O_24  and  C_25 
REMARK    8  A    between atoms: O_26  and  C_27 
REMARK    9  A    between atoms: O_28  and  C_29 
ROOT
ATOM      1  N   LIG d   1       9.102  -1.221  -7.765  0.00  0.00    -0.292 N 
ATOM      2  C   LIG d   1      10.390  -1.760  -7.300  0.00  0.00     0.004 C 
ATOM      3  C   LIG d   1      11.266  -0.593  -6.841  0.00  0.00    -0.014 C 
ATOM      4  C   LIG d   1      10.497   0.285  -5.888  0.00  0.00    -0.034 A 
ATOM      5  C   LIG d   1      11.205   1.179  -5.098  0.00  0.00    -0.012 A 
ATOM      6  C   LIG d   1      10.542   2.008  -4.210  0.00  0.00     0.170 A 
ATOM      7  C   LIG d   1       9.156   1.945  -4.111  0.00  0.00     0.208 A 
ATOM      8  C   LIG d   1       8.451   1.050  -4.901  0.00  0.00     0.171 A 
ATOM      9  C   LIG d   1       9.123   0.218  -5.792  0.00  0.00     0.026 A 
ATOM     10  C   LIG d   1       8.313  -0.739  -6.627  0.00  0.00     0.102 C 
ATOM     11  H   LIG d   1       8.040  -1.616  -6.023  0.00  0.00     0.060 H 
ATOM     12  O   LIG d   1       8.743   2.853  -3.177  0.00  0.00    -0.449 OA
ATOM     13  C   LIG d   1       9.851   3.755  -3.002  0.00  0.00     0.233 C 
ATOM     14  O   LIG d   1      10.999   2.955  -3.339  0.00  0.00    -0.453 OA
ATOM     15  H   LIG d   1      10.217  -2.451  -6.463  0.00  0.00     0.043 H 
ATOM     16  H   LIG d   1      10.882  -2.298  -8.124  0.00  0.00     0.043 H 
ATOM     17  H   LIG d   1      12.160  -0.984  -6.334  0.00  0.00     0.033 H 
ATOM     18  H   LIG d   1      11.572   0.001  -7.715  0.00  0.00     0.033 H 
ATOM     19  H   LIG d   1      12.280   1.226  -5.176  0.00  0.00     0.066 H 
ATOM     20  H   LIG d   1       9.731   4.617  -3.675  0.00  0.00     0.117 H 
ATOM     21  H   LIG d   1       9.877   4.106  -1.959  0.00  0.00     0.117 H 
ENDROOT
BRANCH  10  22
ATOM     22  C   LIG d   1       7.083  -0.035  -7.137  0.00  0.00     0.178 A 
ATOM     23  N   LIG d   1       5.818  -0.507  -7.105  0.00  0.00    -0.195 N 
ATOM     24  N   LIG d   1       5.032   0.501  -7.691  0.00  0.00    -0.039 NA
ATOM     25  N   LIG d   1       5.837   1.454  -8.016  0.00  0.00    -0.023 NA
ATOM     26  N   LIG d   1       7.040   1.150  -7.690  0.00  0.00    -0.111 NA
BRANCH  23  27
ATOM     27  C   LIG d   1       5.382  -1.739  -6.594  0.00  0.00     0.073 A 
ATOM     28  C   LIG d   1       5.021  -1.849  -5.258  0.00  0.00     0.009 A 
ATOM     29  C   LIG d   1       4.586  -3.064  -4.758  0.00  0.00     0.164 A 
ATOM     30  H   LIG d   1       5.076  -0.986  -4.611  0.00  0.00     0.068 H 
ATOM     31  C   LIG d   1       4.521  -4.176  -5.591  0.00  0.00     0.162 A 
ATOM     32  C   LIG d   1       4.888  -4.064  -6.924  0.00  0.00    -0.014 A 
ATOM     33  C   LIG d   1       5.317  -2.850  -7.424  0.00  0.00    -0.033 A 
ATOM     34  H   LIG d   1       4.837  -4.927  -7.572  0.00  0.00     0.066 H 
ATOM     35  H   LIG d   1       5.602  -2.765  -8.462  0.00  0.00     0.064 H 
BRANCH  29  36
ATOM     36  O   LIG d   1       4.226  -3.172  -3.450  0.00  0.00    -0.491 OA
BRANCH  36  37
ATOM     37  C   LIG d   1       3.833  -1.970  -2.784  0.00  0.00     0.079 C 
ATOM     38  H   LIG d   1       4.054  -1.106  -3.428  0.00  0.00     0.066 H 
ATOM     39  H   LIG d   1       4.391  -1.876  -1.841  0.00  0.00     0.066 H 
ATOM     40  H   LIG d   1       2.756  -2.004  -2.570  0.00  0.00     0.066 H 
ENDBRANCH  36  37
ENDBRANCH  29  36
BRANCH  31  41
ATOM     41  O   LIG d   1       4.098  -5.372  -5.101  0.00  0.00    -0.491 OA
BRANCH  41  42
ATOM     42  C   LIG d   1       4.762  -6.542  -5.581  0.00  0.00     0.079 C 
ATOM     43  H   LIG d   1       4.748  -7.318  -4.800  0.00  0.00     0.066 H 
ATOM     44  H   LIG d   1       5.803  -6.295  -5.834  0.00  0.00     0.066 H 
ATOM     45  H   LIG d   1       4.245  -6.915  -6.478  0.00  0.00     0.066 H 
ENDBRANCH  41  42
ENDBRANCH  31  41
ENDBRANCH  23  27
ENDBRANCH  10  22
BRANCH   1  46
ATOM     46  C   LIG d   1       8.358  -2.228  -8.534  0.00  0.00    -0.012 C 
ATOM     47  H   LIG d   1       7.802  -1.734  -9.344  0.00  0.00     0.039 H 
ATOM     48  H   LIG d   1       7.652  -2.749  -7.869  0.00  0.00     0.039 H 
ATOM     49  H   LIG d   1       9.062  -2.956  -8.962  0.00  0.00     0.039 H 
ENDBRANCH   1  46
BRANCH   8  50
ATOM     50  O   LIG d   1       7.096   0.985  -4.806  0.00  0.00    -0.491 OA
BRANCH  50  51
ATOM     51  C   LIG d   1       6.551   0.628  -3.535  0.00  0.00     0.079 C 
ATOM     52  H   LIG d   1       5.601   0.093  -3.681  0.00  0.00     0.066 H 
ATOM     53  H   LIG d   1       6.372   1.538  -2.944  0.00  0.00     0.066 H 
ATOM     54  H   LIG d   1       7.260  -0.022  -3.001  0.00  0.00     0.066 H 
ENDBRANCH  50  51
ENDBRANCH   8  50
TORSDOF 9
ENDMDL
MODEL 10
REMARK VINA RESULT:      -5.3     10.836     13.053
REMARK  9 active torsions:
REMARK  status: ('A' for Active; 'I' for Inactive)
REMARK    1  A    between atoms: C_1  and  N_2 
REMARK    2  A    between atoms: C_9  and  O_28 
REMARK    3  A    between atoms: C_11  and  C_13 
REMARK    4  A    between atoms: N_17  and  C_18 
REMARK    5  A    between atoms: C_21  and  O_26 
REMARK    6  A    between atoms: C_22  and  O_24 
REMARK    7  A    between atoms: O_24  and  C_25 
REMARK    8  A    between atoms: O_26  and  C_27 
REMARK    9  A    between atoms: O_28  and  C_29 
ROOT
ATOM      1  N   LIG d   1      13.688   7.075  -2.051  0.00  0.00    -0.292 N 
ATOM      2  C   LIG d   1      14.423   7.721  -3.150  0.00  0.00     0.004 C 
ATOM      3  C   LIG d   1      13.414   8.188  -4.199  0.00  0.00    -0.014 C 
ATOM      4  C   LIG d   1      12.314   8.981  -3.540  0.00  0.00    -0.034 A 
ATOM      5  C   LIG d   1      11.506   9.779  -4.337  0.00  0.00    -0.012 A 
ATOM      6  C   LIG d   1      10.482  10.522  -3.777  0.00  0.00     0.170 A 
ATOM      7  C   LIG d   1      10.262  10.468  -2.405  0.00  0.00     0.208 A 
ATOM      8  C   LIG d   1      11.071   9.672  -1.610  0.00  0.00     0.171 A 
ATOM      9  C   LIG d   1      12.100   8.926  -2.179  0.00  0.00     0.026 A 
ATOM     10  C   LIG d   1      12.953   8.077  -1.273  0.00  0.00     0.102 C 
ATOM     11  H   LIG d   1      13.698   8.710  -0.768  0.00  0.00     0.060 H 
ATOM     12  O   LIG d   1       9.205  11.280  -2.100  0.00  0.00    -0.449 OA
ATOM     13  C   LIG d   1       8.527  11.512  -3.348  0.00  0.00     0.233 C 
ATOM     14  O   LIG d   1       9.566  11.368  -4.334  0.00  0.00    -0.453 OA
ATOM     15  H   LIG d   1      14.984   8.582  -2.759  0.00  0.00     0.043 H 
ATOM     16  H   LIG d   1      15.123   6.999  -3.597  0.00  0.00     0.043 H 
ATOM     17  H   LIG d   1      13.923   8.822  -4.941  0.00  0.00     0.033 H 
ATOM     18  H   LIG d   1      12.977   7.313  -4.703  0.00  0.00     0.033 H 
ATOM     19  H   LIG d   1      11.679   9.820  -5.402  0.00  0.00     0.066 H 
ATOM     20  H   LIG d   1       7.726  10.768  -3.474  0.00  0.00     0.117 H 
ATOM     21  H   LIG d   1       8.091  12.522  -3.346  0.00  0.00     0.117 H 
ENDROOT
BRANCH  10  22
ATOM     22  C   LIG d   1      12.073   7.381  -0.269  0.00  0.00     0.178 A 
ATOM     23  N   LIG d   1      11.094   6.491  -0.543  0.00  0.00    -0.195 N 
ATOM     24  N   LIG d   1      10.565   6.127   0.708  0.00  0.00    -0.039 NA
ATOM     25  N   LIG d   1      11.227   6.788   1.595  0.00  0.00    -0.023 NA
ATOM     26  N   LIG d   1      12.115   7.522   1.030  0.00  0.00    -0.111 NA
BRANCH  23  27
ATOM     27  C   LIG d   1      10.693   6.028  -1.806  0.00  0.00     0.073 A 
ATOM     28  C   LIG d   1      11.325   4.932  -2.376  0.00  0.00     0.009 A 
ATOM     29  C   LIG d   1      10.924   4.473  -3.620  0.00  0.00     0.164 A 
ATOM     30  H   LIG d   1      12.127   4.436  -1.850  0.00  0.00     0.068 H 
ATOM     31  C   LIG d   1       9.896   5.118  -4.300  0.00  0.00     0.162 A 
ATOM     32  C   LIG d   1       9.270   6.215  -3.728  0.00  0.00    -0.014 A 
ATOM     33  C   LIG d   1       9.667   6.669  -2.486  0.00  0.00    -0.033 A 
ATOM     34  H   LIG d   1       8.470   6.715  -4.256  0.00  0.00     0.066 H 
ATOM     35  H   LIG d   1       9.179   7.524  -2.043  0.00  0.00     0.064 H 
BRANCH  29  36
ATOM     36  O   LIG d   1      11.539   3.396  -4.178  0.00  0.00    -0.491 OA
BRANCH  36  37
ATOM     37  C   LIG d   1      11.398   2.145  -3.502  0.00  0.00     0.079 C 
ATOM     38  H   LIG d   1      11.285   1.339  -4.243  0.00  0.00     0.066 H 
ATOM     39  H   LIG d   1      10.507   2.176  -2.857  0.00  0.00     0.066 H 
ATOM     40  H   LIG d   1      12.289   1.957  -2.888  0.00  0.00     0.066 H 
ENDBRANCH  36  37
ENDBRANCH  29  36
BRANCH  31  41
ATOM     41  O   LIG d   1       9.503   4.671  -5.523  0.00  0.00    -0.491 OA
BRANCH  41  42
ATOM     42  C   LIG d   1       9.918   5.435  -6.657  0.00  0.00     0.079 C 
ATOM     43  H   LIG d   1      10.015   6.494  -6.370  0.00  0.00     0.066 H 
ATOM     44  H   LIG d   1       9.170   5.340  -7.457  0.00  0.00     0.066 H 
ATOM     45  H   LIG d   1      10.889   5.061  -7.015  0.00  0.00     0.066 H 
ENDBRANCH  41  42
ENDBRANCH  31  41
ENDBRANCH  23  27
ENDBRANCH  10  22
BRANCH   1  46
ATOM     46  C   LIG d   1      14.596   6.303  -1.193  0.00  0.00    -0.012 C 
ATOM     47  H   LIG d   1      14.010   5.652  -0.528  0.00  0.00     0.039 H 
ATOM     48  H   LIG d   1      15.204   6.993  -0.588  0.00  0.00     0.039 H 
ATOM     49  H   LIG d   1      15.257   5.686  -1.819  0.00  0.00     0.039 H 
ENDBRANCH   1  46
BRANCH   8  50
ATOM     50  O   LIG d   1      10.859   9.617  -0.268  0.00  0.00    -0.491 OA
BRANCH  50  51
ATOM     51  C   LIG d   1      11.095  10.814   0.476  0.00  0.00     0.079 C 
ATOM     52  H   LIG d   1      12.048  11.262   0.156  0.00  0.00     0.066 H 
ATOM     53  H   LIG d   1      11.145  10.575   1.548  0.00  0.00     0.066 H 
ATOM     54  H   LIG d   1      10.276  11.525   0.296  0.00  0.00     0.066 H 
ENDBRANCH  50  51
ENDBRANCH   8  50
TORSDOF 9
ENDMDL
