MODEL 1
REMARK VINA RESULT:      -7.2      0.000      0.000
REMARK  1 active torsions:
REMARK  status: ('A' for Active; 'I' for Inactive)
REMARK    1  A    between atoms: C_4  and  C_7 
ROOT
ATOM      1  C   LIG d   1       4.973  -2.739  -4.383  0.00  0.00     0.053 A 
ATOM      2  C   LIG d   1       6.316  -3.070  -4.408  0.00  0.00    -0.019 A 
ATOM      3  C   LIG d   1       6.729  -4.226  -5.058  0.00  0.00    -0.020 A 
ATOM      4  C   LIG d   1       5.775  -5.035  -5.678  0.00  0.00     0.119 A 
ATOM      5  C   LIG d   1       4.409  -4.657  -5.634  0.00  0.00     0.267 A 
ATOM      6  O   LIG d   1       3.566  -5.351  -6.176  0.00  0.00    -0.267 OA
ATOM      7  N   LIG d   1       4.043  -3.533  -4.989  0.00  0.00    -0.321 N 
ATOM      8  H   LIG d   1       2.979  -3.258  -4.956  0.00  0.00     0.169 HD
ATOM      9  C   LIG d   1       6.173  -6.232  -6.357  0.00  0.00     0.105 C 
ATOM     10  N   LIG d   1       6.489  -7.182  -6.894  0.00  0.00    -0.191 NA
ATOM     11  C   LIG d   1       8.229  -4.368  -4.947  0.00  0.00    -0.026 C 
ATOM     12  C   LIG d   1       8.640  -3.423  -3.798  0.00  0.00    -0.045 C 
ATOM     13  C   LIG d   1       7.518  -2.364  -3.818  0.00  0.00    -0.025 C 
ATOM     14  H   LIG d   1       8.483  -5.414  -4.721  0.00  0.00     0.031 H 
ATOM     15  H   LIG d   1       8.696  -4.075  -5.899  0.00  0.00     0.031 H 
ATOM     16  H   LIG d   1       8.678  -3.987  -2.854  0.00  0.00     0.027 H 
ATOM     17  H   LIG d   1       9.632  -2.998  -4.010  0.00  0.00     0.027 H 
ATOM     18  H   LIG d   1       7.785  -1.504  -4.451  0.00  0.00     0.031 H 
ATOM     19  H   LIG d   1       7.276  -2.011  -2.805  0.00  0.00     0.031 H 
ENDROOT
BRANCH   1  20
ATOM     20  C   LIG d   1       4.538  -1.509  -3.690  0.00  0.00    -0.001 A 
ATOM     21  C   LIG d   1       3.934  -0.476  -4.408  0.00  0.00    -0.053 A 
ATOM     22  C   LIG d   1       3.530   0.669  -3.755  0.00  0.00    -0.061 A 
ATOM     23  H   LIG d   1       3.783  -0.572  -5.474  0.00  0.00     0.062 H 
ATOM     24  C   LIG d   1       3.721   0.796  -2.391  0.00  0.00    -0.062 A 
ATOM     25  H   LIG d   1       3.062   1.469  -4.310  0.00  0.00     0.062 H 
ATOM     26  C   LIG d   1       4.320  -0.224  -1.672  0.00  0.00    -0.061 A 
ATOM     27  H   LIG d   1       3.403   1.695  -1.884  0.00  0.00     0.062 H 
ATOM     28  C   LIG d   1       4.724  -1.377  -2.311  0.00  0.00    -0.053 A 
ATOM     29  H   LIG d   1       4.467  -0.119  -0.607  0.00  0.00     0.062 H 
ATOM     30  H   LIG d   1       5.188  -2.175  -1.749  0.00  0.00     0.062 H 
ENDBRANCH   1  20
TORSDOF 1
ENDMDL
MODEL 2
REMARK VINA RESULT:      -6.6      3.064      4.551
REMARK  1 active torsions:
REMARK  status: ('A' for Active; 'I' for Inactive)
REMARK    1  A    between atoms: C_4  and  C_7 
ROOT
ATOM      1  C   LIG d   1       4.021  -0.962  -5.892  0.00  0.00     0.053 A 
ATOM      2  C   LIG d   1       3.442  -0.242  -6.921  0.00  0.00    -0.019 A 
ATOM      3  C   LIG d   1       3.271  -0.835  -8.167  0.00  0.00    -0.020 A 
ATOM      4  C   LIG d   1       3.687  -2.154  -8.355  0.00  0.00     0.119 A 
ATOM      5  C   LIG d   1       4.271  -2.859  -7.272  0.00  0.00     0.267 A 
ATOM      6  O   LIG d   1       4.634  -4.013  -7.421  0.00  0.00    -0.267 OA
ATOM      7  N   LIG d   1       4.428  -2.251  -6.081  0.00  0.00    -0.321 N 
ATOM      8  H   LIG d   1       4.890  -2.809  -5.253  0.00  0.00     0.169 HD
ATOM      9  C   LIG d   1       3.522  -2.789  -9.628  0.00  0.00     0.105 C 
ATOM     10  N   LIG d   1       3.391  -3.294 -10.637  0.00  0.00    -0.191 NA
ATOM     11  C   LIG d   1       2.623   0.146  -9.116  0.00  0.00    -0.026 C 
ATOM     12  C   LIG d   1       2.814   1.530  -8.459  0.00  0.00    -0.045 C 
ATOM     13  C   LIG d   1       2.919   1.178  -6.960  0.00  0.00    -0.025 C 
ATOM     14  H   LIG d   1       3.120   0.092 -10.095  0.00  0.00     0.031 H 
ATOM     15  H   LIG d   1       1.558  -0.103  -9.230  0.00  0.00     0.031 H 
ATOM     16  H   LIG d   1       3.729   2.000  -8.852  0.00  0.00     0.027 H 
ATOM     17  H   LIG d   1       1.948   2.168  -8.688  0.00  0.00     0.027 H 
ATOM     18  H   LIG d   1       1.936   1.220  -6.466  0.00  0.00     0.031 H 
ATOM     19  H   LIG d   1       3.621   1.843  -6.437  0.00  0.00     0.031 H 
ENDROOT
BRANCH   1  20
ATOM     20  C   LIG d   1       4.202  -0.329  -4.571  0.00  0.00    -0.001 A 
ATOM     21  C   LIG d   1       3.108  -0.153  -3.722  0.00  0.00    -0.053 A 
ATOM     22  C   LIG d   1       3.284   0.439  -2.489  0.00  0.00    -0.061 A 
ATOM     23  H   LIG d   1       2.125  -0.479  -4.029  0.00  0.00     0.062 H 
ATOM     24  C   LIG d   1       4.541   0.859  -2.092  0.00  0.00    -0.062 A 
ATOM     25  H   LIG d   1       2.438   0.576  -1.831  0.00  0.00     0.062 H 
ATOM     26  C   LIG d   1       5.631   0.689  -2.929  0.00  0.00    -0.061 A 
ATOM     27  H   LIG d   1       4.673   1.322  -1.126  0.00  0.00     0.062 H 
ATOM     28  C   LIG d   1       5.470   0.093  -4.162  0.00  0.00    -0.053 A 
ATOM     29  H   LIG d   1       6.610   1.018  -2.613  0.00  0.00     0.062 H 
ATOM     30  H   LIG d   1       6.321  -0.043  -4.813  0.00  0.00     0.062 H 
ENDBRANCH   1  20
TORSDOF 1
ENDMDL
MODEL 3
REMARK VINA RESULT:      -6.4      3.802      4.851
REMARK  1 active torsions:
REMARK  status: ('A' for Active; 'I' for Inactive)
REMARK    1  A    between atoms: C_4  and  C_7 
ROOT
ATOM      1  C   LIG d   1       4.093  -0.438  -6.090  0.00  0.00     0.053 A 
ATOM      2  C   LIG d   1       5.285  -0.132  -6.724  0.00  0.00    -0.019 A 
ATOM      3  C   LIG d   1       5.288   0.157  -8.083  0.00  0.00    -0.020 A 
ATOM      4  C   LIG d   1       4.083   0.134  -8.786  0.00  0.00     0.119 A 
ATOM      5  C   LIG d   1       2.883  -0.179  -8.098  0.00  0.00     0.267 A 
ATOM      6  O   LIG d   1       1.823  -0.197  -8.698  0.00  0.00    -0.267 OA
ATOM      7  N   LIG d   1       2.917  -0.460  -6.782  0.00  0.00    -0.321 N 
ATOM      8  H   LIG d   1       1.979  -0.710  -6.264  0.00  0.00     0.169 HD
ATOM      9  C   LIG d   1       4.057   0.428 -10.188  0.00  0.00     0.105 C 
ATOM     10  N   LIG d   1       4.037   0.662 -11.299  0.00  0.00    -0.191 NA
ATOM     11  C   LIG d   1       6.697   0.456  -8.539  0.00  0.00    -0.026 C 
ATOM     12  C   LIG d   1       7.610  -0.103  -7.426  0.00  0.00    -0.045 C 
ATOM     13  C   LIG d   1       6.696  -0.045  -6.184  0.00  0.00    -0.025 C 
ATOM     14  H   LIG d   1       6.884  -0.040  -9.503  0.00  0.00     0.031 H 
ATOM     15  H   LIG d   1       6.822   1.542  -8.656  0.00  0.00     0.031 H 
ATOM     16  H   LIG d   1       7.915  -1.129  -7.683  0.00  0.00     0.027 H 
ATOM     17  H   LIG d   1       8.503   0.531  -7.330  0.00  0.00     0.027 H 
ATOM     18  H   LIG d   1       6.821   0.902  -5.636  0.00  0.00     0.031 H 
ATOM     19  H   LIG d   1       6.882  -0.889  -5.505  0.00  0.00     0.031 H 
ENDROOT
BRANCH   1  20
ATOM     20  C   LIG d   1       4.094  -0.745  -4.646  0.00  0.00    -0.001 A 
ATOM     21  C   LIG d   1       4.293  -2.055  -4.208  0.00  0.00    -0.053 A 
ATOM     22  C   LIG d   1       4.293  -2.335  -2.857  0.00  0.00    -0.061 A 
ATOM     23  H   LIG d   1       4.447  -2.849  -4.924  0.00  0.00     0.062 H 
ATOM     24  C   LIG d   1       4.096  -1.321  -1.937  0.00  0.00    -0.062 A 
ATOM     25  H   LIG d   1       4.447  -3.349  -2.517  0.00  0.00     0.062 H 
ATOM     26  C   LIG d   1       3.897  -0.019  -2.364  0.00  0.00    -0.061 A 
ATOM     27  H   LIG d   1       4.097  -1.546  -0.881  0.00  0.00     0.062 H 
ATOM     28  C   LIG d   1       3.900   0.275  -3.711  0.00  0.00    -0.053 A 
ATOM     29  H   LIG d   1       3.744   0.768  -1.640  0.00  0.00     0.062 H 
ATOM     30  H   LIG d   1       3.749   1.292  -4.044  0.00  0.00     0.062 H 
ENDBRANCH   1  20
TORSDOF 1
ENDMDL
MODEL 4
REMARK VINA RESULT:      -6.3      3.797      4.962
REMARK  1 active torsions:
REMARK  status: ('A' for Active; 'I' for Inactive)
REMARK    1  A    between atoms: C_4  and  C_7 
ROOT
ATOM      1  C   LIG d   1       3.718  -0.178  -6.115  0.00  0.00     0.053 A 
ATOM      2  C   LIG d   1       4.045  -1.339  -6.791  0.00  0.00    -0.019 A 
ATOM      3  C   LIG d   1       3.812  -1.430  -8.158  0.00  0.00    -0.020 A 
ATOM      4  C   LIG d   1       3.250  -0.341  -8.826  0.00  0.00     0.119 A 
ATOM      5  C   LIG d   1       2.935   0.833  -8.096  0.00  0.00     0.267 A 
ATOM      6  O   LIG d   1       2.449   1.794  -8.668  0.00  0.00    -0.267 OA
ATOM      7  N   LIG d   1       3.168   0.885  -6.772  0.00  0.00    -0.321 N 
ATOM      8  H   LIG d   1       2.910   1.800  -6.218  0.00  0.00     0.169 HD
ATOM      9  C   LIG d   1       2.999  -0.407 -10.234  0.00  0.00     0.105 C 
ATOM     10  N   LIG d   1       2.800  -0.460 -11.352  0.00  0.00    -0.191 NA
ATOM     11  C   LIG d   1       4.248  -2.786  -8.663  0.00  0.00    -0.026 C 
ATOM     12  C   LIG d   1       4.366  -3.668  -7.401  0.00  0.00    -0.045 C 
ATOM     13  C   LIG d   1       4.654  -2.633  -6.294  0.00  0.00    -0.025 C 
ATOM     14  H   LIG d   1       3.495  -3.177  -9.362  0.00  0.00     0.031 H 
ATOM     15  H   LIG d   1       5.214  -2.691  -9.180  0.00  0.00     0.031 H 
ATOM     16  H   LIG d   1       3.420  -4.210  -7.243  0.00  0.00     0.027 H 
ATOM     17  H   LIG d   1       5.183  -4.392  -7.534  0.00  0.00     0.027 H 
ATOM     18  H   LIG d   1       5.735  -2.495  -6.143  0.00  0.00     0.031 H 
ATOM     19  H   LIG d   1       4.185  -2.918  -5.341  0.00  0.00     0.031 H 
ENDROOT
BRANCH   1  20
ATOM     20  C   LIG d   1       3.967  -0.085  -4.662  0.00  0.00    -0.001 A 
ATOM     21  C   LIG d   1       2.929  -0.315  -3.757  0.00  0.00    -0.053 A 
ATOM     22  C   LIG d   1       3.169  -0.228  -2.402  0.00  0.00    -0.061 A 
ATOM     23  H   LIG d   1       1.940  -0.561  -4.117  0.00  0.00     0.062 H 
ATOM     24  C   LIG d   1       4.433   0.088  -1.938  0.00  0.00    -0.062 A 
ATOM     25  H   LIG d   1       2.367  -0.406  -1.700  0.00  0.00     0.062 H 
ATOM     26  C   LIG d   1       5.467   0.317  -2.829  0.00  0.00    -0.061 A 
ATOM     27  H   LIG d   1       4.615   0.154  -0.876  0.00  0.00     0.062 H 
ATOM     28  C   LIG d   1       5.243   0.228  -4.187  0.00  0.00    -0.053 A 
ATOM     29  H   LIG d   1       6.453   0.563  -2.461  0.00  0.00     0.062 H 
ATOM     30  H   LIG d   1       6.051   0.403  -4.882  0.00  0.00     0.062 H 
ENDBRANCH   1  20
TORSDOF 1
ENDMDL
MODEL 5
REMARK VINA RESULT:      -6.2      2.117      2.867
REMARK  1 active torsions:
REMARK  status: ('A' for Active; 'I' for Inactive)
REMARK    1  A    between atoms: C_4  and  C_7 
ROOT
ATOM      1  C   LIG d   1       4.424  -2.118  -5.015  0.00  0.00     0.053 A 
ATOM      2  C   LIG d   1       4.543  -1.777  -6.350  0.00  0.00    -0.019 A 
ATOM      3  C   LIG d   1       4.534  -2.773  -7.320  0.00  0.00    -0.020 A 
ATOM      4  C   LIG d   1       4.403  -4.105  -6.925  0.00  0.00     0.119 A 
ATOM      5  C   LIG d   1       4.277  -4.412  -5.547  0.00  0.00     0.267 A 
ATOM      6  O   LIG d   1       4.157  -5.570  -5.188  0.00  0.00    -0.267 OA
ATOM      7  N   LIG d   1       4.296  -3.423  -4.633  0.00  0.00    -0.321 N 
ATOM      8  H   LIG d   1       4.207  -3.677  -3.567  0.00  0.00     0.169 HD
ATOM      9  C   LIG d   1       4.390  -5.151  -7.903  0.00  0.00     0.105 C 
ATOM     10  N   LIG d   1       4.380  -5.981  -8.679  0.00  0.00    -0.191 NA
ATOM     11  C   LIG d   1       4.678  -2.154  -8.691  0.00  0.00    -0.026 C 
ATOM     12  C   LIG d   1       5.212  -0.728  -8.436  0.00  0.00    -0.045 C 
ATOM     13  C   LIG d   1       4.694  -0.425  -7.014  0.00  0.00    -0.025 C 
ATOM     14  H   LIG d   1       5.382  -2.748  -9.290  0.00  0.00     0.031 H 
ATOM     15  H   LIG d   1       3.698  -2.135  -9.189  0.00  0.00     0.031 H 
ATOM     16  H   LIG d   1       6.311  -0.731  -8.498  0.00  0.00     0.027 H 
ATOM     17  H   LIG d   1       4.805  -0.042  -9.194  0.00  0.00     0.027 H 
ATOM     18  H   LIG d   1       3.718   0.082  -7.040  0.00  0.00     0.031 H 
ATOM     19  H   LIG d   1       5.410   0.185  -6.445  0.00  0.00     0.031 H 
ENDROOT
BRANCH   1  20
ATOM     20  C   LIG d   1       4.434  -1.058  -3.988  0.00  0.00    -0.001 A 
ATOM     21  C   LIG d   1       3.234  -0.605  -3.435  0.00  0.00    -0.053 A 
ATOM     22  C   LIG d   1       3.251   0.385  -2.476  0.00  0.00    -0.061 A 
ATOM     23  H   LIG d   1       2.295  -1.030  -3.758  0.00  0.00     0.062 H 
ATOM     24  C   LIG d   1       4.453   0.931  -2.061  0.00  0.00    -0.062 A 
ATOM     25  H   LIG d   1       2.324   0.736  -2.047  0.00  0.00     0.062 H 
ATOM     26  C   LIG d   1       5.646   0.488  -2.605  0.00  0.00    -0.061 A 
ATOM     27  H   LIG d   1       4.461   1.706  -1.309  0.00  0.00     0.062 H 
ATOM     28  C   LIG d   1       5.644  -0.506  -3.561  0.00  0.00    -0.053 A 
ATOM     29  H   LIG d   1       6.581   0.918  -2.276  0.00  0.00     0.062 H 
ATOM     30  H   LIG d   1       6.576  -0.854  -3.982  0.00  0.00     0.062 H 
ENDBRANCH   1  20
TORSDOF 1
ENDMDL
MODEL 6
REMARK VINA RESULT:      -6.0      3.179      4.182
REMARK  1 active torsions:
REMARK  status: ('A' for Active; 'I' for Inactive)
REMARK    1  A    between atoms: C_4  and  C_7 
ROOT
ATOM      1  C   LIG d   1       4.191  -1.394  -7.437  0.00  0.00     0.053 A 
ATOM      2  C   LIG d   1       4.688  -1.557  -6.156  0.00  0.00    -0.019 A 
ATOM      3  C   LIG d   1       4.775  -2.831  -5.608  0.00  0.00    -0.020 A 
ATOM      4  C   LIG d   1       4.359  -3.928  -6.365  0.00  0.00     0.119 A 
ATOM      5  C   LIG d   1       3.862  -3.717  -7.676  0.00  0.00     0.267 A 
ATOM      6  O   LIG d   1       3.500  -4.666  -8.351  0.00  0.00    -0.267 OA
ATOM      7  N   LIG d   1       3.784  -2.469  -8.174  0.00  0.00    -0.321 N 
ATOM      8  H   LIG d   1       3.388  -2.321  -9.189  0.00  0.00     0.169 HD
ATOM      9  C   LIG d   1       4.439  -5.252  -5.825  0.00  0.00     0.105 C 
ATOM     10  N   LIG d   1       4.503  -6.302  -5.397  0.00  0.00    -0.191 NA
ATOM     11  C   LIG d   1       5.344  -2.749  -4.210  0.00  0.00    -0.026 C 
ATOM     12  C   LIG d   1       5.187  -1.270  -3.797  0.00  0.00    -0.045 C 
ATOM     13  C   LIG d   1       5.193  -0.540  -5.156  0.00  0.00    -0.025 C 
ATOM     14  H   LIG d   1       4.779  -3.418  -3.545  0.00  0.00     0.031 H 
ATOM     15  H   LIG d   1       6.401  -3.055  -4.226  0.00  0.00     0.031 H 
ATOM     16  H   LIG d   1       4.242  -1.141  -3.247  0.00  0.00     0.027 H 
ATOM     17  H   LIG d   1       6.028  -0.978  -3.151  0.00  0.00     0.027 H 
ATOM     18  H   LIG d   1       6.208  -0.221  -5.438  0.00  0.00     0.031 H 
ATOM     19  H   LIG d   1       4.524   0.333  -5.150  0.00  0.00     0.031 H 
ENDROOT
BRANCH   1  20
ATOM     20  C   LIG d   1       4.099  -0.038  -8.016  0.00  0.00    -0.001 A 
ATOM     21  C   LIG d   1       2.915   0.693  -7.902  0.00  0.00    -0.053 A 
ATOM     22  C   LIG d   1       2.836   1.959  -8.444  0.00  0.00    -0.061 A 
ATOM     23  H   LIG d   1       2.063   0.270  -7.391  0.00  0.00     0.062 H 
ATOM     24  C   LIG d   1       3.926   2.504  -9.100  0.00  0.00    -0.062 A 
ATOM     25  H   LIG d   1       1.921   2.526  -8.357  0.00  0.00     0.062 H 
ATOM     26  C   LIG d   1       5.102   1.784  -9.217  0.00  0.00    -0.061 A 
ATOM     27  H   LIG d   1       3.858   3.495  -9.522  0.00  0.00     0.062 H 
ATOM     28  C   LIG d   1       5.197   0.519  -8.675  0.00  0.00    -0.053 A 
ATOM     29  H   LIG d   1       5.950   2.216  -9.730  0.00  0.00     0.062 H 
ATOM     30  H   LIG d   1       6.117  -0.040  -8.762  0.00  0.00     0.062 H 
ENDBRANCH   1  20
TORSDOF 1
ENDMDL
MODEL 7
REMARK VINA RESULT:      -6.0      4.215      5.440
REMARK  1 active torsions:
REMARK  status: ('A' for Active; 'I' for Inactive)
REMARK    1  A    between atoms: C_4  and  C_7 
ROOT
ATOM      1  C   LIG d   1       7.270   0.946  -3.959  0.00  0.00     0.053 A 
ATOM      2  C   LIG d   1       7.443  -0.404  -4.203  0.00  0.00    -0.019 A 
ATOM      3  C   LIG d   1       6.485  -1.312  -3.767  0.00  0.00    -0.020 A 
ATOM      4  C   LIG d   1       5.360  -0.840  -3.090  0.00  0.00     0.119 A 
ATOM      5  C   LIG d   1       5.218   0.552  -2.865  0.00  0.00     0.267 A 
ATOM      6  O   LIG d   1       4.237   0.979  -2.280  0.00  0.00    -0.267 OA
ATOM      7  N   LIG d   1       6.168   1.403  -3.295  0.00  0.00    -0.321 N 
ATOM      8  H   LIG d   1       6.048   2.480  -3.106  0.00  0.00     0.169 HD
ATOM      9  C   LIG d   1       4.357  -1.753  -2.630  0.00  0.00     0.105 C 
ATOM     10  N   LIG d   1       3.561  -2.478  -2.266  0.00  0.00    -0.191 NA
ATOM     11  C   LIG d   1       6.898  -2.715  -4.149  0.00  0.00    -0.026 C 
ATOM     12  C   LIG d   1       8.404  -2.619  -4.473  0.00  0.00    -0.045 C 
ATOM     13  C   LIG d   1       8.561  -1.146  -4.905  0.00  0.00    -0.025 C 
ATOM     14  H   LIG d   1       6.708  -3.395  -3.307  0.00  0.00     0.031 H 
ATOM     15  H   LIG d   1       6.317  -3.042  -5.024  0.00  0.00     0.031 H 
ATOM     16  H   LIG d   1       8.989  -2.864  -3.573  0.00  0.00     0.027 H 
ATOM     17  H   LIG d   1       8.654  -3.328  -5.275  0.00  0.00     0.027 H 
ATOM     18  H   LIG d   1       8.449  -1.031  -5.994  0.00  0.00     0.031 H 
ATOM     19  H   LIG d   1       9.530  -0.733  -4.590  0.00  0.00     0.031 H 
ENDROOT
BRANCH   1  20
ATOM     20  C   LIG d   1       8.291   1.907  -4.423  0.00  0.00    -0.001 A 
ATOM     21  C   LIG d   1       8.400   2.213  -5.781  0.00  0.00    -0.053 A 
ATOM     22  C   LIG d   1       9.355   3.112  -6.207  0.00  0.00    -0.061 A 
ATOM     23  H   LIG d   1       7.738   1.747  -6.497  0.00  0.00     0.062 H 
ATOM     24  C   LIG d   1      10.204   3.710  -5.293  0.00  0.00    -0.062 A 
ATOM     25  H   LIG d   1       9.440   3.350  -7.257  0.00  0.00     0.062 H 
ATOM     26  C   LIG d   1      10.102   3.412  -3.945  0.00  0.00    -0.061 A 
ATOM     27  H   LIG d   1      10.950   4.414  -5.632  0.00  0.00     0.062 H 
ATOM     28  C   LIG d   1       9.148   2.518  -3.504  0.00  0.00    -0.053 A 
ATOM     29  H   LIG d   1      10.768   3.882  -3.237  0.00  0.00     0.062 H 
ATOM     30  H   LIG d   1       9.066   2.289  -2.452  0.00  0.00     0.062 H 
ENDBRANCH   1  20
TORSDOF 1
ENDMDL
MODEL 8
REMARK VINA RESULT:      -5.9      3.986      5.772
REMARK  1 active torsions:
REMARK  status: ('A' for Active; 'I' for Inactive)
REMARK    1  A    between atoms: C_4  and  C_7 
ROOT
ATOM      1  C   LIG d   1       3.706  -0.418  -6.815  0.00  0.00     0.053 A 
ATOM      2  C   LIG d   1       4.291  -1.591  -6.375  0.00  0.00    -0.019 A 
ATOM      3  C   LIG d   1       4.490  -1.794  -5.014  0.00  0.00    -0.020 A 
ATOM      4  C   LIG d   1       4.092  -0.805  -4.114  0.00  0.00     0.119 A 
ATOM      5  C   LIG d   1       3.491   0.381  -4.606  0.00  0.00     0.267 A 
ATOM      6  O   LIG d   1       3.134   1.251  -3.831  0.00  0.00    -0.267 OA
ATOM      7  N   LIG d   1       3.319   0.548  -5.931  0.00  0.00    -0.321 N 
ATOM      8  H   LIG d   1       2.859   1.477  -6.298  0.00  0.00     0.169 HD
ATOM      9  C   LIG d   1       4.285  -0.988  -2.706  0.00  0.00     0.105 C 
ATOM     10  N   LIG d   1       4.438  -1.133  -1.590  0.00  0.00    -0.191 NA
ATOM     11  C   LIG d   1       5.141  -3.139  -4.787  0.00  0.00    -0.026 C 
ATOM     12  C   LIG d   1       5.715  -3.547  -6.161  0.00  0.00    -0.045 C 
ATOM     13  C   LIG d   1       4.798  -2.792  -7.145  0.00  0.00    -0.025 C 
ATOM     14  H   LIG d   1       5.932  -3.040  -4.030  0.00  0.00     0.031 H 
ATOM     15  H   LIG d   1       4.385  -3.857  -4.436  0.00  0.00     0.031 H 
ATOM     16  H   LIG d   1       6.767  -3.229  -6.227  0.00  0.00     0.027 H 
ATOM     17  H   LIG d   1       5.656  -4.640  -6.274  0.00  0.00     0.027 H 
ATOM     18  H   LIG d   1       3.945  -3.412  -7.459  0.00  0.00     0.031 H 
ATOM     19  H   LIG d   1       5.350  -2.452  -8.033  0.00  0.00     0.031 H 
ENDROOT
BRANCH   1  20
ATOM     20  C   LIG d   1       3.496  -0.206  -8.261  0.00  0.00    -0.001 A 
ATOM     21  C   LIG d   1       2.341  -0.687  -8.880  0.00  0.00    -0.053 A 
ATOM     22  C   LIG d   1       2.151  -0.485 -10.231  0.00  0.00    -0.061 A 
ATOM     23  H   LIG d   1       1.597  -1.217  -8.303  0.00  0.00     0.062 H 
ATOM     24  C   LIG d   1       3.102   0.192 -10.974  0.00  0.00    -0.062 A 
ATOM     25  H   LIG d   1       1.258  -0.857 -10.711  0.00  0.00     0.062 H 
ATOM     26  C   LIG d   1       4.251   0.671 -10.367  0.00  0.00    -0.061 A 
ATOM     27  H   LIG d   1       2.949   0.347 -12.031  0.00  0.00     0.062 H 
ATOM     28  C   LIG d   1       4.451   0.481  -9.016  0.00  0.00    -0.053 A 
ATOM     29  H   LIG d   1       4.989   1.199 -10.952  0.00  0.00     0.062 H 
ATOM     30  H   LIG d   1       5.345   0.859  -8.542  0.00  0.00     0.062 H 
ENDBRANCH   1  20
TORSDOF 1
ENDMDL
MODEL 9
REMARK VINA RESULT:      -5.9      3.763      4.973
REMARK  1 active torsions:
REMARK  status: ('A' for Active; 'I' for Inactive)
REMARK    1  A    between atoms: C_4  and  C_7 
ROOT
ATOM      1  C   LIG d   1       5.450  -0.838  -5.869  0.00  0.00     0.053 A 
ATOM      2  C   LIG d   1       4.561  -0.330  -6.798  0.00  0.00    -0.019 A 
ATOM      3  C   LIG d   1       4.943  -0.219  -8.130  0.00  0.00    -0.020 A 
ATOM      4  C   LIG d   1       6.224  -0.626  -8.506  0.00  0.00     0.119 A 
ATOM      5  C   LIG d   1       7.104  -1.146  -7.523  0.00  0.00     0.267 A 
ATOM      6  O   LIG d   1       8.224  -1.510  -7.838  0.00  0.00    -0.267 OA
ATOM      7  N   LIG d   1       6.703  -1.234  -6.241  0.00  0.00    -0.321 N 
ATOM      8  H   LIG d   1       7.400  -1.631  -5.488  0.00  0.00     0.169 HD
ATOM      9  C   LIG d   1       6.644  -0.523  -9.871  0.00  0.00     0.105 C 
ATOM     10  N   LIG d   1       6.978  -0.442 -10.954  0.00  0.00    -0.191 NA
ATOM     11  C   LIG d   1       3.808   0.359  -8.943  0.00  0.00    -0.026 C 
ATOM     12  C   LIG d   1       2.853   0.994  -7.908  0.00  0.00    -0.045 C 
ATOM     13  C   LIG d   1       3.141   0.169  -6.636  0.00  0.00    -0.025 C 
ATOM     14  H   LIG d   1       4.202   1.109  -9.643  0.00  0.00     0.031 H 
ATOM     15  H   LIG d   1       3.314  -0.446  -9.506  0.00  0.00     0.031 H 
ATOM     16  H   LIG d   1       3.098   2.060  -7.790  0.00  0.00     0.027 H 
ATOM     17  H   LIG d   1       1.815   0.894  -8.257  0.00  0.00     0.027 H 
ATOM     18  H   LIG d   1       2.458  -0.690  -6.550  0.00  0.00     0.031 H 
ATOM     19  H   LIG d   1       3.070   0.786  -5.729  0.00  0.00     0.031 H 
ENDROOT
BRANCH   1  20
ATOM     20  C   LIG d   1       5.041  -0.954  -4.455  0.00  0.00    -0.001 A 
ATOM     21  C   LIG d   1       5.283   0.096  -3.567  0.00  0.00    -0.053 A 
ATOM     22  C   LIG d   1       4.897  -0.018  -2.248  0.00  0.00    -0.061 A 
ATOM     23  H   LIG d   1       5.771   0.996  -3.911  0.00  0.00     0.062 H 
ATOM     24  C   LIG d   1       4.272  -1.169  -1.803  0.00  0.00    -0.062 A 
ATOM     25  H   LIG d   1       5.083   0.793  -1.560  0.00  0.00     0.062 H 
ATOM     26  C   LIG d   1       4.029  -2.215  -2.678  0.00  0.00    -0.061 A 
ATOM     27  H   LIG d   1       3.971  -1.254  -0.770  0.00  0.00     0.062 H 
ATOM     28  C   LIG d   1       4.404  -2.112  -4.001  0.00  0.00    -0.053 A 
ATOM     29  H   LIG d   1       3.540  -3.111  -2.325  0.00  0.00     0.062 H 
ATOM     30  H   LIG d   1       4.211  -2.926  -4.684  0.00  0.00     0.062 H 
ENDBRANCH   1  20
TORSDOF 1
ENDMDL
