MODEL 1
REMARK VINA RESULT:      -7.0      0.000      0.000
REMARK  7 active torsions:
REMARK  status: ('A' for Active; 'I' for Inactive)
REMARK    1  A    between atoms: C_4  and  O_24 
REMARK    2  A    between atoms: C_5  and  C_7 
REMARK    3  A    between atoms: C_8  and  C_9 
REMARK    4  A    between atoms: N_19  and  C_20 
REMARK    5  A    between atoms: C_20  and  C_21 
REMARK    6  A    between atoms: C_21  and  C_22 
REMARK    7  A    between atoms: C_22  and  O_23 
ROOT
ATOM      1  C   LIG d   1       4.246  -1.155  -6.203  0.00  0.00     0.137 A 
ATOM      2  N   LIG d   1       3.649  -0.171  -5.570  0.00  0.00    -0.229 NA
ATOM      3  C   LIG d   1       3.935   0.121  -4.287  0.00  0.00     0.079 A 
ATOM      4  C   LIG d   1       3.294   1.166  -3.615  0.00  0.00    -0.035 A 
ATOM      5  C   LIG d   1       3.616   1.437  -2.315  0.00  0.00    -0.060 A 
ATOM      6  C   LIG d   1       4.575   0.687  -1.646  0.00  0.00    -0.061 A 
ATOM      7  C   LIG d   1       5.225  -0.349  -2.281  0.00  0.00    -0.047 A 
ATOM      8  C   LIG d   1       4.912  -0.642  -3.607  0.00  0.00     0.065 A 
ATOM      9  C   LIG d   1       5.573  -1.735  -4.335  0.00  0.00     0.262 A 
ATOM     10  O   LIG d   1       6.422  -2.426  -3.802  0.00  0.00    -0.267 OA
ATOM     11  N   LIG d   1       5.204  -1.944  -5.620  0.00  0.00    -0.293 N 
ATOM     12  H   LIG d   1       2.546   1.759  -4.122  0.00  0.00     0.064 H 
ATOM     13  H   LIG d   1       3.118   2.245  -1.800  0.00  0.00     0.062 H 
ATOM     14  H   LIG d   1       4.814   0.919  -0.619  0.00  0.00     0.062 H 
ATOM     15  H   LIG d   1       5.970  -0.927  -1.756  0.00  0.00     0.063 H 
ENDROOT
BRANCH   1  16
ATOM     16  C   LIG d   1       3.876  -1.415  -7.595  0.00  0.00    -0.018 C 
ATOM     17  C   LIG d   1       3.156  -0.507  -8.283  0.00  0.00    -0.048 C 
ATOM     18  H   LIG d   1       2.851   0.413  -7.808  0.00  0.00     0.063 H 
ATOM     19  H   LIG d   1       4.181  -2.336  -8.070  0.00  0.00     0.065 H 
BRANCH  17  20
ATOM     20  C   LIG d   1       2.790  -0.767  -9.683  0.00  0.00     0.017 A 
ATOM     21  C   LIG d   1       3.641  -0.360 -10.723  0.00  0.00     0.124 A 
ATOM     22  C   LIG d   1       3.287  -0.614 -12.039  0.00  0.00    -0.020 A 
ATOM     23  C   LIG d   1       2.097  -1.257 -12.325  0.00  0.00    -0.058 A 
ATOM     24  H   LIG d   1       3.940  -0.306 -12.842  0.00  0.00     0.065 H 
ATOM     25  C   LIG d   1       1.252  -1.656 -11.302  0.00  0.00    -0.061 A 
ATOM     26  H   LIG d   1       1.826  -1.449 -13.352  0.00  0.00     0.062 H 
ATOM     27  C   LIG d   1       1.589  -1.416  -9.989  0.00  0.00    -0.051 A 
ATOM     28  H   LIG d   1       0.325  -2.157 -11.537  0.00  0.00     0.062 H 
ATOM     29  H   LIG d   1       0.927  -1.729  -9.195  0.00  0.00     0.062 H 
BRANCH  21  30
ATOM     30  O   LIG d   1       4.806   0.276 -10.441  0.00  0.00    -0.506 OA
ATOM     31  H   LIG d   1       4.701   1.215 -10.237  0.00  0.00     0.292 HD
ENDBRANCH  21  30
ENDBRANCH  17  20
ENDBRANCH   1  16
BRANCH  11  32
ATOM     32  C   LIG d   1       5.831  -3.020  -6.392  0.00  0.00     0.030 C 
ATOM     33  H   LIG d   1       5.567  -2.914  -7.445  0.00  0.00     0.049 H 
ATOM     34  H   LIG d   1       6.914  -2.963  -6.281  0.00  0.00     0.049 H 
BRANCH  32  35
ATOM     35  C   LIG d   1       5.335  -4.372  -5.877  0.00  0.00    -0.011 C 
ATOM     36  H   LIG d   1       6.184  -5.040  -5.735  0.00  0.00     0.030 H 
ATOM     37  H   LIG d   1       4.819  -4.232  -4.927  0.00  0.00     0.030 H 
BRANCH  35  38
ATOM     38  C   LIG d   1       4.371  -4.983  -6.896  0.00  0.00     0.046 C 
ATOM     39  H   LIG d   1       4.316  -4.342  -7.775  0.00  0.00     0.056 H 
ATOM     40  H   LIG d   1       4.729  -5.971  -7.187  0.00  0.00     0.056 H 
BRANCH  38  41
ATOM     41  O   LIG d   1       3.072  -5.102  -6.311  0.00  0.00    -0.395 OA
ATOM     42  H   LIG d   1       3.024  -5.738  -5.585  0.00  0.00     0.209 HD
ENDBRANCH  38  41
ENDBRANCH  35  38
ENDBRANCH  32  35
ENDBRANCH  11  32
TORSDOF 7
ENDMDL
MODEL 2
REMARK VINA RESULT:      -6.7      2.173      7.395
REMARK  7 active torsions:
REMARK  status: ('A' for Active; 'I' for Inactive)
REMARK    1  A    between atoms: C_4  and  O_24 
REMARK    2  A    between atoms: C_5  and  C_7 
REMARK    3  A    between atoms: C_8  and  C_9 
REMARK    4  A    between atoms: N_19  and  C_20 
REMARK    5  A    between atoms: C_20  and  C_21 
REMARK    6  A    between atoms: C_21  and  C_22 
REMARK    7  A    between atoms: C_22  and  O_23 
ROOT
ATOM      1  C   LIG d   1       3.545  -0.382  -8.161  0.00  0.00     0.137 A 
ATOM      2  N   LIG d   1       2.753  -1.377  -8.490  0.00  0.00    -0.229 NA
ATOM      3  C   LIG d   1       2.328  -1.554  -9.755  0.00  0.00     0.079 A 
ATOM      4  C   LIG d   1       1.481  -2.612 -10.100  0.00  0.00    -0.035 A 
ATOM      5  C   LIG d   1       1.076  -2.763 -11.397  0.00  0.00    -0.060 A 
ATOM      6  C   LIG d   1       1.494  -1.878 -12.383  0.00  0.00    -0.061 A 
ATOM      7  C   LIG d   1       2.329  -0.827 -12.075  0.00  0.00    -0.047 A 
ATOM      8  C   LIG d   1       2.754  -0.653 -10.759  0.00  0.00     0.065 A 
ATOM      9  C   LIG d   1       3.646   0.450 -10.372  0.00  0.00     0.262 A 
ATOM     10  O   LIG d   1       4.045   1.256 -11.192  0.00  0.00    -0.267 OA
ATOM     11  N   LIG d   1       4.006   0.536  -9.070  0.00  0.00    -0.293 N 
ATOM     12  H   LIG d   1       1.148  -3.308  -9.345  0.00  0.00     0.064 H 
ATOM     13  H   LIG d   1       0.422  -3.581 -11.658  0.00  0.00     0.062 H 
ATOM     14  H   LIG d   1       1.162  -2.017 -13.401  0.00  0.00     0.062 H 
ATOM     15  H   LIG d   1       2.651  -0.143 -12.846  0.00  0.00     0.063 H 
ENDROOT
BRANCH   1  16
ATOM     16  C   LIG d   1       3.959  -0.251  -6.764  0.00  0.00    -0.018 C 
ATOM     17  C   LIG d   1       3.032  -0.209  -5.786  0.00  0.00    -0.048 C 
ATOM     18  H   LIG d   1       1.982  -0.271  -6.034  0.00  0.00     0.063 H 
ATOM     19  H   LIG d   1       5.009  -0.189  -6.516  0.00  0.00     0.065 H 
BRANCH  17  20
ATOM     20  C   LIG d   1       3.448  -0.084  -4.382  0.00  0.00     0.017 A 
ATOM     21  C   LIG d   1       3.798  -1.226  -3.644  0.00  0.00     0.124 A 
ATOM     22  C   LIG d   1       4.193  -1.095  -2.322  0.00  0.00    -0.020 A 
ATOM     23  C   LIG d   1       4.234   0.154  -1.732  0.00  0.00    -0.058 A 
ATOM     24  H   LIG d   1       4.466  -1.970  -1.751  0.00  0.00     0.065 H 
ATOM     25  C   LIG d   1       3.885   1.283  -2.454  0.00  0.00    -0.061 A 
ATOM     26  H   LIG d   1       4.540   0.249  -0.701  0.00  0.00     0.062 H 
ATOM     27  C   LIG d   1       3.494   1.174  -3.770  0.00  0.00    -0.051 A 
ATOM     28  H   LIG d   1       3.920   2.255  -1.983  0.00  0.00     0.062 H 
ATOM     29  H   LIG d   1       3.224   2.056  -4.330  0.00  0.00     0.062 H 
BRANCH  21  30
ATOM     30  O   LIG d   1       3.752  -2.452  -4.224  0.00  0.00    -0.506 OA
ATOM     31  H   LIG d   1       4.189  -2.496  -5.085  0.00  0.00     0.292 HD
ENDBRANCH  21  30
ENDBRANCH  17  20
ENDBRANCH   1  16
BRANCH  11  32
ATOM     32  C   LIG d   1       4.892   1.617  -8.630  0.00  0.00     0.030 C 
ATOM     33  H   LIG d   1       4.513   2.570  -8.996  0.00  0.00     0.049 H 
ATOM     34  H   LIG d   1       4.929   1.635  -7.540  0.00  0.00     0.049 H 
BRANCH  32  35
ATOM     35  C   LIG d   1       6.297   1.380  -9.184  0.00  0.00    -0.011 C 
ATOM     36  H   LIG d   1       6.240   0.725 -10.053  0.00  0.00     0.030 H 
ATOM     37  H   LIG d   1       6.739   2.333  -9.476  0.00  0.00     0.030 H 
BRANCH  35  38
ATOM     38  C   LIG d   1       7.166   0.724  -8.108  0.00  0.00     0.046 C 
ATOM     39  H   LIG d   1       6.850  -0.310  -7.967  0.00  0.00     0.056 H 
ATOM     40  H   LIG d   1       8.210   0.746  -8.421  0.00  0.00     0.056 H 
BRANCH  38  41
ATOM     41  O   LIG d   1       7.022   1.438  -6.878  0.00  0.00    -0.395 OA
ATOM     42  H   LIG d   1       7.352   0.960  -6.105  0.00  0.00     0.209 HD
ENDBRANCH  38  41
ENDBRANCH  35  38
ENDBRANCH  32  35
ENDBRANCH  11  32
TORSDOF 7
ENDMDL
MODEL 3
REMARK VINA RESULT:      -6.5      5.333      7.983
REMARK  7 active torsions:
REMARK  status: ('A' for Active; 'I' for Inactive)
REMARK    1  A    between atoms: C_4  and  O_24 
REMARK    2  A    between atoms: C_5  and  C_7 
REMARK    3  A    between atoms: C_8  and  C_9 
REMARK    4  A    between atoms: N_19  and  C_20 
REMARK    5  A    between atoms: C_20  and  C_21 
REMARK    6  A    between atoms: C_21  and  C_22 
REMARK    7  A    between atoms: C_22  and  O_23 
ROOT
ATOM      1  C   LIG d   1       7.655   1.404  -4.175  0.00  0.00     0.137 A 
ATOM      2  N   LIG d   1       6.670   1.456  -3.307  0.00  0.00    -0.229 NA
ATOM      3  C   LIG d   1       5.904   0.382  -3.042  0.00  0.00     0.079 A 
ATOM      4  C   LIG d   1       4.854   0.443  -2.121  0.00  0.00    -0.035 A 
ATOM      5  C   LIG d   1       4.102  -0.671  -1.873  0.00  0.00    -0.060 A 
ATOM      6  C   LIG d   1       4.366  -1.871  -2.523  0.00  0.00    -0.061 A 
ATOM      7  C   LIG d   1       5.395  -1.963  -3.435  0.00  0.00    -0.047 A 
ATOM      8  C   LIG d   1       6.173  -0.839  -3.704  0.00  0.00     0.065 A 
ATOM      9  C   LIG d   1       7.284  -0.878  -4.667  0.00  0.00     0.262 A 
ATOM     10  O   LIG d   1       7.563  -1.900  -5.267  0.00  0.00    -0.267 OA
ATOM     11  N   LIG d   1       7.985   0.263  -4.861  0.00  0.00    -0.293 N 
ATOM     12  H   LIG d   1       4.637   1.367  -1.607  0.00  0.00     0.064 H 
ATOM     13  H   LIG d   1       3.292  -0.619  -1.161  0.00  0.00     0.062 H 
ATOM     14  H   LIG d   1       3.759  -2.738  -2.311  0.00  0.00     0.062 H 
ATOM     15  H   LIG d   1       5.594  -2.897  -3.937  0.00  0.00     0.063 H 
ENDROOT
BRANCH   1  16
ATOM     16  C   LIG d   1       8.439   2.616  -4.415  0.00  0.00    -0.018 C 
ATOM     17  C   LIG d   1       9.207   3.128  -3.433  0.00  0.00    -0.048 C 
ATOM     18  H   LIG d   1       9.244   2.644  -2.468  0.00  0.00     0.063 H 
ATOM     19  H   LIG d   1       8.402   3.100  -5.380  0.00  0.00     0.065 H 
BRANCH  17  20
ATOM     20  C   LIG d   1      10.000   4.342  -3.676  0.00  0.00     0.017 A 
ATOM     21  C   LIG d   1      10.937   4.777  -2.725  0.00  0.00     0.124 A 
ATOM     22  C   LIG d   1      11.681   5.921  -2.968  0.00  0.00    -0.020 A 
ATOM     23  C   LIG d   1      11.494   6.635  -4.137  0.00  0.00    -0.058 A 
ATOM     24  H   LIG d   1      12.406   6.257  -2.241  0.00  0.00     0.065 H 
ATOM     25  C   LIG d   1      10.566   6.212  -5.075  0.00  0.00    -0.061 A 
ATOM     26  H   LIG d   1      12.074   7.526  -4.318  0.00  0.00     0.062 H 
ATOM     27  C   LIG d   1       9.821   5.076  -4.854  0.00  0.00    -0.051 A 
ATOM     28  H   LIG d   1      10.428   6.778  -5.985  0.00  0.00     0.062 H 
ATOM     29  H   LIG d   1       9.100   4.750  -5.589  0.00  0.00     0.062 H 
BRANCH  21  30
ATOM     30  O   LIG d   1      11.116   4.078  -1.576  0.00  0.00    -0.506 OA
ATOM     31  H   LIG d   1      11.225   3.127  -1.708  0.00  0.00     0.292 HD
ENDBRANCH  21  30
ENDBRANCH  17  20
ENDBRANCH   1  16
BRANCH  11  32
ATOM     32  C   LIG d   1       9.102   0.280  -5.809  0.00  0.00     0.030 C 
ATOM     33  H   LIG d   1       8.961  -0.507  -6.551  0.00  0.00     0.049 H 
ATOM     34  H   LIG d   1       9.139   1.248  -6.310  0.00  0.00     0.049 H 
BRANCH  32  35
ATOM     35  C   LIG d   1      10.412   0.043  -5.057  0.00  0.00    -0.011 C 
ATOM     36  H   LIG d   1      11.148   0.783  -5.368  0.00  0.00     0.030 H 
ATOM     37  H   LIG d   1      10.237   0.132  -3.985  0.00  0.00     0.030 H 
BRANCH  35  38
ATOM     38  C   LIG d   1      10.935  -1.360  -5.374  0.00  0.00     0.046 C 
ATOM     39  H   LIG d   1      10.566  -1.673  -6.350  0.00  0.00     0.056 H 
ATOM     40  H   LIG d   1      12.025  -1.347  -5.383  0.00  0.00     0.056 H 
BRANCH  38  41
ATOM     41  O   LIG d   1      10.479  -2.275  -4.376  0.00  0.00    -0.395 OA
ATOM     42  H   LIG d   1      10.488  -1.916  -3.478  0.00  0.00     0.209 HD
ENDBRANCH  38  41
ENDBRANCH  35  38
ENDBRANCH  32  35
ENDBRANCH  11  32
TORSDOF 7
ENDMDL
MODEL 4
REMARK VINA RESULT:      -6.4      5.361      7.609
REMARK  7 active torsions:
REMARK  status: ('A' for Active; 'I' for Inactive)
REMARK    1  A    between atoms: C_4  and  O_24 
REMARK    2  A    between atoms: C_5  and  C_7 
REMARK    3  A    between atoms: C_8  and  C_9 
REMARK    4  A    between atoms: N_19  and  C_20 
REMARK    5  A    between atoms: C_20  and  C_21 
REMARK    6  A    between atoms: C_21  and  C_22 
REMARK    7  A    between atoms: C_22  and  O_23 
ROOT
ATOM      1  C   LIG d   1       8.521   1.931  -4.322  0.00  0.00     0.137 A 
ATOM      2  N   LIG d   1       8.880   2.751  -3.360  0.00  0.00    -0.229 NA
ATOM      3  C   LIG d   1       9.836   3.681  -3.545  0.00  0.00     0.079 A 
ATOM      4  C   LIG d   1      10.218   4.549  -2.517  0.00  0.00    -0.035 A 
ATOM      5  C   LIG d   1      11.188   5.485  -2.744  0.00  0.00    -0.060 A 
ATOM      6  C   LIG d   1      11.803   5.590  -3.986  0.00  0.00    -0.061 A 
ATOM      7  C   LIG d   1      11.446   4.750  -5.019  0.00  0.00    -0.047 A 
ATOM      8  C   LIG d   1      10.461   3.788  -4.809  0.00  0.00     0.065 A 
ATOM      9  C   LIG d   1      10.040   2.865  -5.874  0.00  0.00     0.262 A 
ATOM     10  O   LIG d   1      10.542   2.909  -6.982  0.00  0.00    -0.267 OA
ATOM     11  N   LIG d   1       9.074   1.965  -5.576  0.00  0.00    -0.293 N 
ATOM     12  H   LIG d   1       9.749   4.481  -1.547  0.00  0.00     0.064 H 
ATOM     13  H   LIG d   1      11.480   6.153  -1.948  0.00  0.00     0.062 H 
ATOM     14  H   LIG d   1      12.566   6.338  -4.143  0.00  0.00     0.062 H 
ATOM     15  H   LIG d   1      11.928   4.837  -5.981  0.00  0.00     0.063 H 
ENDROOT
BRANCH   1  16
ATOM     16  C   LIG d   1       7.479   0.942  -4.043  0.00  0.00    -0.018 C 
ATOM     17  C   LIG d   1       6.352   1.311  -3.403  0.00  0.00    -0.048 C 
ATOM     18  H   LIG d   1       6.217   2.338  -3.095  0.00  0.00     0.063 H 
ATOM     19  H   LIG d   1       7.614  -0.084  -4.351  0.00  0.00     0.065 H 
BRANCH  17  20
ATOM     20  C   LIG d   1       5.303   0.319  -3.128  0.00  0.00     0.017 A 
ATOM     21  C   LIG d   1       3.955   0.710  -3.075  0.00  0.00     0.124 A 
ATOM     22  C   LIG d   1       2.975  -0.236  -2.820  0.00  0.00    -0.020 A 
ATOM     23  C   LIG d   1       3.325  -1.556  -2.609  0.00  0.00    -0.058 A 
ATOM     24  H   LIG d   1       1.937   0.060  -2.782  0.00  0.00     0.065 H 
ATOM     25  C   LIG d   1       4.653  -1.946  -2.655  0.00  0.00    -0.061 A 
ATOM     26  H   LIG d   1       2.556  -2.288  -2.408  0.00  0.00     0.062 H 
ATOM     27  C   LIG d   1       5.641  -1.022  -2.912  0.00  0.00    -0.051 A 
ATOM     28  H   LIG d   1       4.915  -2.981  -2.489  0.00  0.00     0.062 H 
ATOM     29  H   LIG d   1       6.675  -1.330  -2.948  0.00  0.00     0.062 H 
BRANCH  21  30
ATOM     30  O   LIG d   1       3.614   2.008  -3.277  0.00  0.00    -0.506 OA
ATOM     31  H   LIG d   1       4.332   2.553  -3.628  0.00  0.00     0.292 HD
ENDBRANCH  21  30
ENDBRANCH  17  20
ENDBRANCH   1  16
BRANCH  11  32
ATOM     32  C   LIG d   1       8.618   1.022  -6.600  0.00  0.00     0.030 C 
ATOM     33  H   LIG d   1       9.453   0.755  -7.247  0.00  0.00     0.049 H 
ATOM     34  H   LIG d   1       8.229   0.124  -6.119  0.00  0.00     0.049 H 
BRANCH  32  35
ATOM     35  C   LIG d   1       7.514   1.672  -7.435  0.00  0.00    -0.011 C 
ATOM     36  H   LIG d   1       6.589   1.107  -7.319  0.00  0.00     0.030 H 
ATOM     37  H   LIG d   1       7.359   2.697  -7.099  0.00  0.00     0.030 H 
BRANCH  35  38
ATOM     38  C   LIG d   1       7.925   1.676  -8.909  0.00  0.00     0.046 C 
ATOM     39  H   LIG d   1       8.761   0.991  -9.055  0.00  0.00     0.056 H 
ATOM     40  H   LIG d   1       7.082   1.357  -9.522  0.00  0.00     0.056 H 
BRANCH  38  41
ATOM     41  O   LIG d   1       8.319   2.996  -9.291  0.00  0.00    -0.395 OA
ATOM     42  H   LIG d   1       8.150   3.204 -10.220  0.00  0.00     0.209 HD
ENDBRANCH  38  41
ENDBRANCH  35  38
ENDBRANCH  32  35
ENDBRANCH  11  32
TORSDOF 7
ENDMDL
MODEL 5
REMARK VINA RESULT:      -6.2      2.568      7.111
REMARK  7 active torsions:
REMARK  status: ('A' for Active; 'I' for Inactive)
REMARK    1  A    between atoms: C_4  and  O_24 
REMARK    2  A    between atoms: C_5  and  C_7 
REMARK    3  A    between atoms: C_8  and  C_9 
REMARK    4  A    between atoms: N_19  and  C_20 
REMARK    5  A    between atoms: C_20  and  C_21 
REMARK    6  A    between atoms: C_21  and  C_22 
REMARK    7  A    between atoms: C_22  and  O_23 
ROOT
ATOM      1  C   LIG d   1       4.677  -2.094  -6.292  0.00  0.00     0.137 A 
ATOM      2  N   LIG d   1       4.334  -2.594  -7.458  0.00  0.00    -0.229 NA
ATOM      3  C   LIG d   1       3.527  -1.928  -8.304  0.00  0.00     0.079 A 
ATOM      4  C   LIG d   1       3.161  -2.466  -9.541  0.00  0.00    -0.035 A 
ATOM      5  C   LIG d   1       2.344  -1.757 -10.376  0.00  0.00    -0.060 A 
ATOM      6  C   LIG d   1       1.869  -0.502 -10.015  0.00  0.00    -0.061 A 
ATOM      7  C   LIG d   1       2.213   0.056  -8.803  0.00  0.00    -0.047 A 
ATOM      8  C   LIG d   1       3.044  -0.650  -7.935  0.00  0.00     0.065 A 
ATOM      9  C   LIG d   1       3.444  -0.105  -6.630  0.00  0.00     0.262 A 
ATOM     10  O   LIG d   1       3.060   0.989  -6.259  0.00  0.00    -0.267 OA
ATOM     11  N   LIG d   1       4.255  -0.863  -5.856  0.00  0.00    -0.293 N 
ATOM     12  H   LIG d   1       3.522  -3.440  -9.836  0.00  0.00     0.064 H 
ATOM     13  H   LIG d   1       2.064  -2.177 -11.330  0.00  0.00     0.062 H 
ATOM     14  H   LIG d   1       1.226   0.041 -10.691  0.00  0.00     0.062 H 
ATOM     15  H   LIG d   1       1.841   1.031  -8.528  0.00  0.00     0.063 H 
ENDROOT
BRANCH   1  16
ATOM     16  C   LIG d   1       5.553  -2.881  -5.424  0.00  0.00    -0.018 C 
ATOM     17  C   LIG d   1       6.841  -3.080  -5.768  0.00  0.00    -0.048 C 
ATOM     18  H   LIG d   1       7.227  -2.659  -6.685  0.00  0.00     0.063 H 
ATOM     19  H   LIG d   1       5.167  -3.302  -4.507  0.00  0.00     0.065 H 
BRANCH  17  20
ATOM     20  C   LIG d   1       7.723  -3.866  -4.893  0.00  0.00     0.017 A 
ATOM     21  C   LIG d   1       8.387  -3.249  -3.821  0.00  0.00     0.124 A 
ATOM     22  C   LIG d   1       9.212  -4.001  -3.000  0.00  0.00    -0.020 A 
ATOM     23  C   LIG d   1       9.387  -5.351  -3.242  0.00  0.00    -0.058 A 
ATOM     24  H   LIG d   1       9.723  -3.532  -2.172  0.00  0.00     0.065 H 
ATOM     25  C   LIG d   1       8.738  -5.963  -4.301  0.00  0.00    -0.061 A 
ATOM     26  H   LIG d   1      10.034  -5.930  -2.601  0.00  0.00     0.062 H 
ATOM     27  C   LIG d   1       7.910  -5.233  -5.125  0.00  0.00    -0.051 A 
ATOM     28  H   LIG d   1       8.881  -7.018  -4.481  0.00  0.00     0.062 H 
ATOM     29  H   LIG d   1       7.405  -5.715  -5.949  0.00  0.00     0.062 H 
BRANCH  21  30
ATOM     30  O   LIG d   1       8.219  -1.922  -3.588  0.00  0.00    -0.506 OA
ATOM     31  H   LIG d   1       8.793  -1.570  -2.894  0.00  0.00     0.292 HD
ENDBRANCH  21  30
ENDBRANCH  17  20
ENDBRANCH   1  16
BRANCH  11  32
ATOM     32  C   LIG d   1       4.684  -0.368  -4.546  0.00  0.00     0.030 C 
ATOM     33  H   LIG d   1       5.559  -0.927  -4.215  0.00  0.00     0.049 H 
ATOM     34  H   LIG d   1       4.936   0.690  -4.622  0.00  0.00     0.049 H 
BRANCH  32  35
ATOM     35  C   LIG d   1       3.550  -0.551  -3.536  0.00  0.00    -0.011 C 
ATOM     36  H   LIG d   1       2.608  -0.687  -4.067  0.00  0.00     0.030 H 
ATOM     37  H   LIG d   1       3.750  -1.428  -2.920  0.00  0.00     0.030 H 
BRANCH  35  38
ATOM     38  C   LIG d   1       3.457   0.689  -2.644  0.00  0.00     0.046 C 
ATOM     39  H   LIG d   1       2.496   0.695  -2.129  0.00  0.00     0.056 H 
ATOM     40  H   LIG d   1       4.263   0.670  -1.911  0.00  0.00     0.056 H 
BRANCH  38  41
ATOM     41  O   LIG d   1       3.573   1.865  -3.449  0.00  0.00    -0.395 OA
ATOM     42  H   LIG d   1       3.476   1.704  -4.397  0.00  0.00     0.209 HD
ENDBRANCH  38  41
ENDBRANCH  35  38
ENDBRANCH  32  35
ENDBRANCH  11  32
TORSDOF 7
ENDMDL
MODEL 6
REMARK VINA RESULT:      -6.2     11.636     14.760
REMARK  7 active torsions:
REMARK  status: ('A' for Active; 'I' for Inactive)
REMARK    1  A    between atoms: C_4  and  O_24 
REMARK    2  A    between atoms: C_5  and  C_7 
REMARK    3  A    between atoms: C_8  and  C_9 
REMARK    4  A    between atoms: N_19  and  C_20 
REMARK    5  A    between atoms: C_20  and  C_21 
REMARK    6  A    between atoms: C_21  and  C_22 
REMARK    7  A    between atoms: C_22  and  O_23 
ROOT
ATOM      1  C   LIG d   1      11.621   8.109   2.141  0.00  0.00     0.137 A 
ATOM      2  N   LIG d   1      11.366   7.227   3.081  0.00  0.00    -0.229 NA
ATOM      3  C   LIG d   1      11.505   7.523   4.386  0.00  0.00     0.079 A 
ATOM      4  C   LIG d   1      11.237   6.580   5.383  0.00  0.00    -0.035 A 
ATOM      5  C   LIG d   1      11.384   6.920   6.698  0.00  0.00    -0.060 A 
ATOM      6  C   LIG d   1      11.796   8.195   7.065  0.00  0.00    -0.061 A 
ATOM      7  C   LIG d   1      12.067   9.148   6.106  0.00  0.00    -0.047 A 
ATOM      8  C   LIG d   1      11.925   8.822   4.759  0.00  0.00     0.065 A 
ATOM      9  C   LIG d   1      12.200   9.797   3.693  0.00  0.00     0.262 A 
ATOM     10  O   LIG d   1      12.564  10.929   3.952  0.00  0.00    -0.267 OA
ATOM     11  N   LIG d   1      12.032   9.389   2.413  0.00  0.00    -0.293 N 
ATOM     12  H   LIG d   1      10.914   5.585   5.114  0.00  0.00     0.064 H 
ATOM     13  H   LIG d   1      11.175   6.188   7.463  0.00  0.00     0.062 H 
ATOM     14  H   LIG d   1      11.905   8.442   8.110  0.00  0.00     0.062 H 
ATOM     15  H   LIG d   1      12.388  10.136   6.397  0.00  0.00     0.063 H 
ENDROOT
BRANCH   1  16
ATOM     16  C   LIG d   1      11.453   7.710   0.744  0.00  0.00    -0.018 C 
ATOM     17  C   LIG d   1      10.677   6.652   0.433  0.00  0.00    -0.048 C 
ATOM     18  H   LIG d   1      10.180   6.098   1.216  0.00  0.00     0.063 H 
ATOM     19  H   LIG d   1      11.950   8.264  -0.038  0.00  0.00     0.065 H 
BRANCH  17  20
ATOM     20  C   LIG d   1      10.503   6.255  -0.972  0.00  0.00     0.017 A 
ATOM     21  C   LIG d   1       9.485   6.832  -1.748  0.00  0.00     0.124 A 
ATOM     22  C   LIG d   1       9.334   6.453  -3.073  0.00  0.00    -0.020 A 
ATOM     23  C   LIG d   1      10.176   5.505  -3.623  0.00  0.00    -0.058 A 
ATOM     24  H   LIG d   1       8.555   6.896  -3.675  0.00  0.00     0.065 H 
ATOM     25  C   LIG d   1      11.179   4.930  -2.859  0.00  0.00    -0.061 A 
ATOM     26  H   LIG d   1      10.051   5.211  -4.654  0.00  0.00     0.062 H 
ATOM     27  C   LIG d   1      11.348   5.297  -1.543  0.00  0.00    -0.051 A 
ATOM     28  H   LIG d   1      11.831   4.190  -3.299  0.00  0.00     0.062 H 
ATOM     29  H   LIG d   1      12.131   4.847  -0.951  0.00  0.00     0.062 H 
BRANCH  21  30
ATOM     30  O   LIG d   1       8.655   7.759  -1.205  0.00  0.00    -0.506 OA
ATOM     31  H   LIG d   1       9.032   8.227  -0.448  0.00  0.00     0.292 HD
ENDBRANCH  21  30
ENDBRANCH  17  20
ENDBRANCH   1  16
BRANCH  11  32
ATOM     32  C   LIG d   1      12.292  10.321   1.312  0.00  0.00     0.030 C 
ATOM     33  H   LIG d   1      13.182  10.909   1.536  0.00  0.00     0.049 H 
ATOM     34  H   LIG d   1      12.450   9.759   0.391  0.00  0.00     0.049 H 
BRANCH  32  35
ATOM     35  C   LIG d   1      11.094  11.254   1.142  0.00  0.00    -0.011 C 
ATOM     36  H   LIG d   1      10.387  11.092   1.955  0.00  0.00     0.030 H 
ATOM     37  H   LIG d   1      11.434  12.290   1.157  0.00  0.00     0.030 H 
BRANCH  35  38
ATOM     38  C   LIG d   1      10.407  10.964  -0.195  0.00  0.00     0.046 C 
ATOM     39  H   LIG d   1      10.335  11.884  -0.774  0.00  0.00     0.056 H 
ATOM     40  H   LIG d   1      10.990  10.229  -0.750  0.00  0.00     0.056 H 
BRANCH  38  41
ATOM     41  O   LIG d   1       9.096  10.447   0.045  0.00  0.00    -0.395 OA
ATOM     42  H   LIG d   1       9.072   9.714   0.674  0.00  0.00     0.209 HD
ENDBRANCH  38  41
ENDBRANCH  35  38
ENDBRANCH  32  35
ENDBRANCH  11  32
TORSDOF 7
ENDMDL
MODEL 7
REMARK VINA RESULT:      -6.1      4.430      6.164
REMARK  7 active torsions:
REMARK  status: ('A' for Active; 'I' for Inactive)
REMARK    1  A    between atoms: C_4  and  O_24 
REMARK    2  A    between atoms: C_5  and  C_7 
REMARK    3  A    between atoms: C_8  and  C_9 
REMARK    4  A    between atoms: N_19  and  C_20 
REMARK    5  A    between atoms: C_20  and  C_21 
REMARK    6  A    between atoms: C_21  and  C_22 
REMARK    7  A    between atoms: C_22  and  O_23 
ROOT
ATOM      1  C   LIG d   1       7.141  -1.425  -4.167  0.00  0.00     0.137 A 
ATOM      2  N   LIG d   1       8.191  -0.973  -4.815  0.00  0.00    -0.229 NA
ATOM      3  C   LIG d   1       8.519   0.333  -4.806  0.00  0.00     0.079 A 
ATOM      4  C   LIG d   1       9.635   0.810  -5.501  0.00  0.00    -0.035 A 
ATOM      5  C   LIG d   1       9.940   2.142  -5.463  0.00  0.00    -0.060 A 
ATOM      6  C   LIG d   1       9.157   3.034  -4.741  0.00  0.00    -0.061 A 
ATOM      7  C   LIG d   1       8.052   2.594  -4.045  0.00  0.00    -0.047 A 
ATOM      8  C   LIG d   1       7.722   1.240  -4.070  0.00  0.00     0.065 A 
ATOM      9  C   LIG d   1       6.555   0.714  -3.347  0.00  0.00     0.262 A 
ATOM     10  O   LIG d   1       5.832   1.446  -2.697  0.00  0.00    -0.267 OA
ATOM     11  N   LIG d   1       6.315  -0.615  -3.430  0.00  0.00    -0.293 N 
ATOM     12  H   LIG d   1      10.253   0.130  -6.066  0.00  0.00     0.064 H 
ATOM     13  H   LIG d   1      10.802   2.506  -6.001  0.00  0.00     0.062 H 
ATOM     14  H   LIG d   1       9.417   4.082  -4.724  0.00  0.00     0.062 H 
ATOM     15  H   LIG d   1       7.448   3.292  -3.486  0.00  0.00     0.063 H 
ENDROOT
BRANCH   1  16
ATOM     16  C   LIG d   1       6.845  -2.856  -4.230  0.00  0.00    -0.018 C 
ATOM     17  C   LIG d   1       6.545  -3.432  -5.411  0.00  0.00    -0.048 C 
ATOM     18  H   LIG d   1       6.523  -2.837  -6.312  0.00  0.00     0.063 H 
ATOM     19  H   LIG d   1       6.867  -3.451  -3.329  0.00  0.00     0.065 H 
BRANCH  17  20
ATOM     20  C   LIG d   1       6.253  -4.871  -5.475  0.00  0.00     0.017 A 
ATOM     21  C   LIG d   1       4.930  -5.318  -5.625  0.00  0.00     0.124 A 
ATOM     22  C   LIG d   1       4.668  -6.678  -5.688  0.00  0.00    -0.020 A 
ATOM     23  C   LIG d   1       5.703  -7.589  -5.593  0.00  0.00    -0.058 A 
ATOM     24  H   LIG d   1       3.653  -7.026  -5.807  0.00  0.00     0.065 H 
ATOM     25  C   LIG d   1       7.009  -7.152  -5.439  0.00  0.00    -0.061 A 
ATOM     26  H   LIG d   1       5.492  -8.646  -5.639  0.00  0.00     0.062 H 
ATOM     27  C   LIG d   1       7.290  -5.806  -5.380  0.00  0.00    -0.051 A 
ATOM     28  H   LIG d   1       7.811  -7.873  -5.366  0.00  0.00     0.062 H 
ATOM     29  H   LIG d   1       8.309  -5.470  -5.261  0.00  0.00     0.062 H 
BRANCH  21  30
ATOM     30  O   LIG d   1       3.914  -4.423  -5.713  0.00  0.00    -0.506 OA
ATOM     31  H   LIG d   1       4.203  -3.517  -5.883  0.00  0.00     0.292 HD
ENDBRANCH  21  30
ENDBRANCH  17  20
ENDBRANCH   1  16
BRANCH  11  32
ATOM     32  C   LIG d   1       5.165  -1.193  -2.728  0.00  0.00     0.030 C 
ATOM     33  H   LIG d   1       5.408  -2.206  -2.406  0.00  0.00     0.049 H 
ATOM     34  H   LIG d   1       4.926  -0.582  -1.858  0.00  0.00     0.049 H 
BRANCH  32  35
ATOM     35  C   LIG d   1       3.961  -1.232  -3.670  0.00  0.00    -0.011 C 
ATOM     36  H   LIG d   1       4.190  -0.673  -4.577  0.00  0.00     0.030 H 
ATOM     37  H   LIG d   1       3.736  -2.267  -3.929  0.00  0.00     0.030 H 
BRANCH  35  38
ATOM     38  C   LIG d   1       2.751  -0.605  -2.977  0.00  0.00     0.046 C 
ATOM     39  H   LIG d   1       2.009  -0.324  -3.724  0.00  0.00     0.056 H 
ATOM     40  H   LIG d   1       2.315  -1.325  -2.284  0.00  0.00     0.056 H 
BRANCH  38  41
ATOM     41  O   LIG d   1       3.164   0.558  -2.255  0.00  0.00    -0.395 OA
ATOM     42  H   LIG d   1       2.528   0.855  -1.591  0.00  0.00     0.209 HD
ENDBRANCH  38  41
ENDBRANCH  35  38
ENDBRANCH  32  35
ENDBRANCH  11  32
TORSDOF 7
ENDMDL
MODEL 8
REMARK VINA RESULT:      -6.0     11.877     14.850
REMARK  7 active torsions:
REMARK  status: ('A' for Active; 'I' for Inactive)
REMARK    1  A    between atoms: C_4  and  O_24 
REMARK    2  A    between atoms: C_5  and  C_7 
REMARK    3  A    between atoms: C_8  and  C_9 
REMARK    4  A    between atoms: N_19  and  C_20 
REMARK    5  A    between atoms: C_20  and  C_21 
REMARK    6  A    between atoms: C_21  and  C_22 
REMARK    7  A    between atoms: C_22  and  O_23 
ROOT
ATOM      1  C   LIG d   1      -3.940   6.358 -14.787  0.00  0.00     0.137 A 
ATOM      2  N   LIG d   1      -3.373   5.207 -14.503  0.00  0.00    -0.229 NA
ATOM      3  C   LIG d   1      -4.059   4.206 -13.922  0.00  0.00     0.079 A 
ATOM      4  C   LIG d   1      -3.450   2.984 -13.617  0.00  0.00    -0.035 A 
ATOM      5  C   LIG d   1      -4.180   1.988 -13.032  0.00  0.00    -0.060 A 
ATOM      6  C   LIG d   1      -5.526   2.169 -12.735  0.00  0.00    -0.061 A 
ATOM      7  C   LIG d   1      -6.154   3.360 -13.025  0.00  0.00    -0.047 A 
ATOM      8  C   LIG d   1      -5.428   4.390 -13.620  0.00  0.00     0.065 A 
ATOM      9  C   LIG d   1      -6.046   5.682 -13.952  0.00  0.00     0.262 A 
ATOM     10  O   LIG d   1      -7.221   5.899 -13.715  0.00  0.00    -0.267 OA
ATOM     11  N   LIG d   1      -5.262   6.621 -14.529  0.00  0.00    -0.293 N 
ATOM     12  H   LIG d   1      -2.405   2.828 -13.842  0.00  0.00     0.064 H 
ATOM     13  H   LIG d   1      -3.705   1.047 -12.799  0.00  0.00     0.062 H 
ATOM     14  H   LIG d   1      -6.083   1.367 -12.274  0.00  0.00     0.062 H 
ATOM     15  H   LIG d   1      -7.199   3.494 -12.792  0.00  0.00     0.063 H 
ENDROOT
BRANCH   1  16
ATOM     16  C   LIG d   1      -3.128   7.402 -15.413  0.00  0.00    -0.018 C 
ATOM     17  C   LIG d   1      -2.200   8.059 -14.689  0.00  0.00    -0.048 C 
ATOM     18  H   LIG d   1      -2.056   7.816 -13.647  0.00  0.00     0.063 H 
ATOM     19  H   LIG d   1      -3.273   7.645 -16.455  0.00  0.00     0.065 H 
BRANCH  17  20
ATOM     20  C   LIG d   1      -1.380   9.104 -15.320  0.00  0.00     0.017 A 
ATOM     21  C   LIG d   1       0.021   9.033 -15.263  0.00  0.00     0.124 A 
ATOM     22  C   LIG d   1       0.783  10.022 -15.865  0.00  0.00    -0.020 A 
ATOM     23  C   LIG d   1       0.166  11.077 -16.509  0.00  0.00    -0.058 A 
ATOM     24  H   LIG d   1       1.861   9.970 -15.827  0.00  0.00     0.065 H 
ATOM     25  C   LIG d   1      -1.216  11.154 -16.563  0.00  0.00    -0.061 A 
ATOM     26  H   LIG d   1       0.765  11.846 -16.973  0.00  0.00     0.062 H 
ATOM     27  C   LIG d   1      -1.991  10.179 -15.975  0.00  0.00    -0.051 A 
ATOM     28  H   LIG d   1      -1.688  11.983 -17.070  0.00  0.00     0.062 H 
ATOM     29  H   LIG d   1      -3.068  10.242 -16.021  0.00  0.00     0.062 H 
BRANCH  21  30
ATOM     30  O   LIG d   1       0.626   7.999 -14.625  0.00  0.00    -0.506 OA
ATOM     31  H   LIG d   1       0.536   7.151 -15.079  0.00  0.00     0.292 HD
ENDBRANCH  21  30
ENDBRANCH  17  20
ENDBRANCH   1  16
BRANCH  11  32
ATOM     32  C   LIG d   1      -5.827   7.927 -14.880  0.00  0.00     0.030 C 
ATOM     33  H   LIG d   1      -5.275   8.348 -15.721  0.00  0.00     0.049 H 
ATOM     34  H   LIG d   1      -6.875   7.807 -15.157  0.00  0.00     0.049 H 
BRANCH  32  35
ATOM     35  C   LIG d   1      -5.721   8.867 -13.679  0.00  0.00    -0.011 C 
ATOM     36  H   LIG d   1      -5.392   8.305 -12.805  0.00  0.00     0.030 H 
ATOM     37  H   LIG d   1      -5.000   9.656 -13.896  0.00  0.00     0.030 H 
BRANCH  35  38
ATOM     38  C   LIG d   1      -7.089   9.491 -13.398  0.00  0.00     0.046 C 
ATOM     39  H   LIG d   1      -7.203   9.650 -12.325  0.00  0.00     0.056 H 
ATOM     40  H   LIG d   1      -7.166  10.447 -13.917  0.00  0.00     0.056 H 
BRANCH  38  41
ATOM     41  O   LIG d   1      -8.118   8.614 -13.862  0.00  0.00    -0.395 OA
ATOM     42  H   LIG d   1      -8.003   7.694 -13.588  0.00  0.00     0.209 HD
ENDBRANCH  38  41
ENDBRANCH  35  38
ENDBRANCH  32  35
ENDBRANCH  11  32
TORSDOF 7
ENDMDL
MODEL 9
REMARK VINA RESULT:      -6.0      9.961     13.449
REMARK  7 active torsions:
REMARK  status: ('A' for Active; 'I' for Inactive)
REMARK    1  A    between atoms: C_4  and  O_24 
REMARK    2  A    between atoms: C_5  and  C_7 
REMARK    3  A    between atoms: C_8  and  C_9 
REMARK    4  A    between atoms: N_19  and  C_20 
REMARK    5  A    between atoms: C_20  and  C_21 
REMARK    6  A    between atoms: C_21  and  C_22 
REMARK    7  A    between atoms: C_22  and  O_23 
ROOT
ATOM      1  C   LIG d   1      10.368   7.801  -5.126  0.00  0.00     0.137 A 
ATOM      2  N   LIG d   1      10.198   6.618  -5.671  0.00  0.00    -0.229 NA
ATOM      3  C   LIG d   1       9.834   6.478  -6.959  0.00  0.00     0.079 A 
ATOM      4  C   LIG d   1       9.649   5.216  -7.533  0.00  0.00    -0.035 A 
ATOM      5  C   LIG d   1       9.285   5.114  -8.846  0.00  0.00    -0.060 A 
ATOM      6  C   LIG d   1       9.095   6.249  -9.625  0.00  0.00    -0.061 A 
ATOM      7  C   LIG d   1       9.270   7.506  -9.088  0.00  0.00    -0.047 A 
ATOM      8  C   LIG d   1       9.640   7.633  -7.751  0.00  0.00     0.065 A 
ATOM      9  C   LIG d   1       9.841   8.949  -7.125  0.00  0.00     0.262 A 
ATOM     10  O   LIG d   1       9.689   9.978  -7.757  0.00  0.00    -0.267 OA
ATOM     11  N   LIG d   1      10.202   8.972  -5.821  0.00  0.00    -0.293 N 
ATOM     12  H   LIG d   1       9.794   4.325  -6.941  0.00  0.00     0.064 H 
ATOM     13  H   LIG d   1       9.144   4.138  -9.284  0.00  0.00     0.062 H 
ATOM     14  H   LIG d   1       8.807   6.144 -10.660  0.00  0.00     0.062 H 
ATOM     15  H   LIG d   1       9.120   8.383  -9.699  0.00  0.00     0.063 H 
ENDROOT
BRANCH   1  16
ATOM     16  C   LIG d   1      10.759   7.873  -3.718  0.00  0.00    -0.018 C 
ATOM     17  C   LIG d   1      10.086   7.158  -2.794  0.00  0.00    -0.048 C 
ATOM     18  H   LIG d   1       9.259   6.531  -3.093  0.00  0.00     0.063 H 
ATOM     19  H   LIG d   1      11.586   8.500  -3.419  0.00  0.00     0.065 H 
BRANCH  17  20
ATOM     20  C   LIG d   1      10.483   7.225  -1.380  0.00  0.00     0.017 A 
ATOM     21  C   LIG d   1      10.700   6.046  -0.650  0.00  0.00     0.124 A 
ATOM     22  C   LIG d   1      11.078   6.123   0.682  0.00  0.00    -0.020 A 
ATOM     23  C   LIG d   1      11.230   7.355   1.289  0.00  0.00    -0.058 A 
ATOM     24  H   LIG d   1      11.249   5.219   1.247  0.00  0.00     0.065 H 
ATOM     25  C   LIG d   1      11.011   8.521   0.574  0.00  0.00    -0.061 A 
ATOM     26  H   LIG d   1      11.521   7.408   2.327  0.00  0.00     0.062 H 
ATOM     27  C   LIG d   1      10.640   8.465  -0.751  0.00  0.00    -0.051 A 
ATOM     28  H   LIG d   1      11.133   9.479   1.059  0.00  0.00     0.062 H 
ATOM     29  H   LIG d   1      10.472   9.377  -1.305  0.00  0.00     0.062 H 
BRANCH  21  30
ATOM     30  O   LIG d   1      10.545   4.837  -1.246  0.00  0.00    -0.506 OA
ATOM     31  H   LIG d   1       9.625   4.544  -1.307  0.00  0.00     0.292 HD
ENDBRANCH  21  30
ENDBRANCH  17  20
ENDBRANCH   1  16
BRANCH  11  32
ATOM     32  C   LIG d   1      10.415  10.256  -5.148  0.00  0.00     0.030 C 
ATOM     33  H   LIG d   1      10.943  10.091  -4.208  0.00  0.00     0.049 H 
ATOM     34  H   LIG d   1      11.010  10.908  -5.788  0.00  0.00     0.049 H 
BRANCH  32  35
ATOM     35  C   LIG d   1       9.064  10.913  -4.864  0.00  0.00    -0.011 C 
ATOM     36  H   LIG d   1       8.966  11.817  -5.464  0.00  0.00     0.030 H 
ATOM     37  H   LIG d   1       8.262  10.219  -5.117  0.00  0.00     0.030 H 
BRANCH  35  38
ATOM     38  C   LIG d   1       8.975  11.275  -3.380  0.00  0.00     0.046 C 
ATOM     39  H   LIG d   1       9.330  10.438  -2.779  0.00  0.00     0.056 H 
ATOM     40  H   LIG d   1       9.592  12.152  -3.183  0.00  0.00     0.056 H 
BRANCH  38  41
ATOM     41  O   LIG d   1       7.617  11.564  -3.040  0.00  0.00    -0.395 OA
ATOM     42  H   LIG d   1       7.495  12.412  -2.593  0.00  0.00     0.209 HD
ENDBRANCH  38  41
ENDBRANCH  35  38
ENDBRANCH  32  35
ENDBRANCH  11  32
TORSDOF 7
ENDMDL
