MODEL 1
REMARK VINA RESULT:      -7.2      0.000      0.000
REMARK  4 active torsions:
REMARK  status: ('A' for Active; 'I' for Inactive)
REMARK    1  A    between atoms: C_7  and  C_13 
REMARK    2  A    between atoms: C_13  and  C_14 
REMARK       I    between atoms: C_14  and  N_16 
REMARK    3  A    between atoms: C_18  and  O_25 
REMARK    4  A    between atoms: C_21  and  C_23 
ROOT
ATOM      1  C   LIG d   1       6.651  -0.717  -6.367  0.00  0.00     0.069 C 
ATOM      2  H   LIG d   1       6.278  -1.735  -6.475  0.00  0.00     0.042 H 
ATOM      3  H   LIG d   1       7.740  -0.721  -6.420  0.00  0.00     0.042 H 
ENDROOT
BRANCH   1   4
ATOM      4  C   LIG d   1       6.217  -0.161  -5.036  0.00  0.00     0.078 A 
ATOM      5  C   LIG d   1       5.395  -0.971  -4.137  0.00  0.00     0.011 A 
ATOM      6  C   LIG d   1       5.005  -0.419  -2.895  0.00  0.00     0.050 A 
ATOM      7  C   LIG d   1       4.992  -2.265  -4.473  0.00  0.00    -0.052 A 
ATOM      8  C   LIG d   1       4.222  -1.171  -2.020  0.00  0.00    -0.049 A 
ATOM      9  C   LIG d   1       5.445   0.943  -2.572  0.00  0.00     0.273 A 
ATOM     10  C   LIG d   1       3.839  -2.444  -2.379  0.00  0.00    -0.061 A 
ATOM     11  H   LIG d   1       3.918  -0.758  -1.069  0.00  0.00     0.062 H 
ATOM     12  C   LIG d   1       4.225  -2.983  -3.600  0.00  0.00    -0.061 A 
ATOM     13  H   LIG d   1       3.233  -3.030  -1.704  0.00  0.00     0.062 H 
ATOM     14  H   LIG d   1       3.913  -3.984  -3.862  0.00  0.00     0.062 H 
ATOM     15  N   LIG d   1       6.201   1.611  -3.468  0.00  0.00    -0.242 N 
ATOM     16  O   LIG d   1       5.133   1.462  -1.515  0.00  0.00    -0.266 OA
ATOM     17  N   LIG d   1       6.576   1.039  -4.683  0.00  0.00    -0.175 NA
ATOM     18  H   LIG d   1       6.496   2.512  -3.260  0.00  0.00     0.192 HD
ATOM     19  H   LIG d   1       5.285  -2.696  -5.419  0.00  0.00     0.062 H 
ENDBRANCH   1   4
BRANCH   1  20
ATOM     20  C   LIG d   1       6.098   0.141  -7.475  0.00  0.00     0.222 C 
ATOM     21  O   LIG d   1       6.628   1.198  -7.747  0.00  0.00    -0.275 OA
ATOM     22  N   LIG d   1       5.014  -0.265  -8.164  0.00  0.00    -0.290 N 
ATOM     23  C   LIG d   1       4.369   0.474  -9.263  0.00  0.00     0.068 C 
ATOM     24  C   LIG d   1       4.275  -1.521  -7.941  0.00  0.00     0.041 C 
ATOM     25  C   LIG d   1       3.191  -0.389  -9.762  0.00  0.00    -0.001 C 
ATOM     26  H   LIG d   1       5.083   0.631 -10.073  0.00  0.00     0.056 H 
ATOM     27  C   LIG d   1       3.577  -1.816  -9.293  0.00  0.00     0.073 C 
ATOM     28  H   LIG d   1       3.116  -0.348 -10.849  0.00  0.00     0.031 H 
ATOM     29  H   LIG d   1       2.257  -0.070  -9.300  0.00  0.00     0.031 H 
ATOM     30  H   LIG d   1       4.267  -2.285  -9.994  0.00  0.00     0.061 H 
ATOM     31  H   LIG d   1       3.534  -1.390  -7.152  0.00  0.00     0.049 H 
ATOM     32  H   LIG d   1       4.963  -2.326  -7.686  0.00  0.00     0.049 H 
BRANCH  23  33
ATOM     33  C   LIG d   1       3.857   1.801  -8.764  0.00  0.00     0.062 C 
ATOM     34  O   LIG d   1       4.221   2.825  -9.289  0.00  0.00    -0.548 OA
ATOM     35  O   LIG d   1       2.995   1.844  -7.736  0.00  0.00    -0.548 OA
ENDBRANCH  23  33
BRANCH  27  36
ATOM     36  O   LIG d   1       2.414  -2.625  -9.104  0.00  0.00    -0.390 OA
ATOM     37  H   LIG d   1       2.554  -3.385  -8.522  0.00  0.00     0.210 HD
ENDBRANCH  27  36
ENDBRANCH   1  20
TORSDOF 4
ENDMDL
MODEL 2
REMARK VINA RESULT:      -6.6      3.810      5.829
REMARK  4 active torsions:
REMARK  status: ('A' for Active; 'I' for Inactive)
REMARK    1  A    between atoms: C_7  and  C_13 
REMARK    2  A    between atoms: C_13  and  C_14 
REMARK       I    between atoms: C_14  and  N_16 
REMARK    3  A    between atoms: C_18  and  O_25 
REMARK    4  A    between atoms: C_21  and  C_23 
ROOT
ATOM      1  C   LIG d   1       8.096   0.515  -4.520  0.00  0.00     0.069 C 
ATOM      2  H   LIG d   1       8.132  -0.263  -5.282  0.00  0.00     0.042 H 
ATOM      3  H   LIG d   1       8.853   0.317  -3.761  0.00  0.00     0.042 H 
ENDROOT
BRANCH   1   4
ATOM      4  C   LIG d   1       6.733   0.526  -3.876  0.00  0.00     0.078 A 
ATOM      5  C   LIG d   1       5.944  -0.704  -3.814  0.00  0.00     0.011 A 
ATOM      6  C   LIG d   1       4.669  -0.660  -3.203  0.00  0.00     0.050 A 
ATOM      7  C   LIG d   1       6.416  -1.909  -4.337  0.00  0.00    -0.052 A 
ATOM      8  C   LIG d   1       3.897  -1.819  -3.130  0.00  0.00    -0.049 A 
ATOM      9  C   LIG d   1       4.203   0.622  -2.662  0.00  0.00     0.273 A 
ATOM     10  C   LIG d   1       4.389  -2.993  -3.655  0.00  0.00    -0.061 A 
ATOM     11  H   LIG d   1       2.922  -1.795  -2.666  0.00  0.00     0.062 H 
ATOM     12  C   LIG d   1       5.642  -3.033  -4.254  0.00  0.00    -0.061 A 
ATOM     13  H   LIG d   1       3.793  -3.893  -3.600  0.00  0.00     0.062 H 
ATOM     14  H   LIG d   1       6.008  -3.964  -4.661  0.00  0.00     0.062 H 
ATOM     15  N   LIG d   1       5.005   1.703  -2.769  0.00  0.00    -0.242 N 
ATOM     16  O   LIG d   1       3.112   0.711  -2.128  0.00  0.00    -0.266 OA
ATOM     17  N   LIG d   1       6.260   1.627  -3.371  0.00  0.00    -0.175 NA
ATOM     18  H   LIG d   1       4.702   2.553  -2.413  0.00  0.00     0.192 HD
ATOM     19  H   LIG d   1       7.388  -1.954  -4.805  0.00  0.00     0.062 H 
ENDBRANCH   1   4
BRANCH   1  20
ATOM     20  C   LIG d   1       8.361   1.855  -5.156  0.00  0.00     0.222 C 
ATOM     21  O   LIG d   1       7.861   2.128  -6.227  0.00  0.00    -0.275 OA
ATOM     22  N   LIG d   1       9.153   2.751  -4.535  0.00  0.00    -0.290 N 
ATOM     23  C   LIG d   1       9.497   4.089  -5.044  0.00  0.00     0.068 C 
ATOM     24  C   LIG d   1       9.821   2.552  -3.236  0.00  0.00     0.041 C 
ATOM     25  C   LIG d   1      10.399   4.760  -3.986  0.00  0.00    -0.001 C 
ATOM     26  H   LIG d   1       8.590   4.678  -5.184  0.00  0.00     0.056 H 
ATOM     27  C   LIG d   1      10.056   3.983  -2.689  0.00  0.00     0.073 C 
ATOM     28  H   LIG d   1      10.150   5.816  -3.880  0.00  0.00     0.031 H 
ATOM     29  H   LIG d   1      11.451   4.638  -4.244  0.00  0.00     0.031 H 
ATOM     30  H   LIG d   1       9.153   4.377  -2.224  0.00  0.00     0.061 H 
ATOM     31  H   LIG d   1      10.772   2.037  -3.373  0.00  0.00     0.049 H 
ATOM     32  H   LIG d   1       9.178   1.989  -2.561  0.00  0.00     0.049 H 
BRANCH  23  33
ATOM     33  C   LIG d   1      10.241   3.971  -6.350  0.00  0.00     0.062 C 
ATOM     34  O   LIG d   1      11.261   3.328  -6.408  0.00  0.00    -0.548 OA
ATOM     35  O   LIG d   1       9.768   4.580  -7.449  0.00  0.00    -0.548 OA
ENDBRANCH  23  33
BRANCH  27  36
ATOM     36  O   LIG d   1      11.153   4.007  -1.773  0.00  0.00    -0.390 OA
ATOM     37  H   LIG d   1      11.518   4.890  -1.618  0.00  0.00     0.210 HD
ENDBRANCH  27  36
ENDBRANCH   1  20
TORSDOF 4
ENDMDL
MODEL 3
REMARK VINA RESULT:      -6.5      2.281      6.144
REMARK  4 active torsions:
REMARK  status: ('A' for Active; 'I' for Inactive)
REMARK    1  A    between atoms: C_7  and  C_13 
REMARK    2  A    between atoms: C_13  and  C_14 
REMARK       I    between atoms: C_14  and  N_16 
REMARK    3  A    between atoms: C_18  and  O_25 
REMARK    4  A    between atoms: C_21  and  C_23 
ROOT
ATOM      1  C   LIG d   1       2.489  -0.025  -6.410  0.00  0.00     0.069 C 
ATOM      2  H   LIG d   1       2.176  -1.068  -6.460  0.00  0.00     0.042 H 
ATOM      3  H   LIG d   1       1.614   0.620  -6.482  0.00  0.00     0.042 H 
ENDROOT
BRANCH   1   4
ATOM      4  C   LIG d   1       3.427   0.274  -7.551  0.00  0.00     0.078 A 
ATOM      5  C   LIG d   1       3.038  -0.053  -8.922  0.00  0.00     0.011 A 
ATOM      6  C   LIG d   1       3.942   0.241  -9.969  0.00  0.00     0.050 A 
ATOM      7  C   LIG d   1       1.807  -0.641  -9.219  0.00  0.00    -0.052 A 
ATOM      8  C   LIG d   1       3.596  -0.059 -11.286  0.00  0.00    -0.049 A 
ATOM      9  C   LIG d   1       5.227   0.859  -9.624  0.00  0.00     0.273 A 
ATOM     10  C   LIG d   1       2.374  -0.640 -11.548  0.00  0.00    -0.061 A 
ATOM     11  H   LIG d   1       4.279   0.160 -12.093  0.00  0.00     0.062 H 
ATOM     12  C   LIG d   1       1.489  -0.926 -10.517  0.00  0.00    -0.061 A 
ATOM     13  H   LIG d   1       2.102  -0.874 -12.567  0.00  0.00     0.062 H 
ATOM     14  H   LIG d   1       0.536  -1.382 -10.744  0.00  0.00     0.062 H 
ATOM     15  N   LIG d   1       5.495   1.122  -8.327  0.00  0.00    -0.242 N 
ATOM     16  O   LIG d   1       6.039   1.130 -10.491  0.00  0.00    -0.266 OA
ATOM     17  N   LIG d   1       4.581   0.826  -7.316  0.00  0.00    -0.175 NA
ATOM     18  H   LIG d   1       6.343   1.531  -8.093  0.00  0.00     0.192 HD
ATOM     19  H   LIG d   1       1.110  -0.869  -8.426  0.00  0.00     0.062 H 
ENDBRANCH   1   4
BRANCH   1  20
ATOM     20  C   LIG d   1       3.193   0.227  -5.102  0.00  0.00     0.222 C 
ATOM     21  O   LIG d   1       2.968   1.242  -4.476  0.00  0.00    -0.275 OA
ATOM     22  N   LIG d   1       4.073  -0.676  -4.625  0.00  0.00    -0.290 N 
ATOM     23  C   LIG d   1       4.830  -0.555  -3.368  0.00  0.00     0.068 C 
ATOM     24  C   LIG d   1       4.439  -1.946  -5.279  0.00  0.00     0.041 C 
ATOM     25  C   LIG d   1       5.683  -1.833  -3.226  0.00  0.00    -0.001 C 
ATOM     26  H   LIG d   1       4.141  -0.474  -2.527  0.00  0.00     0.056 H 
ATOM     27  C   LIG d   1       4.939  -2.854  -4.127  0.00  0.00     0.073 C 
ATOM     28  H   LIG d   1       5.700  -2.173  -2.191  0.00  0.00     0.031 H 
ATOM     29  H   LIG d   1       6.696  -1.663  -3.591  0.00  0.00     0.031 H 
ATOM     30  H   LIG d   1       4.103  -3.307  -3.595  0.00  0.00     0.061 H 
ATOM     31  H   LIG d   1       5.234  -1.783  -6.006  0.00  0.00     0.049 H 
ATOM     32  H   LIG d   1       3.568  -2.390  -5.760  0.00  0.00     0.049 H 
BRANCH  23  33
ATOM     33  C   LIG d   1       5.727   0.655  -3.419  0.00  0.00     0.062 C 
ATOM     34  O   LIG d   1       5.702   1.464  -2.522  0.00  0.00    -0.548 OA
ATOM     35  O   LIG d   1       6.554   0.835  -4.461  0.00  0.00    -0.548 OA
ENDBRANCH  23  33
BRANCH  27  36
ATOM     36  O   LIG d   1       5.835  -3.854  -4.615  0.00  0.00    -0.390 OA
ATOM     37  H   LIG d   1       5.555  -4.262  -5.447  0.00  0.00     0.210 HD
ENDBRANCH  27  36
ENDBRANCH   1  20
TORSDOF 4
ENDMDL
MODEL 4
REMARK VINA RESULT:      -6.5      3.962      5.836
REMARK  4 active torsions:
REMARK  status: ('A' for Active; 'I' for Inactive)
REMARK    1  A    between atoms: C_7  and  C_13 
REMARK    2  A    between atoms: C_13  and  C_14 
REMARK       I    between atoms: C_14  and  N_16 
REMARK    3  A    between atoms: C_18  and  O_25 
REMARK    4  A    between atoms: C_21  and  C_23 
ROOT
ATOM      1  C   LIG d   1       5.156  -3.940  -4.964  0.00  0.00     0.069 C 
ATOM      2  H   LIG d   1       4.844  -4.232  -3.962  0.00  0.00     0.042 H 
ATOM      3  H   LIG d   1       6.243  -3.879  -5.003  0.00  0.00     0.042 H 
ENDROOT
BRANCH   1   4
ATOM      4  C   LIG d   1       4.566  -2.594  -5.301  0.00  0.00     0.078 A 
ATOM      5  C   LIG d   1       4.276  -1.635  -4.235  0.00  0.00     0.011 A 
ATOM      6  C   LIG d   1       3.723  -0.382  -4.586  0.00  0.00     0.050 A 
ATOM      7  C   LIG d   1       4.530  -1.925  -2.894  0.00  0.00    -0.052 A 
ATOM      8  C   LIG d   1       3.438   0.551  -3.589  0.00  0.00    -0.049 A 
ATOM      9  C   LIG d   1       3.469  -0.108  -6.005  0.00  0.00     0.273 A 
ATOM     10  C   LIG d   1       3.699   0.237  -2.274  0.00  0.00    -0.061 A 
ATOM     11  H   LIG d   1       3.015   1.511  -3.846  0.00  0.00     0.062 H 
ATOM     12  C   LIG d   1       4.243  -0.996  -1.934  0.00  0.00    -0.061 A 
ATOM     13  H   LIG d   1       3.480   0.956  -1.499  0.00  0.00     0.062 H 
ATOM     14  H   LIG d   1       4.439  -1.223  -0.896  0.00  0.00     0.062 H 
ATOM     15  N   LIG d   1       3.770  -1.058  -6.914  0.00  0.00    -0.242 N 
ATOM     16  O   LIG d   1       2.993   0.957  -6.356  0.00  0.00    -0.266 OA
ATOM     17  N   LIG d   1       4.320  -2.283  -6.539  0.00  0.00    -0.175 NA
ATOM     18  H   LIG d   1       3.604  -0.882  -7.854  0.00  0.00     0.192 HD
ATOM     19  H   LIG d   1       4.953  -2.880  -2.615  0.00  0.00     0.062 H 
ENDBRANCH   1   4
BRANCH   1  20
ATOM     20  C   LIG d   1       4.674  -4.962  -5.960  0.00  0.00     0.222 C 
ATOM     21  O   LIG d   1       3.529  -5.361  -5.915  0.00  0.00    -0.275 OA
ATOM     22  N   LIG d   1       5.515  -5.435  -6.901  0.00  0.00    -0.290 N 
ATOM     23  C   LIG d   1       5.178  -6.435  -7.928  0.00  0.00     0.068 C 
ATOM     24  C   LIG d   1       6.925  -5.040  -7.069  0.00  0.00     0.041 C 
ATOM     25  C   LIG d   1       6.439  -6.641  -8.793  0.00  0.00    -0.001 C 
ATOM     26  H   LIG d   1       4.359  -6.068  -8.548  0.00  0.00     0.056 H 
ATOM     27  C   LIG d   1       7.245  -5.337  -8.556  0.00  0.00     0.073 C 
ATOM     28  H   LIG d   1       6.173  -6.743  -9.846  0.00  0.00     0.031 H 
ATOM     29  H   LIG d   1       7.002  -7.510  -8.453  0.00  0.00     0.031 H 
ATOM     30  H   LIG d   1       6.888  -4.534  -9.201  0.00  0.00     0.061 H 
ATOM     31  H   LIG d   1       7.566  -5.633  -6.418  0.00  0.00     0.049 H 
ATOM     32  H   LIG d   1       7.049  -3.978  -6.860  0.00  0.00     0.049 H 
BRANCH  23  33
ATOM     33  C   LIG d   1       4.787  -7.736  -7.276  0.00  0.00     0.062 C 
ATOM     34  O   LIG d   1       3.777  -8.304  -7.617  0.00  0.00    -0.548 OA
ATOM     35  O   LIG d   1       5.561  -8.264  -6.315  0.00  0.00    -0.548 OA
ENDBRANCH  23  33
BRANCH  27  36
ATOM     36  O   LIG d   1       8.644  -5.558  -8.746  0.00  0.00    -0.390 OA
ATOM     37  H   LIG d   1       9.168  -4.745  -8.796  0.00  0.00     0.210 HD
ENDBRANCH  27  36
ENDBRANCH   1  20
TORSDOF 4
ENDMDL
MODEL 5
REMARK VINA RESULT:      -6.2      2.387      6.455
REMARK  4 active torsions:
REMARK  status: ('A' for Active; 'I' for Inactive)
REMARK    1  A    between atoms: C_7  and  C_13 
REMARK    2  A    between atoms: C_13  and  C_14 
REMARK       I    between atoms: C_14  and  N_16 
REMARK    3  A    between atoms: C_18  and  O_25 
REMARK    4  A    between atoms: C_21  and  C_23 
ROOT
ATOM      1  C   LIG d   1       5.499  -2.249  -6.495  0.00  0.00     0.069 C 
ATOM      2  H   LIG d   1       6.142  -1.411  -6.765  0.00  0.00     0.042 H 
ATOM      3  H   LIG d   1       6.095  -3.159  -6.433  0.00  0.00     0.042 H 
ENDROOT
BRANCH   1   4
ATOM      4  C   LIG d   1       4.429  -2.420  -7.542  0.00  0.00     0.078 A 
ATOM      5  C   LIG d   1       3.767  -1.246  -8.110  0.00  0.00     0.011 A 
ATOM      6  C   LIG d   1       2.767  -1.442  -9.091  0.00  0.00     0.050 A 
ATOM      7  C   LIG d   1       4.096   0.050  -7.711  0.00  0.00    -0.052 A 
ATOM      8  C   LIG d   1       2.121  -0.340  -9.649  0.00  0.00    -0.049 A 
ATOM      9  C   LIG d   1       2.445  -2.818  -9.489  0.00  0.00     0.273 A 
ATOM     10  C   LIG d   1       2.467   0.928  -9.235  0.00  0.00    -0.061 A 
ATOM     11  H   LIG d   1       1.355  -0.479 -10.398  0.00  0.00     0.062 H 
ATOM     12  C   LIG d   1       3.449   1.116  -8.272  0.00  0.00    -0.061 A 
ATOM     13  H   LIG d   1       1.968   1.784  -9.665  0.00  0.00     0.062 H 
ATOM     14  H   LIG d   1       3.705   2.119  -7.961  0.00  0.00     0.062 H 
ATOM     15  N   LIG d   1       3.112  -3.836  -8.906  0.00  0.00    -0.242 N 
ATOM     16  O   LIG d   1       1.591  -3.037 -10.329  0.00  0.00    -0.266 OA
ATOM     17  N   LIG d   1       4.098  -3.611  -7.945  0.00  0.00    -0.175 NA
ATOM     18  H   LIG d   1       2.904  -4.747  -9.165  0.00  0.00     0.192 HD
ATOM     19  H   LIG d   1       4.858   0.211  -6.963  0.00  0.00     0.062 H 
ENDBRANCH   1   4
BRANCH   1  20
ATOM     20  C   LIG d   1       4.856  -1.979  -5.159  0.00  0.00     0.222 C 
ATOM     21  O   LIG d   1       3.964  -2.697  -4.759  0.00  0.00    -0.275 OA
ATOM     22  N   LIG d   1       5.273  -0.940  -4.408  0.00  0.00    -0.290 N 
ATOM     23  C   LIG d   1       4.731  -0.562  -3.092  0.00  0.00     0.068 C 
ATOM     24  C   LIG d   1       6.342   0.007  -4.771  0.00  0.00     0.041 C 
ATOM     25  C   LIG d   1       5.533   0.664  -2.606  0.00  0.00    -0.001 C 
ATOM     26  H   LIG d   1       4.854  -1.387  -2.390  0.00  0.00     0.056 H 
ATOM     27  C   LIG d   1       6.851   0.567  -3.418  0.00  0.00     0.073 C 
ATOM     28  H   LIG d   1       5.733   0.596  -1.537  0.00  0.00     0.031 H 
ATOM     29  H   LIG d   1       5.003   1.588  -2.839  0.00  0.00     0.031 H 
ATOM     30  H   LIG d   1       7.550  -0.125  -2.948  0.00  0.00     0.061 H 
ATOM     31  H   LIG d   1       5.943   0.812  -5.388  0.00  0.00     0.049 H 
ATOM     32  H   LIG d   1       7.146  -0.510  -5.294  0.00  0.00     0.049 H 
BRANCH  23  33
ATOM     33  C   LIG d   1       3.273  -0.203  -3.216  0.00  0.00     0.062 C 
ATOM     34  O   LIG d   1       2.442  -0.833  -2.607  0.00  0.00    -0.548 OA
ATOM     35  O   LIG d   1       2.897   0.817  -4.004  0.00  0.00    -0.548 OA
ENDBRANCH  23  33
BRANCH  27  36
ATOM     36  O   LIG d   1       7.445   1.855  -3.587  0.00  0.00    -0.390 OA
ATOM     37  H   LIG d   1       6.897   2.479  -4.085  0.00  0.00     0.210 HD
ENDBRANCH  27  36
ENDBRANCH   1  20
TORSDOF 4
ENDMDL
MODEL 6
REMARK VINA RESULT:      -6.2      2.192      6.525
REMARK  4 active torsions:
REMARK  status: ('A' for Active; 'I' for Inactive)
REMARK    1  A    between atoms: C_7  and  C_13 
REMARK    2  A    between atoms: C_13  and  C_14 
REMARK       I    between atoms: C_14  and  N_16 
REMARK    3  A    between atoms: C_18  and  O_25 
REMARK    4  A    between atoms: C_21  and  C_23 
ROOT
ATOM      1  C   LIG d   1       4.688  -0.284  -7.109  0.00  0.00     0.069 C 
ATOM      2  H   LIG d   1       4.407   0.598  -7.684  0.00  0.00     0.042 H 
ATOM      3  H   LIG d   1       5.775  -0.352  -7.055  0.00  0.00     0.042 H 
ENDROOT
BRANCH   1   4
ATOM      4  C   LIG d   1       4.143  -1.518  -7.782  0.00  0.00     0.078 A 
ATOM      5  C   LIG d   1       3.126  -1.392  -8.826  0.00  0.00     0.011 A 
ATOM      6  C   LIG d   1       2.636  -2.570  -9.437  0.00  0.00     0.050 A 
ATOM      7  C   LIG d   1       2.635  -0.150  -9.230  0.00  0.00    -0.052 A 
ATOM      8  C   LIG d   1       1.667  -2.478 -10.436  0.00  0.00    -0.049 A 
ATOM      9  C   LIG d   1       3.174  -3.860  -8.990  0.00  0.00     0.273 A 
ATOM     10  C   LIG d   1       1.201  -1.238 -10.814  0.00  0.00    -0.061 A 
ATOM     11  H   LIG d   1       1.285  -3.371 -10.908  0.00  0.00     0.062 H 
ATOM     12  C   LIG d   1       1.686  -0.084 -10.211  0.00  0.00    -0.061 A 
ATOM     13  H   LIG d   1       0.450  -1.163 -11.587  0.00  0.00     0.062 H 
ATOM     14  H   LIG d   1       1.305   0.878 -10.522  0.00  0.00     0.062 H 
ATOM     15  N   LIG d   1       4.110  -3.871  -8.018  0.00  0.00    -0.242 N 
ATOM     16  O   LIG d   1       2.782  -4.901  -9.485  0.00  0.00    -0.266 OA
ATOM     17  N   LIG d   1       4.579  -2.693  -7.438  0.00  0.00    -0.175 NA
ATOM     18  H   LIG d   1       4.469  -4.721  -7.718  0.00  0.00     0.192 HD
ATOM     19  H   LIG d   1       3.003   0.755  -8.771  0.00  0.00     0.062 H 
ENDBRANCH   1   4
BRANCH   1  20
ATOM     20  C   LIG d   1       4.122  -0.179  -5.717  0.00  0.00     0.222 C 
ATOM     21  O   LIG d   1       3.019   0.295  -5.545  0.00  0.00    -0.275 OA
ATOM     22  N   LIG d   1       4.841  -0.613  -4.663  0.00  0.00    -0.290 N 
ATOM     23  C   LIG d   1       4.411  -0.566  -3.255  0.00  0.00     0.068 C 
ATOM     24  C   LIG d   1       6.187  -1.207  -4.727  0.00  0.00     0.041 C 
ATOM     25  C   LIG d   1       5.541  -1.196  -2.413  0.00  0.00    -0.001 C 
ATOM     26  H   LIG d   1       3.492  -1.140  -3.128  0.00  0.00     0.056 H 
ATOM     27  C   LIG d   1       6.302  -2.069  -3.445  0.00  0.00     0.073 C 
ATOM     28  H   LIG d   1       5.130  -1.812  -1.614  0.00  0.00     0.031 H 
ATOM     29  H   LIG d   1       6.194  -0.423  -2.006  0.00  0.00     0.031 H 
ATOM     30  H   LIG d   1       5.812  -3.034  -3.577  0.00  0.00     0.061 H 
ATOM     31  H   LIG d   1       6.948  -0.427  -4.729  0.00  0.00     0.049 H 
ATOM     32  H   LIG d   1       6.284  -1.833  -5.614  0.00  0.00     0.049 H 
BRANCH  23  33
ATOM     33  C   LIG d   1       4.189   0.862  -2.828  0.00  0.00     0.062 C 
ATOM     34  O   LIG d   1       3.168   1.173  -2.264  0.00  0.00    -0.548 OA
ATOM     35  O   LIG d   1       5.129   1.789  -3.074  0.00  0.00    -0.548 OA
ENDBRANCH  23  33
BRANCH  27  36
ATOM     36  O   LIG d   1       7.668  -2.241  -3.062  0.00  0.00    -0.390 OA
ATOM     37  H   LIG d   1       8.241  -1.499  -3.305  0.00  0.00     0.210 HD
ENDBRANCH  27  36
ENDBRANCH   1  20
TORSDOF 4
ENDMDL
MODEL 7
REMARK VINA RESULT:      -6.1      1.852      2.678
REMARK  4 active torsions:
REMARK  status: ('A' for Active; 'I' for Inactive)
REMARK    1  A    between atoms: C_7  and  C_13 
REMARK    2  A    between atoms: C_13  and  C_14 
REMARK       I    between atoms: C_14  and  N_16 
REMARK    3  A    between atoms: C_18  and  O_25 
REMARK    4  A    between atoms: C_21  and  C_23 
ROOT
ATOM      1  C   LIG d   1       5.124  -1.789  -7.035  0.00  0.00     0.069 C 
ATOM      2  H   LIG d   1       4.664  -2.662  -6.570  0.00  0.00     0.042 H 
ATOM      3  H   LIG d   1       5.964  -2.107  -7.651  0.00  0.00     0.042 H 
ENDROOT
BRANCH   1   4
ATOM      4  C   LIG d   1       5.615  -0.850  -5.963  0.00  0.00     0.078 A 
ATOM      5  C   LIG d   1       5.161  -1.014  -4.582  0.00  0.00     0.011 A 
ATOM      6  C   LIG d   1       5.641  -0.115  -3.602  0.00  0.00     0.050 A 
ATOM      7  C   LIG d   1       4.275  -2.027  -4.213  0.00  0.00    -0.052 A 
ATOM      8  C   LIG d   1       5.225  -0.250  -2.278  0.00  0.00    -0.049 A 
ATOM      9  C   LIG d   1       6.572   0.938  -4.022  0.00  0.00     0.273 A 
ATOM     10  C   LIG d   1       4.349  -1.259  -1.944  0.00  0.00    -0.061 A 
ATOM     11  H   LIG d   1       5.585   0.432  -1.521  0.00  0.00     0.062 H 
ATOM     12  C   LIG d   1       3.880  -2.140  -2.910  0.00  0.00    -0.061 A 
ATOM     13  H   LIG d   1       4.024  -1.367  -0.919  0.00  0.00     0.062 H 
ATOM     14  H   LIG d   1       3.193  -2.924  -2.627  0.00  0.00     0.062 H 
ATOM     15  N   LIG d   1       6.931   1.008  -5.321  0.00  0.00    -0.242 N 
ATOM     16  O   LIG d   1       7.012   1.736  -3.214  0.00  0.00    -0.266 OA
ATOM     17  N   LIG d   1       6.446   0.104  -6.265  0.00  0.00    -0.175 NA
ATOM     18  H   LIG d   1       7.547   1.702  -5.605  0.00  0.00     0.192 HD
ATOM     19  H   LIG d   1       3.902  -2.719  -4.955  0.00  0.00     0.062 H 
ENDBRANCH   1   4
BRANCH   1  20
ATOM     20  C   LIG d   1       4.108  -1.084  -7.894  0.00  0.00     0.222 C 
ATOM     21  O   LIG d   1       3.052  -0.726  -7.417  0.00  0.00    -0.275 OA
ATOM     22  N   LIG d   1       4.374  -0.848  -9.195  0.00  0.00    -0.290 N 
ATOM     23  C   LIG d   1       3.472  -0.175 -10.146  0.00  0.00     0.068 C 
ATOM     24  C   LIG d   1       5.611  -1.226  -9.901  0.00  0.00     0.041 C 
ATOM     25  C   LIG d   1       4.210  -0.107 -11.500  0.00  0.00    -0.001 C 
ATOM     26  H   LIG d   1       3.249   0.833  -9.794  0.00  0.00     0.056 H 
ATOM     27  C   LIG d   1       5.701  -0.243 -11.096  0.00  0.00     0.073 C 
ATOM     28  H   LIG d   1       4.029   0.850 -11.990  0.00  0.00     0.031 H 
ATOM     29  H   LIG d   1       3.907  -0.932 -12.145  0.00  0.00     0.031 H 
ATOM     30  H   LIG d   1       6.110   0.717 -10.782  0.00  0.00     0.061 H 
ATOM     31  H   LIG d   1       5.545  -2.253 -10.259  0.00  0.00     0.049 H 
ATOM     32  H   LIG d   1       6.474  -1.106  -9.246  0.00  0.00     0.049 H 
BRANCH  23  33
ATOM     33  C   LIG d   1       2.197  -0.962 -10.296  0.00  0.00     0.062 C 
ATOM     34  O   LIG d   1       1.131  -0.433 -10.090  0.00  0.00    -0.548 OA
ATOM     35  O   LIG d   1       2.244  -2.254 -10.660  0.00  0.00    -0.548 OA
ENDBRANCH  23  33
BRANCH  27  36
ATOM     36  O   LIG d   1       6.472  -0.801 -12.162  0.00  0.00    -0.390 OA
ATOM     37  H   LIG d   1       6.569  -0.215 -12.926  0.00  0.00     0.210 HD
ENDBRANCH  27  36
ENDBRANCH   1  20
TORSDOF 4
ENDMDL
MODEL 8
REMARK VINA RESULT:      -6.1      3.634      5.908
REMARK  4 active torsions:
REMARK  status: ('A' for Active; 'I' for Inactive)
REMARK    1  A    between atoms: C_7  and  C_13 
REMARK    2  A    between atoms: C_13  and  C_14 
REMARK       I    between atoms: C_14  and  N_16 
REMARK    3  A    between atoms: C_18  and  O_25 
REMARK    4  A    between atoms: C_21  and  C_23 
ROOT
ATOM      1  C   LIG d   1       7.794  -0.089  -4.577  0.00  0.00     0.069 C 
ATOM      2  H   LIG d   1       8.453  -0.514  -5.334  0.00  0.00     0.042 H 
ATOM      3  H   LIG d   1       7.851  -0.686  -3.667  0.00  0.00     0.042 H 
ENDROOT
BRANCH   1   4
ATOM      4  C   LIG d   1       6.376  -0.087  -5.088  0.00  0.00     0.078 A 
ATOM      5  C   LIG d   1       5.279  -0.475  -4.201  0.00  0.00     0.011 A 
ATOM      6  C   LIG d   1       3.961  -0.463  -4.713  0.00  0.00     0.050 A 
ATOM      7  C   LIG d   1       5.501  -0.852  -2.876  0.00  0.00    -0.052 A 
ATOM      8  C   LIG d   1       2.896  -0.827  -3.889  0.00  0.00    -0.049 A 
ATOM      9  C   LIG d   1       3.762  -0.061  -6.110  0.00  0.00     0.273 A 
ATOM     10  C   LIG d   1       3.146  -1.195  -2.585  0.00  0.00    -0.061 A 
ATOM     11  H   LIG d   1       1.885  -0.822  -4.270  0.00  0.00     0.062 H 
ATOM     12  C   LIG d   1       4.442  -1.205  -2.087  0.00  0.00    -0.061 A 
ATOM     13  H   LIG d   1       2.324  -1.478  -1.944  0.00  0.00     0.062 H 
ATOM     14  H   LIG d   1       4.616  -1.498  -1.061  0.00  0.00     0.062 H 
ATOM     15  N   LIG d   1       4.839   0.279  -6.848  0.00  0.00    -0.242 N 
ATOM     16  O   LIG d   1       2.645  -0.036  -6.596  0.00  0.00    -0.266 OA
ATOM     17  N   LIG d   1       6.127   0.263  -6.315  0.00  0.00    -0.175 NA
ATOM     18  H   LIG d   1       4.714   0.546  -7.773  0.00  0.00     0.192 HD
ATOM     19  H   LIG d   1       6.504  -0.864  -2.475  0.00  0.00     0.062 H 
ENDBRANCH   1   4
BRANCH   1  20
ATOM     20  C   LIG d   1       8.221   1.324  -4.276  0.00  0.00     0.222 C 
ATOM     21  O   LIG d   1       7.392   2.160  -3.980  0.00  0.00    -0.275 OA
ATOM     22  N   LIG d   1       9.525   1.662  -4.335  0.00  0.00    -0.290 N 
ATOM     23  C   LIG d   1      10.077   3.002  -4.071  0.00  0.00     0.068 C 
ATOM     24  C   LIG d   1      10.632   0.752  -4.680  0.00  0.00     0.041 C 
ATOM     25  C   LIG d   1      11.608   2.901  -4.230  0.00  0.00    -0.001 C 
ATOM     26  H   LIG d   1       9.829   3.310  -3.055  0.00  0.00     0.056 H 
ATOM     27  C   LIG d   1      11.885   1.389  -4.026  0.00  0.00     0.073 C 
ATOM     28  H   LIG d   1      12.115   3.492  -3.467  0.00  0.00     0.031 H 
ATOM     29  H   LIG d   1      11.914   3.218  -5.227  0.00  0.00     0.031 H 
ATOM     30  H   LIG d   1      11.941   1.141  -2.966  0.00  0.00     0.061 H 
ATOM     31  H   LIG d   1      10.755   0.697  -5.761  0.00  0.00     0.049 H 
ATOM     32  H   LIG d   1      10.451  -0.240  -4.267  0.00  0.00     0.049 H 
BRANCH  23  33
ATOM     33  C   LIG d   1       9.523   3.994  -5.060  0.00  0.00     0.062 C 
ATOM     34  O   LIG d   1       9.092   5.055  -4.676  0.00  0.00    -0.548 OA
ATOM     35  O   LIG d   1       9.509   3.700  -6.370  0.00  0.00    -0.548 OA
ENDBRANCH  23  33
BRANCH  27  36
ATOM     36  O   LIG d   1      13.077   0.989  -4.706  0.00  0.00    -0.390 OA
ATOM     37  H   LIG d   1      12.937   0.306  -5.377  0.00  0.00     0.210 HD
ENDBRANCH  27  36
ENDBRANCH   1  20
TORSDOF 4
ENDMDL
MODEL 9
REMARK VINA RESULT:      -6.1      3.616      5.307
REMARK  4 active torsions:
REMARK  status: ('A' for Active; 'I' for Inactive)
REMARK    1  A    between atoms: C_7  and  C_13 
REMARK    2  A    between atoms: C_13  and  C_14 
REMARK       I    between atoms: C_14  and  N_16 
REMARK    3  A    between atoms: C_18  and  O_25 
REMARK    4  A    between atoms: C_21  and  C_23 
ROOT
ATOM      1  C   LIG d   1       6.444  -2.050  -6.381  0.00  0.00     0.069 C 
ATOM      2  H   LIG d   1       7.050  -2.181  -5.484  0.00  0.00     0.042 H 
ATOM      3  H   LIG d   1       7.051  -1.602  -7.168  0.00  0.00     0.042 H 
ENDROOT
BRANCH   1   4
ATOM      4  C   LIG d   1       5.279  -1.145  -6.072  0.00  0.00     0.078 A 
ATOM      5  C   LIG d   1       4.570  -1.275  -4.800  0.00  0.00     0.011 A 
ATOM      6  C   LIG d   1       3.481  -0.410  -4.542  0.00  0.00     0.050 A 
ATOM      7  C   LIG d   1       4.939  -2.221  -3.843  0.00  0.00    -0.052 A 
ATOM      8  C   LIG d   1       2.788  -0.512  -3.336  0.00  0.00    -0.049 A 
ATOM      9  C   LIG d   1       3.118   0.575  -5.568  0.00  0.00     0.273 A 
ATOM     10  C   LIG d   1       3.176  -1.456  -2.411  0.00  0.00    -0.061 A 
ATOM     11  H   LIG d   1       1.954   0.144  -3.129  0.00  0.00     0.062 H 
ATOM     12  C   LIG d   1       4.246  -2.303  -2.668  0.00  0.00    -0.061 A 
ATOM     13  H   LIG d   1       2.642  -1.538  -1.476  0.00  0.00     0.062 H 
ATOM     14  H   LIG d   1       4.533  -3.037  -1.929  0.00  0.00     0.062 H 
ATOM     15  N   LIG d   1       3.834   0.616  -6.711  0.00  0.00    -0.242 N 
ATOM     16  O   LIG d   1       2.187   1.340  -5.391  0.00  0.00    -0.266 OA
ATOM     17  N   LIG d   1       4.907  -0.246  -6.935  0.00  0.00    -0.175 NA
ATOM     18  H   LIG d   1       3.599   1.265  -7.393  0.00  0.00     0.192 HD
ATOM     19  H   LIG d   1       5.770  -2.886  -4.030  0.00  0.00     0.062 H 
ENDBRANCH   1   4
BRANCH   1  20
ATOM     20  C   LIG d   1       5.932  -3.389  -6.843  0.00  0.00     0.222 C 
ATOM     21  O   LIG d   1       5.089  -3.450  -7.713  0.00  0.00    -0.275 OA
ATOM     22  N   LIG d   1       6.410  -4.521  -6.288  0.00  0.00    -0.290 N 
ATOM     23  C   LIG d   1       5.995  -5.890  -6.641  0.00  0.00     0.068 C 
ATOM     24  C   LIG d   1       7.430  -4.593  -5.228  0.00  0.00     0.041 C 
ATOM     25  C   LIG d   1       6.830  -6.855  -5.772  0.00  0.00    -0.001 C 
ATOM     26  H   LIG d   1       6.193  -6.077  -7.697  0.00  0.00     0.056 H 
ATOM     27  C   LIG d   1       8.063  -5.999  -5.382  0.00  0.00     0.073 C 
ATOM     28  H   LIG d   1       7.133  -7.728  -6.349  0.00  0.00     0.031 H 
ATOM     29  H   LIG d   1       6.272  -7.155  -4.885  0.00  0.00     0.031 H 
ATOM     30  H   LIG d   1       8.811  -6.006  -6.175  0.00  0.00     0.061 H 
ATOM     31  H   LIG d   1       6.966  -4.491  -4.247  0.00  0.00     0.049 H 
ATOM     32  H   LIG d   1       8.185  -3.820  -5.373  0.00  0.00     0.049 H 
BRANCH  23  33
ATOM     33  C   LIG d   1       4.529  -6.077  -6.350  0.00  0.00     0.062 C 
ATOM     34  O   LIG d   1       3.783  -6.452  -7.223  0.00  0.00    -0.548 OA
ATOM     35  O   LIG d   1       4.051  -5.828  -5.121  0.00  0.00    -0.548 OA
ENDBRANCH  23  33
BRANCH  27  36
ATOM     36  O   LIG d   1       8.626  -6.446  -4.147  0.00  0.00    -0.390 OA
ATOM     37  H   LIG d   1       8.127  -6.173  -3.364  0.00  0.00     0.210 HD
ENDBRANCH  27  36
ENDBRANCH   1  20
TORSDOF 4
ENDMDL
MODEL 10
REMARK VINA RESULT:      -6.1      3.369      4.535
REMARK  4 active torsions:
REMARK  status: ('A' for Active; 'I' for Inactive)
REMARK    1  A    between atoms: C_7  and  C_13 
REMARK    2  A    between atoms: C_13  and  C_14 
REMARK       I    between atoms: C_14  and  N_16 
REMARK    3  A    between atoms: C_18  and  O_25 
REMARK    4  A    between atoms: C_21  and  C_23 
ROOT
ATOM      1  C   LIG d   1       7.511  -0.290  -5.646  0.00  0.00     0.069 C 
ATOM      2  H   LIG d   1       6.996  -0.192  -6.602  0.00  0.00     0.042 H 
ATOM      3  H   LIG d   1       7.815  -1.327  -5.502  0.00  0.00     0.042 H 
ENDROOT
BRANCH   1   4
ATOM      4  C   LIG d   1       6.583   0.119  -4.531  0.00  0.00     0.078 A 
ATOM      5  C   LIG d   1       5.672  -0.862  -3.941  0.00  0.00     0.011 A 
ATOM      6  C   LIG d   1       4.815  -0.444  -2.896  0.00  0.00     0.050 A 
ATOM      7  C   LIG d   1       5.630  -2.186  -4.380  0.00  0.00    -0.052 A 
ATOM      8  C   LIG d   1       3.937  -1.359  -2.315  0.00  0.00    -0.049 A 
ATOM      9  C   LIG d   1       4.885   0.954  -2.458  0.00  0.00     0.273 A 
ATOM     10  C   LIG d   1       3.918  -2.660  -2.769  0.00  0.00    -0.061 A 
ATOM     11  H   LIG d   1       3.278  -1.051  -1.517  0.00  0.00     0.062 H 
ATOM     12  C   LIG d   1       4.762  -3.065  -3.796  0.00  0.00    -0.061 A 
ATOM     13  H   LIG d   1       3.239  -3.371  -2.322  0.00  0.00     0.062 H 
ATOM     14  H   LIG d   1       4.730  -4.090  -4.138  0.00  0.00     0.062 H 
ATOM     15  N   LIG d   1       5.759   1.783  -3.065  0.00  0.00    -0.242 N 
ATOM     16  O   LIG d   1       4.166   1.360  -1.562  0.00  0.00    -0.266 OA
ATOM     17  N   LIG d   1       6.596   1.342  -4.090  0.00  0.00    -0.175 NA
ATOM     18  H   LIG d   1       5.809   2.709  -2.780  0.00  0.00     0.192 HD
ATOM     19  H   LIG d   1       6.281  -2.515  -5.176  0.00  0.00     0.062 H 
ENDBRANCH   1   4
BRANCH   1  20
ATOM     20  C   LIG d   1       8.728   0.597  -5.637  0.00  0.00     0.222 C 
ATOM     21  O   LIG d   1       9.609   0.412  -4.823  0.00  0.00    -0.275 OA
ATOM     22  N   LIG d   1       8.841   1.596  -6.534  0.00  0.00    -0.290 N 
ATOM     23  C   LIG d   1       9.970   2.536  -6.634  0.00  0.00     0.068 C 
ATOM     24  C   LIG d   1       7.851   1.932  -7.574  0.00  0.00     0.041 C 
ATOM     25  C   LIG d   1       9.673   3.479  -7.820  0.00  0.00    -0.001 C 
ATOM     26  H   LIG d   1      10.894   1.987  -6.820  0.00  0.00     0.056 H 
ATOM     27  C   LIG d   1       8.664   2.666  -8.671  0.00  0.00     0.073 C 
ATOM     28  H   LIG d   1      10.581   3.682  -8.388  0.00  0.00     0.031 H 
ATOM     29  H   LIG d   1       9.223   4.408  -7.470  0.00  0.00     0.031 H 
ATOM     30  H   LIG d   1       9.180   1.955  -9.317  0.00  0.00     0.061 H 
ATOM     31  H   LIG d   1       7.082   2.589  -7.169  0.00  0.00     0.049 H 
ATOM     32  H   LIG d   1       7.403   1.025  -7.978  0.00  0.00     0.049 H 
BRANCH  23  33
ATOM     33  C   LIG d   1      10.092   3.336  -5.363  0.00  0.00     0.062 C 
ATOM     34  O   LIG d   1       9.168   4.014  -4.984  0.00  0.00    -0.548 OA
ATOM     35  O   LIG d   1      11.229   3.293  -4.650  0.00  0.00    -0.548 OA
ENDBRANCH  23  33
BRANCH  27  36
ATOM     36  O   LIG d   1       7.824   3.533  -9.437  0.00  0.00    -0.390 OA
ATOM     37  H   LIG d   1       8.302   4.234  -9.902  0.00  0.00     0.210 HD
ENDBRANCH  27  36
ENDBRANCH   1  20
TORSDOF 4
ENDMDL
