MODEL 1
REMARK VINA RESULT:      -5.8      0.000      0.000
REMARK  10 active torsions:
REMARK  status: ('A' for Active; 'I' for Inactive)
REMARK    1  A    between atoms: C_1  and  C_2 
REMARK    2  A    between atoms: C_2  and  C_4 
REMARK    3  A    between atoms: C_8  and  C_38 
REMARK    4  A    between atoms: C_11  and  C_35 
REMARK    5  A    between atoms: C_18  and  C_34 
REMARK    6  A    between atoms: C_23  and  C_33 
REMARK    7  A    between atoms: C_30  and  C_31 
REMARK    8  A    between atoms: C_30  and  C_32 
REMARK    9  A    between atoms: C_38  and  O_40 
REMARK   10  A    between atoms: O_40  and  C_41 
ROOT
ATOM      1  C   LIG d   1       3.715   0.369  -4.328  0.00  0.00    -0.016 C 
ATOM      2  H   LIG d   1       3.809   1.440  -4.042  0.00  0.00     0.035 H 
ATOM      3  C   LIG d   1       4.697   0.085  -5.442  0.00  0.00    -0.015 C 
ATOM      4  H   LIG d   1       5.215   1.083  -5.597  0.00  0.00     0.032 H 
ATOM      5  C   LIG d   1       3.903  -0.085  -6.752  0.00  0.00     0.071 C 
ATOM      6  C   LIG d   1       3.665  -1.558  -7.065  0.00  0.00    -0.036 C 
ATOM      7  C   LIG d   1       4.969  -2.354  -7.073  0.00  0.00    -0.046 C 
ATOM      8  C   LIG d   1       5.614  -2.323  -5.680  0.00  0.00    -0.023 C 
ATOM      9  C   LIG d   1       5.833  -0.868  -5.296  0.00  0.00    -0.031 C 
ATOM     10  H   LIG d   1       6.572  -0.502  -6.069  0.00  0.00     0.031 H 
ATOM     11  C   LIG d   1       6.605  -0.754  -3.992  0.00  0.00    -0.049 C 
ATOM     12  C   LIG d   1       8.005  -1.332  -4.190  0.00  0.00    -0.049 C 
ATOM     13  C   LIG d   1       8.128  -2.093  -5.516  0.00  0.00    -0.029 C 
ATOM     14  H   LIG d   1       8.135  -1.370  -6.338  0.00  0.00     0.031 H 
ATOM     15  C   LIG d   1       6.968  -3.059  -5.709  0.00  0.00    -0.023 C 
ATOM     16  C   LIG d   1       7.021  -4.137  -4.623  0.00  0.00    -0.046 C 
ATOM     17  C   LIG d   1       8.363  -4.884  -4.706  0.00  0.00    -0.048 C 
ATOM     18  C   LIG d   1       9.505  -3.909  -4.461  0.00  0.00    -0.023 C 
ATOM     19  H   LIG d   1       9.308  -3.442  -3.464  0.00  0.00     0.032 H 
ATOM     20  C   LIG d   1       9.508  -2.772  -5.474  0.00  0.00    -0.021 C 
ATOM     21  C   LIG d   1      10.506  -1.715  -4.937  0.00  0.00    -0.019 C 
ATOM     22  C   LIG d   1      11.865  -2.354  -4.861  0.00  0.00    -0.019 C 
ATOM     23  C   LIG d   1      12.962  -1.590  -5.021  0.00  0.00    -0.142 C 
ATOM     24  O   LIG d   1      14.186  -2.147  -4.956  0.00  0.00    -0.879 OA
ATOM     25  C   LIG d   1      12.007  -3.722  -4.624  0.00  0.00     0.164 C 
ATOM     26  O   LIG d   1      13.121  -4.206  -4.650  0.00  0.00    -0.292 OA
ATOM     27  C   LIG d   1      10.841  -4.624  -4.332  0.00  0.00     0.031 C 
ATOM     28  C   LIG d   1       2.509   0.529  -6.434  0.00  0.00    -0.036 C 
ATOM     29  C   LIG d   1       2.300   0.196  -4.941  0.00  0.00    -0.045 C 
ATOM     30  H   LIG d   1       2.962  -1.986  -6.358  0.00  0.00     0.028 H 
ATOM     31  H   LIG d   1       3.216  -1.634  -8.066  0.00  0.00     0.028 H 
ATOM     32  H   LIG d   1       4.701  -3.380  -7.346  0.00  0.00     0.027 H 
ATOM     33  H   LIG d   1       5.628  -1.908  -7.813  0.00  0.00     0.027 H 
ATOM     34  H   LIG d   1       6.685   0.292  -3.692  0.00  0.00     0.027 H 
ATOM     35  H   LIG d   1       6.131  -1.325  -3.192  0.00  0.00     0.027 H 
ATOM     36  H   LIG d   1       8.717  -0.499  -4.197  0.00  0.00     0.027 H 
ATOM     37  H   LIG d   1       8.244  -1.995  -3.362  0.00  0.00     0.027 H 
ATOM     38  H   LIG d   1       6.938  -3.692  -3.633  0.00  0.00     0.027 H 
ATOM     39  H   LIG d   1       6.246  -4.887  -4.787  0.00  0.00     0.027 H 
ATOM     40  H   LIG d   1       8.359  -5.646  -3.916  0.00  0.00     0.027 H 
ATOM     41  H   LIG d   1       8.446  -5.381  -5.661  0.00  0.00     0.027 H 
ATOM     42  H   LIG d   1      10.531  -0.872  -5.615  0.00  0.00     0.032 H 
ATOM     43  H   LIG d   1      10.210  -1.414  -3.938  0.00  0.00     0.032 H 
ATOM     44  H   LIG d   1      12.860  -0.530  -5.203  0.00  0.00     0.045 H 
ATOM     45  H   LIG d   1       2.516   1.607  -6.591  0.00  0.00     0.028 H 
ATOM     46  H   LIG d   1       1.736   0.061  -7.043  0.00  0.00     0.028 H 
ATOM     47  H   LIG d   1       1.966  -0.832  -4.822  0.00  0.00     0.027 H 
ATOM     48  H   LIG d   1       1.607   0.894  -4.485  0.00  0.00     0.027 H 
ENDROOT
BRANCH   1  49
ATOM     49  C   LIG d   1       3.818  -0.452  -3.086  0.00  0.00    -0.076 C 
ATOM     50  C   LIG d   1       3.168  -1.585  -2.994  0.00  0.00    -0.099 C 
ATOM     51  H   LIG d   1       2.641  -1.977  -3.851  0.00  0.00     0.053 H 
ATOM     52  H   LIG d   1       3.159  -2.129  -2.061  0.00  0.00     0.053 H 
BRANCH  49  53
ATOM     53  C   LIG d   1       4.668   0.026  -1.937  0.00  0.00    -0.044 C 
ATOM     54  H   LIG d   1       4.302  -0.413  -1.008  0.00  0.00     0.027 H 
ATOM     55  H   LIG d   1       5.702  -0.277  -2.099  0.00  0.00     0.027 H 
ATOM     56  H   LIG d   1       4.614   1.112  -1.871  0.00  0.00     0.027 H 
ENDBRANCH  49  53
ENDBRANCH   1  49
BRANCH   5  57
ATOM     57  C   LIG d   1       4.568   0.636  -7.905  0.00  0.00     0.313 C 
ATOM     58  O   LIG d   1       5.702   1.040  -7.791  0.00  0.00    -0.250 OA
BRANCH  57  59
ATOM     59  O   LIG d   1       3.900   0.824  -9.053  0.00  0.00    -0.468 OA
BRANCH  59  60
ATOM     60  C   LIG d   1       3.905   2.146  -9.597  0.00  0.00     0.082 C 
ATOM     61  H   LIG d   1       4.218   2.108 -10.641  0.00  0.00     0.066 H 
ATOM     62  H   LIG d   1       2.903   2.569  -9.534  0.00  0.00     0.066 H 
ATOM     63  H   LIG d   1       4.600   2.767  -9.032  0.00  0.00     0.066 H 
ENDBRANCH  59  60
ENDBRANCH  57  59
ENDBRANCH   5  57
BRANCH   8  64
ATOM     64  C   LIG d   1       4.668  -3.025  -4.703  0.00  0.00    -0.059 C 
ATOM     65  H   LIG d   1       4.214  -2.287  -4.043  0.00  0.00     0.024 H 
ATOM     66  H   LIG d   1       3.887  -3.542  -5.263  0.00  0.00     0.024 H 
ATOM     67  H   LIG d   1       5.229  -3.748  -4.111  0.00  0.00     0.024 H 
ENDBRANCH   8  64
BRANCH  15  68
ATOM     68  C   LIG d   1       7.074  -3.770  -7.069  0.00  0.00    -0.059 C 
ATOM     69  H   LIG d   1       7.915  -3.359  -7.630  0.00  0.00     0.024 H 
ATOM     70  H   LIG d   1       7.231  -4.837  -6.912  0.00  0.00     0.024 H 
ATOM     71  H   LIG d   1       6.154  -3.617  -7.633  0.00  0.00     0.024 H 
ENDBRANCH  15  68
BRANCH  20  72
ATOM     72  C   LIG d   1       9.998  -3.184  -6.857  0.00  0.00    -0.059 C 
ATOM     73  H   LIG d   1       9.146  -3.285  -7.529  0.00  0.00     0.024 H 
ATOM     74  H   LIG d   1      10.678  -2.425  -7.242  0.00  0.00     0.024 H 
ATOM     75  H   LIG d   1      10.521  -4.138  -6.787  0.00  0.00     0.024 H 
ENDBRANCH  20  72
BRANCH  27  76
ATOM     76  C   LIG d   1      10.994  -5.096  -2.870  0.00  0.00    -0.052 C 
ATOM     77  H   LIG d   1      11.889  -4.650  -2.437  0.00  0.00     0.024 H 
ATOM     78  H   LIG d   1      10.120  -4.789  -2.296  0.00  0.00     0.024 H 
ATOM     79  H   LIG d   1      11.081  -6.181  -2.847  0.00  0.00     0.024 H 
ENDBRANCH  27  76
BRANCH  27  80
ATOM     80  C   LIG d   1      10.925  -5.856  -5.231  0.00  0.00    -0.052 C 
ATOM     81  H   LIG d   1      11.905  -6.321  -5.121  0.00  0.00     0.024 H 
ATOM     82  H   LIG d   1      10.151  -6.568  -4.945  0.00  0.00     0.024 H 
ATOM     83  H   LIG d   1      10.780  -5.558  -6.270  0.00  0.00     0.024 H 
ENDBRANCH  27  80
TORSDOF 10
ENDMDL
MODEL 2
REMARK VINA RESULT:      -5.7     10.213     12.655
REMARK  10 active torsions:
REMARK  status: ('A' for Active; 'I' for Inactive)
REMARK    1  A    between atoms: C_1  and  C_2 
REMARK    2  A    between atoms: C_2  and  C_4 
REMARK    3  A    between atoms: C_8  and  C_38 
REMARK    4  A    between atoms: C_11  and  C_35 
REMARK    5  A    between atoms: C_18  and  C_34 
REMARK    6  A    between atoms: C_23  and  C_33 
REMARK    7  A    between atoms: C_30  and  C_31 
REMARK    8  A    between atoms: C_30  and  C_32 
REMARK    9  A    between atoms: C_38  and  O_40 
REMARK   10  A    between atoms: O_40  and  C_41 
ROOT
ATOM      1  C   LIG d   1       9.543  10.817  -1.562  0.00  0.00    -0.016 C 
ATOM      2  H   LIG d   1       8.468  10.897  -1.285  0.00  0.00     0.035 H 
ATOM      3  C   LIG d   1       9.797   9.425  -2.094  0.00  0.00    -0.015 C 
ATOM      4  H   LIG d   1       8.775   8.933  -2.041  0.00  0.00     0.032 H 
ATOM      5  C   LIG d   1      10.598   8.643  -1.035  0.00  0.00     0.071 C 
ATOM      6  C   LIG d   1      12.089   8.654  -1.353  0.00  0.00    -0.036 C 
ATOM      7  C   LIG d   1      12.369   8.158  -2.771  0.00  0.00    -0.046 C 
ATOM      8  C   LIG d   1      11.718   9.098  -3.796  0.00  0.00    -0.023 C 
ATOM      9  C   LIG d   1      10.229   9.161  -3.495  0.00  0.00    -0.031 C 
ATOM     10  H   LIG d   1       9.881   8.100  -3.672  0.00  0.00     0.031 H 
ATOM     11  C   LIG d   1       9.487   9.955  -4.558  0.00  0.00    -0.049 C 
ATOM     12  C   LIG d   1       9.596   9.220  -5.894  0.00  0.00    -0.049 C 
ATOM     13  C   LIG d   1      10.625   8.085  -5.841  0.00  0.00    -0.029 C 
ATOM     14  H   LIG d   1      10.216   7.266  -5.241  0.00  0.00     0.031 H 
ATOM     15  C   LIG d   1      11.934   8.554  -5.222  0.00  0.00    -0.023 C 
ATOM     16  C   LIG d   1      12.564   9.624  -6.119  0.00  0.00    -0.046 C 
ATOM     17  C   LIG d   1      12.811   9.039  -7.520  0.00  0.00    -0.048 C 
ATOM     18  C   LIG d   1      11.484   8.623  -8.139  0.00  0.00    -0.023 C 
ATOM     19  H   LIG d   1      10.838   9.536  -8.137  0.00  0.00     0.032 H 
ATOM     20  C   LIG d   1      10.762   7.586  -7.290  0.00  0.00    -0.021 C 
ATOM     21  C   LIG d   1       9.324   7.483  -7.860  0.00  0.00    -0.019 C 
ATOM     22  C   LIG d   1       9.421   7.019  -9.287  0.00  0.00    -0.019 C 
ATOM     23  C   LIG d   1       8.418   6.290  -9.812  0.00  0.00    -0.142 C 
ATOM     24  O   LIG d   1       8.490   5.867 -11.088  0.00  0.00    -0.879 OA
ATOM     25  C   LIG d   1      10.530   7.332 -10.074  0.00  0.00     0.164 C 
ATOM     26  O   LIG d   1      10.600   6.868 -11.194  0.00  0.00    -0.292 OA
ATOM     27  C   LIG d   1      11.641   8.225  -9.598  0.00  0.00     0.031 C 
ATOM     28  C   LIG d   1      10.419   9.476   0.268  0.00  0.00    -0.036 C 
ATOM     29  C   LIG d   1      10.349  10.932  -0.241  0.00  0.00    -0.045 C 
ATOM     30  H   LIG d   1      12.499   9.648  -1.208  0.00  0.00     0.028 H 
ATOM     31  H   LIG d   1      12.601   7.979  -0.652  0.00  0.00     0.028 H 
ATOM     32  H   LIG d   1      13.458   8.163  -2.888  0.00  0.00     0.027 H 
ATOM     33  H   LIG d   1      11.967   7.154  -2.859  0.00  0.00     0.027 H 
ATOM     34  H   LIG d   1       8.435  10.055  -4.286  0.00  0.00     0.027 H 
ATOM     35  H   LIG d   1       9.922  10.945  -4.698  0.00  0.00     0.027 H 
ATOM     36  H   LIG d   1       8.614   8.793  -6.125  0.00  0.00     0.027 H 
ATOM     37  H   LIG d   1       9.868   9.928  -6.674  0.00  0.00     0.027 H 
ATOM     38  H   LIG d   1      11.903  10.482  -6.218  0.00  0.00     0.027 H 
ATOM     39  H   LIG d   1      13.543   9.919  -5.737  0.00  0.00     0.027 H 
ATOM     40  H   LIG d   1      13.263   9.833  -8.128  0.00  0.00     0.027 H 
ATOM     41  H   LIG d   1      13.508   8.217  -7.456  0.00  0.00     0.027 H 
ATOM     42  H   LIG d   1       8.760   6.769  -7.276  0.00  0.00     0.032 H 
ATOM     43  H   LIG d   1       8.860   8.464  -7.848  0.00  0.00     0.032 H 
ATOM     44  H   LIG d   1       7.556   6.045  -9.209  0.00  0.00     0.045 H 
ATOM     45  H   LIG d   1       9.497   9.201   0.779  0.00  0.00     0.028 H 
ATOM     46  H   LIG d   1      11.274   9.341   0.929  0.00  0.00     0.028 H 
ATOM     47  H   LIG d   1      11.346  11.313  -0.446  0.00  0.00     0.027 H 
ATOM     48  H   LIG d   1       9.821  11.561   0.467  0.00  0.00     0.027 H 
ENDROOT
BRANCH   1  49
ATOM     49  C   LIG d   1       9.879  11.971  -2.446  0.00  0.00    -0.076 C 
ATOM     50  C   LIG d   1      11.056  12.540  -2.361  0.00  0.00    -0.099 C 
ATOM     51  H   LIG d   1      11.818  12.113  -1.726  0.00  0.00     0.053 H 
ATOM     52  H   LIG d   1      11.264  13.437  -2.926  0.00  0.00     0.053 H 
BRANCH  49  53
ATOM     53  C   LIG d   1       8.864  12.482  -3.436  0.00  0.00    -0.044 C 
ATOM     54  H   LIG d   1       8.477  13.443  -3.095  0.00  0.00     0.027 H 
ATOM     55  H   LIG d   1       9.336  12.605  -4.410  0.00  0.00     0.027 H 
ATOM     56  H   LIG d   1       8.044  11.769  -3.517  0.00  0.00     0.027 H 
ENDBRANCH  49  53
ENDBRANCH   1  49
BRANCH   5  57
ATOM     57  C   LIG d   1      10.069   7.236  -0.862  0.00  0.00     0.313 C 
ATOM     58  O   LIG d   1      10.293   6.628   0.159  0.00  0.00    -0.250 OA
BRANCH  57  59
ATOM     59  O   LIG d   1       9.349   6.665  -1.840  0.00  0.00    -0.468 OA
BRANCH  59  60
ATOM     60  C   LIG d   1       9.918   5.519  -2.479  0.00  0.00     0.082 C 
ATOM     61  H   LIG d   1      10.740   5.136  -1.873  0.00  0.00     0.066 H 
ATOM     62  H   LIG d   1       9.156   4.748  -2.586  0.00  0.00     0.066 H 
ATOM     63  H   LIG d   1      10.292   5.801  -3.463  0.00  0.00     0.066 H 
ENDBRANCH  59  60
ENDBRANCH  57  59
ENDBRANCH   5  57
BRANCH   8  64
ATOM     64  C   LIG d   1      12.376  10.473  -3.665  0.00  0.00    -0.059 C 
ATOM     65  H   LIG d   1      11.702  11.237  -4.050  0.00  0.00     0.024 H 
ATOM     66  H   LIG d   1      12.590  10.674  -2.614  0.00  0.00     0.024 H 
ATOM     67  H   LIG d   1      13.306  10.486  -4.233  0.00  0.00     0.024 H 
ENDBRANCH   8  64
BRANCH  15  68
ATOM     68  C   LIG d   1      12.935   7.390  -5.122  0.00  0.00    -0.059 C 
ATOM     69  H   LIG d   1      13.680   7.481  -5.913  0.00  0.00     0.024 H 
ATOM     70  H   LIG d   1      13.432   7.418  -4.152  0.00  0.00     0.024 H 
ATOM     71  H   LIG d   1      12.405   6.443  -5.231  0.00  0.00     0.024 H 
ENDBRANCH  15  68
BRANCH  20  72
ATOM     72  C   LIG d   1      11.373   6.192  -7.372  0.00  0.00    -0.059 C 
ATOM     73  H   LIG d   1      12.422   6.239  -7.083  0.00  0.00     0.024 H 
ATOM     74  H   LIG d   1      10.839   5.522  -6.700  0.00  0.00     0.024 H 
ATOM     75  H   LIG d   1      11.294   5.821  -8.394  0.00  0.00     0.024 H 
ENDBRANCH  20  72
BRANCH  27  76
ATOM     76  C   LIG d   1      11.584   9.507 -10.455  0.00  0.00    -0.052 C 
ATOM     77  H   LIG d   1      12.287   9.422 -11.283  0.00  0.00     0.024 H 
ATOM     78  H   LIG d   1      10.575   9.638 -10.846  0.00  0.00     0.024 H 
ATOM     79  H   LIG d   1      11.849  10.367  -9.840  0.00  0.00     0.024 H 
ENDBRANCH  27  76
BRANCH  27  80
ATOM     80  C   LIG d   1      12.981   7.542  -9.869  0.00  0.00    -0.052 C 
ATOM     81  H   LIG d   1      13.779   8.098  -9.375  0.00  0.00     0.024 H 
ATOM     82  H   LIG d   1      12.955   6.524  -9.482  0.00  0.00     0.024 H 
ATOM     83  H   LIG d   1      13.167   7.520 -10.943  0.00  0.00     0.024 H 
ENDBRANCH  27  80
TORSDOF 10
ENDMDL
MODEL 3
REMARK VINA RESULT:      -5.7      7.641     10.218
REMARK  10 active torsions:
REMARK  status: ('A' for Active; 'I' for Inactive)
REMARK    1  A    between atoms: C_1  and  C_2 
REMARK    2  A    between atoms: C_2  and  C_4 
REMARK    3  A    between atoms: C_8  and  C_38 
REMARK    4  A    between atoms: C_11  and  C_35 
REMARK    5  A    between atoms: C_18  and  C_34 
REMARK    6  A    between atoms: C_23  and  C_33 
REMARK    7  A    between atoms: C_30  and  C_31 
REMARK    8  A    between atoms: C_30  and  C_32 
REMARK    9  A    between atoms: C_38  and  O_40 
REMARK   10  A    between atoms: O_40  and  C_41 
ROOT
ATOM      1  C   LIG d   1      12.331   1.765  -6.463  0.00  0.00    -0.016 C 
ATOM      2  H   LIG d   1      12.560   0.738  -6.102  0.00  0.00     0.035 H 
ATOM      3  C   LIG d   1      11.162   2.301  -5.669  0.00  0.00    -0.015 C 
ATOM      4  H   LIG d   1      10.923   1.455  -4.949  0.00  0.00     0.032 H 
ATOM      5  C   LIG d   1       9.924   2.317  -6.586  0.00  0.00     0.071 C 
ATOM      6  C   LIG d   1       9.697   3.702  -7.182  0.00  0.00    -0.036 C 
ATOM      7  C   LIG d   1       9.629   4.779  -6.101  0.00  0.00    -0.046 C 
ATOM      8  C   LIG d   1      10.967   4.862  -5.353  0.00  0.00    -0.023 C 
ATOM      9  C   LIG d   1      11.267   3.488  -4.775  0.00  0.00    -0.031 C 
ATOM     10  H   LIG d   1      10.425   3.325  -4.037  0.00  0.00     0.031 H 
ATOM     11  C   LIG d   1      12.503   3.521  -3.891  0.00  0.00    -0.049 C 
ATOM     12  C   LIG d   1      12.228   4.414  -2.683  0.00  0.00    -0.049 C 
ATOM     13  C   LIG d   1      10.933   5.219  -2.848  0.00  0.00    -0.029 C 
ATOM     14  H   LIG d   1      10.081   4.540  -2.743  0.00  0.00     0.031 H 
ATOM     15  C   LIG d   1      10.872   5.893  -4.211  0.00  0.00    -0.023 C 
ATOM     16  C   LIG d   1      11.999   6.923  -4.318  0.00  0.00    -0.046 C 
ATOM     17  C   LIG d   1      11.851   7.965  -3.196  0.00  0.00    -0.048 C 
ATOM     18  C   LIG d   1      11.965   7.276  -1.844  0.00  0.00    -0.023 C 
ATOM     19  H   LIG d   1      12.951   6.748  -1.844  0.00  0.00     0.032 H 
ATOM     20  C   LIG d   1      10.903   6.200  -1.663  0.00  0.00    -0.021 C 
ATOM     21  C   LIG d   1      11.316   5.390  -0.408  0.00  0.00    -0.019 C 
ATOM     22  C   LIG d   1      11.320   6.325   0.769  0.00  0.00    -0.019 C 
ATOM     23  C   LIG d   1      11.043   5.843   1.996  0.00  0.00    -0.142 C 
ATOM     24  O   LIG d   1      11.043   6.667   3.059  0.00  0.00    -0.879 OA
ATOM     25  C   LIG d   1      11.608   7.681   0.612  0.00  0.00     0.164 C 
ATOM     26  O   LIG d   1      11.522   8.412   1.578  0.00  0.00    -0.292 OA
ATOM     27  C   LIG d   1      12.028   8.279  -0.702  0.00  0.00     0.031 C 
ATOM     28  C   LIG d   1      10.316   1.387  -7.770  0.00  0.00    -0.036 C 
ATOM     29  C   LIG d   1      11.834   1.620  -7.925  0.00  0.00    -0.045 C 
ATOM     30  H   LIG d   1      10.474   3.935  -7.903  0.00  0.00     0.028 H 
ATOM     31  H   LIG d   1       8.737   3.699  -7.718  0.00  0.00     0.028 H 
ATOM     32  H   LIG d   1       9.424   5.722  -6.620  0.00  0.00     0.027 H 
ATOM     33  H   LIG d   1       8.823   4.520  -5.421  0.00  0.00     0.027 H 
ATOM     34  H   LIG d   1      12.748   2.514  -3.548  0.00  0.00     0.027 H 
ATOM     35  H   LIG d   1      13.362   3.943  -4.416  0.00  0.00     0.027 H 
ATOM     36  H   LIG d   1      12.130   3.770  -1.801  0.00  0.00     0.027 H 
ATOM     37  H   LIG d   1      13.066   5.092  -2.535  0.00  0.00     0.027 H 
ATOM     38  H   LIG d   1      12.971   6.445  -4.214  0.00  0.00     0.027 H 
ATOM     39  H   LIG d   1      11.928   7.476  -5.256  0.00  0.00     0.027 H 
ATOM     40  H   LIG d   1      12.673   8.683  -3.309  0.00  0.00     0.027 H 
ATOM     41  H   LIG d   1      10.916   8.494  -3.308  0.00  0.00     0.027 H 
ATOM     42  H   LIG d   1      10.600   4.595  -0.246  0.00  0.00     0.032 H 
ATOM     43  H   LIG d   1      12.319   5.001  -0.543  0.00  0.00     0.032 H 
ATOM     44  H   LIG d   1      10.821   4.793   2.125  0.00  0.00     0.045 H 
ATOM     45  H   LIG d   1      10.109   0.345  -7.528  0.00  0.00     0.028 H 
ATOM     46  H   LIG d   1       9.788   1.678  -8.678  0.00  0.00     0.028 H 
ATOM     47  H   LIG d   1      12.024   2.538  -8.476  0.00  0.00     0.027 H 
ATOM     48  H   LIG d   1      12.308   0.768  -8.399  0.00  0.00     0.027 H 
ENDROOT
BRANCH   1  49
ATOM     49  C   LIG d   1      13.599   2.553  -6.449  0.00  0.00    -0.076 C 
ATOM     50  C   LIG d   1      13.825   3.446  -7.379  0.00  0.00    -0.099 C 
ATOM     51  H   LIG d   1      13.054   3.687  -8.096  0.00  0.00     0.053 H 
ATOM     52  H   LIG d   1      14.783   3.943  -7.430  0.00  0.00     0.053 H 
BRANCH  49  53
ATOM     53  C   LIG d   1      14.619   2.317  -5.365  0.00  0.00    -0.044 C 
ATOM     54  H   LIG d   1      14.225   2.672  -4.412  0.00  0.00     0.027 H 
ATOM     55  H   LIG d   1      14.835   1.251  -5.294  0.00  0.00     0.027 H 
ATOM     56  H   LIG d   1      15.534   2.858  -5.603  0.00  0.00     0.027 H 
ENDBRANCH  49  53
ENDBRANCH   1  49
BRANCH   5  57
ATOM     57  C   LIG d   1       8.693   1.803  -5.871  0.00  0.00     0.313 C 
ATOM     58  O   LIG d   1       7.626   1.790  -6.440  0.00  0.00    -0.250 OA
BRANCH  57  59
ATOM     59  O   LIG d   1       8.786   1.361  -4.608  0.00  0.00    -0.468 OA
BRANCH  59  60
ATOM     60  C   LIG d   1       7.600   1.415  -3.812  0.00  0.00     0.082 C 
ATOM     61  H   LIG d   1       7.455   2.431  -3.444  0.00  0.00     0.066 H 
ATOM     62  H   LIG d   1       6.743   1.123  -4.419  0.00  0.00     0.066 H 
ATOM     63  H   LIG d   1       7.698   0.732  -2.968  0.00  0.00     0.066 H 
ENDBRANCH  59  60
ENDBRANCH  57  59
ENDBRANCH   5  57
BRANCH   8  64
ATOM     64  C   LIG d   1      12.043   5.297  -6.351  0.00  0.00    -0.059 C 
ATOM     65  H   LIG d   1      12.163   4.529  -7.114  0.00  0.00     0.024 H 
ATOM     66  H   LIG d   1      11.744   6.234  -6.821  0.00  0.00     0.024 H 
ATOM     67  H   LIG d   1      12.988   5.440  -5.826  0.00  0.00     0.024 H 
ENDBRANCH   8  64
BRANCH  15  68
ATOM     68  C   LIG d   1       9.541   6.647  -4.385  0.00  0.00    -0.059 C 
ATOM     69  H   LIG d   1       8.711   5.949  -4.274  0.00  0.00     0.024 H 
ATOM     70  H   LIG d   1       9.463   7.427  -3.628  0.00  0.00     0.024 H 
ATOM     71  H   LIG d   1       9.505   7.097  -5.377  0.00  0.00     0.024 H 
ENDBRANCH  15  68
BRANCH  20  72
ATOM     72  C   LIG d   1       9.509   6.752  -1.398  0.00  0.00    -0.059 C 
ATOM     73  H   LIG d   1       8.781   6.205  -1.996  0.00  0.00     0.024 H 
ATOM     74  H   LIG d   1       9.269   6.640  -0.341  0.00  0.00     0.024 H 
ATOM     75  H   LIG d   1       9.479   7.808  -1.667  0.00  0.00     0.024 H 
ENDBRANCH  20  72
BRANCH  27  76
ATOM     76  C   LIG d   1      13.494   8.733  -0.540  0.00  0.00    -0.052 C 
ATOM     77  H   LIG d   1      14.157   7.969  -0.945  0.00  0.00     0.024 H 
ATOM     78  H   LIG d   1      13.645   9.668  -1.078  0.00  0.00     0.024 H 
ATOM     79  H   LIG d   1      13.713   8.882   0.516  0.00  0.00     0.024 H 
ENDBRANCH  27  76
BRANCH  27  80
ATOM     80  C   LIG d   1      11.182   9.521  -0.979  0.00  0.00    -0.052 C 
ATOM     81  H   LIG d   1      10.887   9.978  -0.034  0.00  0.00     0.024 H 
ATOM     82  H   LIG d   1      11.764  10.235  -1.561  0.00  0.00     0.024 H 
ATOM     83  H   LIG d   1      10.290   9.236  -1.538  0.00  0.00     0.024 H 
ENDBRANCH  27  80
TORSDOF 10
ENDMDL
MODEL 4
REMARK VINA RESULT:      -5.6      6.685     10.037
REMARK  10 active torsions:
REMARK  status: ('A' for Active; 'I' for Inactive)
REMARK    1  A    between atoms: C_1  and  C_2 
REMARK    2  A    between atoms: C_2  and  C_4 
REMARK    3  A    between atoms: C_8  and  C_38 
REMARK    4  A    between atoms: C_11  and  C_35 
REMARK    5  A    between atoms: C_18  and  C_34 
REMARK    6  A    between atoms: C_23  and  C_33 
REMARK    7  A    between atoms: C_30  and  C_31 
REMARK    8  A    between atoms: C_30  and  C_32 
REMARK    9  A    between atoms: C_38  and  O_40 
REMARK   10  A    between atoms: O_40  and  C_41 
ROOT
ATOM      1  C   LIG d   1      -0.838  -7.987 -10.637  0.00  0.00    -0.016 C 
ATOM      2  H   LIG d   1      -0.898  -8.528  -9.666  0.00  0.00     0.035 H 
ATOM      3  C   LIG d   1      -1.124  -6.524 -10.387  0.00  0.00    -0.015 C 
ATOM      4  H   LIG d   1      -1.290  -6.477  -9.265  0.00  0.00     0.032 H 
ATOM      5  C   LIG d   1      -2.523  -6.204 -10.946  0.00  0.00     0.071 C 
ATOM      6  C   LIG d   1      -2.434  -5.585 -12.336  0.00  0.00    -0.036 C 
ATOM      7  C   LIG d   1      -1.513  -4.366 -12.355  0.00  0.00    -0.046 C 
ATOM      8  C   LIG d   1      -0.080  -4.783 -11.992  0.00  0.00    -0.023 C 
ATOM      9  C   LIG d   1      -0.118  -5.451 -10.627  0.00  0.00    -0.031 C 
ATOM     10  H   LIG d   1      -0.463  -4.622  -9.939  0.00  0.00     0.031 H 
ATOM     11  C   LIG d   1       1.284  -5.759 -10.127  0.00  0.00    -0.049 C 
ATOM     12  C   LIG d   1       2.035  -4.446  -9.910  0.00  0.00    -0.049 C 
ATOM     13  C   LIG d   1       1.284  -3.252 -10.510  0.00  0.00    -0.029 C 
ATOM     14  H   LIG d   1       0.408  -3.039  -9.889  0.00  0.00     0.031 H 
ATOM     15  C   LIG d   1       0.832  -3.541 -11.934  0.00  0.00    -0.023 C 
ATOM     16  C   LIG d   1       2.060  -3.730 -12.827  0.00  0.00    -0.046 C 
ATOM     17  C   LIG d   1       2.926  -2.460 -12.786  0.00  0.00    -0.048 C 
ATOM     18  C   LIG d   1       3.408  -2.218 -11.363  0.00  0.00    -0.023 C 
ATOM     19  H   LIG d   1       3.951  -3.145 -11.055  0.00  0.00     0.032 H 
ATOM     20  C   LIG d   1       2.248  -2.058 -10.390  0.00  0.00    -0.021 C 
ATOM     21  C   LIG d   1       2.862  -2.125  -8.968  0.00  0.00    -0.019 C 
ATOM     22  C   LIG d   1       3.829  -0.983  -8.824  0.00  0.00    -0.019 C 
ATOM     23  C   LIG d   1       4.031  -0.441  -7.608  0.00  0.00    -0.142 C 
ATOM     24  O   LIG d   1       4.894   0.582  -7.463  0.00  0.00    -0.879 OA
ATOM     25  C   LIG d   1       4.520  -0.479  -9.926  0.00  0.00     0.164 C 
ATOM     26  O   LIG d   1       5.230   0.494  -9.775  0.00  0.00    -0.292 OA
ATOM     27  C   LIG d   1       4.429  -1.093 -11.295  0.00  0.00     0.031 C 
ATOM     28  C   LIG d   1      -3.187  -7.600 -11.127  0.00  0.00    -0.036 C 
ATOM     29  C   LIG d   1      -2.005  -8.516 -11.511  0.00  0.00    -0.045 C 
ATOM     30  H   LIG d   1      -2.103  -6.324 -13.059  0.00  0.00     0.028 H 
ATOM     31  H   LIG d   1      -3.438  -5.254 -12.637  0.00  0.00     0.028 H 
ATOM     32  H   LIG d   1      -1.547  -3.972 -13.376  0.00  0.00     0.027 H 
ATOM     33  H   LIG d   1      -1.898  -3.646 -11.640  0.00  0.00     0.027 H 
ATOM     34  H   LIG d   1       1.235  -6.307  -9.184  0.00  0.00     0.027 H 
ATOM     35  H   LIG d   1       1.852  -6.340 -10.855  0.00  0.00     0.027 H 
ATOM     36  H   LIG d   1       2.138  -4.290  -8.830  0.00  0.00     0.027 H 
ATOM     37  H   LIG d   1       3.025  -4.519 -10.354  0.00  0.00     0.027 H 
ATOM     38  H   LIG d   1       2.664  -4.566 -12.481  0.00  0.00     0.027 H 
ATOM     39  H   LIG d   1       1.763  -3.861 -13.869  0.00  0.00     0.027 H 
ATOM     40  H   LIG d   1       3.791  -2.635 -13.438  0.00  0.00     0.027 H 
ATOM     41  H   LIG d   1       2.366  -1.622 -13.177  0.00  0.00     0.027 H 
ATOM     42  H   LIG d   1       2.071  -2.035  -8.235  0.00  0.00     0.032 H 
ATOM     43  H   LIG d   1       3.407  -3.056  -8.854  0.00  0.00     0.032 H 
ATOM     44  H   LIG d   1       3.501  -0.827  -6.750  0.00  0.00     0.045 H 
ATOM     45  H   LIG d   1      -3.647  -7.933 -10.197  0.00  0.00     0.028 H 
ATOM     46  H   LIG d   1      -3.927  -7.572 -11.928  0.00  0.00     0.028 H 
ATOM     47  H   LIG d   1      -1.762  -8.403 -12.565  0.00  0.00     0.027 H 
ATOM     48  H   LIG d   1      -2.223  -9.549 -11.262  0.00  0.00     0.027 H 
ENDROOT
BRANCH   1  49
ATOM     49  C   LIG d   1       0.461  -8.341 -11.282  0.00  0.00    -0.076 C 
ATOM     50  C   LIG d   1       0.528  -8.482 -12.583  0.00  0.00    -0.099 C 
ATOM     51  H   LIG d   1      -0.327  -8.245 -13.197  0.00  0.00     0.053 H 
ATOM     52  H   LIG d   1       1.440  -8.837 -13.041  0.00  0.00     0.053 H 
BRANCH  49  53
ATOM     53  C   LIG d   1       1.693  -8.537 -10.437  0.00  0.00    -0.044 C 
ATOM     54  H   LIG d   1       2.410  -9.154 -10.980  0.00  0.00     0.027 H 
ATOM     55  H   LIG d   1       2.140  -7.568 -10.217  0.00  0.00     0.027 H 
ATOM     56  H   LIG d   1       1.420  -9.031  -9.506  0.00  0.00     0.027 H 
ENDBRANCH  49  53
ENDBRANCH   1  49
BRANCH   5  57
ATOM     57  C   LIG d   1      -3.320  -5.339  -9.994  0.00  0.00     0.313 C 
ATOM     58  O   LIG d   1      -3.382  -5.629  -8.822  0.00  0.00    -0.250 OA
BRANCH  57  59
ATOM     59  O   LIG d   1      -3.956  -4.249 -10.451  0.00  0.00    -0.468 OA
BRANCH  59  60
ATOM     60  C   LIG d   1      -5.149  -3.859  -9.766  0.00  0.00     0.082 C 
ATOM     61  H   LIG d   1      -5.458  -2.871 -10.108  0.00  0.00     0.066 H 
ATOM     62  H   LIG d   1      -5.939  -4.579  -9.976  0.00  0.00     0.066 H 
ATOM     63  H   LIG d   1      -4.957  -3.829  -8.694  0.00  0.00     0.066 H 
ENDBRANCH  59  60
ENDBRANCH  57  59
ENDBRANCH   5  57
BRANCH   8  64
ATOM     64  C   LIG d   1       0.425  -5.741 -13.072  0.00  0.00    -0.059 C 
ATOM     65  H   LIG d   1      -0.378  -6.418 -13.363  0.00  0.00     0.024 H 
ATOM     66  H   LIG d   1       0.750  -5.169 -13.941  0.00  0.00     0.024 H 
ATOM     67  H   LIG d   1       1.264  -6.317 -12.682  0.00  0.00     0.024 H 
ENDBRANCH   8  64
BRANCH  15  68
ATOM     68  C   LIG d   1       0.029  -2.356 -12.500  0.00  0.00    -0.059 C 
ATOM     69  H   LIG d   1       0.695  -1.507 -12.655  0.00  0.00     0.024 H 
ATOM     70  H   LIG d   1      -0.422  -2.642 -13.450  0.00  0.00     0.024 H 
ATOM     71  H   LIG d   1      -0.755  -2.078 -11.795  0.00  0.00     0.024 H 
ENDBRANCH  15  68
BRANCH  20  72
ATOM     72  C   LIG d   1       1.533  -0.717 -10.503  0.00  0.00    -0.059 C 
ATOM     73  H   LIG d   1       0.773  -0.644  -9.725  0.00  0.00     0.024 H 
ATOM     74  H   LIG d   1       2.255   0.090 -10.383  0.00  0.00     0.024 H 
ATOM     75  H   LIG d   1       1.059  -0.639 -11.481  0.00  0.00     0.024 H 
ENDBRANCH  20  72
BRANCH  27  76
ATOM     76  C   LIG d   1       5.818  -1.685 -11.614  0.00  0.00    -0.052 C 
ATOM     77  H   LIG d   1       5.705  -2.715 -11.949  0.00  0.00     0.024 H 
ATOM     78  H   LIG d   1       6.293  -1.097 -12.399  0.00  0.00     0.024 H 
ATOM     79  H   LIG d   1       6.438  -1.660 -10.718  0.00  0.00     0.024 H 
ENDBRANCH  27  76
BRANCH  27  80
ATOM     80  C   LIG d   1       4.145   0.006 -12.318  0.00  0.00    -0.052 C 
ATOM     81  H   LIG d   1       5.000   0.680 -12.375  0.00  0.00     0.024 H 
ATOM     82  H   LIG d   1       3.970  -0.443 -13.295  0.00  0.00     0.024 H 
ATOM     83  H   LIG d   1       3.261   0.568 -12.012  0.00  0.00     0.024 H 
ENDBRANCH  27  80
TORSDOF 10
ENDMDL
MODEL 5
REMARK VINA RESULT:      -5.6      4.125      5.614
REMARK  10 active torsions:
REMARK  status: ('A' for Active; 'I' for Inactive)
REMARK    1  A    between atoms: C_1  and  C_2 
REMARK    2  A    between atoms: C_2  and  C_4 
REMARK    3  A    between atoms: C_8  and  C_38 
REMARK    4  A    between atoms: C_11  and  C_35 
REMARK    5  A    between atoms: C_18  and  C_34 
REMARK    6  A    between atoms: C_23  and  C_33 
REMARK    7  A    between atoms: C_30  and  C_31 
REMARK    8  A    between atoms: C_30  and  C_32 
REMARK    9  A    between atoms: C_38  and  O_40 
REMARK   10  A    between atoms: O_40  and  C_41 
ROOT
ATOM      1  C   LIG d   1       5.074  -1.690  -5.368  0.00  0.00    -0.016 C 
ATOM      2  H   LIG d   1       4.157  -1.462  -4.779  0.00  0.00     0.035 H 
ATOM      3  C   LIG d   1       5.436  -0.467  -6.180  0.00  0.00    -0.015 C 
ATOM      4  H   LIG d   1       4.637   0.286  -5.890  0.00  0.00     0.032 H 
ATOM      5  C   LIG d   1       5.104  -0.754  -7.657  0.00  0.00     0.071 C 
ATOM      6  C   LIG d   1       6.345  -1.195  -8.424  0.00  0.00    -0.036 C 
ATOM      7  C   LIG d   1       7.490  -0.195  -8.274  0.00  0.00    -0.046 C 
ATOM      8  C   LIG d   1       7.921  -0.105  -6.803  0.00  0.00    -0.023 C 
ATOM      9  C   LIG d   1       6.704   0.289  -5.981  0.00  0.00    -0.031 C 
ATOM     10  H   LIG d   1       6.448   1.320  -6.370  0.00  0.00     0.031 H 
ATOM     11  C   LIG d   1       7.080   0.546  -4.531  0.00  0.00    -0.049 C 
ATOM     12  C   LIG d   1       8.016   1.752  -4.466  0.00  0.00    -0.049 C 
ATOM     13  C   LIG d   1       8.516   2.164  -5.855  0.00  0.00    -0.029 C 
ATOM     14  H   LIG d   1       7.692   2.632  -6.402  0.00  0.00     0.031 H 
ATOM     15  C   LIG d   1       9.021   0.962  -6.640  0.00  0.00    -0.023 C 
ATOM     16  C   LIG d   1      10.245   0.373  -5.933  0.00  0.00    -0.046 C 
ATOM     17  C   LIG d   1      11.343   1.445  -5.826  0.00  0.00    -0.048 C 
ATOM     18  C   LIG d   1      10.833   2.615  -4.996  0.00  0.00    -0.023 C 
ATOM     19  H   LIG d   1      10.522   2.186  -4.011  0.00  0.00     0.032 H 
ATOM     20  C   LIG d   1       9.586   3.242  -5.604  0.00  0.00    -0.021 C 
ATOM     21  C   LIG d   1       9.010   4.195  -4.526  0.00  0.00    -0.019 C 
ATOM     22  C   LIG d   1      10.042   5.250  -4.238  0.00  0.00    -0.019 C 
ATOM     23  C   LIG d   1       9.640   6.476  -3.852  0.00  0.00    -0.142 C 
ATOM     24  O   LIG d   1      10.551   7.432  -3.591  0.00  0.00    -0.879 OA
ATOM     25  C   LIG d   1      11.405   4.980  -4.363  0.00  0.00     0.164 C 
ATOM     26  O   LIG d   1      12.197   5.886  -4.197  0.00  0.00    -0.292 OA
ATOM     27  C   LIG d   1      11.938   3.613  -4.689  0.00  0.00     0.031 C 
ATOM     28  C   LIG d   1       4.158  -1.989  -7.600  0.00  0.00    -0.036 C 
ATOM     29  C   LIG d   1       4.681  -2.790  -6.389  0.00  0.00    -0.045 C 
ATOM     30  H   LIG d   1       6.657  -2.183  -8.103  0.00  0.00     0.028 H 
ATOM     31  H   LIG d   1       6.090  -1.260  -9.493  0.00  0.00     0.028 H 
ATOM     32  H   LIG d   1       8.312  -0.575  -8.889  0.00  0.00     0.027 H 
ATOM     33  H   LIG d   1       7.141   0.768  -8.633  0.00  0.00     0.027 H 
ATOM     34  H   LIG d   1       6.185   0.751  -3.941  0.00  0.00     0.027 H 
ATOM     35  H   LIG d   1       7.614  -0.301  -4.097  0.00  0.00     0.027 H 
ATOM     36  H   LIG d   1       7.459   2.590  -4.031  0.00  0.00     0.027 H 
ATOM     37  H   LIG d   1       8.863   1.518  -3.824  0.00  0.00     0.027 H 
ATOM     38  H   LIG d   1       9.989   0.045  -4.928  0.00  0.00     0.027 H 
ATOM     39  H   LIG d   1      10.673  -0.442  -6.519  0.00  0.00     0.027 H 
ATOM     40  H   LIG d   1      12.199   0.984  -5.318  0.00  0.00     0.027 H 
ATOM     41  H   LIG d   1      11.654   1.750  -6.815  0.00  0.00     0.027 H 
ATOM     42  H   LIG d   1       8.106   4.654  -4.903  0.00  0.00     0.032 H 
ATOM     43  H   LIG d   1       8.824   3.637  -3.614  0.00  0.00     0.032 H 
ATOM     44  H   LIG d   1       8.586   6.692  -3.751  0.00  0.00     0.045 H 
ATOM     45  H   LIG d   1       3.126  -1.678  -7.440  0.00  0.00     0.028 H 
ATOM     46  H   LIG d   1       4.241  -2.577  -8.514  0.00  0.00     0.028 H 
ATOM     47  H   LIG d   1       5.558  -3.370  -6.666  0.00  0.00     0.027 H 
ATOM     48  H   LIG d   1       3.900  -3.421  -5.979  0.00  0.00     0.027 H 
ENDROOT
BRANCH   1  49
ATOM     49  C   LIG d   1       6.102  -2.231  -4.431  0.00  0.00    -0.076 C 
ATOM     50  C   LIG d   1       6.859  -3.234  -4.799  0.00  0.00    -0.099 C 
ATOM     51  H   LIG d   1       6.811  -3.604  -5.812  0.00  0.00     0.053 H 
ATOM     52  H   LIG d   1       7.531  -3.693  -4.088  0.00  0.00     0.053 H 
BRANCH  49  53
ATOM     53  C   LIG d   1       6.266  -1.623  -3.062  0.00  0.00    -0.044 C 
ATOM     54  H   LIG d   1       5.479  -1.992  -2.404  0.00  0.00     0.027 H 
ATOM     55  H   LIG d   1       7.239  -1.901  -2.656  0.00  0.00     0.027 H 
ATOM     56  H   LIG d   1       6.199  -0.538  -3.135  0.00  0.00     0.027 H 
ENDBRANCH  49  53
ENDBRANCH   1  49
BRANCH   5  57
ATOM     57  C   LIG d   1       4.424   0.427  -8.316  0.00  0.00     0.313 C 
ATOM     58  O   LIG d   1       3.774   1.198  -7.649  0.00  0.00    -0.250 OA
BRANCH  57  59
ATOM     59  O   LIG d   1       4.543   0.617  -9.638  0.00  0.00    -0.468 OA
BRANCH  59  60
ATOM     60  C   LIG d   1       3.920   1.782 -10.185  0.00  0.00     0.082 C 
ATOM     61  H   LIG d   1       4.141   1.846 -11.251  0.00  0.00     0.066 H 
ATOM     62  H   LIG d   1       2.842   1.718 -10.041  0.00  0.00     0.066 H 
ATOM     63  H   LIG d   1       4.303   2.668  -9.680  0.00  0.00     0.066 H 
ENDBRANCH  59  60
ENDBRANCH  57  59
ENDBRANCH   5  57
BRANCH   8  64
ATOM     64  C   LIG d   1       8.463  -1.472  -6.382  0.00  0.00    -0.059 C 
ATOM     65  H   LIG d   1       9.399  -1.341  -5.841  0.00  0.00     0.024 H 
ATOM     66  H   LIG d   1       7.737  -1.967  -5.737  0.00  0.00     0.024 H 
ATOM     67  H   LIG d   1       8.637  -2.082  -7.268  0.00  0.00     0.024 H 
ENDBRANCH   8  64
BRANCH  15  68
ATOM     68  C   LIG d   1       9.464   1.383  -8.053  0.00  0.00    -0.059 C 
ATOM     69  H   LIG d   1       9.473   2.471  -8.121  0.00  0.00     0.024 H 
ATOM     70  H   LIG d   1      10.465   0.999  -8.251  0.00  0.00     0.024 H 
ATOM     71  H   LIG d   1       8.767   0.980  -8.788  0.00  0.00     0.024 H 
ENDBRANCH  15  68
BRANCH  20  72
ATOM     72  C   LIG d   1       9.865   4.087  -6.841  0.00  0.00    -0.059 C 
ATOM     73  H   LIG d   1      10.522   4.914  -6.575  0.00  0.00     0.024 H 
ATOM     74  H   LIG d   1      10.343   3.471  -7.602  0.00  0.00     0.024 H 
ATOM     75  H   LIG d   1       8.925   4.481  -7.231  0.00  0.00     0.024 H 
ENDBRANCH  20  72
BRANCH  27  76
ATOM     76  C   LIG d   1      12.698   3.119  -3.439  0.00  0.00    -0.052 C 
ATOM     77  H   LIG d   1      13.213   2.188  -3.672  0.00  0.00     0.024 H 
ATOM     78  H   LIG d   1      13.425   3.872  -3.135  0.00  0.00     0.024 H 
ATOM     79  H   LIG d   1      11.991   2.950  -2.628  0.00  0.00     0.024 H 
ENDBRANCH  27  76
BRANCH  27  80
ATOM     80  C   LIG d   1      12.946   3.729  -5.831  0.00  0.00    -0.052 C 
ATOM     81  H   LIG d   1      12.414   3.780  -6.782  0.00  0.00     0.024 H 
ATOM     82  H   LIG d   1      13.542   4.632  -5.700  0.00  0.00     0.024 H 
ATOM     83  H   LIG d   1      13.600   2.856  -5.829  0.00  0.00     0.024 H 
ENDBRANCH  27  80
TORSDOF 10
ENDMDL
MODEL 6
REMARK VINA RESULT:      -5.5     10.039     12.620
REMARK  10 active torsions:
REMARK  status: ('A' for Active; 'I' for Inactive)
REMARK    1  A    between atoms: C_1  and  C_2 
REMARK    2  A    between atoms: C_2  and  C_4 
REMARK    3  A    between atoms: C_8  and  C_38 
REMARK    4  A    between atoms: C_11  and  C_35 
REMARK    5  A    between atoms: C_18  and  C_34 
REMARK    6  A    between atoms: C_23  and  C_33 
REMARK    7  A    between atoms: C_30  and  C_31 
REMARK    8  A    between atoms: C_30  and  C_32 
REMARK    9  A    between atoms: C_38  and  O_40 
REMARK   10  A    between atoms: O_40  and  C_41 
ROOT
ATOM      1  C   LIG d   1      12.929   6.693  -1.077  0.00  0.00    -0.016 C 
ATOM      2  H   LIG d   1      13.449   7.385  -0.377  0.00  0.00     0.035 H 
ATOM      3  C   LIG d   1      11.801   7.447  -1.744  0.00  0.00    -0.015 C 
ATOM      4  H   LIG d   1      11.885   8.490  -1.302  0.00  0.00     0.032 H 
ATOM      5  C   LIG d   1      10.470   6.942  -1.156  0.00  0.00     0.071 C 
ATOM      6  C   LIG d   1       9.831   5.893  -2.059  0.00  0.00    -0.036 C 
ATOM      7  C   LIG d   1       9.673   6.401  -3.492  0.00  0.00    -0.046 C 
ATOM      8  C   LIG d   1      11.051   6.692  -4.102  0.00  0.00    -0.023 C 
ATOM      9  C   LIG d   1      11.755   7.703  -3.211  0.00  0.00    -0.031 C 
ATOM     10  H   LIG d   1      11.100   8.621  -3.288  0.00  0.00     0.031 H 
ATOM     11  C   LIG d   1      13.068   8.158  -3.827  0.00  0.00    -0.049 C 
ATOM     12  C   LIG d   1      12.776   8.905  -5.127  0.00  0.00    -0.049 C 
ATOM     13  C   LIG d   1      11.317   8.738  -5.567  0.00  0.00    -0.029 C 
ATOM     14  H   LIG d   1      10.677   9.323  -4.900  0.00  0.00     0.031 H 
ATOM     15  C   LIG d   1      10.888   7.278  -5.519  0.00  0.00    -0.023 C 
ATOM     16  C   LIG d   1      11.707   6.476  -6.533  0.00  0.00    -0.046 C 
ATOM     17  C   LIG d   1      11.488   7.053  -7.942  0.00  0.00    -0.048 C 
ATOM     18  C   LIG d   1      11.969   8.497  -7.981  0.00  0.00    -0.023 C 
ATOM     19  H   LIG d   1      13.040   8.477  -7.661  0.00  0.00     0.032 H 
ATOM     20  C   LIG d   1      11.235   9.367  -6.970  0.00  0.00    -0.021 C 
ATOM     21  C   LIG d   1      12.016  10.704  -6.901  0.00  0.00    -0.019 C 
ATOM     22  C   LIG d   1      11.977  11.337  -8.264  0.00  0.00    -0.019 C 
ATOM     23  C   LIG d   1      12.015  12.679  -8.368  0.00  0.00    -0.142 C 
ATOM     24  O   LIG d   1      11.980  13.261  -9.582  0.00  0.00    -0.879 OA
ATOM     25  C   LIG d   1      11.905  10.558  -9.419  0.00  0.00     0.164 C 
ATOM     26  O   LIG d   1      11.796  11.115 -10.493  0.00  0.00    -0.292 OA
ATOM     27  C   LIG d   1      11.964   9.056  -9.395  0.00  0.00     0.031 C 
ATOM     28  C   LIG d   1      10.887   6.203   0.149  0.00  0.00    -0.036 C 
ATOM     29  C   LIG d   1      12.263   5.599  -0.202  0.00  0.00    -0.045 C 
ATOM     30  H   LIG d   1      10.409   4.975  -2.041  0.00  0.00     0.028 H 
ATOM     31  H   LIG d   1       8.828   5.661  -1.671  0.00  0.00     0.028 H 
ATOM     32  H   LIG d   1       9.172   5.600  -4.047  0.00  0.00     0.027 H 
ATOM     33  H   LIG d   1       9.066   7.301  -3.463  0.00  0.00     0.027 H 
ATOM     34  H   LIG d   1      13.596   8.822  -3.140  0.00  0.00     0.027 H 
ATOM     35  H   LIG d   1      13.710   7.312  -4.077  0.00  0.00     0.027 H 
ATOM     36  H   LIG d   1      12.971   9.970  -4.956  0.00  0.00     0.027 H 
ATOM     37  H   LIG d   1      13.440   8.543  -5.909  0.00  0.00     0.027 H 
ATOM     38  H   LIG d   1      12.769   6.531  -6.303  0.00  0.00     0.027 H 
ATOM     39  H   LIG d   1      11.363   5.441  -6.574  0.00  0.00     0.027 H 
ATOM     40  H   LIG d   1      12.087   6.451  -8.637  0.00  0.00     0.027 H 
ATOM     41  H   LIG d   1      10.448   6.961  -8.218  0.00  0.00     0.027 H 
ATOM     42  H   LIG d   1      11.545  11.355  -6.177  0.00  0.00     0.032 H 
ATOM     43  H   LIG d   1      13.051  10.505  -6.643  0.00  0.00     0.032 H 
ATOM     44  H   LIG d   1      12.072  13.288  -7.478  0.00  0.00     0.045 H 
ATOM     45  H   LIG d   1      10.975   6.904   0.979  0.00  0.00     0.028 H 
ATOM     46  H   LIG d   1      10.172   5.417   0.390  0.00  0.00     0.028 H 
ATOM     47  H   LIG d   1      12.142   4.685  -0.779  0.00  0.00     0.027 H 
ATOM     48  H   LIG d   1      12.848   5.428   0.695  0.00  0.00     0.027 H 
ENDROOT
BRANCH   1  49
ATOM     49  C   LIG d   1      13.959   6.064  -1.955  0.00  0.00    -0.076 C 
ATOM     50  C   LIG d   1      13.817   4.822  -2.344  0.00  0.00    -0.099 C 
ATOM     51  H   LIG d   1      12.908   4.284  -2.116  0.00  0.00     0.053 H 
ATOM     52  H   LIG d   1      14.609   4.334  -2.893  0.00  0.00     0.053 H 
BRANCH  49  53
ATOM     53  C   LIG d   1      15.162   6.859  -2.392  0.00  0.00    -0.044 C 
ATOM     54  H   LIG d   1      14.873   7.899  -2.547  0.00  0.00     0.027 H 
ATOM     55  H   LIG d   1      15.931   6.807  -1.622  0.00  0.00     0.027 H 
ATOM     56  H   LIG d   1      15.551   6.448  -3.323  0.00  0.00     0.027 H 
ENDBRANCH  49  53
ENDBRANCH   1  49
BRANCH   5  57
ATOM     57  C   LIG d   1       9.521   8.083  -0.859  0.00  0.00     0.313 C 
ATOM     58  O   LIG d   1       8.330   7.884  -0.818  0.00  0.00    -0.250 OA
BRANCH  57  59
ATOM     59  O   LIG d   1      10.004   9.316  -0.639  0.00  0.00    -0.468 OA
BRANCH  59  60
ATOM     60  C   LIG d   1       9.461  10.376  -1.431  0.00  0.00     0.082 C 
ATOM     61  H   LIG d   1       8.378  10.400  -1.311  0.00  0.00     0.066 H 
ATOM     62  H   LIG d   1       9.885  11.325  -1.105  0.00  0.00     0.066 H 
ATOM     63  H   LIG d   1       9.708  10.207  -2.479  0.00  0.00     0.066 H 
ENDBRANCH  59  60
ENDBRANCH  57  59
ENDBRANCH   5  57
BRANCH   8  64
ATOM     64  C   LIG d   1      11.826   5.375  -4.177  0.00  0.00    -0.059 C 
ATOM     65  H   LIG d   1      11.836   5.016  -5.206  0.00  0.00     0.024 H 
ATOM     66  H   LIG d   1      12.850   5.537  -3.839  0.00  0.00     0.024 H 
ATOM     67  H   LIG d   1      11.346   4.634  -3.537  0.00  0.00     0.024 H 
ENDBRANCH   8  64
BRANCH  15  68
ATOM     68  C   LIG d   1       9.406   7.134  -5.906  0.00  0.00    -0.059 C 
ATOM     69  H   LIG d   1       8.798   7.078  -5.003  0.00  0.00     0.024 H 
ATOM     70  H   LIG d   1       9.098   7.996  -6.497  0.00  0.00     0.024 H 
ATOM     71  H   LIG d   1       9.269   6.224  -6.491  0.00  0.00     0.024 H 
ENDBRANCH  15  68
BRANCH  20  72
ATOM     72  C   LIG d   1       9.806   9.707  -7.375  0.00  0.00    -0.059 C 
ATOM     73  H   LIG d   1       9.132   8.934  -7.008  0.00  0.00     0.024 H 
ATOM     74  H   LIG d   1       9.527  10.669  -6.946  0.00  0.00     0.024 H 
ATOM     75  H   LIG d   1       9.740   9.761  -8.462  0.00  0.00     0.024 H 
ENDBRANCH  20  72
BRANCH  27  76
ATOM     76  C   LIG d   1      13.286   8.648 -10.078  0.00  0.00    -0.052 C 
ATOM     77  H   LIG d   1      13.939   8.172  -9.348  0.00  0.00     0.024 H 
ATOM     78  H   LIG d   1      13.075   7.950 -10.888  0.00  0.00     0.024 H 
ATOM     79  H   LIG d   1      13.775   9.534 -10.481  0.00  0.00     0.024 H 
ENDBRANCH  27  76
BRANCH  27  80
ATOM     80  C   LIG d   1      10.814   8.498 -10.232  0.00  0.00    -0.052 C 
ATOM     81  H   LIG d   1      10.490   9.249 -10.953  0.00  0.00     0.024 H 
ATOM     82  H   LIG d   1      11.149   7.607 -10.762  0.00  0.00     0.024 H 
ATOM     83  H   LIG d   1       9.980   8.240  -9.578  0.00  0.00     0.024 H 
ENDBRANCH  27  80
TORSDOF 10
ENDMDL
MODEL 7
REMARK VINA RESULT:      -5.4      8.214     10.210
REMARK  10 active torsions:
REMARK  status: ('A' for Active; 'I' for Inactive)
REMARK    1  A    between atoms: C_1  and  C_2 
REMARK    2  A    between atoms: C_2  and  C_4 
REMARK    3  A    between atoms: C_8  and  C_38 
REMARK    4  A    between atoms: C_11  and  C_35 
REMARK    5  A    between atoms: C_18  and  C_34 
REMARK    6  A    between atoms: C_23  and  C_33 
REMARK    7  A    between atoms: C_30  and  C_31 
REMARK    8  A    between atoms: C_30  and  C_32 
REMARK    9  A    between atoms: C_38  and  O_40 
REMARK   10  A    between atoms: O_40  and  C_41 
ROOT
ATOM      1  C   LIG d   1       9.887   9.961  -4.404  0.00  0.00    -0.016 C 
ATOM      2  H   LIG d   1       8.856  10.380  -4.368  0.00  0.00     0.035 H 
ATOM      3  C   LIG d   1       9.983   8.845  -3.389  0.00  0.00    -0.015 C 
ATOM      4  H   LIG d   1       8.941   8.808  -2.939  0.00  0.00     0.032 H 
ATOM      5  C   LIG d   1      10.839   9.341  -2.207  0.00  0.00     0.071 C 
ATOM      6  C   LIG d   1      12.283   8.871  -2.337  0.00  0.00    -0.036 C 
ATOM      7  C   LIG d   1      12.371   7.356  -2.517  0.00  0.00    -0.046 C 
ATOM      8  C   LIG d   1      11.679   6.940  -3.823  0.00  0.00    -0.023 C 
ATOM      9  C   LIG d   1      10.240   7.427  -3.767  0.00  0.00    -0.031 C 
ATOM     10  H   LIG d   1       9.801   6.850  -2.900  0.00  0.00     0.031 H 
ATOM     11  C   LIG d   1       9.443   6.924  -4.960  0.00  0.00    -0.049 C 
ATOM     12  C   LIG d   1       9.354   5.401  -4.893  0.00  0.00    -0.049 C 
ATOM     13  C   LIG d   1      10.301   4.818  -3.838  0.00  0.00    -0.029 C 
ATOM     14  H   LIG d   1       9.904   5.045  -2.843  0.00  0.00     0.031 H 
ATOM     15  C   LIG d   1      11.700   5.405  -3.965  0.00  0.00    -0.023 C 
ATOM     16  C   LIG d   1      12.300   4.995  -5.312  0.00  0.00    -0.046 C 
ATOM     17  C   LIG d   1      12.351   3.460  -5.406  0.00  0.00    -0.048 C 
ATOM     18  C   LIG d   1      10.939   2.898  -5.326  0.00  0.00    -0.023 C 
ATOM     19  H   LIG d   1      10.363   3.383  -6.153  0.00  0.00     0.032 H 
ATOM     20  C   LIG d   1      10.244   3.292  -4.030  0.00  0.00    -0.021 C 
ATOM     21  C   LIG d   1       8.749   2.925  -4.211  0.00  0.00    -0.019 C 
ATOM     22  C   LIG d   1       8.656   1.440  -4.426  0.00  0.00    -0.019 C 
ATOM     23  C   LIG d   1       7.553   0.783  -4.020  0.00  0.00    -0.142 C 
ATOM     24  O   LIG d   1       7.456  -0.547  -4.205  0.00  0.00    -0.879 OA
ATOM     25  C   LIG d   1       9.691   0.734  -5.040  0.00  0.00     0.164 C 
ATOM     26  O   LIG d   1       9.606  -0.475  -5.120  0.00  0.00    -0.292 OA
ATOM     27  C   LIG d   1      10.908   1.405  -5.614  0.00  0.00     0.031 C 
ATOM     28  C   LIG d   1      10.862  10.888  -2.379  0.00  0.00    -0.036 C 
ATOM     29  C   LIG d   1      10.838  11.082  -3.910  0.00  0.00    -0.045 C 
ATOM     30  H   LIG d   1      12.775   9.382  -3.157  0.00  0.00     0.028 H 
ATOM     31  H   LIG d   1      12.820   9.133  -1.414  0.00  0.00     0.028 H 
ATOM     32  H   LIG d   1      13.439   7.114  -2.558  0.00  0.00     0.027 H 
ATOM     33  H   LIG d   1      11.893   6.890  -1.661  0.00  0.00     0.027 H 
ATOM     34  H   LIG d   1       8.437   7.346  -4.945  0.00  0.00     0.027 H 
ATOM     35  H   LIG d   1       9.929   7.178  -5.904  0.00  0.00     0.027 H 
ATOM     36  H   LIG d   1       8.325   5.134  -4.626  0.00  0.00     0.027 H 
ATOM     37  H   LIG d   1       9.588   4.981  -5.869  0.00  0.00     0.027 H 
ATOM     38  H   LIG d   1      11.694   5.367  -6.135  0.00  0.00     0.027 H 
ATOM     39  H   LIG d   1      13.333   5.337  -5.393  0.00  0.00     0.027 H 
ATOM     40  H   LIG d   1      12.789   3.209  -6.380  0.00  0.00     0.027 H 
ATOM     41  H   LIG d   1      12.993   3.067  -4.631  0.00  0.00     0.027 H 
ATOM     42  H   LIG d   1       8.203   3.205  -3.320  0.00  0.00     0.032 H 
ATOM     43  H   LIG d   1       8.358   3.426  -5.091  0.00  0.00     0.032 H 
ATOM     44  H   LIG d   1       6.747   1.323  -3.546  0.00  0.00     0.045 H 
ATOM     45  H   LIG d   1       9.984  11.341  -1.919  0.00  0.00     0.028 H 
ATOM     46  H   LIG d   1      11.773  11.307  -1.953  0.00  0.00     0.028 H 
ATOM     47  H   LIG d   1      11.831  10.938  -4.328  0.00  0.00     0.027 H 
ATOM     48  H   LIG d   1      10.436  12.056  -4.168  0.00  0.00     0.027 H 
ENDROOT
BRANCH   1  49
ATOM     49  C   LIG d   1      10.204   9.636  -5.826  0.00  0.00    -0.076 C 
ATOM     50  C   LIG d   1      11.375   9.948  -6.323  0.00  0.00    -0.099 C 
ATOM     51  H   LIG d   1      12.146  10.346  -5.681  0.00  0.00     0.053 H 
ATOM     52  H   LIG d   1      11.570   9.807  -7.376  0.00  0.00     0.053 H 
BRANCH  49  53
ATOM     53  C   LIG d   1       9.176   8.951  -6.689  0.00  0.00    -0.044 C 
ATOM     54  H   LIG d   1       8.473   8.409  -6.055  0.00  0.00     0.027 H 
ATOM     55  H   LIG d   1       8.637   9.696  -7.273  0.00  0.00     0.027 H 
ATOM     56  H   LIG d   1       9.672   8.252  -7.361  0.00  0.00     0.027 H 
ENDBRANCH  49  53
ENDBRANCH   1  49
BRANCH   5  57
ATOM     57  C   LIG d   1      10.235   8.947  -0.877  0.00  0.00     0.313 C 
ATOM     58  O   LIG d   1       9.093   8.554  -0.825  0.00  0.00    -0.250 OA
BRANCH  57  59
ATOM     59  O   LIG d   1      10.967   9.033   0.244  0.00  0.00    -0.468 OA
BRANCH  59  60
ATOM     60  C   LIG d   1      11.187   7.821   0.970  0.00  0.00     0.082 C 
ATOM     61  H   LIG d   1      10.689   6.997   0.459  0.00  0.00     0.066 H 
ATOM     62  H   LIG d   1      12.257   7.621   1.026  0.00  0.00     0.066 H 
ATOM     63  H   LIG d   1      10.782   7.923   1.977  0.00  0.00     0.066 H 
ENDBRANCH  59  60
ENDBRANCH  57  59
ENDBRANCH   5  57
BRANCH   8  64
ATOM     64  C   LIG d   1      12.442   7.574  -4.988  0.00  0.00    -0.059 C 
ATOM     65  H   LIG d   1      13.372   7.031  -5.153  0.00  0.00     0.024 H 
ATOM     66  H   LIG d   1      11.829   7.529  -5.889  0.00  0.00     0.024 H 
ATOM     67  H   LIG d   1      12.664   8.615  -4.753  0.00  0.00     0.024 H 
ENDBRANCH   8  64
BRANCH  15  68
ATOM     68  C   LIG d   1      12.622   4.855  -2.862  0.00  0.00    -0.059 C 
ATOM     69  H   LIG d   1      12.017   4.416  -2.068  0.00  0.00     0.024 H 
ATOM     70  H   LIG d   1      13.278   4.092  -3.282  0.00  0.00     0.024 H 
ATOM     71  H   LIG d   1      13.224   5.667  -2.453  0.00  0.00     0.024 H 
ENDBRANCH  15  68
BRANCH  20  72
ATOM     72  C   LIG d   1      10.743   2.530  -2.809  0.00  0.00    -0.059 C 
ATOM     73  H   LIG d   1      11.770   2.206  -2.979  0.00  0.00     0.024 H 
ATOM     74  H   LIG d   1      10.706   3.180  -1.935  0.00  0.00     0.024 H 
ATOM     75  H   LIG d   1      10.110   1.659  -2.641  0.00  0.00     0.024 H 
ENDBRANCH  20  72
BRANCH  27  76
ATOM     76  C   LIG d   1      10.847   1.212  -7.144  0.00  0.00    -0.052 C 
ATOM     77  H   LIG d   1      11.197   2.117  -7.638  0.00  0.00     0.024 H 
ATOM     78  H   LIG d   1      11.481   0.373  -7.429  0.00  0.00     0.024 H 
ATOM     79  H   LIG d   1       9.820   1.008  -7.444  0.00  0.00     0.024 H 
ENDBRANCH  27  76
BRANCH  27  80
ATOM     80  C   LIG d   1      12.159   0.693  -5.103  0.00  0.00    -0.052 C 
ATOM     81  H   LIG d   1      12.285  -0.249  -5.636  0.00  0.00     0.024 H 
ATOM     82  H   LIG d   1      13.031   1.325  -5.271  0.00  0.00     0.024 H 
ATOM     83  H   LIG d   1      12.054   0.494  -4.036  0.00  0.00     0.024 H 
ENDBRANCH  27  80
TORSDOF 10
ENDMDL
MODEL 8
REMARK VINA RESULT:      -5.4      2.881      8.266
REMARK  10 active torsions:
REMARK  status: ('A' for Active; 'I' for Inactive)
REMARK    1  A    between atoms: C_1  and  C_2 
REMARK    2  A    between atoms: C_2  and  C_4 
REMARK    3  A    between atoms: C_8  and  C_38 
REMARK    4  A    between atoms: C_11  and  C_35 
REMARK    5  A    between atoms: C_18  and  C_34 
REMARK    6  A    between atoms: C_23  and  C_33 
REMARK    7  A    between atoms: C_30  and  C_31 
REMARK    8  A    between atoms: C_30  and  C_32 
REMARK    9  A    between atoms: C_38  and  O_40 
REMARK   10  A    between atoms: O_40  and  C_41 
ROOT
ATOM      1  C   LIG d   1      11.484  -6.654  -3.350  0.00  0.00    -0.016 C 
ATOM      2  H   LIG d   1      11.891  -6.636  -2.314  0.00  0.00     0.035 H 
ATOM      3  C   LIG d   1       9.975  -6.676  -3.270  0.00  0.00    -0.015 C 
ATOM      4  H   LIG d   1       9.771  -6.649  -2.154  0.00  0.00     0.032 H 
ATOM      5  C   LIG d   1       9.492  -8.084  -3.665  0.00  0.00     0.071 C 
ATOM      6  C   LIG d   1       9.062  -8.130  -5.127  0.00  0.00    -0.036 C 
ATOM      7  C   LIG d   1       8.026  -7.054  -5.447  0.00  0.00    -0.046 C 
ATOM      8  C   LIG d   1       8.632  -5.659  -5.235  0.00  0.00    -0.023 C 
ATOM      9  C   LIG d   1       9.122  -5.574  -3.798  0.00  0.00    -0.031 C 
ATOM     10  H   LIG d   1       8.173  -5.676  -3.191  0.00  0.00     0.031 H 
ATOM     11  C   LIG d   1       9.602  -4.171  -3.463  0.00  0.00    -0.049 C 
ATOM     12  C   LIG d   1       8.418  -3.208  -3.542  0.00  0.00    -0.049 C 
ATOM     13  C   LIG d   1       7.192  -3.860  -4.191  0.00  0.00    -0.029 C 
ATOM     14  H   LIG d   1       6.764  -4.583  -3.489  0.00  0.00     0.031 H 
ATOM     15  C   LIG d   1       7.564  -4.576  -5.481  0.00  0.00    -0.023 C 
ATOM     16  C   LIG d   1       8.060  -3.550  -6.504  0.00  0.00    -0.046 C 
ATOM     17  C   LIG d   1       6.957  -2.510  -6.765  0.00  0.00    -0.048 C 
ATOM     18  C   LIG d   1       6.636  -1.773  -5.473  0.00  0.00    -0.023 C 
ATOM     19  H   LIG d   1       7.600  -1.331  -5.118  0.00  0.00     0.032 H 
ATOM     20  C   LIG d   1       6.171  -2.724  -4.378  0.00  0.00    -0.021 C 
ATOM     21  C   LIG d   1       6.176  -1.904  -3.062  0.00  0.00    -0.019 C 
ATOM     22  C   LIG d   1       5.204  -0.768  -3.218  0.00  0.00    -0.019 C 
ATOM     23  C   LIG d   1       4.566  -0.292  -2.131  0.00  0.00    -0.142 C 
ATOM     24  O   LIG d   1       3.693   0.725  -2.255  0.00  0.00    -0.879 OA
ATOM     25  C   LIG d   1       4.955  -0.197  -4.467  0.00  0.00     0.164 C 
ATOM     26  O   LIG d   1       4.104   0.665  -4.556  0.00  0.00    -0.292 OA
ATOM     27  C   LIG d   1       5.699  -0.599  -5.709  0.00  0.00     0.031 C 
ATOM     28  C   LIG d   1      10.767  -8.969  -3.552  0.00  0.00    -0.036 C 
ATOM     29  C   LIG d   1      11.907  -8.014  -3.967  0.00  0.00    -0.045 C 
ATOM     30  H   LIG d   1       9.925  -8.035  -5.777  0.00  0.00     0.028 H 
ATOM     31  H   LIG d   1       8.604  -9.110  -5.325  0.00  0.00     0.028 H 
ATOM     32  H   LIG d   1       7.752  -7.194  -6.498  0.00  0.00     0.027 H 
ATOM     33  H   LIG d   1       7.173  -7.207  -4.793  0.00  0.00     0.027 H 
ATOM     34  H   LIG d   1      10.021  -4.147  -2.456  0.00  0.00     0.027 H 
ATOM     35  H   LIG d   1      10.351  -3.821  -4.176  0.00  0.00     0.027 H 
ATOM     36  H   LIG d   1       8.157  -2.909  -2.520  0.00  0.00     0.027 H 
ATOM     37  H   LIG d   1       8.708  -2.325  -4.107  0.00  0.00     0.027 H 
ATOM     38  H   LIG d   1       8.940  -3.030  -6.133  0.00  0.00     0.027 H 
ATOM     39  H   LIG d   1       8.258  -4.029  -7.465  0.00  0.00     0.027 H 
ATOM     40  H   LIG d   1       7.350  -1.798  -7.502  0.00  0.00     0.027 H 
ATOM     41  H   LIG d   1       6.088  -2.995  -7.186  0.00  0.00     0.027 H 
ATOM     42  H   LIG d   1       5.870  -2.543  -2.244  0.00  0.00     0.032 H 
ATOM     43  H   LIG d   1       7.165  -1.491  -2.897  0.00  0.00     0.032 H 
ATOM     44  H   LIG d   1       4.756  -0.728  -1.161  0.00  0.00     0.045 H 
ATOM     45  H   LIG d   1      10.908  -9.316  -2.529  0.00  0.00     0.028 H 
ATOM     46  H   LIG d   1      10.708  -9.816  -4.235  0.00  0.00     0.028 H 
ATOM     47  H   LIG d   1      11.960  -7.931  -5.049  0.00  0.00     0.027 H 
ATOM     48  H   LIG d   1      12.852  -8.339  -3.547  0.00  0.00     0.027 H 
ENDROOT
BRANCH   1  49
ATOM     49  C   LIG d   1      12.124  -5.545  -4.117  0.00  0.00    -0.076 C 
ATOM     50  C   LIG d   1      12.430  -5.714  -5.379  0.00  0.00    -0.099 C 
ATOM     51  H   LIG d   1      12.128  -6.614  -5.893  0.00  0.00     0.053 H 
ATOM     52  H   LIG d   1      12.984  -4.951  -5.907  0.00  0.00     0.053 H 
BRANCH  49  53
ATOM     53  C   LIG d   1      12.420  -4.233  -3.437  0.00  0.00    -0.044 C 
ATOM     54  H   LIG d   1      13.466  -4.212  -3.129  0.00  0.00     0.027 H 
ATOM     55  H   LIG d   1      12.229  -3.414  -4.129  0.00  0.00     0.027 H 
ATOM     56  H   LIG d   1      11.782  -4.125  -2.561  0.00  0.00     0.027 H 
ENDBRANCH  49  53
ENDBRANCH   1  49
BRANCH   5  57
ATOM     57  C   LIG d   1       8.400  -8.578  -2.740  0.00  0.00     0.313 C 
ATOM     58  O   LIG d   1       8.439  -8.311  -1.562  0.00  0.00    -0.250 OA
BRANCH  57  59
ATOM     59  O   LIG d   1       7.388  -9.312  -3.230  0.00  0.00    -0.468 OA
BRANCH  59  60
ATOM     60  C   LIG d   1       6.702 -10.166  -2.310  0.00  0.00     0.082 C 
ATOM     61  H   LIG d   1       5.642  -9.912  -2.301  0.00  0.00     0.066 H 
ATOM     62  H   LIG d   1       6.824 -11.204  -2.619  0.00  0.00     0.066 H 
ATOM     63  H   LIG d   1       7.118 -10.031  -1.312  0.00  0.00     0.066 H 
ENDBRANCH  59  60
ENDBRANCH  57  59
ENDBRANCH   5  57
BRANCH   8  64
ATOM     64  C   LIG d   1       9.781  -5.484  -6.230  0.00  0.00    -0.059 C 
ATOM     65  H   LIG d   1       9.492  -5.897  -7.196  0.00  0.00     0.024 H 
ATOM     66  H   LIG d   1      10.006  -4.423  -6.341  0.00  0.00     0.024 H 
ATOM     67  H   LIG d   1      10.664  -6.006  -5.860  0.00  0.00     0.024 H 
ENDBRANCH   8  64
BRANCH  15  68
ATOM     68  C   LIG d   1       6.334  -5.275  -6.089  0.00  0.00    -0.059 C 
ATOM     69  H   LIG d   1       6.655  -6.160  -6.639  0.00  0.00     0.024 H 
ATOM     70  H   LIG d   1       5.653  -5.571  -5.292  0.00  0.00     0.024 H 
ATOM     71  H   LIG d   1       5.825  -4.590  -6.767  0.00  0.00     0.024 H 
ENDBRANCH  15  68
BRANCH  20  72
ATOM     72  C   LIG d   1       4.752  -3.240  -4.575  0.00  0.00    -0.059 C 
ATOM     73  H   LIG d   1       4.612  -4.150  -3.992  0.00  0.00     0.024 H 
ATOM     74  H   LIG d   1       4.041  -2.483  -4.244  0.00  0.00     0.024 H 
ATOM     75  H   LIG d   1       4.588  -3.456  -5.631  0.00  0.00     0.024 H 
ENDBRANCH  20  72
BRANCH  27  76
ATOM     76  C   LIG d   1       6.550   0.616  -6.135  0.00  0.00    -0.052 C 
ATOM     77  H   LIG d   1       7.605   0.345  -6.119  0.00  0.00     0.024 H 
ATOM     78  H   LIG d   1       6.268   0.921  -7.143  0.00  0.00     0.024 H 
ATOM     79  H   LIG d   1       6.376   1.441  -5.445  0.00  0.00     0.024 H 
ENDBRANCH  27  76
BRANCH  27  80
ATOM     80  C   LIG d   1       4.694  -0.879  -6.825  0.00  0.00    -0.052 C 
ATOM     81  H   LIG d   1       4.593   0.006  -7.454  0.00  0.00     0.024 H 
ATOM     82  H   LIG d   1       5.045  -1.716  -7.429  0.00  0.00     0.024 H 
ATOM     83  H   LIG d   1       3.725  -1.126  -6.389  0.00  0.00     0.024 H 
ENDBRANCH  27  80
TORSDOF 10
ENDMDL
MODEL 9
REMARK VINA RESULT:      -5.3      9.526     11.934
REMARK  10 active torsions:
REMARK  status: ('A' for Active; 'I' for Inactive)
REMARK    1  A    between atoms: C_1  and  C_2 
REMARK    2  A    between atoms: C_2  and  C_4 
REMARK    3  A    between atoms: C_8  and  C_38 
REMARK    4  A    between atoms: C_11  and  C_35 
REMARK    5  A    between atoms: C_18  and  C_34 
REMARK    6  A    between atoms: C_23  and  C_33 
REMARK    7  A    between atoms: C_30  and  C_31 
REMARK    8  A    between atoms: C_30  and  C_32 
REMARK    9  A    between atoms: C_38  and  O_40 
REMARK   10  A    between atoms: O_40  and  C_41 
ROOT
ATOM      1  C   LIG d   1      12.921   7.876  -0.791  0.00  0.00    -0.016 C 
ATOM      2  H   LIG d   1      13.584   8.734  -0.537  0.00  0.00     0.035 H 
ATOM      3  C   LIG d   1      11.768   8.393  -1.621  0.00  0.00    -0.015 C 
ATOM      4  H   LIG d   1      11.989   9.503  -1.714  0.00  0.00     0.032 H 
ATOM      5  C   LIG d   1      10.500   8.378  -0.746  0.00  0.00     0.071 C 
ATOM      6  C   LIG d   1       9.666   7.129  -1.007  0.00  0.00    -0.036 C 
ATOM      7  C   LIG d   1       9.345   6.962  -2.491  0.00  0.00    -0.046 C 
ATOM      8  C   LIG d   1      10.640   6.772  -3.292  0.00  0.00    -0.023 C 
ATOM      9  C   LIG d   1      11.534   7.973  -3.031  0.00  0.00    -0.031 C 
ATOM     10  H   LIG d   1      10.943   8.838  -3.458  0.00  0.00     0.031 H 
ATOM     11  C   LIG d   1      12.777   7.935  -3.906  0.00  0.00    -0.049 C 
ATOM     12  C   LIG d   1      12.359   8.056  -5.370  0.00  0.00    -0.049 C 
ATOM     13  C   LIG d   1      10.844   7.900  -5.548  0.00  0.00    -0.029 C 
ATOM     14  H   LIG d   1      10.350   8.798  -5.165  0.00  0.00     0.031 H 
ATOM     15  C   LIG d   1      10.322   6.683  -4.798  0.00  0.00    -0.023 C 
ATOM     16  C   LIG d   1      10.929   5.415  -5.405  0.00  0.00    -0.046 C 
ATOM     17  C   LIG d   1      10.556   5.329  -6.895  0.00  0.00    -0.048 C 
ATOM     18  C   LIG d   1      11.130   6.530  -7.633  0.00  0.00    -0.023 C 
ATOM     19  H   LIG d   1      12.231   6.517  -7.441  0.00  0.00     0.032 H 
ATOM     20  C   LIG d   1      10.611   7.845  -7.068  0.00  0.00    -0.021 C 
ATOM     21  C   LIG d   1      11.489   8.960  -7.691  0.00  0.00    -0.019 C 
ATOM     22  C   LIG d   1      11.304   8.920  -9.182  0.00  0.00    -0.019 C 
ATOM     23  C   LIG d   1      11.423  10.059  -9.892  0.00  0.00    -0.142 C 
ATOM     24  O   LIG d   1      11.261  10.040 -11.228  0.00  0.00    -0.879 OA
ATOM     25  C   LIG d   1      11.014   7.726  -9.842  0.00  0.00     0.164 C 
ATOM     26  O   LIG d   1      10.795   7.757 -11.036  0.00  0.00    -0.292 OA
ATOM     27  C   LIG d   1      10.966   6.398  -9.139  0.00  0.00     0.031 C 
ATOM     28  C   LIG d   1      11.043   8.250   0.707  0.00  0.00    -0.036 C 
ATOM     29  C   LIG d   1      12.308   7.380   0.545  0.00  0.00    -0.045 C 
ATOM     30  H   LIG d   1      10.172   6.249  -0.625  0.00  0.00     0.028 H 
ATOM     31  H   LIG d   1       8.714   7.225  -0.464  0.00  0.00     0.028 H 
ATOM     32  H   LIG d   1       8.713   6.070  -2.570  0.00  0.00     0.027 H 
ATOM     33  H   LIG d   1       8.815   7.851  -2.820  0.00  0.00     0.027 H 
ATOM     34  H   LIG d   1      13.443   8.761  -3.650  0.00  0.00     0.027 H 
ATOM     35  H   LIG d   1      13.314   6.990  -3.800  0.00  0.00     0.027 H 
ATOM     36  H   LIG d   1      12.652   9.051  -5.724  0.00  0.00     0.027 H 
ATOM     37  H   LIG d   1      12.878   7.303  -5.958  0.00  0.00     0.027 H 
ATOM     38  H   LIG d   1      12.014   5.430  -5.325  0.00  0.00     0.027 H 
ATOM     39  H   LIG d   1      10.509   4.524  -4.935  0.00  0.00     0.027 H 
ATOM     40  H   LIG d   1      11.006   4.409  -7.290  0.00  0.00     0.027 H 
ATOM     41  H   LIG d   1       9.483   5.258  -7.000  0.00  0.00     0.027 H 
ATOM     42  H   LIG d   1      11.173   9.920  -7.304  0.00  0.00     0.032 H 
ATOM     43  H   LIG d   1      12.533   8.765  -7.468  0.00  0.00     0.032 H 
ATOM     44  H   LIG d   1      11.650  10.987  -9.388  0.00  0.00     0.045 H 
ATOM     45  H   LIG d   1      11.297   9.228   1.113  0.00  0.00     0.028 H 
ATOM     46  H   LIG d   1      10.314   7.752   1.346  0.00  0.00     0.028 H 
ATOM     47  H   LIG d   1      12.041   6.329   0.464  0.00  0.00     0.027 H 
ATOM     48  H   LIG d   1      13.000   7.552   1.362  0.00  0.00     0.027 H 
ENDROOT
BRANCH   1  49
ATOM     49  C   LIG d   1      13.768   6.796  -1.376  0.00  0.00    -0.076 C 
ATOM     50  C   LIG d   1      13.487   5.540  -1.134  0.00  0.00    -0.099 C 
ATOM     51  H   LIG d   1      12.586   5.281  -0.598  0.00  0.00     0.053 H 
ATOM     52  H   LIG d   1      14.156   4.762  -1.470  0.00  0.00     0.053 H 
BRANCH  49  53
ATOM     53  C   LIG d   1      14.948   7.151  -2.243  0.00  0.00    -0.044 C 
ATOM     54  H   LIG d   1      14.944   6.524  -3.136  0.00  0.00     0.027 H 
ATOM     55  H   LIG d   1      14.883   8.199  -2.535  0.00  0.00     0.027 H 
ATOM     56  H   LIG d   1      15.871   6.986  -1.688  0.00  0.00     0.027 H 
ENDBRANCH  49  53
ENDBRANCH   1  49
BRANCH   5  57
ATOM     57  C   LIG d   1       9.688   9.644  -0.917  0.00  0.00     0.313 C 
ATOM     58  O   LIG d   1       8.532   9.671  -0.567  0.00  0.00    -0.250 OA
BRANCH  57  59
ATOM     59  O   LIG d   1      10.254  10.735  -1.455  0.00  0.00    -0.468 OA
BRANCH  59  60
ATOM     60  C   LIG d   1       9.581  11.332  -2.567  0.00  0.00     0.082 C 
ATOM     61  H   LIG d   1       8.833  10.640  -2.953  0.00  0.00     0.066 H 
ATOM     62  H   LIG d   1       9.094  12.252  -2.244  0.00  0.00     0.066 H 
ATOM     63  H   LIG d   1      10.305  11.559  -3.349  0.00  0.00     0.066 H 
ENDBRANCH  59  60
ENDBRANCH  57  59
ENDBRANCH   5  57
BRANCH   8  64
ATOM     64  C   LIG d   1      11.299   5.471  -2.828  0.00  0.00    -0.059 C 
ATOM     65  H   LIG d   1      11.189   4.711  -3.601  0.00  0.00     0.024 H 
ATOM     66  H   LIG d   1      12.359   5.648  -2.641  0.00  0.00     0.024 H 
ATOM     67  H   LIG d   1      10.821   5.129  -1.910  0.00  0.00     0.024 H 
ENDBRANCH   8  64
BRANCH  15  68
ATOM     68  C   LIG d   1       8.793   6.574  -4.937  0.00  0.00    -0.059 C 
ATOM     69  H   LIG d   1       8.425   7.394  -5.553  0.00  0.00     0.024 H 
ATOM     70  H   LIG d   1       8.536   5.624  -5.407  0.00  0.00     0.024 H 
ATOM     71  H   LIG d   1       8.333   6.627  -3.950  0.00  0.00     0.024 H 
ENDBRANCH  15  68
BRANCH  20  72
ATOM     72  C   LIG d   1       9.168   8.150  -7.449  0.00  0.00    -0.059 C 
ATOM     73  H   LIG d   1       8.561   7.254  -7.320  0.00  0.00     0.024 H 
ATOM     74  H   LIG d   1       8.784   8.945  -6.811  0.00  0.00     0.024 H 
ATOM     75  H   LIG d   1       9.128   8.469  -8.491  0.00  0.00     0.024 H 
ENDBRANCH  20  72
BRANCH  27  76
ATOM     76  C   LIG d   1      12.145   5.562  -9.680  0.00  0.00    -0.052 C 
ATOM     77  H   LIG d   1      12.664   6.125 -10.455  0.00  0.00     0.024 H 
ATOM     78  H   LIG d   1      12.836   5.340  -8.867  0.00  0.00     0.024 H 
ATOM     79  H   LIG d   1      11.767   4.630 -10.099  0.00  0.00     0.024 H 
ENDBRANCH  27  76
BRANCH  27  80
ATOM     80  C   LIG d   1       9.672   5.679  -9.518  0.00  0.00    -0.052 C 
ATOM     81  H   LIG d   1       9.108   6.291 -10.222  0.00  0.00     0.024 H 
ATOM     82  H   LIG d   1       9.910   4.721  -9.979  0.00  0.00     0.024 H 
ATOM     83  H   LIG d   1       9.073   5.512  -8.622  0.00  0.00     0.024 H 
ENDBRANCH  27  80
TORSDOF 10
ENDMDL
