MODEL 1
REMARK VINA RESULT:      -6.6      0.000      0.000
REMARK  13 active torsions:
REMARK  status: ('A' for Active; 'I' for Inactive)
REMARK    1  A    between atoms: C_1  and  C_2 
REMARK    2  A    between atoms: C_19  and  C_21 
REMARK    3  A    between atoms: C_21  and  N_22 
REMARK    4  A    between atoms: N_22  and  C_23 
REMARK    5  A    between atoms: N_22  and  C_32 
REMARK    6  A    between atoms: C_23  and  C_24 
REMARK    7  A    between atoms: C_24  and  C_25 
REMARK    8  A    between atoms: C_25  and  N_26 
REMARK    9  A    between atoms: C_32  and  C_33 
REMARK   10  A    between atoms: C_37  and  O_41 
REMARK   11  A    between atoms: C_38  and  O_39 
REMARK   12  A    between atoms: O_39  and  C_40 
REMARK   13  A    between atoms: O_41  and  C_42 
ROOT
ATOM      1  N   LIG d   1       6.287  -3.808  -5.693  0.00  0.00     0.239 N 
ATOM      2  H   LIG d   1       5.292  -3.648  -5.662  0.00  0.00     0.204 HD
ENDROOT
BRANCH   1   3
ATOM      3  C   LIG d   1       6.555  -5.247  -5.583  0.00  0.00    -0.018 C 
ATOM      4  H   LIG d   1       6.218  -5.607  -4.611  0.00  0.00     0.082 H 
ATOM      5  H   LIG d   1       7.626  -5.427  -5.686  0.00  0.00     0.082 H 
BRANCH   3   6
ATOM      6  C   LIG d   1       5.806  -5.992  -6.689  0.00  0.00     0.102 C 
ATOM      7  C   LIG d   1       6.297  -7.468  -6.786  0.00  0.00     0.015 C 
ATOM      8  C   LIG d   1       6.870  -7.825  -5.411  0.00  0.00    -0.039 C 
ATOM      9  H   LIG d   1       7.015  -7.627  -7.591  0.00  0.00     0.035 H 
ATOM     10  C   LIG d   1       4.958  -8.191  -7.030  0.00  0.00     0.107 C 
ATOM     11  C   LIG d   1       6.947  -9.339  -5.240  0.00  0.00    -0.014 C 
ATOM     12  H   LIG d   1       6.228  -7.408  -4.636  0.00  0.00     0.028 H 
ATOM     13  H   LIG d   1       7.869  -7.401  -5.317  0.00  0.00     0.028 H 
ATOM     14  C   LIG d   1       5.518  -9.900  -5.297  0.00  0.00    -0.022 C 
ATOM     15  C   LIG d   1       7.532  -9.666  -3.886  0.00  0.00    -0.073 C 
ATOM     16  H   LIG d   1       7.551  -9.781  -6.033  0.00  0.00     0.035 H 
ATOM     17  C   LIG d   1       4.972  -9.650  -6.702  0.00  0.00    -0.009 C 
ATOM     18  C   LIG d   1       5.553 -11.395  -4.986  0.00  0.00    -0.047 C 
ATOM     19  H   LIG d   1       5.603 -10.163  -7.427  0.00  0.00     0.031 H 
ATOM     20  H   LIG d   1       3.959 -10.046  -6.767  0.00  0.00     0.031 H 
ATOM     21  C   LIG d   1       6.041 -11.613  -3.553  0.00  0.00    -0.049 C 
ATOM     22  H   LIG d   1       4.552 -11.812  -5.096  0.00  0.00     0.027 H 
ATOM     23  H   LIG d   1       6.230 -11.894  -5.680  0.00  0.00     0.027 H 
ATOM     24  C   LIG d   1       7.480 -11.104  -3.416  0.00  0.00    -0.032 C 
ATOM     25  H   LIG d   1       5.396 -11.068  -2.863  0.00  0.00     0.027 H 
ATOM     26  H   LIG d   1       6.009 -12.676  -3.316  0.00  0.00     0.027 H 
ATOM     27  H   LIG d   1       7.789 -11.159  -2.373  0.00  0.00     0.031 H 
ATOM     28  H   LIG d   1       8.142 -11.714  -4.030  0.00  0.00     0.031 H 
ATOM     29  C   LIG d   1       8.070  -8.733  -3.140  0.00  0.00    -0.099 C 
ATOM     30  H   LIG d   1       8.483  -8.984  -2.175  0.00  0.00     0.053 H 
ATOM     31  H   LIG d   1       8.099  -7.711  -3.492  0.00  0.00     0.053 H 
ATOM     32  H   LIG d   1       4.680  -8.071  -8.078  0.00  0.00     0.074 H 
ATOM     33  O   LIG d   1       4.027  -7.466  -6.218  0.00  0.00    -0.461 OA
ATOM     34  C   LIG d   1       4.315  -6.151  -6.343  0.00  0.00     0.316 C 
ATOM     35  O   LIG d   1       3.528  -5.245  -6.205  0.00  0.00    -0.250 OA
ATOM     36  H   LIG d   1       5.931  -5.485  -7.646  0.00  0.00     0.047 H 
BRANCH  14  37
ATOM     37  C   LIG d   1       4.643  -9.181  -4.268  0.00  0.00    -0.059 C 
ATOM     38  H   LIG d   1       4.462  -9.841  -3.420  0.00  0.00     0.024 H 
ATOM     39  H   LIG d   1       5.152  -8.279  -3.926  0.00  0.00     0.024 H 
ATOM     40  H   LIG d   1       3.692  -8.909  -4.727  0.00  0.00     0.024 H 
ENDBRANCH  14  37
ENDBRANCH   3   6
ENDBRANCH   1   3
BRANCH   1  41
ATOM     41  C   LIG d   1       6.826  -3.304  -6.963  0.00  0.00    -0.030 C 
ATOM     42  H   LIG d   1       7.888  -3.091  -6.848  0.00  0.00     0.082 H 
ATOM     43  H   LIG d   1       6.689  -4.056  -7.740  0.00  0.00     0.082 H 
BRANCH  41  44
ATOM     44  C   LIG d   1       6.089  -2.023  -7.358  0.00  0.00     0.000 C 
ATOM     45  H   LIG d   1       5.929  -1.408  -6.472  0.00  0.00     0.033 H 
ATOM     46  H   LIG d   1       6.686  -1.469  -8.082  0.00  0.00     0.033 H 
BRANCH  44  47
ATOM     47  C   LIG d   1       4.739  -2.383  -7.980  0.00  0.00     0.004 C 
ATOM     48  H   LIG d   1       4.859  -2.520  -9.055  0.00  0.00     0.043 H 
ATOM     49  H   LIG d   1       4.368  -3.306  -7.535  0.00  0.00     0.043 H 
BRANCH  47  50
ATOM     50  N   LIG d   1       3.780  -1.299  -7.728  0.00  0.00    -0.298 N 
ATOM     51  C   LIG d   1       3.969  -0.729  -6.386  0.00  0.00     0.022 C 
ATOM     52  C   LIG d   1       2.915   0.354  -6.143  0.00  0.00     0.060 C 
ATOM     53  H   LIG d   1       3.863  -1.516  -5.639  0.00  0.00     0.045 H 
ATOM     54  H   LIG d   1       4.965  -0.291  -6.313  0.00  0.00     0.045 H 
ATOM     55  O   LIG d   1       3.012   1.345  -7.170  0.00  0.00    -0.377 OA
ATOM     56  H   LIG d   1       3.087   0.818  -5.171  0.00  0.00     0.057 H 
ATOM     57  H   LIG d   1       1.922  -0.094  -6.162  0.00  0.00     0.057 H 
ATOM     58  C   LIG d   1       2.831   0.825  -8.490  0.00  0.00     0.060 C 
ATOM     59  C   LIG d   1       3.885  -0.253  -8.757  0.00  0.00     0.022 C 
ATOM     60  H   LIG d   1       2.943   1.630  -9.217  0.00  0.00     0.057 H 
ATOM     61  H   LIG d   1       1.835   0.390  -8.577  0.00  0.00     0.057 H 
ATOM     62  H   LIG d   1       4.878   0.192  -8.722  0.00  0.00     0.045 H 
ATOM     63  H   LIG d   1       3.716  -0.692  -9.740  0.00  0.00     0.045 H 
ENDBRANCH  47  50
ENDBRANCH  44  47
ENDBRANCH  41  44
ENDBRANCH   1  41
BRANCH   1  64
ATOM     64  C   LIG d   1       6.931  -3.104  -4.575  0.00  0.00    -0.002 C 
ATOM     65  H   LIG d   1       7.433  -3.826  -3.931  0.00  0.00     0.087 H 
ATOM     66  H   LIG d   1       7.661  -2.394  -4.965  0.00  0.00     0.087 H 
BRANCH  64  67
ATOM     67  C   LIG d   1       5.887  -2.363  -3.780  0.00  0.00     0.042 A 
ATOM     68  C   LIG d   1       6.125  -1.062  -3.367  0.00  0.00     0.170 A 
ATOM     69  C   LIG d   1       5.156  -0.379  -2.638  0.00  0.00     0.162 A 
ATOM     70  C   LIG d   1       3.963  -1.005  -2.320  0.00  0.00    -0.016 A 
ATOM     71  C   LIG d   1       3.734  -2.306  -2.729  0.00  0.00    -0.058 A 
ATOM     72  H   LIG d   1       3.211  -0.478  -1.750  0.00  0.00     0.066 H 
ATOM     73  C   LIG d   1       4.694  -2.983  -3.459  0.00  0.00    -0.050 A 
ATOM     74  H   LIG d   1       2.803  -2.793  -2.480  0.00  0.00     0.062 H 
ATOM     75  H   LIG d   1       4.510  -3.998  -3.777  0.00  0.00     0.062 H 
BRANCH  68  76
ATOM     76  O   LIG d   1       7.300  -0.453  -3.677  0.00  0.00    -0.491 OA
BRANCH  76  77
ATOM     77  C   LIG d   1       7.304   0.405  -4.820  0.00  0.00     0.079 C 
ATOM     78  H   LIG d   1       7.934  -0.029  -5.597  0.00  0.00     0.066 H 
ATOM     79  H   LIG d   1       6.287   0.514  -5.196  0.00  0.00     0.066 H 
ATOM     80  H   LIG d   1       7.694   1.383  -4.539  0.00  0.00     0.066 H 
ENDBRANCH  76  77
ENDBRANCH  68  76
BRANCH  69  81
ATOM     81  O   LIG d   1       5.383   0.900  -2.235  0.00  0.00    -0.491 OA
BRANCH  81  82
ATOM     82  C   LIG d   1       4.289   1.815  -2.334  0.00  0.00     0.079 C 
ATOM     83  H   LIG d   1       4.193   2.368  -1.399  0.00  0.00     0.066 H 
ATOM     84  H   LIG d   1       4.472   2.512  -3.152  0.00  0.00     0.066 H 
ATOM     85  H   LIG d   1       3.370   1.263  -2.526  0.00  0.00     0.066 H 
ENDBRANCH  81  82
ENDBRANCH  69  81
ENDBRANCH  64  67
ENDBRANCH   1  64
TORSDOF 13
ENDMDL
MODEL 2
REMARK VINA RESULT:      -6.6      2.322      8.216
REMARK  13 active torsions:
REMARK  status: ('A' for Active; 'I' for Inactive)
REMARK    1  A    between atoms: C_1  and  C_2 
REMARK    2  A    between atoms: C_19  and  C_21 
REMARK    3  A    between atoms: C_21  and  N_22 
REMARK    4  A    between atoms: N_22  and  C_23 
REMARK    5  A    between atoms: N_22  and  C_32 
REMARK    6  A    between atoms: C_23  and  C_24 
REMARK    7  A    between atoms: C_24  and  C_25 
REMARK    8  A    between atoms: C_25  and  N_26 
REMARK    9  A    between atoms: C_32  and  C_33 
REMARK   10  A    between atoms: C_37  and  O_41 
REMARK   11  A    between atoms: C_38  and  O_39 
REMARK   12  A    between atoms: O_39  and  C_40 
REMARK   13  A    between atoms: O_41  and  C_42 
ROOT
ATOM      1  N   LIG d   1       4.944  -4.725  -6.507  0.00  0.00     0.239 N 
ATOM      2  H   LIG d   1       5.825  -4.693  -6.996  0.00  0.00     0.204 HD
ENDROOT
BRANCH   1   3
ATOM      3  C   LIG d   1       3.966  -3.881  -7.206  0.00  0.00    -0.018 C 
ATOM      4  H   LIG d   1       4.094  -2.843  -6.897  0.00  0.00     0.082 H 
ATOM      5  H   LIG d   1       2.957  -4.212  -6.959  0.00  0.00     0.082 H 
BRANCH   3   6
ATOM      6  C   LIG d   1       4.182  -3.992  -8.717  0.00  0.00     0.102 C 
ATOM      7  C   LIG d   1       3.445  -2.839  -9.462  0.00  0.00     0.015 C 
ATOM      8  C   LIG d   1       3.295  -1.697  -8.453  0.00  0.00    -0.039 C 
ATOM      9  H   LIG d   1       2.490  -3.148  -9.888  0.00  0.00     0.035 H 
ATOM     10  C   LIG d   1       4.492  -2.490 -10.538  0.00  0.00     0.107 C 
ATOM     11  C   LIG d   1       3.023  -0.379  -9.172  0.00  0.00    -0.014 C 
ATOM     12  H   LIG d   1       4.213  -1.607  -7.873  0.00  0.00     0.028 H 
ATOM     13  H   LIG d   1       2.466  -1.918  -7.781  0.00  0.00     0.028 H 
ATOM     14  C   LIG d   1       4.242  -0.053 -10.049  0.00  0.00    -0.022 C 
ATOM     15  C   LIG d   1       2.860   0.727  -8.157  0.00  0.00    -0.073 C 
ATOM     16  H   LIG d   1       2.131  -0.462  -9.793  0.00  0.00     0.035 H 
ATOM     17  C   LIG d   1       4.339  -1.127 -11.132  0.00  0.00    -0.009 C 
ATOM     18  C   LIG d   1       4.058   1.330 -10.670  0.00  0.00    -0.047 C 
ATOM     19  H   LIG d   1       3.432  -1.110 -11.735  0.00  0.00     0.031 H 
ATOM     20  H   LIG d   1       5.196  -0.912 -11.772  0.00  0.00     0.031 H 
ATOM     21  C   LIG d   1       4.029   2.391  -9.568  0.00  0.00    -0.049 C 
ATOM     22  H   LIG d   1       4.885   1.536 -11.350  0.00  0.00     0.027 H 
ATOM     23  H   LIG d   1       3.119   1.357 -11.224  0.00  0.00     0.027 H 
ATOM     24  C   LIG d   1       2.818   2.154  -8.658  0.00  0.00    -0.032 C 
ATOM     25  H   LIG d   1       4.943   2.326  -8.978  0.00  0.00     0.027 H 
ATOM     26  H   LIG d   1       3.956   3.380 -10.018  0.00  0.00     0.027 H 
ATOM     27  H   LIG d   1       2.857   2.841  -7.813  0.00  0.00     0.031 H 
ATOM     28  H   LIG d   1       1.900   2.317  -9.223  0.00  0.00     0.031 H 
ATOM     29  C   LIG d   1       2.757   0.460  -6.878  0.00  0.00    -0.099 C 
ATOM     30  H   LIG d   1       2.640   1.262  -6.165  0.00  0.00     0.053 H 
ATOM     31  H   LIG d   1       2.788  -0.565  -6.537  0.00  0.00     0.053 H 
ATOM     32  H   LIG d   1       4.434  -3.229 -11.338  0.00  0.00     0.074 H 
ATOM     33  O   LIG d   1       5.744  -2.643  -9.857  0.00  0.00    -0.461 OA
ATOM     34  C   LIG d   1       5.656  -3.751  -9.088  0.00  0.00     0.316 C 
ATOM     35  O   LIG d   1       6.585  -4.443  -8.746  0.00  0.00    -0.250 OA
ATOM     36  H   LIG d   1       3.843  -4.961  -9.082  0.00  0.00     0.047 H 
BRANCH  14  37
ATOM     37  C   LIG d   1       5.510  -0.069  -9.193  0.00  0.00    -0.059 C 
ATOM     38  H   LIG d   1       5.308  -0.587  -8.255  0.00  0.00     0.024 H 
ATOM     39  H   LIG d   1       6.305  -0.586  -9.731  0.00  0.00     0.024 H 
ATOM     40  H   LIG d   1       5.819   0.955  -8.984  0.00  0.00     0.024 H 
ENDBRANCH  14  37
ENDBRANCH   3   6
ENDBRANCH   1   3
BRANCH   1  41
ATOM     41  C   LIG d   1       4.455  -6.109  -6.466  0.00  0.00    -0.030 C 
ATOM     42  H   LIG d   1       3.449  -6.127  -6.047  0.00  0.00     0.082 H 
ATOM     43  H   LIG d   1       4.435  -6.518  -7.476  0.00  0.00     0.082 H 
BRANCH  41  44
ATOM     44  C   LIG d   1       5.386  -6.953  -5.593  0.00  0.00     0.000 C 
ATOM     45  H   LIG d   1       6.423  -6.711  -5.828  0.00  0.00     0.033 H 
ATOM     46  H   LIG d   1       5.192  -6.738  -4.542  0.00  0.00     0.033 H 
BRANCH  44  47
ATOM     47  C   LIG d   1       5.134  -8.437  -5.865  0.00  0.00     0.004 C 
ATOM     48  H   LIG d   1       4.229  -8.548  -6.462  0.00  0.00     0.043 H 
ATOM     49  H   LIG d   1       5.981  -8.856  -6.407  0.00  0.00     0.043 H 
BRANCH  47  50
ATOM     50  N   LIG d   1       4.969  -9.147  -4.589  0.00  0.00    -0.298 N 
ATOM     51  C   LIG d   1       4.158 -10.361  -4.764  0.00  0.00     0.022 C 
ATOM     52  C   LIG d   1       3.961 -11.037  -3.404  0.00  0.00     0.060 C 
ATOM     53  H   LIG d   1       3.187 -10.094  -5.181  0.00  0.00     0.045 H 
ATOM     54  H   LIG d   1       4.668 -11.046  -5.440  0.00  0.00     0.045 H 
ATOM     55  O   LIG d   1       5.239 -11.318  -2.828  0.00  0.00    -0.377 OA
ATOM     56  H   LIG d   1       3.408 -11.967  -3.536  0.00  0.00     0.057 H 
ATOM     57  H   LIG d   1       3.402 -10.372  -2.745  0.00  0.00     0.057 H 
ATOM     58  C   LIG d   1       6.055 -10.158  -2.643  0.00  0.00     0.060 C 
ATOM     59  C   LIG d   1       6.273  -9.473  -3.995  0.00  0.00     0.022 C 
ATOM     60  H   LIG d   1       7.018 -10.452  -2.225  0.00  0.00     0.057 H 
ATOM     61  H   LIG d   1       5.557  -9.467  -1.962  0.00  0.00     0.057 H 
ATOM     62  H   LIG d   1       6.818 -10.144  -4.659  0.00  0.00     0.045 H 
ATOM     63  H   LIG d   1       6.847  -8.558  -3.851  0.00  0.00     0.045 H 
ENDBRANCH  47  50
ENDBRANCH  44  47
ENDBRANCH  41  44
ENDBRANCH   1  41
BRANCH   1  64
ATOM     64  C   LIG d   1       5.126  -4.229  -5.136  0.00  0.00    -0.002 C 
ATOM     65  H   LIG d   1       4.169  -4.242  -4.615  0.00  0.00     0.087 H 
ATOM     66  H   LIG d   1       5.835  -4.869  -4.610  0.00  0.00     0.087 H 
BRANCH  64  67
ATOM     67  C   LIG d   1       5.657  -2.820  -5.178  0.00  0.00     0.042 A 
ATOM     68  C   LIG d   1       4.958  -1.798  -4.555  0.00  0.00     0.170 A 
ATOM     69  C   LIG d   1       5.455  -0.498  -4.590  0.00  0.00     0.162 A 
ATOM     70  C   LIG d   1       6.639  -0.230  -5.256  0.00  0.00    -0.016 A 
ATOM     71  C   LIG d   1       7.328  -1.253  -5.882  0.00  0.00    -0.058 A 
ATOM     72  H   LIG d   1       7.024   0.779  -5.288  0.00  0.00     0.066 H 
ATOM     73  C   LIG d   1       6.838  -2.545  -5.841  0.00  0.00    -0.050 A 
ATOM     74  H   LIG d   1       8.251  -1.042  -6.401  0.00  0.00     0.062 H 
ATOM     75  H   LIG d   1       7.380  -3.341  -6.330  0.00  0.00     0.062 H 
BRANCH  68  76
ATOM     76  O   LIG d   1       3.793  -2.065  -3.906  0.00  0.00    -0.491 OA
BRANCH  76  77
ATOM     77  C   LIG d   1       3.861  -2.217  -2.487  0.00  0.00     0.079 C 
ATOM     78  H   LIG d   1       4.323  -3.176  -2.247  0.00  0.00     0.066 H 
ATOM     79  H   LIG d   1       4.459  -1.410  -2.064  0.00  0.00     0.066 H 
ATOM     80  H   LIG d   1       2.856  -2.183  -2.069  0.00  0.00     0.066 H 
ENDBRANCH  76  77
ENDBRANCH  68  76
BRANCH  69  81
ATOM     81  O   LIG d   1       4.776   0.507  -3.976  0.00  0.00    -0.491 OA
BRANCH  81  82
ATOM     82  C   LIG d   1       5.403   1.118  -2.846  0.00  0.00     0.079 C 
ATOM     83  H   LIG d   1       5.238   0.502  -1.961  0.00  0.00     0.066 H 
ATOM     84  H   LIG d   1       6.474   1.210  -3.031  0.00  0.00     0.066 H 
ATOM     85  H   LIG d   1       4.977   2.108  -2.685  0.00  0.00     0.066 H 
ENDBRANCH  81  82
ENDBRANCH  69  81
ENDBRANCH  64  67
ENDBRANCH   1  64
TORSDOF 13
ENDMDL
MODEL 3
REMARK VINA RESULT:      -6.4      2.678      8.589
REMARK  13 active torsions:
REMARK  status: ('A' for Active; 'I' for Inactive)
REMARK    1  A    between atoms: C_1  and  C_2 
REMARK    2  A    between atoms: C_19  and  C_21 
REMARK    3  A    between atoms: C_21  and  N_22 
REMARK    4  A    between atoms: N_22  and  C_23 
REMARK    5  A    between atoms: N_22  and  C_32 
REMARK    6  A    between atoms: C_23  and  C_24 
REMARK    7  A    between atoms: C_24  and  C_25 
REMARK    8  A    between atoms: C_25  and  N_26 
REMARK    9  A    between atoms: C_32  and  C_33 
REMARK   10  A    between atoms: C_37  and  O_41 
REMARK   11  A    between atoms: C_38  and  O_39 
REMARK   12  A    between atoms: O_39  and  C_40 
REMARK   13  A    between atoms: O_41  and  C_42 
ROOT
ATOM      1  N   LIG d   1       3.757  -4.301  -7.433  0.00  0.00     0.239 N 
ATOM      2  H   LIG d   1       2.753  -4.201  -7.406  0.00  0.00     0.204 HD
ENDROOT
BRANCH   1   3
ATOM      3  C   LIG d   1       4.331  -3.816  -6.172  0.00  0.00    -0.018 C 
ATOM      4  H   LIG d   1       4.513  -4.660  -5.506  0.00  0.00     0.082 H 
ATOM      5  H   LIG d   1       3.634  -3.123  -5.698  0.00  0.00     0.082 H 
BRANCH   3   6
ATOM      6  C   LIG d   1       5.651  -3.096  -6.454  0.00  0.00     0.102 C 
ATOM      7  C   LIG d   1       5.527  -1.577  -6.128  0.00  0.00     0.015 C 
ATOM      8  C   LIG d   1       4.399  -1.444  -5.101  0.00  0.00    -0.039 C 
ATOM      9  H   LIG d   1       5.359  -0.963  -7.013  0.00  0.00     0.035 H 
ATOM     10  C   LIG d   1       6.900  -1.321  -5.476  0.00  0.00     0.107 C 
ATOM     11  C   LIG d   1       4.494  -0.108  -4.371  0.00  0.00    -0.014 C 
ATOM     12  H   LIG d   1       4.475  -2.255  -4.377  0.00  0.00     0.028 H 
ATOM     13  H   LIG d   1       3.438  -1.508  -5.612  0.00  0.00     0.028 H 
ATOM     14  C   LIG d   1       5.819  -0.081  -3.595  0.00  0.00    -0.022 C 
ATOM     15  C   LIG d   1       3.361   0.007  -3.378  0.00  0.00    -0.073 C 
ATOM     16  H   LIG d   1       4.462   0.717  -5.083  0.00  0.00     0.035 H 
ATOM     17  C   LIG d   1       6.958  -0.100  -4.614  0.00  0.00    -0.009 C 
ATOM     18  C   LIG d   1       5.875   1.185  -2.742  0.00  0.00    -0.047 C 
ATOM     19  H   LIG d   1       6.881   0.780  -5.252  0.00  0.00     0.031 H 
ATOM     20  H   LIG d   1       7.911  -0.074  -4.086  0.00  0.00     0.031 H 
ATOM     21  C   LIG d   1       4.766   1.147  -1.689  0.00  0.00    -0.049 C 
ATOM     22  H   LIG d   1       6.844   1.246  -2.246  0.00  0.00     0.027 H 
ATOM     23  H   LIG d   1       5.741   2.059  -3.380  0.00  0.00     0.027 H 
ATOM     24  C   LIG d   1       3.399   1.147  -2.383  0.00  0.00    -0.032 C 
ATOM     25  H   LIG d   1       4.868   0.245  -1.088  0.00  0.00     0.027 H 
ATOM     26  H   LIG d   1       4.845   2.023  -1.046  0.00  0.00     0.027 H 
ATOM     27  H   LIG d   1       2.613   1.011  -1.640  0.00  0.00     0.031 H 
ATOM     28  H   LIG d   1       3.254   2.093  -2.904  0.00  0.00     0.031 H 
ATOM     29  C   LIG d   1       2.373  -0.853  -3.378  0.00  0.00    -0.099 C 
ATOM     30  H   LIG d   1       1.571  -0.756  -2.662  0.00  0.00     0.053 H 
ATOM     31  H   LIG d   1       2.361  -1.661  -4.096  0.00  0.00     0.053 H 
ATOM     32  H   LIG d   1       7.651  -1.230  -6.261  0.00  0.00     0.074 H 
ATOM     33  O   LIG d   1       7.151  -2.518  -4.729  0.00  0.00    -0.461 OA
ATOM     34  C   LIG d   1       6.756  -3.562  -5.491  0.00  0.00     0.316 C 
ATOM     35  O   LIG d   1       7.201  -4.684  -5.428  0.00  0.00    -0.250 OA
ATOM     36  H   LIG d   1       5.952  -3.240  -7.492  0.00  0.00     0.047 H 
BRANCH  14  37
ATOM     37  C   LIG d   1       5.914  -1.313  -2.694  0.00  0.00    -0.059 C 
ATOM     38  H   LIG d   1       6.794  -1.231  -2.058  0.00  0.00     0.024 H 
ATOM     39  H   LIG d   1       5.020  -1.378  -2.073  0.00  0.00     0.024 H 
ATOM     40  H   LIG d   1       5.992  -2.208  -3.311  0.00  0.00     0.024 H 
ENDBRANCH  14  37
ENDBRANCH   3   6
ENDBRANCH   1   3
BRANCH   1  41
ATOM     41  C   LIG d   1       4.105  -5.716  -7.617  0.00  0.00    -0.030 C 
ATOM     42  H   LIG d   1       3.286  -6.229  -8.121  0.00  0.00     0.082 H 
ATOM     43  H   LIG d   1       5.008  -5.792  -8.222  0.00  0.00     0.082 H 
BRANCH  41  44
ATOM     44  C   LIG d   1       4.349  -6.363  -6.253  0.00  0.00     0.000 C 
ATOM     45  H   LIG d   1       5.127  -5.812  -5.723  0.00  0.00     0.033 H 
ATOM     46  H   LIG d   1       3.428  -6.341  -5.670  0.00  0.00     0.033 H 
BRANCH  44  47
ATOM     47  C   LIG d   1       4.794  -7.814  -6.449  0.00  0.00     0.004 C 
ATOM     48  H   LIG d   1       3.952  -8.406  -6.807  0.00  0.00     0.043 H 
ATOM     49  H   LIG d   1       5.602  -7.851  -7.179  0.00  0.00     0.043 H 
BRANCH  47  50
ATOM     50  N   LIG d   1       5.266  -8.357  -5.168  0.00  0.00    -0.298 N 
ATOM     51  C   LIG d   1       4.637  -9.656  -4.883  0.00  0.00     0.022 C 
ATOM     52  C   LIG d   1       5.109 -10.157  -3.516  0.00  0.00     0.060 C 
ATOM     53  H   LIG d   1       3.553  -9.541  -4.875  0.00  0.00     0.045 H 
ATOM     54  H   LIG d   1       4.920 -10.374  -5.653  0.00  0.00     0.045 H 
ATOM     55  O   LIG d   1       6.537 -10.235  -3.510  0.00  0.00    -0.377 OA
ATOM     56  H   LIG d   1       4.690 -11.146  -3.326  0.00  0.00     0.057 H 
ATOM     57  H   LIG d   1       4.779  -9.466  -2.741  0.00  0.00     0.057 H 
ATOM     58  C   LIG d   1       7.183  -8.988  -3.783  0.00  0.00     0.060 C 
ATOM     59  C   LIG d   1       6.731  -8.475  -5.153  0.00  0.00     0.022 C 
ATOM     60  H   LIG d   1       8.264  -9.130  -3.786  0.00  0.00     0.057 H 
ATOM     61  H   LIG d   1       6.912  -8.263  -3.015  0.00  0.00     0.057 H 
ATOM     62  H   LIG d   1       7.048  -9.173  -5.926  0.00  0.00     0.045 H 
ATOM     63  H   LIG d   1       7.176  -7.497  -5.341  0.00  0.00     0.045 H 
ENDBRANCH  47  50
ENDBRANCH  44  47
ENDBRANCH  41  44
ENDBRANCH   1  41
BRANCH   1  64
ATOM     64  C   LIG d   1       4.297  -3.515  -8.551  0.00  0.00    -0.002 C 
ATOM     65  H   LIG d   1       5.108  -2.882  -8.192  0.00  0.00     0.087 H 
ATOM     66  H   LIG d   1       4.676  -4.190  -9.320  0.00  0.00     0.087 H 
BRANCH  64  67
ATOM     67  C   LIG d   1       3.207  -2.654  -9.133  0.00  0.00     0.042 A 
ATOM     68  C   LIG d   1       2.334  -3.180 -10.072  0.00  0.00     0.170 A 
ATOM     69  C   LIG d   1       1.324  -2.383 -10.603  0.00  0.00     0.162 A 
ATOM     70  C   LIG d   1       1.202  -1.065 -10.198  0.00  0.00    -0.016 A 
ATOM     71  C   LIG d   1       2.080  -0.543  -9.266  0.00  0.00    -0.058 A 
ATOM     72  H   LIG d   1       0.421  -0.443 -10.612  0.00  0.00     0.066 H 
ATOM     73  C   LIG d   1       3.079  -1.336  -8.734  0.00  0.00    -0.050 A 
ATOM     74  H   LIG d   1       1.983   0.486  -8.952  0.00  0.00     0.062 H 
ATOM     75  H   LIG d   1       3.762  -0.925  -8.005  0.00  0.00     0.062 H 
BRANCH  68  76
ATOM     76  O   LIG d   1       2.461  -4.475 -10.469  0.00  0.00    -0.491 OA
BRANCH  76  77
ATOM     77  C   LIG d   1       3.271  -4.724 -11.620  0.00  0.00     0.079 C 
ATOM     78  H   LIG d   1       2.951  -4.075 -12.436  0.00  0.00     0.066 H 
ATOM     79  H   LIG d   1       4.315  -4.518 -11.381  0.00  0.00     0.066 H 
ATOM     80  H   LIG d   1       3.166  -5.765 -11.920  0.00  0.00     0.066 H 
ENDBRANCH  76  77
ENDBRANCH  68  76
BRANCH  69  81
ATOM     81  O   LIG d   1       0.462  -2.898 -11.520  0.00  0.00    -0.491 OA
BRANCH  81  82
ATOM     82  C   LIG d   1       0.551  -2.387 -12.852  0.00  0.00     0.079 C 
ATOM     83  H   LIG d   1       1.381  -1.683 -12.917  0.00  0.00     0.066 H 
ATOM     84  H   LIG d   1       0.718  -3.211 -13.546  0.00  0.00     0.066 H 
ATOM     85  H   LIG d   1      -0.378  -1.879 -13.109  0.00  0.00     0.066 H 
ENDBRANCH  81  82
ENDBRANCH  69  81
ENDBRANCH  64  67
ENDBRANCH   1  64
TORSDOF 13
ENDMDL
MODEL 4
REMARK VINA RESULT:      -6.2      3.303      7.667
REMARK  13 active torsions:
REMARK  status: ('A' for Active; 'I' for Inactive)
REMARK    1  A    between atoms: C_1  and  C_2 
REMARK    2  A    between atoms: C_19  and  C_21 
REMARK    3  A    between atoms: C_21  and  N_22 
REMARK    4  A    between atoms: N_22  and  C_23 
REMARK    5  A    between atoms: N_22  and  C_32 
REMARK    6  A    between atoms: C_23  and  C_24 
REMARK    7  A    between atoms: C_24  and  C_25 
REMARK    8  A    between atoms: C_25  and  N_26 
REMARK    9  A    between atoms: C_32  and  C_33 
REMARK   10  A    between atoms: C_37  and  O_41 
REMARK   11  A    between atoms: C_38  and  O_39 
REMARK   12  A    between atoms: O_39  and  C_40 
REMARK   13  A    between atoms: O_41  and  C_42 
ROOT
ATOM      1  N   LIG d   1       9.456  -2.462  -5.162  0.00  0.00     0.239 N 
ATOM      2  H   LIG d   1       9.224  -2.378  -4.184  0.00  0.00     0.204 HD
ENDROOT
BRANCH   1   3
ATOM      3  C   LIG d   1       8.246  -2.266  -5.971  0.00  0.00    -0.018 C 
ATOM      4  H   LIG d   1       8.500  -2.339  -7.029  0.00  0.00     0.082 H 
ATOM      5  H   LIG d   1       7.826  -1.281  -5.765  0.00  0.00     0.082 H 
BRANCH   3   6
ATOM      6  C   LIG d   1       7.217  -3.341  -5.619  0.00  0.00     0.102 C 
ATOM      7  C   LIG d   1       6.533  -3.020  -4.256  0.00  0.00     0.015 C 
ATOM      8  C   LIG d   1       6.656  -1.507  -4.055  0.00  0.00    -0.039 C 
ATOM      9  H   LIG d   1       6.952  -3.587  -3.424  0.00  0.00     0.035 H 
ATOM     10  C   LIG d   1       5.078  -3.417  -4.575  0.00  0.00     0.107 C 
ATOM     11  C   LIG d   1       5.645  -1.019  -3.023  0.00  0.00    -0.014 C 
ATOM     12  H   LIG d   1       6.474  -1.002  -5.004  0.00  0.00     0.028 H 
ATOM     13  H   LIG d   1       7.664  -1.271  -3.712  0.00  0.00     0.028 H 
ATOM     14  C   LIG d   1       4.235  -1.291  -3.570  0.00  0.00    -0.022 C 
ATOM     15  C   LIG d   1       5.799   0.471  -2.828  0.00  0.00    -0.073 C 
ATOM     16  H   LIG d   1       5.784  -1.543  -2.077  0.00  0.00     0.035 H 
ATOM     17  C   LIG d   1       4.057  -2.805  -3.671  0.00  0.00    -0.009 C 
ATOM     18  C   LIG d   1       3.203  -0.684  -2.622  0.00  0.00    -0.047 C 
ATOM     19  H   LIG d   1       4.162  -3.244  -2.679  0.00  0.00     0.031 H 
ATOM     20  H   LIG d   1       3.059  -3.022  -4.052  0.00  0.00     0.031 H 
ATOM     21  C   LIG d   1       3.362   0.837  -2.590  0.00  0.00    -0.049 C 
ATOM     22  H   LIG d   1       2.200  -0.936  -2.966  0.00  0.00     0.027 H 
ATOM     23  H   LIG d   1       3.352  -1.085  -1.618  0.00  0.00     0.027 H 
ATOM     24  C   LIG d   1       4.741   1.198  -2.026  0.00  0.00    -0.032 C 
ATOM     25  H   LIG d   1       3.270   1.233  -3.601  0.00  0.00     0.027 H 
ATOM     26  H   LIG d   1       2.588   1.271  -1.958  0.00  0.00     0.027 H 
ATOM     27  H   LIG d   1       4.897   2.273  -2.103  0.00  0.00     0.031 H 
ATOM     28  H   LIG d   1       4.800   0.892  -0.981  0.00  0.00     0.031 H 
ATOM     29  C   LIG d   1       6.819   1.116  -3.338  0.00  0.00    -0.099 C 
ATOM     30  H   LIG d   1       6.914   2.182  -3.190  0.00  0.00     0.053 H 
ATOM     31  H   LIG d   1       7.565   0.582  -3.908  0.00  0.00     0.053 H 
ATOM     32  H   LIG d   1       4.989  -4.502  -4.519  0.00  0.00     0.074 H 
ATOM     33  O   LIG d   1       4.904  -3.007  -5.937  0.00  0.00    -0.461 OA
ATOM     34  C   LIG d   1       6.036  -3.325  -6.605  0.00  0.00     0.316 C 
ATOM     35  O   LIG d   1       6.109  -3.562  -7.788  0.00  0.00    -0.250 OA
ATOM     36  H   LIG d   1       7.685  -4.325  -5.589  0.00  0.00     0.047 H 
BRANCH  14  37
ATOM     37  C   LIG d   1       4.092  -0.662  -4.957  0.00  0.00    -0.059 C 
ATOM     38  H   LIG d   1       4.685  -1.228  -5.675  0.00  0.00     0.024 H 
ATOM     39  H   LIG d   1       3.043  -0.678  -5.256  0.00  0.00     0.024 H 
ATOM     40  H   LIG d   1       4.445   0.369  -4.926  0.00  0.00     0.024 H 
ENDBRANCH  14  37
ENDBRANCH   3   6
ENDBRANCH   1   3
BRANCH   1  41
ATOM     41  C   LIG d   1      10.453  -1.443  -5.518  0.00  0.00    -0.030 C 
ATOM     42  H   LIG d   1      11.261  -1.454  -4.787  0.00  0.00     0.082 H 
ATOM     43  H   LIG d   1      10.856  -1.660  -6.508  0.00  0.00     0.082 H 
BRANCH  41  44
ATOM     44  C   LIG d   1       9.793  -0.064  -5.528  0.00  0.00     0.000 C 
ATOM     45  H   LIG d   1       8.946  -0.071  -6.215  0.00  0.00     0.033 H 
ATOM     46  H   LIG d   1       9.444   0.179  -4.525  0.00  0.00     0.033 H 
BRANCH  44  47
ATOM     47  C   LIG d   1      10.809   0.986  -5.983  0.00  0.00     0.004 C 
ATOM     48  H   LIG d   1      11.817   0.585  -5.873  0.00  0.00     0.043 H 
ATOM     49  H   LIG d   1      10.630   1.237  -7.027  0.00  0.00     0.043 H 
BRANCH  47  50
ATOM     50  N   LIG d   1      10.669   2.192  -5.157  0.00  0.00    -0.298 N 
ATOM     51  C   LIG d   1       9.382   2.857  -5.411  0.00  0.00     0.022 C 
ATOM     52  C   LIG d   1       9.301   4.138  -4.576  0.00  0.00     0.060 C 
ATOM     53  H   LIG d   1       9.303   3.106  -6.469  0.00  0.00     0.045 H 
ATOM     54  H   LIG d   1       8.566   2.190  -5.132  0.00  0.00     0.045 H 
ATOM     55  O   LIG d   1       9.480   3.813  -3.195  0.00  0.00    -0.377 OA
ATOM     56  H   LIG d   1       8.326   4.604  -4.718  0.00  0.00     0.057 H 
ATOM     57  H   LIG d   1      10.084   4.828  -4.892  0.00  0.00     0.057 H 
ATOM     58  C   LIG d   1      10.723   3.165  -2.912  0.00  0.00     0.060 C 
ATOM     59  C   LIG d   1      10.818   1.875  -3.729  0.00  0.00     0.022 C 
ATOM     60  H   LIG d   1      10.777   2.928  -1.849  0.00  0.00     0.057 H 
ATOM     61  H   LIG d   1      11.547   3.827  -3.180  0.00  0.00     0.057 H 
ATOM     62  H   LIG d   1      10.026   1.192  -3.424  0.00  0.00     0.045 H 
ATOM     63  H   LIG d   1      11.788   1.407  -3.560  0.00  0.00     0.045 H 
ENDBRANCH  47  50
ENDBRANCH  44  47
ENDBRANCH  41  44
ENDBRANCH   1  41
BRANCH   1  64
ATOM     64  C   LIG d   1      10.008  -3.798  -5.422  0.00  0.00    -0.002 C 
ATOM     65  H   LIG d   1       9.451  -4.271  -6.231  0.00  0.00     0.087 H 
ATOM     66  H   LIG d   1      11.057  -3.709  -5.707  0.00  0.00     0.087 H 
BRANCH  64  67
ATOM     67  C   LIG d   1       9.896  -4.639  -4.177  0.00  0.00     0.042 A 
ATOM     68  C   LIG d   1       9.894  -6.021  -4.272  0.00  0.00     0.170 A 
ATOM     69  C   LIG d   1       9.797  -6.795  -3.119  0.00  0.00     0.162 A 
ATOM     70  C   LIG d   1       9.691  -6.180  -1.883  0.00  0.00    -0.016 A 
ATOM     71  C   LIG d   1       9.686  -4.800  -1.795  0.00  0.00    -0.058 A 
ATOM     72  H   LIG d   1       9.611  -6.779  -0.987  0.00  0.00     0.066 H 
ATOM     73  C   LIG d   1       9.789  -4.031  -2.940  0.00  0.00    -0.050 A 
ATOM     74  H   LIG d   1       9.603  -4.322  -0.831  0.00  0.00     0.062 H 
ATOM     75  H   LIG d   1       9.786  -2.954  -2.867  0.00  0.00     0.062 H 
BRANCH  68  76
ATOM     76  O   LIG d   1       9.994  -6.621  -5.489  0.00  0.00    -0.491 OA
BRANCH  76  77
ATOM     77  C   LIG d   1      11.299  -7.023  -5.909  0.00  0.00     0.079 C 
ATOM     78  H   LIG d   1      11.232  -7.976  -6.435  0.00  0.00     0.066 H 
ATOM     79  H   LIG d   1      11.715  -6.268  -6.576  0.00  0.00     0.066 H 
ATOM     80  H   LIG d   1      11.943  -7.134  -5.038  0.00  0.00     0.066 H 
ENDBRANCH  76  77
ENDBRANCH  68  76
BRANCH  69  81
ATOM     81  O   LIG d   1       9.801  -8.152  -3.207  0.00  0.00    -0.491 OA
BRANCH  81  82
ATOM     82  C   LIG d   1       8.580  -8.826  -2.898  0.00  0.00     0.079 C 
ATOM     83  H   LIG d   1       7.861  -8.663  -3.701  0.00  0.00     0.066 H 
ATOM     84  H   LIG d   1       8.771  -9.894  -2.792  0.00  0.00     0.066 H 
ATOM     85  H   LIG d   1       8.175  -8.436  -1.964  0.00  0.00     0.066 H 
ENDBRANCH  81  82
ENDBRANCH  69  81
ENDBRANCH  64  67
ENDBRANCH   1  64
TORSDOF 13
ENDMDL
MODEL 5
REMARK VINA RESULT:      -6.2      4.779      7.832
REMARK  13 active torsions:
REMARK  status: ('A' for Active; 'I' for Inactive)
REMARK    1  A    between atoms: C_1  and  C_2 
REMARK    2  A    between atoms: C_19  and  C_21 
REMARK    3  A    between atoms: C_21  and  N_22 
REMARK    4  A    between atoms: N_22  and  C_23 
REMARK    5  A    between atoms: N_22  and  C_32 
REMARK    6  A    between atoms: C_23  and  C_24 
REMARK    7  A    between atoms: C_24  and  C_25 
REMARK    8  A    between atoms: C_25  and  N_26 
REMARK    9  A    between atoms: C_32  and  C_33 
REMARK   10  A    between atoms: C_37  and  O_41 
REMARK   11  A    between atoms: C_38  and  O_39 
REMARK   12  A    between atoms: O_39  and  C_40 
REMARK   13  A    between atoms: O_41  and  C_42 
ROOT
ATOM      1  N   LIG d   1       7.247   0.260  -9.108  0.00  0.00     0.239 N 
ATOM      2  H   LIG d   1       7.244  -0.315  -9.936  0.00  0.00     0.204 HD
ENDROOT
BRANCH   1   3
ATOM      3  C   LIG d   1       6.593  -0.461  -8.008  0.00  0.00    -0.018 C 
ATOM      4  H   LIG d   1       6.125  -1.367  -8.395  0.00  0.00     0.082 H 
ATOM      5  H   LIG d   1       5.832   0.177  -7.558  0.00  0.00     0.082 H 
BRANCH   3   6
ATOM      6  C   LIG d   1       7.634  -0.836  -6.952  0.00  0.00     0.102 C 
ATOM      7  C   LIG d   1       7.175  -0.363  -5.539  0.00  0.00     0.015 C 
ATOM      8  C   LIG d   1       5.648  -0.258  -5.592  0.00  0.00    -0.039 C 
ATOM      9  H   LIG d   1       7.647   0.570  -5.228  0.00  0.00     0.035 H 
ATOM     10  C   LIG d   1       7.616  -1.568  -4.687  0.00  0.00     0.107 C 
ATOM     11  C   LIG d   1       5.062  -0.263  -4.183  0.00  0.00    -0.014 C 
ATOM     12  H   LIG d   1       5.249  -1.104  -6.150  0.00  0.00     0.028 H 
ATOM     13  H   LIG d   1       5.369   0.668  -6.095  0.00  0.00     0.028 H 
ATOM     14  C   LIG d   1       5.403  -1.610  -3.529  0.00  0.00    -0.022 C 
ATOM     15  C   LIG d   1       3.559  -0.140  -4.260  0.00  0.00    -0.073 C 
ATOM     16  H   LIG d   1       5.482   0.553  -3.594  0.00  0.00     0.035 H 
ATOM     17  C   LIG d   1       6.921  -1.681  -3.368  0.00  0.00    -0.009 C 
ATOM     18  C   LIG d   1       4.708  -1.699  -2.172  0.00  0.00    -0.047 C 
ATOM     19  H   LIG d   1       7.251  -0.863  -2.729  0.00  0.00     0.031 H 
ATOM     20  H   LIG d   1       7.186  -2.629  -2.898  0.00  0.00     0.031 H 
ATOM     21  C   LIG d   1       3.191  -1.691  -2.367  0.00  0.00    -0.049 C 
ATOM     22  H   LIG d   1       5.004  -2.621  -1.672  0.00  0.00     0.027 H 
ATOM     23  H   LIG d   1       4.999  -0.846  -1.558  0.00  0.00     0.027 H 
ATOM     24  C   LIG d   1       2.760  -0.360  -2.994  0.00  0.00    -0.032 C 
ATOM     25  H   LIG d   1       2.906  -2.511  -3.026  0.00  0.00     0.027 H 
ATOM     26  H   LIG d   1       2.699  -1.813  -1.402  0.00  0.00     0.027 H 
ATOM     27  H   LIG d   1       1.698  -0.396  -3.232  0.00  0.00     0.031 H 
ATOM     28  H   LIG d   1       2.953   0.452  -2.293  0.00  0.00     0.031 H 
ATOM     29  C   LIG d   1       2.963   0.151  -5.390  0.00  0.00    -0.099 C 
ATOM     30  H   LIG d   1       1.887   0.236  -5.428  0.00  0.00     0.053 H 
ATOM     31  H   LIG d   1       3.548   0.306  -6.285  0.00  0.00     0.053 H 
ATOM     32  H   LIG d   1       8.690  -1.500  -4.511  0.00  0.00     0.074 H 
ATOM     33  O   LIG d   1       7.355  -2.696  -5.531  0.00  0.00    -0.461 OA
ATOM     34  C   LIG d   1       7.733  -2.362  -6.785  0.00  0.00     0.316 C 
ATOM     35  O   LIG d   1       8.093  -3.137  -7.639  0.00  0.00    -0.250 OA
ATOM     36  H   LIG d   1       8.605  -0.408  -7.201  0.00  0.00     0.047 H 
BRANCH  14  37
ATOM     37  C   LIG d   1       4.926  -2.753  -4.427  0.00  0.00    -0.059 C 
ATOM     38  H   LIG d   1       3.837  -2.760  -4.459  0.00  0.00     0.024 H 
ATOM     39  H   LIG d   1       5.319  -2.610  -5.435  0.00  0.00     0.024 H 
ATOM     40  H   LIG d   1       5.285  -3.702  -4.029  0.00  0.00     0.024 H 
ENDBRANCH  14  37
ENDBRANCH   3   6
ENDBRANCH   1   3
BRANCH   1  41
ATOM     41  C   LIG d   1       8.633   0.572  -8.733  0.00  0.00    -0.030 C 
ATOM     42  H   LIG d   1       8.894   0.033  -7.823  0.00  0.00     0.082 H 
ATOM     43  H   LIG d   1       9.304   0.270  -9.538  0.00  0.00     0.082 H 
BRANCH  41  44
ATOM     44  C   LIG d   1       8.771   2.076  -8.493  0.00  0.00     0.000 C 
ATOM     45  H   LIG d   1       8.919   2.585  -9.446  0.00  0.00     0.033 H 
ATOM     46  H   LIG d   1       7.865   2.452  -8.018  0.00  0.00     0.033 H 
BRANCH  44  47
ATOM     47  C   LIG d   1       9.971   2.339  -7.581  0.00  0.00     0.004 C 
ATOM     48  H   LIG d   1      10.579   1.438  -7.513  0.00  0.00     0.043 H 
ATOM     49  H   LIG d   1      10.569   3.151  -7.994  0.00  0.00     0.043 H 
BRANCH  47  50
ATOM     50  N   LIG d   1       9.496   2.712  -6.242  0.00  0.00    -0.298 N 
ATOM     51  C   LIG d   1      10.049   1.814  -5.218  0.00  0.00     0.022 C 
ATOM     52  C   LIG d   1       9.483   2.199  -3.849  0.00  0.00     0.060 C 
ATOM     53  H   LIG d   1       9.774   0.785  -5.450  0.00  0.00     0.045 H 
ATOM     54  H   LIG d   1      11.135   1.905  -5.202  0.00  0.00     0.045 H 
ATOM     55  O   LIG d   1       9.784   3.572  -3.584  0.00  0.00    -0.377 OA
ATOM     56  H   LIG d   1       9.934   1.572  -3.079  0.00  0.00     0.057 H 
ATOM     57  H   LIG d   1       8.403   2.056  -3.848  0.00  0.00     0.057 H 
ATOM     58  C   LIG d   1       9.259   4.475  -4.561  0.00  0.00     0.060 C 
ATOM     59  C   LIG d   1       9.823   4.113  -5.938  0.00  0.00     0.022 C 
ATOM     60  H   LIG d   1       9.548   5.495  -4.307  0.00  0.00     0.057 H 
ATOM     61  H   LIG d   1       8.172   4.398  -4.581  0.00  0.00     0.057 H 
ATOM     62  H   LIG d   1      10.904   4.241  -5.933  0.00  0.00     0.045 H 
ATOM     63  H   LIG d   1       9.382   4.762  -6.694  0.00  0.00     0.045 H 
ENDBRANCH  47  50
ENDBRANCH  44  47
ENDBRANCH  41  44
ENDBRANCH   1  41
BRANCH   1  64
ATOM     64  C   LIG d   1       6.521   1.509  -9.375  0.00  0.00    -0.002 C 
ATOM     65  H   LIG d   1       6.654   2.194  -8.538  0.00  0.00     0.087 H 
ATOM     66  H   LIG d   1       6.909   1.967 -10.286  0.00  0.00     0.087 H 
BRANCH  64  67
ATOM     67  C   LIG d   1       5.055   1.209  -9.550  0.00  0.00     0.042 A 
ATOM     68  C   LIG d   1       4.627   0.446 -10.625  0.00  0.00     0.170 A 
ATOM     69  C   LIG d   1       3.273   0.166 -10.780  0.00  0.00     0.162 A 
ATOM     70  C   LIG d   1       2.357   0.660  -9.867  0.00  0.00    -0.016 A 
ATOM     71  C   LIG d   1       2.789   1.427  -8.801  0.00  0.00    -0.058 A 
ATOM     72  H   LIG d   1       1.304   0.448  -9.988  0.00  0.00     0.066 H 
ATOM     73  C   LIG d   1       4.135   1.700  -8.642  0.00  0.00    -0.050 A 
ATOM     74  H   LIG d   1       2.074   1.812  -8.089  0.00  0.00     0.062 H 
ATOM     75  H   LIG d   1       4.468   2.298  -7.808  0.00  0.00     0.062 H 
BRANCH  68  76
ATOM     76  O   LIG d   1       5.530  -0.033 -11.522  0.00  0.00    -0.491 OA
BRANCH  76  77
ATOM     77  C   LIG d   1       5.730  -1.448 -11.549  0.00  0.00     0.079 C 
ATOM     78  H   LIG d   1       4.952  -1.912 -12.157  0.00  0.00     0.066 H 
ATOM     79  H   LIG d   1       6.707  -1.668 -11.979  0.00  0.00     0.066 H 
ATOM     80  H   LIG d   1       5.682  -1.841 -10.534  0.00  0.00     0.066 H 
ENDBRANCH  76  77
ENDBRANCH  68  76
BRANCH  69  81
ATOM     81  O   LIG d   1       2.849  -0.588 -11.830  0.00  0.00    -0.491 OA
BRANCH  81  82
ATOM     82  C   LIG d   1       1.545  -1.165 -11.731  0.00  0.00     0.079 C 
ATOM     83  H   LIG d   1       1.374  -1.501 -10.708  0.00  0.00     0.066 H 
ATOM     84  H   LIG d   1       0.797  -0.419 -11.999  0.00  0.00     0.066 H 
ATOM     85  H   LIG d   1       1.471  -2.013 -12.410  0.00  0.00     0.066 H 
ENDBRANCH  81  82
ENDBRANCH  69  81
ENDBRANCH  64  67
ENDBRANCH   1  64
TORSDOF 13
ENDMDL
MODEL 6
REMARK VINA RESULT:      -6.2      5.235      8.410
REMARK  13 active torsions:
REMARK  status: ('A' for Active; 'I' for Inactive)
REMARK    1  A    between atoms: C_1  and  C_2 
REMARK    2  A    between atoms: C_19  and  C_21 
REMARK    3  A    between atoms: C_21  and  N_22 
REMARK    4  A    between atoms: N_22  and  C_23 
REMARK    5  A    between atoms: N_22  and  C_32 
REMARK    6  A    between atoms: C_23  and  C_24 
REMARK    7  A    between atoms: C_24  and  C_25 
REMARK    8  A    between atoms: C_25  and  N_26 
REMARK    9  A    between atoms: C_32  and  C_33 
REMARK   10  A    between atoms: C_37  and  O_41 
REMARK   11  A    between atoms: C_38  and  O_39 
REMARK   12  A    between atoms: O_39  and  C_40 
REMARK   13  A    between atoms: O_41  and  C_42 
ROOT
ATOM      1  N   LIG d   1       9.432   2.947  -5.669  0.00  0.00     0.239 N 
ATOM      2  H   LIG d   1       9.270   3.733  -6.281  0.00  0.00     0.204 HD
ENDROOT
BRANCH   1   3
ATOM      3  C   LIG d   1       8.244   2.084  -5.657  0.00  0.00    -0.018 C 
ATOM      4  H   LIG d   1       7.514   2.459  -6.374  0.00  0.00     0.082 H 
ATOM      5  H   LIG d   1       7.806   2.083  -4.658  0.00  0.00     0.082 H 
BRANCH   3   6
ATOM      6  C   LIG d   1       8.645   0.657  -6.038  0.00  0.00     0.102 C 
ATOM      7  C   LIG d   1       8.272  -0.339  -4.899  0.00  0.00     0.015 C 
ATOM      8  C   LIG d   1       7.130   0.310  -4.112  0.00  0.00    -0.039 C 
ATOM      9  H   LIG d   1       9.120  -0.600  -4.265  0.00  0.00     0.035 H 
ATOM     10  C   LIG d   1       7.760  -1.531  -5.731  0.00  0.00     0.107 C 
ATOM     11  C   LIG d   1       6.382  -0.736  -3.292  0.00  0.00    -0.014 C 
ATOM     12  H   LIG d   1       6.438   0.784  -4.808  0.00  0.00     0.028 H 
ATOM     13  H   LIG d   1       7.539   1.067  -3.443  0.00  0.00     0.028 H 
ATOM     14  C   LIG d   1       5.748  -1.742  -4.265  0.00  0.00    -0.022 C 
ATOM     15  C   LIG d   1       5.273  -0.070  -2.511  0.00  0.00    -0.073 C 
ATOM     16  H   LIG d   1       7.066  -1.252  -2.619  0.00  0.00     0.035 H 
ATOM     17  C   LIG d   1       6.880  -2.479  -4.979  0.00  0.00    -0.009 C 
ATOM     18  C   LIG d   1       4.875  -2.719  -3.480  0.00  0.00    -0.047 C 
ATOM     19  H   LIG d   1       7.486  -3.005  -4.242  0.00  0.00     0.031 H 
ATOM     20  H   LIG d   1       6.453  -3.204  -5.673  0.00  0.00     0.031 H 
ATOM     21  C   LIG d   1       3.714  -1.965  -2.830  0.00  0.00    -0.049 C 
ATOM     22  H   LIG d   1       4.481  -3.478  -4.156  0.00  0.00     0.027 H 
ATOM     23  H   LIG d   1       5.474  -3.199  -2.706  0.00  0.00     0.027 H 
ATOM     24  C   LIG d   1       4.261  -0.954  -1.816  0.00  0.00    -0.032 C 
ATOM     25  H   LIG d   1       3.148  -1.438  -3.597  0.00  0.00     0.027 H 
ATOM     26  H   LIG d   1       3.061  -2.673  -2.319  0.00  0.00     0.027 H 
ATOM     27  H   LIG d   1       3.444  -0.343  -1.432  0.00  0.00     0.031 H 
ATOM     28  H   LIG d   1       4.741  -1.484  -0.994  0.00  0.00     0.031 H 
ATOM     29  C   LIG d   1       5.192   1.236  -2.436  0.00  0.00    -0.099 C 
ATOM     30  H   LIG d   1       4.393   1.696  -1.874  0.00  0.00     0.053 H 
ATOM     31  H   LIG d   1       5.924   1.852  -2.938  0.00  0.00     0.053 H 
ATOM     32  H   LIG d   1       8.617  -2.083  -6.119  0.00  0.00     0.074 H 
ATOM     33  O   LIG d   1       7.073  -0.913  -6.826  0.00  0.00    -0.461 OA
ATOM     34  C   LIG d   1       7.814   0.144  -7.226  0.00  0.00     0.316 C 
ATOM     35  O   LIG d   1       7.825   0.611  -8.341  0.00  0.00    -0.250 OA
ATOM     36  H   LIG d   1       9.712   0.605  -6.257  0.00  0.00     0.047 H 
BRANCH  14  37
ATOM     37  C   LIG d   1       4.892  -0.996  -5.290  0.00  0.00    -0.059 C 
ATOM     38  H   LIG d   1       5.291  -1.166  -6.290  0.00  0.00     0.024 H 
ATOM     39  H   LIG d   1       3.866  -1.362  -5.241  0.00  0.00     0.024 H 
ATOM     40  H   LIG d   1       4.907   0.071  -5.069  0.00  0.00     0.024 H 
ENDBRANCH  14  37
ENDBRANCH   3   6
ENDBRANCH   1   3
BRANCH   1  41
ATOM     41  C   LIG d   1      10.590   2.181  -6.149  0.00  0.00    -0.030 C 
ATOM     42  H   LIG d   1      11.285   2.020  -5.327  0.00  0.00     0.082 H 
ATOM     43  H   LIG d   1      10.254   1.219  -6.535  0.00  0.00     0.082 H 
BRANCH  41  44
ATOM     44  C   LIG d   1      11.290   2.960  -7.264  0.00  0.00     0.000 C 
ATOM     45  H   LIG d   1      11.183   4.030  -7.083  0.00  0.00     0.033 H 
ATOM     46  H   LIG d   1      12.348   2.699  -7.281  0.00  0.00     0.033 H 
BRANCH  44  47
ATOM     47  C   LIG d   1      10.656   2.605  -8.611  0.00  0.00     0.004 C 
ATOM     48  H   LIG d   1      11.350   1.994  -9.188  0.00  0.00     0.043 H 
ATOM     49  H   LIG d   1       9.735   2.048  -8.443  0.00  0.00     0.043 H 
BRANCH  47  50
ATOM     50  N   LIG d   1      10.356   3.838  -9.350  0.00  0.00    -0.298 N 
ATOM     51  C   LIG d   1      10.358   3.596 -10.801  0.00  0.00     0.022 C 
ATOM     52  C   LIG d   1      10.100   4.915 -11.534  0.00  0.00     0.060 C 
ATOM     53  H   LIG d   1      11.326   3.194 -11.102  0.00  0.00     0.045 H 
ATOM     54  H   LIG d   1       9.574   2.881 -11.051  0.00  0.00     0.045 H 
ATOM     55  O   LIG d   1       8.865   5.473 -11.080  0.00  0.00    -0.377 OA
ATOM     56  H   LIG d   1      10.044   4.730 -12.607  0.00  0.00     0.057 H 
ATOM     57  H   LIG d   1      10.913   5.611 -11.326  0.00  0.00     0.057 H 
ATOM     58  C   LIG d   1       8.829   5.723  -9.672  0.00  0.00     0.060 C 
ATOM     59  C   LIG d   1       9.073   4.412  -8.920  0.00  0.00     0.022 C 
ATOM     60  H   LIG d   1       7.853   6.123  -9.397  0.00  0.00     0.057 H 
ATOM     61  H   LIG d   1       9.605   6.443  -9.410  0.00  0.00     0.057 H 
ATOM     62  H   LIG d   1       8.269   3.711  -9.140  0.00  0.00     0.045 H 
ATOM     63  H   LIG d   1       9.103   4.607  -7.848  0.00  0.00     0.045 H 
ENDBRANCH  47  50
ENDBRANCH  44  47
ENDBRANCH  41  44
ENDBRANCH   1  41
BRANCH   1  64
ATOM     64  C   LIG d   1       9.698   3.433  -4.308  0.00  0.00    -0.002 C 
ATOM     65  H   LIG d   1       8.919   3.074  -3.635  0.00  0.00     0.087 H 
ATOM     66  H   LIG d   1      10.667   3.063  -3.973  0.00  0.00     0.087 H 
BRANCH  64  67
ATOM     67  C   LIG d   1       9.708   4.940  -4.306  0.00  0.00     0.042 A 
ATOM     68  C   LIG d   1       9.963   5.629  -3.132  0.00  0.00     0.170 A 
ATOM     69  C   LIG d   1       9.978   7.021  -3.134  0.00  0.00     0.162 A 
ATOM     70  C   LIG d   1       9.727   7.711  -4.308  0.00  0.00    -0.016 A 
ATOM     71  C   LIG d   1       9.466   7.018  -5.476  0.00  0.00    -0.058 A 
ATOM     72  H   LIG d   1       9.735   8.792  -4.312  0.00  0.00     0.066 H 
ATOM     73  C   LIG d   1       9.458   5.635  -5.475  0.00  0.00    -0.050 A 
ATOM     74  H   LIG d   1       9.271   7.557  -6.391  0.00  0.00     0.062 H 
ATOM     75  H   LIG d   1       9.255   5.097  -6.389  0.00  0.00     0.062 H 
BRANCH  68  76
ATOM     76  O   LIG d   1      10.204   4.947  -1.980  0.00  0.00    -0.491 OA
BRANCH  76  77
ATOM     77  C   LIG d   1      11.563   4.870  -1.544  0.00  0.00     0.079 C 
ATOM     78  H   LIG d   1      11.919   3.845  -1.647  0.00  0.00     0.066 H 
ATOM     79  H   LIG d   1      12.178   5.532  -2.153  0.00  0.00     0.066 H 
ATOM     80  H   LIG d   1      11.627   5.174  -0.500  0.00  0.00     0.066 H 
ENDBRANCH  76  77
ENDBRANCH  68  76
BRANCH  69  81
ATOM     81  O   LIG d   1      10.234   7.701  -1.985  0.00  0.00    -0.491 OA
BRANCH  81  82
ATOM     82  C   LIG d   1       9.106   8.152  -1.233  0.00  0.00     0.079 C 
ATOM     83  H   LIG d   1       8.214   7.616  -1.558  0.00  0.00     0.066 H 
ATOM     84  H   LIG d   1       9.278   7.965  -0.173  0.00  0.00     0.066 H 
ATOM     85  H   LIG d   1       8.966   9.221  -1.393  0.00  0.00     0.066 H 
ENDBRANCH  81  82
ENDBRANCH  69  81
ENDBRANCH  64  67
ENDBRANCH   1  64
TORSDOF 13
ENDMDL
MODEL 7
REMARK VINA RESULT:      -6.1      5.683      9.429
REMARK  13 active torsions:
REMARK  status: ('A' for Active; 'I' for Inactive)
REMARK    1  A    between atoms: C_1  and  C_2 
REMARK    2  A    between atoms: C_19  and  C_21 
REMARK    3  A    between atoms: C_21  and  N_22 
REMARK    4  A    between atoms: N_22  and  C_23 
REMARK    5  A    between atoms: N_22  and  C_32 
REMARK    6  A    between atoms: C_23  and  C_24 
REMARK    7  A    between atoms: C_24  and  C_25 
REMARK    8  A    between atoms: C_25  and  N_26 
REMARK    9  A    between atoms: C_32  and  C_33 
REMARK   10  A    between atoms: C_37  and  O_41 
REMARK   11  A    between atoms: C_38  and  O_39 
REMARK   12  A    between atoms: O_39  and  C_40 
REMARK   13  A    between atoms: O_41  and  C_42 
ROOT
ATOM      1  N   LIG d   1       9.674   2.794  -5.571  0.00  0.00     0.239 N 
ATOM      2  H   LIG d   1      10.193   2.533  -6.395  0.00  0.00     0.204 HD
ENDROOT
BRANCH   1   3
ATOM      3  C   LIG d   1       8.445   1.994  -5.493  0.00  0.00    -0.018 C 
ATOM      4  H   LIG d   1       7.688   2.424  -6.149  0.00  0.00     0.082 H 
ATOM      5  H   LIG d   1       8.077   1.992  -4.466  0.00  0.00     0.082 H 
BRANCH   3   6
ATOM      6  C   LIG d   1       8.741   0.558  -5.929  0.00  0.00     0.102 C 
ATOM      7  C   LIG d   1       8.270  -0.454  -4.841  0.00  0.00     0.015 C 
ATOM      8  C   LIG d   1       7.168   0.249  -4.044  0.00  0.00    -0.039 C 
ATOM      9  H   LIG d   1       9.084  -0.806  -4.206  0.00  0.00     0.035 H 
ATOM     10  C   LIG d   1       7.683  -1.566  -5.732  0.00  0.00     0.107 C 
ATOM     11  C   LIG d   1       6.326  -0.769  -3.282  0.00  0.00    -0.014 C 
ATOM     12  H   LIG d   1       6.528   0.805  -4.729  0.00  0.00     0.028 H 
ATOM     13  H   LIG d   1       7.623   0.942  -3.336  0.00  0.00     0.028 H 
ATOM     14  C   LIG d   1       5.634  -1.680  -4.307  0.00  0.00    -0.022 C 
ATOM     15  C   LIG d   1       5.258  -0.051  -2.489  0.00  0.00    -0.073 C 
ATOM     16  H   LIG d   1       6.956  -1.365  -2.621  0.00  0.00     0.035 H 
ATOM     17  C   LIG d   1       6.719  -2.472  -5.036  0.00  0.00    -0.009 C 
ATOM     18  C   LIG d   1       4.674  -2.617  -3.579  0.00  0.00    -0.047 C 
ATOM     19  H   LIG d   1       7.267  -3.075  -4.313  0.00  0.00     0.031 H 
ATOM     20  H   LIG d   1       6.249  -3.132  -5.766  0.00  0.00     0.031 H 
ATOM     21  C   LIG d   1       3.562  -1.803  -2.914  0.00  0.00    -0.049 C 
ATOM     22  H   LIG d   1       4.234  -3.314  -4.293  0.00  0.00     0.027 H 
ATOM     23  H   LIG d   1       5.219  -3.176  -2.817  0.00  0.00     0.027 H 
ATOM     24  C   LIG d   1       4.167  -0.882  -1.849  0.00  0.00    -0.032 C 
ATOM     25  H   LIG d   1       3.053  -1.202  -3.666  0.00  0.00     0.027 H 
ATOM     26  H   LIG d   1       2.848  -2.478  -2.444  0.00  0.00     0.027 H 
ATOM     27  H   LIG d   1       3.393  -0.226  -1.451  0.00  0.00     0.031 H 
ATOM     28  H   LIG d   1       4.590  -1.483  -1.044  0.00  0.00     0.031 H 
ATOM     29  C   LIG d   1       5.277   1.252  -2.359  0.00  0.00    -0.099 C 
ATOM     30  H   LIG d   1       4.507   1.750  -1.789  0.00  0.00     0.053 H 
ATOM     31  H   LIG d   1       6.064   1.830  -2.822  0.00  0.00     0.053 H 
ATOM     32  H   LIG d   1       8.501  -2.166  -6.130  0.00  0.00     0.074 H 
ATOM     33  O   LIG d   1       7.066  -0.850  -6.809  0.00  0.00    -0.461 OA
ATOM     34  C   LIG d   1       7.895   0.162  -7.152  0.00  0.00     0.316 C 
ATOM     35  O   LIG d   1       7.962   0.673  -8.244  0.00  0.00    -0.250 OA
ATOM     36  H   LIG d   1       9.804   0.431  -6.134  0.00  0.00     0.047 H 
BRANCH  14  37
ATOM     37  C   LIG d   1       4.857  -0.826  -5.312  0.00  0.00    -0.059 C 
ATOM     38  H   LIG d   1       4.373  -1.475  -6.042  0.00  0.00     0.024 H 
ATOM     39  H   LIG d   1       4.101  -0.243  -4.784  0.00  0.00     0.024 H 
ATOM     40  H   LIG d   1       5.544  -0.152  -5.822  0.00  0.00     0.024 H 
ENDBRANCH  14  37
ENDBRANCH   3   6
ENDBRANCH   1   3
BRANCH   1  41
ATOM     41  C   LIG d   1      10.494   2.550  -4.377  0.00  0.00    -0.030 C 
ATOM     42  H   LIG d   1      10.517   1.482  -4.163  0.00  0.00     0.082 H 
ATOM     43  H   LIG d   1      11.509   2.906  -4.555  0.00  0.00     0.082 H 
BRANCH  41  44
ATOM     44  C   LIG d   1       9.894   3.296  -3.184  0.00  0.00     0.000 C 
ATOM     45  H   LIG d   1       9.221   4.075  -3.544  0.00  0.00     0.033 H 
ATOM     46  H   LIG d   1       9.338   2.596  -2.561  0.00  0.00     0.033 H 
BRANCH  44  47
ATOM     47  C   LIG d   1      11.017   3.931  -2.362  0.00  0.00     0.004 C 
ATOM     48  H   LIG d   1      11.448   3.182  -1.698  0.00  0.00     0.043 H 
ATOM     49  H   LIG d   1      11.788   4.310  -3.032  0.00  0.00     0.043 H 
BRANCH  47  50
ATOM     50  N   LIG d   1      10.473   5.037  -1.564  0.00  0.00    -0.298 N 
ATOM     51  C   LIG d   1      11.457   5.509  -0.577  0.00  0.00     0.022 C 
ATOM     52  C   LIG d   1      10.830   6.619   0.270  0.00  0.00     0.060 C 
ATOM     53  H   LIG d   1      11.751   4.681   0.067  0.00  0.00     0.045 H 
ATOM     54  H   LIG d   1      12.334   5.897  -1.095  0.00  0.00     0.045 H 
ATOM     55  O   LIG d   1      10.378   7.670  -0.588  0.00  0.00    -0.377 OA
ATOM     56  H   LIG d   1      11.574   7.010   0.965  0.00  0.00     0.057 H 
ATOM     57  H   LIG d   1       9.986   6.217   0.830  0.00  0.00     0.057 H 
ATOM     58  C   LIG d   1       9.418   7.246  -1.561  0.00  0.00     0.060 C 
ATOM     59  C   LIG d   1      10.031   6.142  -2.427  0.00  0.00     0.022 C 
ATOM     60  H   LIG d   1       9.141   8.091  -2.191  0.00  0.00     0.057 H 
ATOM     61  H   LIG d   1       8.533   6.862  -1.054  0.00  0.00     0.057 H 
ATOM     62  H   LIG d   1      10.884   6.540  -2.974  0.00  0.00     0.045 H 
ATOM     63  H   LIG d   1       9.284   5.776  -3.132  0.00  0.00     0.045 H 
ENDBRANCH  47  50
ENDBRANCH  44  47
ENDBRANCH  41  44
ENDBRANCH   1  41
BRANCH   1  64
ATOM     64  C   LIG d   1       9.326   4.220  -5.642  0.00  0.00    -0.002 C 
ATOM     65  H   LIG d   1       8.246   4.335  -5.557  0.00  0.00     0.087 H 
ATOM     66  H   LIG d   1       9.815   4.753  -4.825  0.00  0.00     0.087 H 
BRANCH  64  67
ATOM     67  C   LIG d   1       9.790   4.785  -6.959  0.00  0.00     0.042 A 
ATOM     68  C   LIG d   1      10.285   6.077  -7.023  0.00  0.00     0.170 A 
ATOM     69  C   LIG d   1      10.719   6.594  -8.240  0.00  0.00     0.162 A 
ATOM     70  C   LIG d   1      10.643   5.819  -9.384  0.00  0.00    -0.016 A 
ATOM     71  C   LIG d   1      10.141   4.532  -9.316  0.00  0.00    -0.058 A 
ATOM     72  H   LIG d   1      10.975   6.219 -10.332  0.00  0.00     0.066 H 
ATOM     73  C   LIG d   1       9.717   4.016  -8.106  0.00  0.00    -0.050 A 
ATOM     74  H   LIG d   1      10.083   3.928 -10.210  0.00  0.00     0.062 H 
ATOM     75  H   LIG d   1       9.327   3.010  -8.057  0.00  0.00     0.062 H 
BRANCH  68  76
ATOM     76  O   LIG d   1      10.353   6.837  -5.897  0.00  0.00    -0.491 OA
BRANCH  76  77
ATOM     77  C   LIG d   1       9.301   7.780  -5.685  0.00  0.00     0.079 C 
ATOM     78  H   LIG d   1       8.339   7.295  -5.859  0.00  0.00     0.066 H 
ATOM     79  H   LIG d   1       9.342   8.146  -4.659  0.00  0.00     0.066 H 
ATOM     80  H   LIG d   1       9.416   8.615  -6.374  0.00  0.00     0.066 H 
ENDBRANCH  76  77
ENDBRANCH  68  76
BRANCH  69  81
ATOM     81  O   LIG d   1      11.211   7.860  -8.306  0.00  0.00    -0.491 OA
BRANCH  81  82
ATOM     82  C   LIG d   1      10.709   8.698  -9.349  0.00  0.00     0.079 C 
ATOM     83  H   LIG d   1      11.474   8.822 -10.115  0.00  0.00     0.066 H 
ATOM     84  H   LIG d   1       9.824   8.238  -9.790  0.00  0.00     0.066 H 
ATOM     85  H   LIG d   1      10.445   9.672  -8.938  0.00  0.00     0.066 H 
ENDBRANCH  81  82
ENDBRANCH  69  81
ENDBRANCH  64  67
ENDBRANCH   1  64
TORSDOF 13
ENDMDL
MODEL 8
REMARK VINA RESULT:      -6.1      3.655      7.546
REMARK  13 active torsions:
REMARK  status: ('A' for Active; 'I' for Inactive)
REMARK    1  A    between atoms: C_1  and  C_2 
REMARK    2  A    between atoms: C_19  and  C_21 
REMARK    3  A    between atoms: C_21  and  N_22 
REMARK    4  A    between atoms: N_22  and  C_23 
REMARK    5  A    between atoms: N_22  and  C_32 
REMARK    6  A    between atoms: C_23  and  C_24 
REMARK    7  A    between atoms: C_24  and  C_25 
REMARK    8  A    between atoms: C_25  and  N_26 
REMARK    9  A    between atoms: C_32  and  C_33 
REMARK   10  A    between atoms: C_37  and  O_41 
REMARK   11  A    between atoms: C_38  and  O_39 
REMARK   12  A    between atoms: O_39  and  C_40 
REMARK   13  A    between atoms: O_41  and  C_42 
ROOT
ATOM      1  N   LIG d   1       8.597  -2.158  -7.740  0.00  0.00     0.239 N 
ATOM      2  H   LIG d   1       7.857  -2.610  -8.254  0.00  0.00     0.204 HD
ENDROOT
BRANCH   1   3
ATOM      3  C   LIG d   1       8.181  -1.973  -6.344  0.00  0.00    -0.018 C 
ATOM      4  H   LIG d   1       7.616  -1.045  -6.252  0.00  0.00     0.082 H 
ATOM      5  H   LIG d   1       9.063  -1.927  -5.704  0.00  0.00     0.082 H 
BRANCH   3   6
ATOM      6  C   LIG d   1       7.302  -3.149  -5.913  0.00  0.00     0.102 C 
ATOM      7  C   LIG d   1       6.736  -2.914  -4.480  0.00  0.00     0.015 C 
ATOM      8  C   LIG d   1       6.733  -1.399  -4.258  0.00  0.00    -0.039 C 
ATOM      9  H   LIG d   1       7.292  -3.447  -3.708  0.00  0.00     0.035 H 
ATOM     10  C   LIG d   1       5.302  -3.448  -4.657  0.00  0.00     0.107 C 
ATOM     11  C   LIG d   1       5.792  -1.026  -3.117  0.00  0.00    -0.014 C 
ATOM     12  H   LIG d   1       6.405  -0.903  -5.172  0.00  0.00     0.028 H 
ATOM     13  H   LIG d   1       7.743  -1.069  -4.014  0.00  0.00     0.028 H 
ATOM     14  C   LIG d   1       4.366  -1.428  -3.523  0.00  0.00    -0.022 C 
ATOM     15  C   LIG d   1       5.820   0.470  -2.906  0.00  0.00    -0.073 C 
ATOM     16  H   LIG d   1       6.079  -1.546  -2.203  0.00  0.00     0.035 H 
ATOM     17  C   LIG d   1       4.325  -2.951  -3.639  0.00  0.00    -0.009 C 
ATOM     18  C   LIG d   1       3.385  -0.938  -2.461  0.00  0.00    -0.047 C 
ATOM     19  H   LIG d   1       4.575  -3.390  -2.674  0.00  0.00     0.031 H 
ATOM     20  H   LIG d   1       3.319  -3.261  -3.921  0.00  0.00     0.031 H 
ATOM     21  C   LIG d   1       3.398   0.591  -2.411  0.00  0.00    -0.049 C 
ATOM     22  H   LIG d   1       2.380  -1.284  -2.707  0.00  0.00     0.027 H 
ATOM     23  H   LIG d   1       3.675  -1.336  -1.487  0.00  0.00     0.027 H 
ATOM     24  C   LIG d   1       4.787   1.078  -1.983  0.00  0.00    -0.032 C 
ATOM     25  H   LIG d   1       3.163   0.988  -3.398  0.00  0.00     0.027 H 
ATOM     26  H   LIG d   1       2.656   0.938  -1.693  0.00  0.00     0.027 H 
ATOM     27  H   LIG d   1       4.829   2.165  -2.052  0.00  0.00     0.031 H 
ATOM     28  H   LIG d   1       4.983   0.766  -0.957  0.00  0.00     0.031 H 
ATOM     29  C   LIG d   1       6.715   1.219  -3.503  0.00  0.00    -0.099 C 
ATOM     30  H   LIG d   1       6.721   2.286  -3.340  0.00  0.00     0.053 H 
ATOM     31  H   LIG d   1       7.446   0.767  -4.158  0.00  0.00     0.053 H 
ATOM     32  H   LIG d   1       5.324  -4.537  -4.617  0.00  0.00     0.074 H 
ATOM     33  O   LIG d   1       4.948  -3.041  -5.985  0.00  0.00    -0.461 OA
ATOM     34  C   LIG d   1       6.029  -3.237  -6.772  0.00  0.00     0.316 C 
ATOM     35  O   LIG d   1       6.001  -3.450  -7.961  0.00  0.00    -0.250 OA
ATOM     36  H   LIG d   1       7.864  -4.083  -5.953  0.00  0.00     0.047 H 
BRANCH  14  37
ATOM     37  C   LIG d   1       4.019  -0.799  -4.874  0.00  0.00    -0.059 C 
ATOM     38  H   LIG d   1       3.134  -1.285  -5.284  0.00  0.00     0.024 H 
ATOM     39  H   LIG d   1       3.821   0.265  -4.738  0.00  0.00     0.024 H 
ATOM     40  H   LIG d   1       4.856  -0.928  -5.560  0.00  0.00     0.024 H 
ENDBRANCH  14  37
ENDBRANCH   3   6
ENDBRANCH   1   3
BRANCH   1  41
ATOM     41  C   LIG d   1       9.806  -2.991  -7.785  0.00  0.00    -0.030 C 
ATOM     42  H   LIG d   1       9.523  -4.043  -7.789  0.00  0.00     0.082 H 
ATOM     43  H   LIG d   1      10.370  -2.764  -8.689  0.00  0.00     0.082 H 
BRANCH  41  44
ATOM     44  C   LIG d   1      10.672  -2.701  -6.557  0.00  0.00     0.000 C 
ATOM     45  H   LIG d   1      11.307  -1.837  -6.757  0.00  0.00     0.033 H 
ATOM     46  H   LIG d   1      10.030  -2.490  -5.702  0.00  0.00     0.033 H 
BRANCH  44  47
ATOM     47  C   LIG d   1      11.547  -3.918  -6.251  0.00  0.00     0.004 C 
ATOM     48  H   LIG d   1      11.448  -4.647  -7.055  0.00  0.00     0.043 H 
ATOM     49  H   LIG d   1      12.587  -3.605  -6.168  0.00  0.00     0.043 H 
BRANCH  47  50
ATOM     50  N   LIG d   1      11.115  -4.523  -4.984  0.00  0.00    -0.298 N 
ATOM     51  C   LIG d   1      10.675  -3.493  -4.031  0.00  0.00     0.022 C 
ATOM     52  C   LIG d   1      10.291  -4.161  -2.708  0.00  0.00     0.060 C 
ATOM     53  H   LIG d   1      11.486  -2.785  -3.860  0.00  0.00     0.045 H 
ATOM     54  H   LIG d   1       9.811  -2.967  -4.437  0.00  0.00     0.045 H 
ATOM     55  O   LIG d   1       9.279  -5.142  -2.950  0.00  0.00    -0.377 OA
ATOM     56  H   LIG d   1       9.910  -3.408  -2.017  0.00  0.00     0.057 H 
ATOM     57  H   LIG d   1      11.167  -4.642  -2.274  0.00  0.00     0.057 H 
ATOM     58  C   LIG d   1       9.674  -6.161  -3.873  0.00  0.00     0.060 C 
ATOM     59  C   LIG d   1      10.052  -5.513  -5.208  0.00  0.00     0.022 C 
ATOM     60  H   LIG d   1       8.847  -6.854  -4.026  0.00  0.00     0.057 H 
ATOM     61  H   LIG d   1      10.533  -6.700  -3.474  0.00  0.00     0.057 H 
ATOM     62  H   LIG d   1       9.178  -5.020  -5.633  0.00  0.00     0.045 H 
ATOM     63  H   LIG d   1      10.408  -6.280  -5.897  0.00  0.00     0.045 H 
ENDBRANCH  47  50
ENDBRANCH  44  47
ENDBRANCH  41  44
ENDBRANCH   1  41
BRANCH   1  64
ATOM     64  C   LIG d   1       8.883  -0.848  -8.342  0.00  0.00    -0.002 C 
ATOM     65  H   LIG d   1       9.159  -0.141  -7.560  0.00  0.00     0.087 H 
ATOM     66  H   LIG d   1       9.706  -0.947  -9.051  0.00  0.00     0.087 H 
BRANCH  64  67
ATOM     67  C   LIG d   1       7.658  -0.348  -9.062  0.00  0.00     0.042 A 
ATOM     68  C   LIG d   1       7.089   0.863  -8.703  0.00  0.00     0.170 A 
ATOM     69  C   LIG d   1       5.961   1.325  -9.375  0.00  0.00     0.162 A 
ATOM     70  C   LIG d   1       5.406   0.567 -10.392  0.00  0.00    -0.016 A 
ATOM     71  C   LIG d   1       5.973  -0.644 -10.741  0.00  0.00    -0.058 A 
ATOM     72  H   LIG d   1       4.527   0.922 -10.912  0.00  0.00     0.066 H 
ATOM     73  C   LIG d   1       7.098  -1.101 -10.078  0.00  0.00    -0.050 A 
ATOM     74  H   LIG d   1       5.539  -1.235 -11.534  0.00  0.00     0.062 H 
ATOM     75  H   LIG d   1       7.539  -2.046 -10.355  0.00  0.00     0.062 H 
BRANCH  68  76
ATOM     76  O   LIG d   1       7.636   1.602  -7.701  0.00  0.00    -0.491 OA
BRANCH  76  77
ATOM     77  C   LIG d   1       8.641   2.549  -8.067  0.00  0.00     0.079 C 
ATOM     78  H   LIG d   1       9.619   2.065  -8.047  0.00  0.00     0.066 H 
ATOM     79  H   LIG d   1       8.441   2.922  -9.071  0.00  0.00     0.066 H 
ATOM     80  H   LIG d   1       8.633   3.379  -7.362  0.00  0.00     0.066 H 
ENDBRANCH  76  77
ENDBRANCH  68  76
BRANCH  69  81
ATOM     81  O   LIG d   1       5.404   2.516  -9.030  0.00  0.00    -0.491 OA
BRANCH  81  82
ATOM     82  C   LIG d   1       4.015   2.690  -9.318  0.00  0.00     0.079 C 
ATOM     83  H   LIG d   1       3.815   3.742  -9.523  0.00  0.00     0.066 H 
ATOM     84  H   LIG d   1       3.747   2.092 -10.189  0.00  0.00     0.066 H 
ATOM     85  H   LIG d   1       3.423   2.368  -8.462  0.00  0.00     0.066 H 
ENDBRANCH  81  82
ENDBRANCH  69  81
ENDBRANCH  64  67
ENDBRANCH   1  64
TORSDOF 13
ENDMDL
MODEL 9
REMARK VINA RESULT:      -6.1      2.506      8.395
REMARK  13 active torsions:
REMARK  status: ('A' for Active; 'I' for Inactive)
REMARK    1  A    between atoms: C_1  and  C_2 
REMARK    2  A    between atoms: C_19  and  C_21 
REMARK    3  A    between atoms: C_21  and  N_22 
REMARK    4  A    between atoms: N_22  and  C_23 
REMARK    5  A    between atoms: N_22  and  C_32 
REMARK    6  A    between atoms: C_23  and  C_24 
REMARK    7  A    between atoms: C_24  and  C_25 
REMARK    8  A    between atoms: C_25  and  N_26 
REMARK    9  A    between atoms: C_32  and  C_33 
REMARK   10  A    between atoms: C_37  and  O_41 
REMARK   11  A    between atoms: C_38  and  O_39 
REMARK   12  A    between atoms: O_39  and  C_40 
REMARK   13  A    between atoms: O_41  and  C_42 
ROOT
ATOM      1  N   LIG d   1       4.927  -4.996  -6.805  0.00  0.00     0.239 N 
ATOM      2  H   LIG d   1       5.898  -4.882  -7.053  0.00  0.00     0.204 HD
ENDROOT
BRANCH   1   3
ATOM      3  C   LIG d   1       4.139  -3.910  -7.402  0.00  0.00    -0.018 C 
ATOM      4  H   LIG d   1       4.487  -2.952  -7.015  0.00  0.00     0.082 H 
ATOM      5  H   LIG d   1       3.086  -4.043  -7.149  0.00  0.00     0.082 H 
BRANCH   3   6
ATOM      6  C   LIG d   1       4.303  -3.936  -8.923  0.00  0.00     0.102 C 
ATOM      7  C   LIG d   1       3.505  -2.770  -9.580  0.00  0.00     0.015 C 
ATOM      8  C   LIG d   1       3.356  -1.687  -8.507  0.00  0.00    -0.039 C 
ATOM      9  H   LIG d   1       2.545  -3.088  -9.988  0.00  0.00     0.035 H 
ATOM     10  C   LIG d   1       4.501  -2.332 -10.671  0.00  0.00     0.107 C 
ATOM     11  C   LIG d   1       3.018  -0.343  -9.146  0.00  0.00    -0.014 C 
ATOM     12  H   LIG d   1       4.291  -1.598  -7.955  0.00  0.00     0.028 H 
ATOM     13  H   LIG d   1       2.559  -1.970  -7.820  0.00  0.00     0.028 H 
ATOM     14  C   LIG d   1       4.194   0.067 -10.045  0.00  0.00    -0.022 C 
ATOM     15  C   LIG d   1       2.859   0.703  -8.068  0.00  0.00    -0.073 C 
ATOM     16  H   LIG d   1       2.107  -0.423  -9.739  0.00  0.00     0.035 H 
ATOM     17  C   LIG d   1       4.285  -0.945 -11.187  0.00  0.00    -0.009 C 
ATOM     18  C   LIG d   1       3.946   1.473 -10.585  0.00  0.00    -0.047 C 
ATOM     19  H   LIG d   1       3.357  -0.926 -11.756  0.00  0.00     0.031 H 
ATOM     20  H   LIG d   1       5.111  -0.670 -11.843  0.00  0.00     0.031 H 
ATOM     21  C   LIG d   1       3.924   2.474  -9.429  0.00  0.00    -0.049 C 
ATOM     22  H   LIG d   1       4.741   1.741 -11.282  0.00  0.00     0.027 H 
ATOM     23  H   LIG d   1       2.987   1.499 -11.105  0.00  0.00     0.027 H 
ATOM     24  C   LIG d   1       2.755   2.152  -8.492  0.00  0.00    -0.032 C 
ATOM     25  H   LIG d   1       4.861   2.409  -8.875  0.00  0.00     0.027 H 
ATOM     26  H   LIG d   1       3.805   3.483  -9.823  0.00  0.00     0.027 H 
ATOM     27  H   LIG d   1       2.803   2.795  -7.613  0.00  0.00     0.031 H 
ATOM     28  H   LIG d   1       1.813   2.313  -9.015  0.00  0.00     0.031 H 
ATOM     29  C   LIG d   1       2.810   0.366  -6.803  0.00  0.00    -0.099 C 
ATOM     30  H   LIG d   1       2.695   1.126  -6.045  0.00  0.00     0.053 H 
ATOM     31  H   LIG d   1       2.884  -0.674  -6.517  0.00  0.00     0.053 H 
ATOM     32  H   LIG d   1       4.437  -3.030 -11.507  0.00  0.00     0.074 H 
ATOM     33  O   LIG d   1       5.781  -2.479 -10.043  0.00  0.00    -0.461 OA
ATOM     34  C   LIG d   1       5.755  -3.628  -9.331  0.00  0.00     0.316 C 
ATOM     35  O   LIG d   1       6.717  -4.306  -9.059  0.00  0.00    -0.250 OA
ATOM     36  H   LIG d   1       3.981  -4.895  -9.327  0.00  0.00     0.047 H 
BRANCH  14  37
ATOM     37  C   LIG d   1       5.492   0.048  -9.235  0.00  0.00    -0.059 C 
ATOM     38  H   LIG d   1       5.788   1.070  -9.000  0.00  0.00     0.024 H 
ATOM     39  H   LIG d   1       5.334  -0.508  -8.310  0.00  0.00     0.024 H 
ATOM     40  H   LIG d   1       6.277  -0.433  -9.819  0.00  0.00     0.024 H 
ENDBRANCH  14  37
ENDBRANCH   3   6
ENDBRANCH   1   3
BRANCH   1  41
ATOM     41  C   LIG d   1       4.440  -6.288  -7.306  0.00  0.00    -0.030 C 
ATOM     42  H   LIG d   1       3.362  -6.238  -7.452  0.00  0.00     0.082 H 
ATOM     43  H   LIG d   1       4.925  -6.515  -8.255  0.00  0.00     0.082 H 
BRANCH  41  44
ATOM     44  C   LIG d   1       4.766  -7.385  -6.291  0.00  0.00     0.000 C 
ATOM     45  H   LIG d   1       5.751  -7.200  -5.860  0.00  0.00     0.033 H 
ATOM     46  H   LIG d   1       4.018  -7.381  -5.498  0.00  0.00     0.033 H 
BRANCH  44  47
ATOM     47  C   LIG d   1       4.761  -8.745  -6.990  0.00  0.00     0.004 C 
ATOM     48  H   LIG d   1       3.960  -8.770  -7.729  0.00  0.00     0.043 H 
ATOM     49  H   LIG d   1       5.719  -8.902  -7.486  0.00  0.00     0.043 H 
BRANCH  47  50
ATOM     50  N   LIG d   1       4.544  -9.805  -5.997  0.00  0.00    -0.298 N 
ATOM     51  C   LIG d   1       5.531 -10.884  -6.154  0.00  0.00     0.022 C 
ATOM     52  C   LIG d   1       5.234 -11.992  -5.141  0.00  0.00     0.060 C 
ATOM     53  H   LIG d   1       5.471 -11.288  -7.164  0.00  0.00     0.045 H 
ATOM     54  H   LIG d   1       6.532 -10.490  -5.978  0.00  0.00     0.045 H 
ATOM     55  O   LIG d   1       5.240 -11.440  -3.821  0.00  0.00    -0.377 OA
ATOM     56  H   LIG d   1       5.996 -12.768  -5.215  0.00  0.00     0.057 H 
ATOM     57  H   LIG d   1       4.254 -12.423  -5.350  0.00  0.00     0.057 H 
ATOM     58  C   LIG d   1       4.290 -10.387  -3.633  0.00  0.00     0.060 C 
ATOM     59  C   LIG d   1       4.579  -9.263  -4.631  0.00  0.00     0.022 C 
ATOM     60  H   LIG d   1       4.371 -10.002  -2.617  0.00  0.00     0.057 H 
ATOM     61  H   LIG d   1       3.284 -10.772  -3.799  0.00  0.00     0.057 H 
ATOM     62  H   LIG d   1       5.564  -8.843  -4.431  0.00  0.00     0.045 H 
ATOM     63  H   LIG d   1       3.823  -8.484  -4.530  0.00  0.00     0.045 H 
ENDBRANCH  47  50
ENDBRANCH  44  47
ENDBRANCH  41  44
ENDBRANCH   1  41
BRANCH   1  64
ATOM     64  C   LIG d   1       4.787  -4.954  -5.342  0.00  0.00    -0.002 C 
ATOM     65  H   LIG d   1       3.737  -4.820  -5.081  0.00  0.00     0.087 H 
ATOM     66  H   LIG d   1       5.151  -5.890  -4.917  0.00  0.00     0.087 H 
BRANCH  64  67
ATOM     67  C   LIG d   1       5.593  -3.806  -4.793  0.00  0.00     0.042 A 
ATOM     68  C   LIG d   1       6.957  -3.744  -5.025  0.00  0.00     0.170 A 
ATOM     69  C   LIG d   1       7.698  -2.678  -4.521  0.00  0.00     0.162 A 
ATOM     70  C   LIG d   1       7.070  -1.691  -3.781  0.00  0.00    -0.016 A 
ATOM     71  C   LIG d   1       5.709  -1.762  -3.547  0.00  0.00    -0.058 A 
ATOM     72  H   LIG d   1       7.643  -0.865  -3.385  0.00  0.00     0.066 H 
ATOM     73  C   LIG d   1       4.972  -2.817  -4.053  0.00  0.00    -0.050 A 
ATOM     74  H   LIG d   1       5.221  -0.992  -2.969  0.00  0.00     0.062 H 
ATOM     75  H   LIG d   1       3.910  -2.868  -3.868  0.00  0.00     0.062 H 
BRANCH  68  76
ATOM     76  O   LIG d   1       7.571  -4.718  -5.749  0.00  0.00    -0.491 OA
BRANCH  76  77
ATOM     77  C   LIG d   1       8.146  -5.803  -5.019  0.00  0.00     0.079 C 
ATOM     78  H   LIG d   1       7.542  -6.006  -4.134  0.00  0.00     0.066 H 
ATOM     79  H   LIG d   1       8.175  -6.691  -5.651  0.00  0.00     0.066 H 
ATOM     80  H   LIG d   1       9.159  -5.541  -4.716  0.00  0.00     0.066 H 
ENDBRANCH  76  77
ENDBRANCH  68  76
BRANCH  69  81
ATOM     81  O   LIG d   1       9.036  -2.610  -4.752  0.00  0.00    -0.491 OA
BRANCH  81  82
ATOM     82  C   LIG d   1       9.552  -1.360  -5.215  0.00  0.00     0.079 C 
ATOM     83  H   LIG d   1      10.405  -1.539  -5.869  0.00  0.00     0.066 H 
ATOM     84  H   LIG d   1       8.776  -0.829  -5.766  0.00  0.00     0.066 H 
ATOM     85  H   LIG d   1       9.867  -0.759  -4.362  0.00  0.00     0.066 H 
ENDBRANCH  81  82
ENDBRANCH  69  81
ENDBRANCH  64  67
ENDBRANCH   1  64
TORSDOF 13
ENDMDL
