MODEL 1
REMARK VINA RESULT:      -6.2      0.000      0.000
REMARK  13 active torsions:
REMARK  status: ('A' for Active; 'I' for Inactive)
REMARK    1  A    between atoms: C_1  and  C_2 
REMARK    2  A    between atoms: C_2  and  C_32 
REMARK    3  A    between atoms: C_4  and  C_9 
REMARK    4  A    between atoms: C_9  and  C_11 
REMARK    5  A    between atoms: C_9  and  C_24 
REMARK    6  A    between atoms: C_11  and  C_12 
REMARK    7  A    between atoms: C_12  and  N_13 
REMARK    8  A    between atoms: C_14  and  C_15 
REMARK    9  A    between atoms: C_18  and  N_21 
REMARK   10  A    between atoms: N_21  and  C_22 
REMARK   11  A    between atoms: N_21  and  C_23 
REMARK   12  A    between atoms: C_29  and  O_30 
REMARK   13  A    between atoms: O_30  and  C_31 
ROOT
ATOM      1  C   LIG d   1       5.654  -1.170  -5.952  0.00  0.00    -0.008 C 
ATOM      2  H   LIG d   1       6.522  -0.519  -6.053  0.00  0.00     0.035 H 
ENDROOT
BRANCH   1   3
ATOM      3  C   LIG d   1       4.538  -0.679  -6.876  0.00  0.00    -0.029 C 
ATOM      4  C   LIG d   1       5.088   0.396  -7.817  0.00  0.00    -0.021 C 
ATOM      5  C   LIG d   1       3.986   0.826  -8.789  0.00  0.00     0.064 C 
ATOM      6  H   LIG d   1       5.414   1.258  -7.234  0.00  0.00     0.030 H 
ATOM      7  H   LIG d   1       5.933  -0.005  -8.376  0.00  0.00     0.030 H 
ATOM      8  O   LIG d   1       3.520  -0.317  -9.511  0.00  0.00    -0.374 OA
ATOM      9  C   LIG d   1       2.951  -1.336  -8.687  0.00  0.00     0.049 C 
ATOM     10  C   LIG d   1       4.011  -1.851  -7.710  0.00  0.00    -0.026 C 
ATOM     11  H   LIG d   1       2.111  -0.924  -8.127  0.00  0.00     0.056 H 
ATOM     12  H   LIG d   1       2.603  -2.158  -9.312  0.00  0.00     0.056 H 
ATOM     13  H   LIG d   1       4.833  -2.299  -8.268  0.00  0.00     0.029 H 
ATOM     14  H   LIG d   1       3.568  -2.597  -7.051  0.00  0.00     0.029 H 
ATOM     15  H   LIG d   1       3.728  -0.261  -6.279  0.00  0.00     0.031 H 
BRANCH   5  16
ATOM     16  C   LIG d   1       2.826   1.443  -8.006  0.00  0.00    -0.036 C 
ATOM     17  H   LIG d   1       2.736   0.946  -7.040  0.00  0.00     0.026 H 
ATOM     18  H   LIG d   1       3.016   2.505  -7.851  0.00  0.00     0.026 H 
ATOM     19  H   LIG d   1       1.901   1.316  -8.567  0.00  0.00     0.026 H 
ENDBRANCH   5  16
BRANCH   5  20
ATOM     20  C   LIG d   1       4.546   1.857  -9.771  0.00  0.00    -0.036 C 
ATOM     21  H   LIG d   1       4.687   1.390 -10.747  0.00  0.00     0.026 H 
ATOM     22  H   LIG d   1       3.845   2.686  -9.864  0.00  0.00     0.026 H 
ATOM     23  H   LIG d   1       5.502   2.228  -9.403  0.00  0.00     0.026 H 
ENDBRANCH   5  20
ENDBRANCH   1   3
BRANCH   1  24
ATOM     24  C   LIG d   1       6.041  -2.601  -6.333  0.00  0.00    -0.026 C 
ATOM     25  H   LIG d   1       5.614  -3.297  -5.610  0.00  0.00     0.029 H 
ATOM     26  H   LIG d   1       5.655  -2.828  -7.327  0.00  0.00     0.029 H 
BRANCH  24  27
ATOM     27  C   LIG d   1       7.565  -2.735  -6.333  0.00  0.00     0.040 C 
ATOM     28  H   LIG d   1       7.916  -2.883  -7.355  0.00  0.00     0.051 H 
ATOM     29  H   LIG d   1       8.010  -1.827  -5.924  0.00  0.00     0.051 H 
BRANCH  27  30
ATOM     30  N   LIG d   1       7.954  -3.882  -5.511  0.00  0.00    -0.291 NA
ATOM     31  C   LIG d   1       8.671  -3.705  -4.448  0.00  0.00     0.029 C 
ATOM     32  H   LIG d   1       8.981  -2.709  -4.168  0.00  0.00     0.083 H 
BRANCH  31  33
ATOM     33  C   LIG d   1       9.064  -4.859  -3.621  0.00  0.00    -0.007 A 
ATOM     34  C   LIG d   1       8.981  -6.155  -4.141  0.00  0.00    -0.051 A 
ATOM     35  C   LIG d   1       9.349  -7.230  -3.365  0.00  0.00    -0.040 A 
ATOM     36  H   LIG d   1       8.629  -6.310  -5.150  0.00  0.00     0.062 H 
ATOM     37  C   LIG d   1       9.803  -7.029  -2.065  0.00  0.00     0.029 A 
ATOM     38  H   LIG d   1       9.285  -8.231  -3.766  0.00  0.00     0.064 H 
ATOM     39  C   LIG d   1       9.886  -5.742  -1.545  0.00  0.00    -0.040 A 
ATOM     40  C   LIG d   1       9.525  -4.661  -2.317  0.00  0.00    -0.051 A 
ATOM     41  H   LIG d   1      10.239  -5.590  -0.535  0.00  0.00     0.064 H 
ATOM     42  H   LIG d   1       9.595  -3.662  -1.913  0.00  0.00     0.062 H 
BRANCH  37  43
ATOM     43  N   LIG d   1      10.175  -8.120  -1.284  0.00  0.00    -0.336 N 
BRANCH  43  44
ATOM     44  C   LIG d   1      11.204  -7.966  -0.252  0.00  0.00     0.000 C 
ATOM     45  H   LIG d   1      11.867  -7.144  -0.521  0.00  0.00     0.043 H 
ATOM     46  H   LIG d   1      10.728  -7.752   0.705  0.00  0.00     0.043 H 
ATOM     47  H   LIG d   1      11.779  -8.888  -0.174  0.00  0.00     0.043 H 
ENDBRANCH  43  44
BRANCH  43  48
ATOM     48  C   LIG d   1       9.537  -9.423  -1.493  0.00  0.00     0.000 C 
ATOM     49  H   LIG d   1       9.240  -9.518  -2.538  0.00  0.00     0.043 H 
ATOM     50  H   LIG d   1      10.240 -10.216  -1.242  0.00  0.00     0.043 H 
ATOM     51  H   LIG d   1       8.656  -9.502  -0.857  0.00  0.00     0.043 H 
ENDBRANCH  43  48
ENDBRANCH  37  43
ENDBRANCH  31  33
ENDBRANCH  27  30
ENDBRANCH  24  27
ENDBRANCH   1  24
BRANCH   1  52
ATOM     52  C   LIG d   1       5.172  -1.144  -4.524  0.00  0.00    -0.002 A 
ATOM     53  C   LIG d   1       5.425  -0.039  -3.725  0.00  0.00     0.123 A 
ATOM     54  C   LIG d   1       4.986  -0.020  -2.409  0.00  0.00    -0.020 A 
ATOM     55  C   LIG d   1       4.286  -1.098  -1.901  0.00  0.00    -0.058 A 
ATOM     56  H   LIG d   1       5.186   0.838  -1.784  0.00  0.00     0.065 H 
ATOM     57  C   LIG d   1       4.034  -2.199  -2.700  0.00  0.00    -0.061 A 
ATOM     58  H   LIG d   1       3.940  -1.082  -0.879  0.00  0.00     0.062 H 
ATOM     59  C   LIG d   1       4.476  -2.221  -4.009  0.00  0.00    -0.055 A 
ATOM     60  H   LIG d   1       3.491  -3.041  -2.300  0.00  0.00     0.062 H 
ATOM     61  H   LIG d   1       4.279  -3.082  -4.630  0.00  0.00     0.062 H 
BRANCH  53  62
ATOM     62  O   LIG d   1       6.110   1.023  -4.229  0.00  0.00    -0.495 OA
BRANCH  62  63
ATOM     63  C   LIG d   1       7.443   1.219  -3.755  0.00  0.00     0.079 C 
ATOM     64  H   LIG d   1       8.122   1.306  -4.604  0.00  0.00     0.066 H 
ATOM     65  H   LIG d   1       7.487   2.132  -3.162  0.00  0.00     0.066 H 
ATOM     66  H   LIG d   1       7.739   0.371  -3.138  0.00  0.00     0.066 H 
ENDBRANCH  62  63
ENDBRANCH  53  62
ENDBRANCH   1  52
TORSDOF 13
ENDMDL
MODEL 2
REMARK VINA RESULT:      -6.0      3.576      4.318
REMARK  13 active torsions:
REMARK  status: ('A' for Active; 'I' for Inactive)
REMARK    1  A    between atoms: C_1  and  C_2 
REMARK    2  A    between atoms: C_2  and  C_32 
REMARK    3  A    between atoms: C_4  and  C_9 
REMARK    4  A    between atoms: C_9  and  C_11 
REMARK    5  A    between atoms: C_9  and  C_24 
REMARK    6  A    between atoms: C_11  and  C_12 
REMARK    7  A    between atoms: C_12  and  N_13 
REMARK    8  A    between atoms: C_14  and  C_15 
REMARK    9  A    between atoms: C_18  and  N_21 
REMARK   10  A    between atoms: N_21  and  C_22 
REMARK   11  A    between atoms: N_21  and  C_23 
REMARK   12  A    between atoms: C_29  and  O_30 
REMARK   13  A    between atoms: O_30  and  C_31 
ROOT
ATOM      1  C   LIG d   1       5.095  -1.266  -5.564  0.00  0.00    -0.008 C 
ATOM      2  H   LIG d   1       6.154  -1.130  -5.786  0.00  0.00     0.035 H 
ENDROOT
BRANCH   1   3
ATOM      3  C   LIG d   1       4.258  -0.754  -6.737  0.00  0.00    -0.029 C 
ATOM      4  C   LIG d   1       5.029   0.343  -7.477  0.00  0.00    -0.021 C 
ATOM      5  C   LIG d   1       4.218   0.794  -8.695  0.00  0.00     0.064 C 
ATOM      6  H   LIG d   1       5.186   1.191  -6.811  0.00  0.00     0.030 H 
ATOM      7  H   LIG d   1       5.994  -0.046  -7.805  0.00  0.00     0.030 H 
ATOM      8  O   LIG d   1       3.964  -0.331  -9.539  0.00  0.00    -0.374 OA
ATOM      9  C   LIG d   1       3.205  -1.369  -8.915  0.00  0.00     0.049 C 
ATOM     10  C   LIG d   1       3.975  -1.906  -7.706  0.00  0.00    -0.026 C 
ATOM     11  H   LIG d   1       2.245  -0.970  -8.586  0.00  0.00     0.056 H 
ATOM     12  H   LIG d   1       3.037  -2.176  -9.628  0.00  0.00     0.056 H 
ATOM     13  H   LIG d   1       4.917  -2.342  -8.038  0.00  0.00     0.029 H 
ATOM     14  H   LIG d   1       3.378  -2.667  -7.203  0.00  0.00     0.029 H 
ATOM     15  H   LIG d   1       3.317  -0.349  -6.365  0.00  0.00     0.031 H 
BRANCH   5  16
ATOM     16  C   LIG d   1       2.889   1.393  -8.230  0.00  0.00    -0.036 C 
ATOM     17  H   LIG d   1       2.575   0.906  -7.307  0.00  0.00     0.026 H 
ATOM     18  H   LIG d   1       3.015   2.462  -8.052  0.00  0.00     0.026 H 
ATOM     19  H   LIG d   1       2.133   1.239  -8.998  0.00  0.00     0.026 H 
ENDBRANCH   5  16
BRANCH   5  20
ATOM     20  C   LIG d   1       5.009   1.847  -9.473  0.00  0.00    -0.036 C 
ATOM     21  H   LIG d   1       5.871   2.163  -8.884  0.00  0.00     0.026 H 
ATOM     22  H   LIG d   1       5.351   1.420 -10.416  0.00  0.00     0.026 H 
ATOM     23  H   LIG d   1       4.370   2.707  -9.674  0.00  0.00     0.026 H 
ENDBRANCH   5  20
ENDBRANCH   1   3
BRANCH   1  24
ATOM     24  C   LIG d   1       4.807  -2.752  -5.341  0.00  0.00    -0.026 C 
ATOM     25  H   LIG d   1       4.094  -2.864  -4.523  0.00  0.00     0.029 H 
ATOM     26  H   LIG d   1       4.386  -3.181  -6.250  0.00  0.00     0.029 H 
BRANCH  24  27
ATOM     27  C   LIG d   1       6.107  -3.477  -4.987  0.00  0.00     0.040 C 
ATOM     28  H   LIG d   1       6.938  -3.010  -5.517  0.00  0.00     0.051 H 
ATOM     29  H   LIG d   1       6.279  -3.412  -3.912  0.00  0.00     0.051 H 
BRANCH  27  30
ATOM     30  N   LIG d   1       6.004  -4.883  -5.381  0.00  0.00    -0.291 NA
ATOM     31  C   LIG d   1       4.867  -5.368  -5.765  0.00  0.00     0.029 C 
ATOM     32  H   LIG d   1       3.993  -4.734  -5.794  0.00  0.00     0.083 H 
BRANCH  31  33
ATOM     33  C   LIG d   1       4.764  -6.783  -6.161  0.00  0.00    -0.007 A 
ATOM     34  C   LIG d   1       4.398  -7.121  -7.467  0.00  0.00    -0.051 A 
ATOM     35  C   LIG d   1       4.302  -8.445  -7.833  0.00  0.00    -0.040 A 
ATOM     36  H   LIG d   1       4.190  -6.344  -8.188  0.00  0.00     0.062 H 
ATOM     37  C   LIG d   1       4.570  -9.446  -6.904  0.00  0.00     0.029 A 
ATOM     38  H   LIG d   1       4.019  -8.706  -8.842  0.00  0.00     0.064 H 
ATOM     39  C   LIG d   1       4.934  -9.113  -5.603  0.00  0.00    -0.040 A 
ATOM     40  C   LIG d   1       5.038  -7.792  -5.232  0.00  0.00    -0.051 A 
ATOM     41  H   LIG d   1       5.141  -9.893  -4.885  0.00  0.00     0.064 H 
ATOM     42  H   LIG d   1       5.325  -7.535  -4.223  0.00  0.00     0.062 H 
BRANCH  37  43
ATOM     43  N   LIG d   1       4.473 -10.784  -7.279  0.00  0.00    -0.336 N 
BRANCH  43  44
ATOM     44  C   LIG d   1       4.575 -11.837  -6.266  0.00  0.00     0.000 C 
ATOM     45  H   LIG d   1       5.595 -12.220  -6.242  0.00  0.00     0.043 H 
ATOM     46  H   LIG d   1       4.317 -11.427  -5.289  0.00  0.00     0.043 H 
ATOM     47  H   LIG d   1       3.888 -12.646  -6.514  0.00  0.00     0.043 H 
ENDBRANCH  43  44
BRANCH  43  48
ATOM     48  C   LIG d   1       4.269 -11.137  -8.686  0.00  0.00     0.000 C 
ATOM     49  H   LIG d   1       4.395 -12.213  -8.812  0.00  0.00     0.043 H 
ATOM     50  H   LIG d   1       3.262 -10.852  -8.990  0.00  0.00     0.043 H 
ATOM     51  H   LIG d   1       4.998 -10.611  -9.302  0.00  0.00     0.043 H 
ENDBRANCH  43  48
ENDBRANCH  37  43
ENDBRANCH  31  33
ENDBRANCH  27  30
ENDBRANCH  24  27
ENDBRANCH   1  24
BRANCH   1  52
ATOM     52  C   LIG d   1       4.741  -0.493  -4.319  0.00  0.00    -0.002 A 
ATOM     53  C   LIG d   1       5.712   0.250  -3.664  0.00  0.00     0.123 A 
ATOM     54  C   LIG d   1       5.385   0.956  -2.514  0.00  0.00    -0.020 A 
ATOM     55  C   LIG d   1       4.090   0.925  -2.033  0.00  0.00    -0.058 A 
ATOM     56  H   LIG d   1       6.140   1.532  -2.000  0.00  0.00     0.065 H 
ATOM     57  C   LIG d   1       3.125   0.183  -2.688  0.00  0.00    -0.061 A 
ATOM     58  H   LIG d   1       3.834   1.477  -1.141  0.00  0.00     0.062 H 
ATOM     59  C   LIG d   1       3.450  -0.524  -3.829  0.00  0.00    -0.055 A 
ATOM     60  H   LIG d   1       2.114   0.158  -2.307  0.00  0.00     0.062 H 
ATOM     61  H   LIG d   1       2.694  -1.103  -4.339  0.00  0.00     0.062 H 
BRANCH  53  62
ATOM     62  O   LIG d   1       6.984   0.283  -4.143  0.00  0.00    -0.495 OA
BRANCH  62  63
ATOM     63  C   LIG d   1       7.710   1.501  -3.974  0.00  0.00     0.079 C 
ATOM     64  H   LIG d   1       7.892   1.955  -4.949  0.00  0.00     0.066 H 
ATOM     65  H   LIG d   1       7.128   2.188  -3.358  0.00  0.00     0.066 H 
ATOM     66  H   LIG d   1       8.661   1.294  -3.486  0.00  0.00     0.066 H 
ENDBRANCH  62  63
ENDBRANCH  53  62
ENDBRANCH   1  52
TORSDOF 13
ENDMDL
MODEL 3
REMARK VINA RESULT:      -6.0      2.401      2.892
REMARK  13 active torsions:
REMARK  status: ('A' for Active; 'I' for Inactive)
REMARK    1  A    between atoms: C_1  and  C_2 
REMARK    2  A    between atoms: C_2  and  C_32 
REMARK    3  A    between atoms: C_4  and  C_9 
REMARK    4  A    between atoms: C_9  and  C_11 
REMARK    5  A    between atoms: C_9  and  C_24 
REMARK    6  A    between atoms: C_11  and  C_12 
REMARK    7  A    between atoms: C_12  and  N_13 
REMARK    8  A    between atoms: C_14  and  C_15 
REMARK    9  A    between atoms: C_18  and  N_21 
REMARK   10  A    between atoms: N_21  and  C_22 
REMARK   11  A    between atoms: N_21  and  C_23 
REMARK   12  A    between atoms: C_29  and  O_30 
REMARK   13  A    between atoms: O_30  and  C_31 
ROOT
ATOM      1  C   LIG d   1       5.516  -1.419  -6.069  0.00  0.00    -0.008 C 
ATOM      2  H   LIG d   1       6.456  -0.887  -6.218  0.00  0.00     0.035 H 
ENDROOT
BRANCH   1   3
ATOM      3  C   LIG d   1       4.437  -0.809  -6.964  0.00  0.00    -0.029 C 
ATOM      4  C   LIG d   1       5.049   0.304  -7.820  0.00  0.00    -0.021 C 
ATOM      5  C   LIG d   1       3.981   0.855  -8.767  0.00  0.00     0.064 C 
ATOM      6  H   LIG d   1       5.409   1.104  -7.173  0.00  0.00     0.030 H 
ATOM      7  H   LIG d   1       5.881  -0.097  -8.400  0.00  0.00     0.030 H 
ATOM      8  O   LIG d   1       3.469  -0.207  -9.575  0.00  0.00    -0.374 OA
ATOM      9  C   LIG d   1       2.842  -1.255  -8.832  0.00  0.00     0.049 C 
ATOM     10  C   LIG d   1       3.864  -1.890  -7.887  0.00  0.00    -0.026 C 
ATOM     11  H   LIG d   1       2.016  -0.844  -8.251  0.00  0.00     0.056 H 
ATOM     12  H   LIG d   1       2.462  -2.011  -9.519  0.00  0.00     0.056 H 
ATOM     13  H   LIG d   1       4.670  -2.336  -8.468  0.00  0.00     0.029 H 
ATOM     14  H   LIG d   1       3.377  -2.659  -7.287  0.00  0.00     0.029 H 
ATOM     15  H   LIG d   1       3.640  -0.396  -6.346  0.00  0.00     0.031 H 
BRANCH   5  16
ATOM     16  C   LIG d   1       2.842   1.470  -7.951  0.00  0.00    -0.036 C 
ATOM     17  H   LIG d   1       2.747   0.939  -7.005  0.00  0.00     0.026 H 
ATOM     18  H   LIG d   1       3.060   2.521  -7.758  0.00  0.00     0.026 H 
ATOM     19  H   LIG d   1       1.911   1.388  -8.510  0.00  0.00     0.026 H 
ENDBRANCH   5  16
BRANCH   5  20
ATOM     20  C   LIG d   1       4.601   1.927  -9.667  0.00  0.00    -0.036 C 
ATOM     21  H   LIG d   1       5.597   2.177  -9.300  0.00  0.00     0.026 H 
ATOM     22  H   LIG d   1       4.675   1.546 -10.686  0.00  0.00     0.026 H 
ATOM     23  H   LIG d   1       3.974   2.818  -9.656  0.00  0.00     0.026 H 
ENDBRANCH   5  20
ENDBRANCH   1   3
BRANCH   1  24
ATOM     24  C   LIG d   1       5.703  -2.895  -6.427  0.00  0.00    -0.026 C 
ATOM     25  H   LIG d   1       4.964  -3.494  -5.893  0.00  0.00     0.029 H 
ATOM     26  H   LIG d   1       5.570  -3.028  -7.501  0.00  0.00     0.029 H 
BRANCH  24  27
ATOM     27  C   LIG d   1       7.110  -3.344  -6.027  0.00  0.00     0.040 C 
ATOM     28  H   LIG d   1       7.756  -3.335  -6.905  0.00  0.00     0.051 H 
ATOM     29  H   LIG d   1       7.508  -2.662  -5.275  0.00  0.00     0.051 H 
BRANCH  27  30
ATOM     30  N   LIG d   1       7.052  -4.699  -5.476  0.00  0.00    -0.291 NA
ATOM     31  C   LIG d   1       6.245  -5.573  -5.987  0.00  0.00     0.029 C 
ATOM     32  H   LIG d   1       5.614  -5.301  -6.820  0.00  0.00     0.083 H 
BRANCH  31  33
ATOM     33  C   LIG d   1       6.187  -6.937  -5.432  0.00  0.00    -0.007 A 
ATOM     34  C   LIG d   1       4.971  -7.627  -5.393  0.00  0.00    -0.051 A 
ATOM     35  C   LIG d   1       4.921  -8.900  -4.873  0.00  0.00    -0.040 A 
ATOM     36  H   LIG d   1       4.072  -7.160  -5.769  0.00  0.00     0.062 H 
ATOM     37  C   LIG d   1       6.078  -9.502  -4.389  0.00  0.00     0.029 A 
ATOM     38  H   LIG d   1       3.982  -9.433  -4.843  0.00  0.00     0.064 H 
ATOM     39  C   LIG d   1       7.289  -8.818  -4.426  0.00  0.00    -0.040 A 
ATOM     40  C   LIG d   1       7.348  -7.546  -4.950  0.00  0.00    -0.051 A 
ATOM     41  H   LIG d   1       8.186  -9.288  -4.049  0.00  0.00     0.064 H 
ATOM     42  H   LIG d   1       8.290  -7.019  -4.982  0.00  0.00     0.062 H 
BRANCH  37  43
ATOM     43  N   LIG d   1       6.023 -10.791  -3.865  0.00  0.00    -0.336 N 
BRANCH  43  44
ATOM     44  C   LIG d   1       5.078 -11.106  -2.792  0.00  0.00     0.000 C 
ATOM     45  H   LIG d   1       5.588 -11.051  -1.831  0.00  0.00     0.043 H 
ATOM     46  H   LIG d   1       4.257 -10.389  -2.810  0.00  0.00     0.043 H 
ATOM     47  H   LIG d   1       4.684 -12.112  -2.939  0.00  0.00     0.043 H 
ENDBRANCH  43  44
BRANCH  43  48
ATOM     48  C   LIG d   1       6.912 -11.832  -4.389  0.00  0.00     0.000 C 
ATOM     49  H   LIG d   1       6.855 -12.713  -3.749  0.00  0.00     0.043 H 
ATOM     50  H   LIG d   1       6.604 -12.097  -5.400  0.00  0.00     0.043 H 
ATOM     51  H   LIG d   1       7.936 -11.461  -4.405  0.00  0.00     0.043 H 
ENDBRANCH  43  48
ENDBRANCH  37  43
ENDBRANCH  31  33
ENDBRANCH  27  30
ENDBRANCH  24  27
ENDBRANCH   1  24
BRANCH   1  52
ATOM     52  C   LIG d   1       5.097  -1.302  -4.626  0.00  0.00    -0.002 A 
ATOM     53  C   LIG d   1       5.469  -0.191  -3.883  0.00  0.00     0.123 A 
ATOM     54  C   LIG d   1       5.087  -0.089  -2.553  0.00  0.00    -0.020 A 
ATOM     55  C   LIG d   1       4.328  -1.089  -1.975  0.00  0.00    -0.058 A 
ATOM     56  H   LIG d   1       5.379   0.774  -1.971  0.00  0.00     0.065 H 
ATOM     57  C   LIG d   1       3.959  -2.195  -2.718  0.00  0.00    -0.061 A 
ATOM     58  H   LIG d   1       4.027  -1.007  -0.941  0.00  0.00     0.062 H 
ATOM     59  C   LIG d   1       4.343  -2.301  -4.041  0.00  0.00    -0.055 A 
ATOM     60  H   LIG d   1       3.369  -2.977  -2.263  0.00  0.00     0.062 H 
ATOM     61  H   LIG d   1       4.054  -3.167  -4.619  0.00  0.00     0.062 H 
BRANCH  53  62
ATOM     62  O   LIG d   1       6.211   0.794  -4.455  0.00  0.00    -0.495 OA
BRANCH  62  63
ATOM     63  C   LIG d   1       7.371   1.228  -3.744  0.00  0.00     0.079 C 
ATOM     64  H   LIG d   1       7.229   2.255  -3.408  0.00  0.00     0.066 H 
ATOM     65  H   LIG d   1       7.530   0.582  -2.880  0.00  0.00     0.066 H 
ATOM     66  H   LIG d   1       8.240   1.177  -4.400  0.00  0.00     0.066 H 
ENDBRANCH  62  63
ENDBRANCH  53  62
ENDBRANCH   1  52
TORSDOF 13
ENDMDL
MODEL 4
REMARK VINA RESULT:      -6.0      4.432      8.504
REMARK  13 active torsions:
REMARK  status: ('A' for Active; 'I' for Inactive)
REMARK    1  A    between atoms: C_1  and  C_2 
REMARK    2  A    between atoms: C_2  and  C_32 
REMARK    3  A    between atoms: C_4  and  C_9 
REMARK    4  A    between atoms: C_9  and  C_11 
REMARK    5  A    between atoms: C_9  and  C_24 
REMARK    6  A    between atoms: C_11  and  C_12 
REMARK    7  A    between atoms: C_12  and  N_13 
REMARK    8  A    between atoms: C_14  and  C_15 
REMARK    9  A    between atoms: C_18  and  N_21 
REMARK   10  A    between atoms: N_21  and  C_22 
REMARK   11  A    between atoms: N_21  and  C_23 
REMARK   12  A    between atoms: C_29  and  O_30 
REMARK   13  A    between atoms: O_30  and  C_31 
ROOT
ATOM      1  C   LIG d   1       6.418  -0.519  -4.971  0.00  0.00    -0.008 C 
ATOM      2  H   LIG d   1       6.153  -0.252  -5.994  0.00  0.00     0.035 H 
ENDROOT
BRANCH   1   3
ATOM      3  C   LIG d   1       6.567  -2.037  -4.862  0.00  0.00    -0.029 C 
ATOM      4  C   LIG d   1       6.508  -2.660  -6.259  0.00  0.00    -0.021 C 
ATOM      5  C   LIG d   1       6.735  -4.169  -6.147  0.00  0.00     0.064 C 
ATOM      6  H   LIG d   1       5.529  -2.472  -6.701  0.00  0.00     0.030 H 
ATOM      7  H   LIG d   1       7.282  -2.219  -6.888  0.00  0.00     0.030 H 
ATOM      8  O   LIG d   1       7.995  -4.414  -5.515  0.00  0.00    -0.374 OA
ATOM      9  C   LIG d   1       8.091  -3.895  -4.187  0.00  0.00     0.049 C 
ATOM     10  C   LIG d   1       7.917  -2.375  -4.221  0.00  0.00    -0.026 C 
ATOM     11  H   LIG d   1       7.311  -4.336  -3.566  0.00  0.00     0.056 H 
ATOM     12  H   LIG d   1       9.068  -4.140  -3.771  0.00  0.00     0.056 H 
ATOM     13  H   LIG d   1       8.720  -1.929  -4.807  0.00  0.00     0.029 H 
ATOM     14  H   LIG d   1       7.946  -1.982  -3.205  0.00  0.00     0.029 H 
ATOM     15  H   LIG d   1       5.760  -2.439  -4.249  0.00  0.00     0.031 H 
BRANCH   5  16
ATOM     16  C   LIG d   1       5.616  -4.794  -5.312  0.00  0.00    -0.036 C 
ATOM     17  H   LIG d   1       4.819  -4.065  -5.171  0.00  0.00     0.026 H 
ATOM     18  H   LIG d   1       5.221  -5.668  -5.830  0.00  0.00     0.026 H 
ATOM     19  H   LIG d   1       6.011  -5.094  -4.342  0.00  0.00     0.026 H 
ENDBRANCH   5  16
BRANCH   5  20
ATOM     20  C   LIG d   1       6.737  -4.790  -7.545  0.00  0.00    -0.036 C 
ATOM     21  H   LIG d   1       6.974  -5.852  -7.471  0.00  0.00     0.026 H 
ATOM     22  H   LIG d   1       5.753  -4.669  -7.998  0.00  0.00     0.026 H 
ATOM     23  H   LIG d   1       7.485  -4.292  -8.162  0.00  0.00     0.026 H 
ENDBRANCH   5  20
ENDBRANCH   1   3
BRANCH   1  24
ATOM     24  C   LIG d   1       7.741   0.153  -4.595  0.00  0.00    -0.026 C 
ATOM     25  H   LIG d   1       7.674   0.545  -3.580  0.00  0.00     0.029 H 
ATOM     26  H   LIG d   1       8.548  -0.579  -4.650  0.00  0.00     0.029 H 
BRANCH  24  27
ATOM     27  C   LIG d   1       8.026   1.300  -5.567  0.00  0.00     0.040 C 
ATOM     28  H   LIG d   1       8.922   1.072  -6.145  0.00  0.00     0.051 H 
ATOM     29  H   LIG d   1       7.179   1.422  -6.243  0.00  0.00     0.051 H 
BRANCH  27  30
ATOM     30  N   LIG d   1       8.232   2.538  -4.814  0.00  0.00    -0.291 NA
ATOM     31  C   LIG d   1       9.396   3.103  -4.800  0.00  0.00     0.029 C 
ATOM     32  H   LIG d   1      10.217   2.659  -5.345  0.00  0.00     0.083 H 
BRANCH  31  33
ATOM     33  C   LIG d   1       9.604   4.349  -4.042  0.00  0.00    -0.007 A 
ATOM     34  C   LIG d   1       9.347   5.586  -4.642  0.00  0.00    -0.051 A 
ATOM     35  C   LIG d   1       9.543   6.748  -3.930  0.00  0.00    -0.040 A 
ATOM     36  H   LIG d   1       8.996   5.629  -5.663  0.00  0.00     0.062 H 
ATOM     37  C   LIG d   1       9.995   6.692  -2.615  0.00  0.00     0.029 A 
ATOM     38  H   LIG d   1       9.345   7.703  -4.393  0.00  0.00     0.064 H 
ATOM     39  C   LIG d   1      10.252   5.463  -2.016  0.00  0.00    -0.040 A 
ATOM     40  C   LIG d   1      10.053   4.297  -2.720  0.00  0.00    -0.051 A 
ATOM     41  H   LIG d   1      10.603   5.424  -0.994  0.00  0.00     0.064 H 
ATOM     42  H   LIG d   1      10.248   3.344  -2.251  0.00  0.00     0.062 H 
BRANCH  37  43
ATOM     43  N   LIG d   1      10.190   7.870  -1.898  0.00  0.00    -0.336 N 
BRANCH  43  44
ATOM     44  C   LIG d   1      10.293   9.149  -2.605  0.00  0.00     0.000 C 
ATOM     45  H   LIG d   1       9.384   9.320  -3.180  0.00  0.00     0.043 H 
ATOM     46  H   LIG d   1      10.422   9.954  -1.881  0.00  0.00     0.043 H 
ATOM     47  H   LIG d   1      11.151   9.124  -3.277  0.00  0.00     0.043 H 
ENDBRANCH  43  44
BRANCH  43  48
ATOM     48  C   LIG d   1      10.293   7.829  -0.437  0.00  0.00     0.000 C 
ATOM     49  H   LIG d   1       9.316   7.602  -0.010  0.00  0.00     0.043 H 
ATOM     50  H   LIG d   1      11.005   7.058  -0.145  0.00  0.00     0.043 H 
ATOM     51  H   LIG d   1      10.633   8.798  -0.070  0.00  0.00     0.043 H 
ENDBRANCH  43  48
ENDBRANCH  37  43
ENDBRANCH  31  33
ENDBRANCH  27  30
ENDBRANCH  24  27
ENDBRANCH   1  24
BRANCH   1  52
ATOM     52  C   LIG d   1       5.334  -0.051  -4.034  0.00  0.00    -0.002 A 
ATOM     53  C   LIG d   1       4.008  -0.075  -4.439  0.00  0.00     0.123 A 
ATOM     54  C   LIG d   1       3.013   0.362  -3.576  0.00  0.00    -0.020 A 
ATOM     55  C   LIG d   1       3.345   0.810  -2.312  0.00  0.00    -0.058 A 
ATOM     56  H   LIG d   1       1.980   0.348  -3.891  0.00  0.00     0.065 H 
ATOM     57  C   LIG d   1       4.668   0.833  -1.911  0.00  0.00    -0.061 A 
ATOM     58  H   LIG d   1       2.571   1.146  -1.639  0.00  0.00     0.062 H 
ATOM     59  C   LIG d   1       5.661   0.403  -2.771  0.00  0.00    -0.055 A 
ATOM     60  H   LIG d   1       4.925   1.187  -0.924  0.00  0.00     0.062 H 
ATOM     61  H   LIG d   1       6.694   0.423  -2.455  0.00  0.00     0.062 H 
BRANCH  53  62
ATOM     62  O   LIG d   1       3.684  -0.521  -5.682  0.00  0.00    -0.495 OA
BRANCH  62  63
ATOM     63  C   LIG d   1       2.793   0.290  -6.450  0.00  0.00     0.079 C 
ATOM     64  H   LIG d   1       3.222   1.284  -6.574  0.00  0.00     0.066 H 
ATOM     65  H   LIG d   1       2.642  -0.165  -7.429  0.00  0.00     0.066 H 
ATOM     66  H   LIG d   1       1.836   0.368  -5.934  0.00  0.00     0.066 H 
ENDBRANCH  62  63
ENDBRANCH  53  62
ENDBRANCH   1  52
TORSDOF 13
ENDMDL
MODEL 5
REMARK VINA RESULT:      -5.9      3.654      7.636
REMARK  13 active torsions:
REMARK  status: ('A' for Active; 'I' for Inactive)
REMARK    1  A    between atoms: C_1  and  C_2 
REMARK    2  A    between atoms: C_2  and  C_32 
REMARK    3  A    between atoms: C_4  and  C_9 
REMARK    4  A    between atoms: C_9  and  C_11 
REMARK    5  A    between atoms: C_9  and  C_24 
REMARK    6  A    between atoms: C_11  and  C_12 
REMARK    7  A    between atoms: C_12  and  N_13 
REMARK    8  A    between atoms: C_14  and  C_15 
REMARK    9  A    between atoms: C_18  and  N_21 
REMARK   10  A    between atoms: N_21  and  C_22 
REMARK   11  A    between atoms: N_21  and  C_23 
REMARK   12  A    between atoms: C_29  and  O_30 
REMARK   13  A    between atoms: O_30  and  C_31 
ROOT
ATOM      1  C   LIG d   1       7.045  -0.840  -5.414  0.00  0.00    -0.008 C 
ATOM      2  H   LIG d   1       7.643   0.012  -5.090  0.00  0.00     0.035 H 
ENDROOT
BRANCH   1   3
ATOM      3  C   LIG d   1       5.745  -0.888  -4.610  0.00  0.00    -0.029 C 
ATOM      4  C   LIG d   1       5.819   0.117  -3.456  0.00  0.00    -0.021 C 
ATOM      5  C   LIG d   1       4.486   0.118  -2.704  0.00  0.00     0.064 C 
ATOM      6  H   LIG d   1       6.621  -0.169  -2.775  0.00  0.00     0.030 H 
ATOM      7  H   LIG d   1       6.016   1.114  -3.852  0.00  0.00     0.030 H 
ATOM      8  O   LIG d   1       3.429   0.437  -3.612  0.00  0.00    -0.374 OA
ATOM      9  C   LIG d   1       3.282  -0.495  -4.685  0.00  0.00     0.049 C 
ATOM     10  C   LIG d   1       4.567  -0.521  -5.517  0.00  0.00    -0.026 C 
ATOM     11  H   LIG d   1       3.090  -1.489  -4.280  0.00  0.00     0.056 H 
ATOM     12  H   LIG d   1       2.446  -0.193  -5.317  0.00  0.00     0.056 H 
ATOM     13  H   LIG d   1       4.737   0.462  -5.955  0.00  0.00     0.029 H 
ATOM     14  H   LIG d   1       4.473  -1.263  -6.309  0.00  0.00     0.029 H 
ATOM     15  H   LIG d   1       5.601  -1.891  -4.209  0.00  0.00     0.031 H 
BRANCH   5  16
ATOM     16  C   LIG d   1       4.240  -1.265  -2.099  0.00  0.00    -0.036 C 
ATOM     17  H   LIG d   1       3.167  -1.441  -2.022  0.00  0.00     0.026 H 
ATOM     18  H   LIG d   1       4.688  -2.026  -2.739  0.00  0.00     0.026 H 
ATOM     19  H   LIG d   1       4.688  -1.313  -1.108  0.00  0.00     0.026 H 
ENDBRANCH   5  16
BRANCH   5  20
ATOM     20  C   LIG d   1       4.532   1.163  -1.587  0.00  0.00    -0.036 C 
ATOM     21  H   LIG d   1       3.970   2.047  -1.893  0.00  0.00     0.026 H 
ATOM     22  H   LIG d   1       4.088   0.747  -0.683  0.00  0.00     0.026 H 
ATOM     23  H   LIG d   1       5.567   1.440  -1.390  0.00  0.00     0.026 H 
ENDBRANCH   5  20
ENDBRANCH   1   3
BRANCH   1  24
ATOM     24  C   LIG d   1       6.719  -0.697  -6.903  0.00  0.00    -0.026 C 
ATOM     25  H   LIG d   1       7.142  -1.539  -7.450  0.00  0.00     0.029 H 
ATOM     26  H   LIG d   1       5.637  -0.683  -7.038  0.00  0.00     0.029 H 
BRANCH  24  27
ATOM     27  C   LIG d   1       7.317   0.608  -7.433  0.00  0.00     0.040 C 
ATOM     28  H   LIG d   1       8.180   0.383  -8.059  0.00  0.00     0.051 H 
ATOM     29  H   LIG d   1       6.568   1.137  -8.024  0.00  0.00     0.051 H 
BRANCH  27  30
ATOM     30  N   LIG d   1       7.734   1.447  -6.308  0.00  0.00    -0.291 NA
ATOM     31  C   LIG d   1       8.725   2.268  -6.445  0.00  0.00     0.029 C 
ATOM     32  H   LIG d   1       9.244   2.334  -7.390  0.00  0.00     0.083 H 
BRANCH  31  33
ATOM     33  C   LIG d   1       9.145   3.112  -5.313  0.00  0.00    -0.007 A 
ATOM     34  C   LIG d   1       9.400   4.473  -5.509  0.00  0.00    -0.051 A 
ATOM     35  C   LIG d   1       9.793   5.258  -4.449  0.00  0.00    -0.040 A 
ATOM     36  H   LIG d   1       9.290   4.907  -6.492  0.00  0.00     0.062 H 
ATOM     37  C   LIG d   1       9.936   4.699  -3.183  0.00  0.00     0.029 A 
ATOM     38  H   LIG d   1       9.991   6.309  -4.600  0.00  0.00     0.064 H 
ATOM     39  C   LIG d   1       9.683   3.345  -2.984  0.00  0.00    -0.040 A 
ATOM     40  C   LIG d   1       9.284   2.555  -4.038  0.00  0.00    -0.051 A 
ATOM     41  H   LIG d   1       9.795   2.914  -1.999  0.00  0.00     0.064 H 
ATOM     42  H   LIG d   1       9.084   1.506  -3.881  0.00  0.00     0.062 H 
BRANCH  37  43
ATOM     43  N   LIG d   1      10.332   5.497  -2.113  0.00  0.00    -0.336 N 
BRANCH  43  44
ATOM     44  C   LIG d   1       9.708   6.805  -1.904  0.00  0.00     0.000 C 
ATOM     45  H   LIG d   1      10.446   7.499  -1.501  0.00  0.00     0.043 H 
ATOM     46  H   LIG d   1       9.333   7.185  -2.854  0.00  0.00     0.043 H 
ATOM     47  H   LIG d   1       8.881   6.705  -1.201  0.00  0.00     0.043 H 
ENDBRANCH  43  44
BRANCH  43  48
ATOM     48  C   LIG d   1      11.374   5.027  -1.195  0.00  0.00     0.000 C 
ATOM     49  H   LIG d   1      11.349   5.622  -0.282  0.00  0.00     0.043 H 
ATOM     50  H   LIG d   1      11.198   3.979  -0.952  0.00  0.00     0.043 H 
ATOM     51  H   LIG d   1      12.350   5.132  -1.670  0.00  0.00     0.043 H 
ENDBRANCH  43  48
ENDBRANCH  37  43
ENDBRANCH  31  33
ENDBRANCH  27  30
ENDBRANCH  24  27
ENDBRANCH   1  24
BRANCH   1  52
ATOM     52  C   LIG d   1       7.822  -2.112  -5.191  0.00  0.00    -0.002 A 
ATOM     53  C   LIG d   1       9.202  -2.070  -5.066  0.00  0.00     0.123 A 
ATOM     54  C   LIG d   1       9.916  -3.243  -4.867  0.00  0.00    -0.020 A 
ATOM     55  C   LIG d   1       9.247  -4.450  -4.782  0.00  0.00    -0.058 A 
ATOM     56  H   LIG d   1      10.991  -3.213  -4.773  0.00  0.00     0.065 H 
ATOM     57  C   LIG d   1       7.871  -4.489  -4.906  0.00  0.00    -0.061 A 
ATOM     58  H   LIG d   1       9.801  -5.362  -4.622  0.00  0.00     0.062 H 
ATOM     59  C   LIG d   1       7.159  -3.322  -5.110  0.00  0.00    -0.055 A 
ATOM     60  H   LIG d   1       7.351  -5.433  -4.843  0.00  0.00     0.062 H 
ATOM     61  H   LIG d   1       6.084  -3.355  -5.208  0.00  0.00     0.062 H 
BRANCH  53  62
ATOM     62  O   LIG d   1       9.857  -0.881  -5.145  0.00  0.00    -0.495 OA
BRANCH  62  63
ATOM     63  C   LIG d   1      10.854  -0.756  -6.161  0.00  0.00     0.079 C 
ATOM     64  H   LIG d   1      11.773  -1.238  -5.831  0.00  0.00     0.066 H 
ATOM     65  H   LIG d   1      10.502  -1.234  -7.076  0.00  0.00     0.066 H 
ATOM     66  H   LIG d   1      11.046   0.299  -6.354  0.00  0.00     0.066 H 
ENDBRANCH  62  63
ENDBRANCH  53  62
ENDBRANCH   1  52
TORSDOF 13
ENDMDL
MODEL 6
REMARK VINA RESULT:      -5.9      3.923      7.723
REMARK  13 active torsions:
REMARK  status: ('A' for Active; 'I' for Inactive)
REMARK    1  A    between atoms: C_1  and  C_2 
REMARK    2  A    between atoms: C_2  and  C_32 
REMARK    3  A    between atoms: C_4  and  C_9 
REMARK    4  A    between atoms: C_9  and  C_11 
REMARK    5  A    between atoms: C_9  and  C_24 
REMARK    6  A    between atoms: C_11  and  C_12 
REMARK    7  A    between atoms: C_12  and  N_13 
REMARK    8  A    between atoms: C_14  and  C_15 
REMARK    9  A    between atoms: C_18  and  N_21 
REMARK   10  A    between atoms: N_21  and  C_22 
REMARK   11  A    between atoms: N_21  and  C_23 
REMARK   12  A    between atoms: C_29  and  O_30 
REMARK   13  A    between atoms: O_30  and  C_31 
ROOT
ATOM      1  C   LIG d   1       5.643  -1.643  -5.772  0.00  0.00    -0.008 C 
ATOM      2  H   LIG d   1       5.344  -1.263  -6.749  0.00  0.00     0.035 H 
ENDROOT
BRANCH   1   3
ATOM      3  C   LIG d   1       5.818  -3.160  -5.846  0.00  0.00    -0.029 C 
ATOM      4  C   LIG d   1       4.789  -3.749  -6.814  0.00  0.00    -0.021 C 
ATOM      5  C   LIG d   1       5.021  -5.256  -6.942  0.00  0.00     0.064 C 
ATOM      6  H   LIG d   1       3.784  -3.567  -6.432  0.00  0.00     0.030 H 
ATOM      7  H   LIG d   1       4.897  -3.278  -7.792  0.00  0.00     0.030 H 
ATOM      8  O   LIG d   1       6.359  -5.494  -7.388  0.00  0.00    -0.374 OA
ATOM      9  C   LIG d   1       7.366  -5.007  -6.498  0.00  0.00     0.049 C 
ATOM     10  C   LIG d   1       7.226  -3.490  -6.352  0.00  0.00    -0.026 C 
ATOM     11  H   LIG d   1       7.247  -5.478  -5.522  0.00  0.00     0.056 H 
ATOM     12  H   LIG d   1       8.351  -5.245  -6.898  0.00  0.00     0.056 H 
ATOM     13  H   LIG d   1       7.385  -3.015  -7.320  0.00  0.00     0.029 H 
ATOM     14  H   LIG d   1       7.964  -3.123  -5.640  0.00  0.00     0.029 H 
ATOM     15  H   LIG d   1       5.675  -3.593  -4.855  0.00  0.00     0.031 H 
BRANCH   5  16
ATOM     16  C   LIG d   1       4.812  -5.922  -5.580  0.00  0.00    -0.036 C 
ATOM     17  H   LIG d   1       4.927  -7.001  -5.683  0.00  0.00     0.026 H 
ATOM     18  H   LIG d   1       5.550  -5.544  -4.873  0.00  0.00     0.026 H 
ATOM     19  H   LIG d   1       3.810  -5.697  -5.216  0.00  0.00     0.026 H 
ENDBRANCH   5  16
BRANCH   5  20
ATOM     20  C   LIG d   1       4.035  -5.841  -7.954  0.00  0.00    -0.036 C 
ATOM     21  H   LIG d   1       4.063  -6.930  -7.902  0.00  0.00     0.026 H 
ATOM     22  H   LIG d   1       3.028  -5.494  -7.722  0.00  0.00     0.026 H 
ATOM     23  H   LIG d   1       4.310  -5.517  -8.958  0.00  0.00     0.026 H 
ENDBRANCH   5  20
ENDBRANCH   1   3
BRANCH   1  24
ATOM     24  C   LIG d   1       6.966  -0.996  -5.356  0.00  0.00    -0.026 C 
ATOM     25  H   LIG d   1       6.914  -0.706  -4.306  0.00  0.00     0.029 H 
ATOM     26  H   LIG d   1       7.779  -1.709  -5.496  0.00  0.00     0.029 H 
BRANCH  24  27
ATOM     27  C   LIG d   1       7.221   0.244  -6.216  0.00  0.00     0.040 C 
ATOM     28  H   LIG d   1       7.986   0.020  -6.958  0.00  0.00     0.051 H 
ATOM     29  H   LIG d   1       6.298   0.532  -6.721  0.00  0.00     0.051 H 
BRANCH  27  30
ATOM     30  N   LIG d   1       7.674   1.345  -5.363  0.00  0.00    -0.291 NA
ATOM     31  C   LIG d   1       8.677   2.077  -5.729  0.00  0.00     0.029 C 
ATOM     32  H   LIG d   1       9.179   1.875  -6.663  0.00  0.00     0.083 H 
BRANCH  31  33
ATOM     33  C   LIG d   1       9.134   3.184  -4.871  0.00  0.00    -0.007 A 
ATOM     34  C   LIG d   1       9.492   2.940  -3.542  0.00  0.00    -0.051 A 
ATOM     35  C   LIG d   1       9.917   3.978  -2.743  0.00  0.00    -0.040 A 
ATOM     36  H   LIG d   1       9.433   1.939  -3.141  0.00  0.00     0.062 H 
ATOM     37  C   LIG d   1       9.993   5.268  -3.259  0.00  0.00     0.029 A 
ATOM     38  H   LIG d   1      10.193   3.790  -1.716  0.00  0.00     0.064 H 
ATOM     39  C   LIG d   1       9.638   5.515  -4.582  0.00  0.00    -0.040 A 
ATOM     40  C   LIG d   1       9.217   4.481  -5.387  0.00  0.00    -0.051 A 
ATOM     41  H   LIG d   1       9.698   6.518  -4.979  0.00  0.00     0.064 H 
ATOM     42  H   LIG d   1       8.946   4.673  -6.415  0.00  0.00     0.062 H 
BRANCH  37  43
ATOM     43  N   LIG d   1      10.426   6.315  -2.449  0.00  0.00    -0.336 N 
BRANCH  43  44
ATOM     44  C   LIG d   1       9.448   7.157  -1.756  0.00  0.00     0.000 C 
ATOM     45  H   LIG d   1       9.243   6.740  -0.770  0.00  0.00     0.043 H 
ATOM     46  H   LIG d   1       9.849   8.165  -1.648  0.00  0.00     0.043 H 
ATOM     47  H   LIG d   1       8.525   7.194  -2.336  0.00  0.00     0.043 H 
ENDBRANCH  43  44
BRANCH  43  48
ATOM     48  C   LIG d   1      11.859   6.574  -2.290  0.00  0.00     0.000 C 
ATOM     49  H   LIG d   1      12.182   6.237  -1.304  0.00  0.00     0.043 H 
ATOM     50  H   LIG d   1      12.413   6.035  -3.058  0.00  0.00     0.043 H 
ATOM     51  H   LIG d   1      12.048   7.643  -2.388  0.00  0.00     0.043 H 
ENDBRANCH  43  48
ENDBRANCH  37  43
ENDBRANCH  31  33
ENDBRANCH  27  30
ENDBRANCH  24  27
ENDBRANCH   1  24
BRANCH   1  52
ATOM     52  C   LIG d   1       4.580  -1.308  -4.757  0.00  0.00    -0.002 A 
ATOM     53  C   LIG d   1       3.673  -0.290  -5.011  0.00  0.00     0.123 A 
ATOM     54  C   LIG d   1       2.700   0.020  -4.072  0.00  0.00    -0.020 A 
ATOM     55  C   LIG d   1       2.629  -0.695  -2.892  0.00  0.00    -0.058 A 
ATOM     56  H   LIG d   1       1.995   0.816  -4.267  0.00  0.00     0.065 H 
ATOM     57  C   LIG d   1       3.533  -1.710  -2.642  0.00  0.00    -0.061 A 
ATOM     58  H   LIG d   1       1.868  -0.457  -2.163  0.00  0.00     0.062 H 
ATOM     59  C   LIG d   1       4.508  -2.016  -3.573  0.00  0.00    -0.055 A 
ATOM     60  H   LIG d   1       3.478  -2.264  -1.717  0.00  0.00     0.062 H 
ATOM     61  H   LIG d   1       5.213  -2.809  -3.374  0.00  0.00     0.062 H 
BRANCH  53  62
ATOM     62  O   LIG d   1       3.743   0.408  -6.176  0.00  0.00    -0.495 OA
BRANCH  62  63
ATOM     63  C   LIG d   1       2.778   0.092  -7.180  0.00  0.00     0.079 C 
ATOM     64  H   LIG d   1       1.797  -0.026  -6.719  0.00  0.00     0.066 H 
ATOM     65  H   LIG d   1       2.739   0.898  -7.913  0.00  0.00     0.066 H 
ATOM     66  H   LIG d   1       3.060  -0.836  -7.677  0.00  0.00     0.066 H 
ENDBRANCH  62  63
ENDBRANCH  53  62
ENDBRANCH   1  52
TORSDOF 13
ENDMDL
MODEL 7
REMARK VINA RESULT:      -5.8      4.257      6.692
REMARK  13 active torsions:
REMARK  status: ('A' for Active; 'I' for Inactive)
REMARK    1  A    between atoms: C_1  and  C_2 
REMARK    2  A    between atoms: C_2  and  C_32 
REMARK    3  A    between atoms: C_4  and  C_9 
REMARK    4  A    between atoms: C_9  and  C_11 
REMARK    5  A    between atoms: C_9  and  C_24 
REMARK    6  A    between atoms: C_11  and  C_12 
REMARK    7  A    between atoms: C_12  and  N_13 
REMARK    8  A    between atoms: C_14  and  C_15 
REMARK    9  A    between atoms: C_18  and  N_21 
REMARK   10  A    between atoms: N_21  and  C_22 
REMARK   11  A    between atoms: N_21  and  C_23 
REMARK   12  A    between atoms: C_29  and  O_30 
REMARK   13  A    between atoms: O_30  and  C_31 
ROOT
ATOM      1  C   LIG d   1       5.469  -0.368  -6.054  0.00  0.00    -0.008 C 
ATOM      2  H   LIG d   1       5.545   0.708  -5.899  0.00  0.00     0.035 H 
ENDROOT
BRANCH   1   3
ATOM      3  C   LIG d   1       4.555  -0.648  -7.248  0.00  0.00    -0.029 C 
ATOM      4  C   LIG d   1       4.521   0.577  -8.166  0.00  0.00    -0.021 C 
ATOM      5  C   LIG d   1       3.667   0.260  -9.396  0.00  0.00     0.064 C 
ATOM      6  H   LIG d   1       4.087   1.422  -7.630  0.00  0.00     0.030 H 
ATOM      7  H   LIG d   1       5.535   0.827  -8.479  0.00  0.00     0.030 H 
ATOM      8  O   LIG d   1       4.205  -0.883 -10.066  0.00  0.00    -0.374 OA
ATOM      9  C   LIG d   1       4.218  -2.071  -9.271  0.00  0.00     0.049 C 
ATOM     10  C   LIG d   1       5.093  -1.847  -8.035  0.00  0.00    -0.026 C 
ATOM     11  H   LIG d   1       3.202  -2.311  -8.958  0.00  0.00     0.056 H 
ATOM     12  H   LIG d   1       4.621  -2.897  -9.858  0.00  0.00     0.056 H 
ATOM     13  H   LIG d   1       6.118  -1.648  -8.346  0.00  0.00     0.029 H 
ATOM     14  H   LIG d   1       5.069  -2.736  -7.406  0.00  0.00     0.029 H 
ATOM     15  H   LIG d   1       3.548  -0.866  -6.893  0.00  0.00     0.031 H 
BRANCH   5  16
ATOM     16  C   LIG d   1       2.231  -0.033  -8.960  0.00  0.00    -0.036 C 
ATOM     17  H   LIG d   1       1.845  -0.879  -9.528  0.00  0.00     0.026 H 
ATOM     18  H   LIG d   1       2.216  -0.273  -7.896  0.00  0.00     0.026 H 
ATOM     19  H   LIG d   1       1.609   0.842  -9.144  0.00  0.00     0.026 H 
ENDBRANCH   5  16
BRANCH   5  20
ATOM     20  C   LIG d   1       3.678   1.459 -10.347  0.00  0.00    -0.036 C 
ATOM     21  H   LIG d   1       3.813   2.377  -9.773  0.00  0.00     0.026 H 
ATOM     22  H   LIG d   1       4.498   1.352 -11.057  0.00  0.00     0.026 H 
ATOM     23  H   LIG d   1       2.732   1.503 -10.887  0.00  0.00     0.026 H 
ENDBRANCH   5  20
ENDBRANCH   1   3
BRANCH   1  24
ATOM     24  C   LIG d   1       6.860  -0.945  -6.329  0.00  0.00    -0.026 C 
ATOM     25  H   LIG d   1       7.281  -1.332  -5.401  0.00  0.00     0.029 H 
ATOM     26  H   LIG d   1       6.780  -1.752  -7.057  0.00  0.00     0.029 H 
BRANCH  24  27
ATOM     27  C   LIG d   1       7.768   0.155  -6.882  0.00  0.00     0.040 C 
ATOM     28  H   LIG d   1       8.651  -0.297  -7.334  0.00  0.00     0.051 H 
ATOM     29  H   LIG d   1       7.227   0.728  -7.636  0.00  0.00     0.051 H 
BRANCH  27  30
ATOM     30  N   LIG d   1       8.176   1.045  -5.794  0.00  0.00    -0.291 NA
ATOM     31  C   LIG d   1       8.855   2.117  -6.052  0.00  0.00     0.029 C 
ATOM     32  H   LIG d   1       9.119   2.354  -7.072  0.00  0.00     0.083 H 
BRANCH  31  33
ATOM     33  C   LIG d   1       9.267   3.012  -4.957  0.00  0.00    -0.007 A 
ATOM     34  C   LIG d   1       9.215   4.399  -5.127  0.00  0.00    -0.051 A 
ATOM     35  C   LIG d   1       9.601   5.232  -4.102  0.00  0.00    -0.040 A 
ATOM     36  H   LIG d   1       8.872   4.816  -6.063  0.00  0.00     0.062 H 
ATOM     37  C   LIG d   1      10.041   4.695  -2.896  0.00  0.00     0.029 A 
ATOM     38  H   LIG d   1       9.561   6.303  -4.233  0.00  0.00     0.064 H 
ATOM     39  C   LIG d   1      10.095   3.315  -2.723  0.00  0.00    -0.040 A 
ATOM     40  C   LIG d   1       9.705   2.476  -3.742  0.00  0.00    -0.051 A 
ATOM     41  H   LIG d   1      10.438   2.902  -1.785  0.00  0.00     0.064 H 
ATOM     42  H   LIG d   1       9.742   1.406  -3.604  0.00  0.00     0.062 H 
BRANCH  37  43
ATOM     43  N   LIG d   1      10.430   5.541  -1.860  0.00  0.00    -0.336 N 
BRANCH  43  44
ATOM     44  C   LIG d   1      11.524   5.152  -0.968  0.00  0.00     0.000 C 
ATOM     45  H   LIG d   1      11.382   4.120  -0.647  0.00  0.00     0.043 H 
ATOM     46  H   LIG d   1      12.473   5.240  -1.498  0.00  0.00     0.043 H 
ATOM     47  H   LIG d   1      11.532   5.807  -0.097  0.00  0.00     0.043 H 
ENDBRANCH  43  44
BRANCH  43  48
ATOM     48  C   LIG d   1       9.744   6.821  -1.664  0.00  0.00     0.000 C 
ATOM     49  H   LIG d   1       8.669   6.679  -1.781  0.00  0.00     0.043 H 
ATOM     50  H   LIG d   1       9.953   7.195  -0.662  0.00  0.00     0.043 H 
ATOM     51  H   LIG d   1      10.098   7.539  -2.402  0.00  0.00     0.043 H 
ENDBRANCH  43  48
ENDBRANCH  37  43
ENDBRANCH  31  33
ENDBRANCH  27  30
ENDBRANCH  24  27
ENDBRANCH   1  24
BRANCH   1  52
ATOM     52  C   LIG d   1       4.894  -1.013  -4.819  0.00  0.00    -0.002 A 
ATOM     53  C   LIG d   1       4.196  -0.247  -3.897  0.00  0.00     0.123 A 
ATOM     54  C   LIG d   1       3.673  -0.842  -2.757  0.00  0.00    -0.020 A 
ATOM     55  C   LIG d   1       3.839  -2.198  -2.550  0.00  0.00    -0.058 A 
ATOM     56  H   LIG d   1       3.133  -0.247  -2.036  0.00  0.00     0.065 H 
ATOM     57  C   LIG d   1       4.534  -2.959  -3.472  0.00  0.00    -0.061 A 
ATOM     58  H   LIG d   1       3.428  -2.662  -1.666  0.00  0.00     0.062 H 
ATOM     59  C   LIG d   1       5.061  -2.367  -4.604  0.00  0.00    -0.055 A 
ATOM     60  H   LIG d   1       4.666  -4.018  -3.306  0.00  0.00     0.062 H 
ATOM     61  H   LIG d   1       5.604  -2.964  -5.322  0.00  0.00     0.062 H 
BRANCH  53  62
ATOM     62  O   LIG d   1       4.030   1.086  -4.105  0.00  0.00    -0.495 OA
BRANCH  62  63
ATOM     63  C   LIG d   1       3.567   1.863  -3.000  0.00  0.00     0.079 C 
ATOM     64  H   LIG d   1       4.097   1.562  -2.096  0.00  0.00     0.066 H 
ATOM     65  H   LIG d   1       3.755   2.920  -3.194  0.00  0.00     0.066 H 
ATOM     66  H   LIG d   1       2.498   1.703  -2.865  0.00  0.00     0.066 H 
ENDBRANCH  62  63
ENDBRANCH  53  62
ENDBRANCH   1  52
TORSDOF 13
ENDMDL
MODEL 8
REMARK VINA RESULT:      -5.8      3.737      7.252
REMARK  13 active torsions:
REMARK  status: ('A' for Active; 'I' for Inactive)
REMARK    1  A    between atoms: C_1  and  C_2 
REMARK    2  A    between atoms: C_2  and  C_32 
REMARK    3  A    between atoms: C_4  and  C_9 
REMARK    4  A    between atoms: C_9  and  C_11 
REMARK    5  A    between atoms: C_9  and  C_24 
REMARK    6  A    between atoms: C_11  and  C_12 
REMARK    7  A    between atoms: C_12  and  N_13 
REMARK    8  A    between atoms: C_14  and  C_15 
REMARK    9  A    between atoms: C_18  and  N_21 
REMARK   10  A    between atoms: N_21  and  C_22 
REMARK   11  A    between atoms: N_21  and  C_23 
REMARK   12  A    between atoms: C_29  and  O_30 
REMARK   13  A    between atoms: O_30  and  C_31 
ROOT
ATOM      1  C   LIG d   1       6.852  -0.580  -4.882  0.00  0.00    -0.008 C 
ATOM      2  H   LIG d   1       6.446  -0.788  -5.872  0.00  0.00     0.035 H 
ENDROOT
BRANCH   1   3
ATOM      3  C   LIG d   1       5.705  -0.432  -3.882  0.00  0.00    -0.029 C 
ATOM      4  C   LIG d   1       4.393  -0.197  -4.636  0.00  0.00    -0.021 C 
ATOM      5  C   LIG d   1       3.240  -0.128  -3.632  0.00  0.00     0.064 C 
ATOM      6  H   LIG d   1       4.452   0.742  -5.187  0.00  0.00     0.030 H 
ATOM      7  H   LIG d   1       4.221  -1.018  -5.334  0.00  0.00     0.030 H 
ATOM      8  O   LIG d   1       3.200  -1.338  -2.872  0.00  0.00    -0.374 OA
ATOM      9  C   LIG d   1       4.382  -1.586  -2.107  0.00  0.00     0.049 C 
ATOM     10  C   LIG d   1       5.580  -1.713  -3.050  0.00  0.00    -0.026 C 
ATOM     11  H   LIG d   1       4.549  -0.759  -1.417  0.00  0.00     0.056 H 
ATOM     12  H   LIG d   1       4.263  -2.511  -1.543  0.00  0.00     0.056 H 
ATOM     13  H   LIG d   1       5.433  -2.564  -3.714  0.00  0.00     0.029 H 
ATOM     14  H   LIG d   1       6.489  -1.858  -2.467  0.00  0.00     0.029 H 
ATOM     15  H   LIG d   1       5.902   0.414  -3.223  0.00  0.00     0.031 H 
BRANCH   5  16
ATOM     16  C   LIG d   1       3.453   1.059  -2.691  0.00  0.00    -0.036 C 
ATOM     17  H   LIG d   1       2.940   1.934  -3.089  0.00  0.00     0.026 H 
ATOM     18  H   LIG d   1       3.050   0.819  -1.706  0.00  0.00     0.026 H 
ATOM     19  H   LIG d   1       4.519   1.269  -2.607  0.00  0.00     0.026 H 
ENDBRANCH   5  16
BRANCH   5  20
ATOM     20  C   LIG d   1       1.919   0.046  -4.383  0.00  0.00    -0.036 C 
ATOM     21  H   LIG d   1       1.871  -0.670  -5.205  0.00  0.00     0.026 H 
ATOM     22  H   LIG d   1       1.087  -0.129  -3.700  0.00  0.00     0.026 H 
ATOM     23  H   LIG d   1       1.857   1.060  -4.779  0.00  0.00     0.026 H 
ENDBRANCH   5  20
ENDBRANCH   1   3
BRANCH   1  24
ATOM     24  C   LIG d   1       7.761  -1.734  -4.450  0.00  0.00    -0.026 C 
ATOM     25  H   LIG d   1       8.753  -1.346  -4.219  0.00  0.00     0.029 H 
ATOM     26  H   LIG d   1       7.343  -2.213  -3.564  0.00  0.00     0.029 H 
BRANCH  24  27
ATOM     27  C   LIG d   1       7.862  -2.756  -5.584  0.00  0.00     0.040 C 
ATOM     28  H   LIG d   1       8.825  -2.648  -6.084  0.00  0.00     0.051 H 
ATOM     29  H   LIG d   1       7.776  -3.763  -5.174  0.00  0.00     0.051 H 
BRANCH  27  30
ATOM     30  N   LIG d   1       6.783  -2.527  -6.546  0.00  0.00    -0.291 NA
ATOM     31  C   LIG d   1       5.790  -3.355  -6.616  0.00  0.00     0.029 C 
ATOM     32  H   LIG d   1       5.759  -4.215  -5.963  0.00  0.00     0.083 H 
BRANCH  31  33
ATOM     33  C   LIG d   1       4.704  -3.125  -7.584  0.00  0.00    -0.007 A 
ATOM     34  C   LIG d   1       4.163  -4.198  -8.299  0.00  0.00    -0.051 A 
ATOM     35  C   LIG d   1       3.149  -3.979  -9.204  0.00  0.00    -0.040 A 
ATOM     36  H   LIG d   1       4.541  -5.198  -8.142  0.00  0.00     0.062 H 
ATOM     37  C   LIG d   1       2.661  -2.692  -9.405  0.00  0.00     0.029 A 
ATOM     38  H   LIG d   1       2.731  -4.808  -9.756  0.00  0.00     0.064 H 
ATOM     39  C   LIG d   1       3.197  -1.621  -8.696  0.00  0.00    -0.040 A 
ATOM     40  C   LIG d   1       4.208  -1.834  -7.786  0.00  0.00    -0.051 A 
ATOM     41  H   LIG d   1       2.816  -0.623  -8.856  0.00  0.00     0.064 H 
ATOM     42  H   LIG d   1       4.619  -1.002  -7.233  0.00  0.00     0.062 H 
BRANCH  37  43
ATOM     43  N   LIG d   1       1.634  -2.474 -10.320  0.00  0.00    -0.336 N 
BRANCH  43  44
ATOM     44  C   LIG d   1       1.444  -1.146 -10.907  0.00  0.00     0.000 C 
ATOM     45  H   LIG d   1       1.556  -0.387 -10.133  0.00  0.00     0.043 H 
ATOM     46  H   LIG d   1       2.190  -0.983 -11.686  0.00  0.00     0.043 H 
ATOM     47  H   LIG d   1       0.446  -1.080 -11.341  0.00  0.00     0.043 H 
ENDBRANCH  43  44
BRANCH  43  48
ATOM     48  C   LIG d   1       0.742  -3.575 -10.696  0.00  0.00     0.000 C 
ATOM     49  H   LIG d   1      -0.022  -3.207 -11.380  0.00  0.00     0.043 H 
ATOM     50  H   LIG d   1       1.320  -4.359 -11.185  0.00  0.00     0.043 H 
ATOM     51  H   LIG d   1       0.266  -3.977  -9.802  0.00  0.00     0.043 H 
ENDBRANCH  43  48
ENDBRANCH  37  43
ENDBRANCH  31  33
ENDBRANCH  27  30
ENDBRANCH  24  27
ENDBRANCH   1  24
BRANCH   1  52
ATOM     52  C   LIG d   1       7.649   0.698  -4.926  0.00  0.00    -0.002 A 
ATOM     53  C   LIG d   1       8.059   1.219  -6.144  0.00  0.00     0.123 A 
ATOM     54  C   LIG d   1       8.799   2.393  -6.180  0.00  0.00    -0.020 A 
ATOM     55  C   LIG d   1       9.115   3.045  -5.004  0.00  0.00    -0.058 A 
ATOM     56  H   LIG d   1       9.123   2.799  -7.127  0.00  0.00     0.065 H 
ATOM     57  C   LIG d   1       8.704   2.523  -3.791  0.00  0.00    -0.061 A 
ATOM     58  H   LIG d   1       9.686   3.961  -5.032  0.00  0.00     0.062 H 
ATOM     59  C   LIG d   1       7.973   1.351  -3.752  0.00  0.00    -0.055 A 
ATOM     60  H   LIG d   1       8.955   3.033  -2.873  0.00  0.00     0.062 H 
ATOM     61  H   LIG d   1       7.653   0.946  -2.803  0.00  0.00     0.062 H 
BRANCH  53  62
ATOM     62  O   LIG d   1       7.743   0.578  -7.300  0.00  0.00    -0.495 OA
BRANCH  62  63
ATOM     63  C   LIG d   1       6.796   1.216  -8.158  0.00  0.00     0.079 C 
ATOM     64  H   LIG d   1       6.564   0.560  -8.997  0.00  0.00     0.066 H 
ATOM     65  H   LIG d   1       5.883   1.425  -7.599  0.00  0.00     0.066 H 
ATOM     66  H   LIG d   1       7.215   2.150  -8.531  0.00  0.00     0.066 H 
ENDBRANCH  62  63
ENDBRANCH  53  62
ENDBRANCH   1  52
TORSDOF 13
ENDMDL
MODEL 9
REMARK VINA RESULT:      -5.8      4.027      7.028
REMARK  13 active torsions:
REMARK  status: ('A' for Active; 'I' for Inactive)
REMARK    1  A    between atoms: C_1  and  C_2 
REMARK    2  A    between atoms: C_2  and  C_32 
REMARK    3  A    between atoms: C_4  and  C_9 
REMARK    4  A    between atoms: C_9  and  C_11 
REMARK    5  A    between atoms: C_9  and  C_24 
REMARK    6  A    between atoms: C_11  and  C_12 
REMARK    7  A    between atoms: C_12  and  N_13 
REMARK    8  A    between atoms: C_14  and  C_15 
REMARK    9  A    between atoms: C_18  and  N_21 
REMARK   10  A    between atoms: N_21  and  C_22 
REMARK   11  A    between atoms: N_21  and  C_23 
REMARK   12  A    between atoms: C_29  and  O_30 
REMARK   13  A    between atoms: O_30  and  C_31 
ROOT
ATOM      1  C   LIG d   1       5.810  -0.851  -5.896  0.00  0.00    -0.008 C 
ATOM      2  H   LIG d   1       6.518  -0.025  -5.954  0.00  0.00     0.035 H 
ENDROOT
BRANCH   1   3
ATOM      3  C   LIG d   1       4.663  -0.609  -6.878  0.00  0.00    -0.029 C 
ATOM      4  C   LIG d   1       5.099   0.411  -7.934  0.00  0.00    -0.021 C 
ATOM      5  C   LIG d   1       3.974   0.587  -8.957  0.00  0.00     0.064 C 
ATOM      6  H   LIG d   1       5.306   1.367  -7.453  0.00  0.00     0.030 H 
ATOM      7  H   LIG d   1       5.998   0.054  -8.437  0.00  0.00     0.030 H 
ATOM      8  O   LIG d   1       3.665  -0.679  -9.545  0.00  0.00    -0.374 OA
ATOM      9  C   LIG d   1       3.205  -1.659  -8.612  0.00  0.00     0.049 C 
ATOM     10  C   LIG d   1       4.299  -1.925  -7.575  0.00  0.00    -0.026 C 
ATOM     11  H   LIG d   1       2.310  -1.292  -8.110  0.00  0.00     0.056 H 
ATOM     12  H   LIG d   1       2.973  -2.583  -9.140  0.00  0.00     0.056 H 
ATOM     13  H   LIG d   1       5.181  -2.329  -8.070  0.00  0.00     0.029 H 
ATOM     14  H   LIG d   1       3.935  -2.639  -6.836  0.00  0.00     0.029 H 
ATOM     15  H   LIG d   1       3.795  -0.228  -6.340  0.00  0.00     0.031 H 
BRANCH   5  16
ATOM     16  C   LIG d   1       2.731   1.143  -8.259  0.00  0.00    -0.036 C 
ATOM     17  H   LIG d   1       1.844   0.636  -8.639  0.00  0.00     0.026 H 
ATOM     18  H   LIG d   1       2.812   0.976  -7.185  0.00  0.00     0.026 H 
ATOM     19  H   LIG d   1       2.651   2.211  -8.456  0.00  0.00     0.026 H 
ENDBRANCH   5  16
BRANCH   5  20
ATOM     20  C   LIG d   1       4.425   1.560 -10.049  0.00  0.00    -0.036 C 
ATOM     21  H   LIG d   1       5.145   2.265  -9.632  0.00  0.00     0.026 H 
ATOM     22  H   LIG d   1       4.892   1.003 -10.861  0.00  0.00     0.026 H 
ATOM     23  H   LIG d   1       3.561   2.104 -10.430  0.00  0.00     0.026 H 
ENDBRANCH   5  20
ENDBRANCH   1   3
BRANCH   1  24
ATOM     24  C   LIG d   1       6.520  -2.159  -6.250  0.00  0.00    -0.026 C 
ATOM     25  H   LIG d   1       6.404  -2.869  -5.431  0.00  0.00     0.029 H 
ATOM     26  H   LIG d   1       6.081  -2.576  -7.157  0.00  0.00     0.029 H 
BRANCH  24  27
ATOM     27  C   LIG d   1       8.007  -1.886  -6.482  0.00  0.00     0.040 C 
ATOM     28  H   LIG d   1       8.582  -2.269  -5.639  0.00  0.00     0.051 H 
ATOM     29  H   LIG d   1       8.330  -2.382  -7.398  0.00  0.00     0.051 H 
BRANCH  27  30
ATOM     30  N   LIG d   1       8.226  -0.443  -6.606  0.00  0.00    -0.291 NA
ATOM     31  C   LIG d   1       8.744   0.043  -7.688  0.00  0.00     0.029 C 
ATOM     32  H   LIG d   1       9.016  -0.616  -8.499  0.00  0.00     0.083 H 
BRANCH  31  33
ATOM     33  C   LIG d   1       8.964   1.495  -7.813  0.00  0.00    -0.007 A 
ATOM     34  C   LIG d   1       8.520   2.176  -8.950  0.00  0.00    -0.051 A 
ATOM     35  C   LIG d   1       8.729   3.532  -9.063  0.00  0.00    -0.040 A 
ATOM     36  H   LIG d   1       8.015   1.639  -9.739  0.00  0.00     0.062 H 
ATOM     37  C   LIG d   1       9.379   4.225  -8.046  0.00  0.00     0.029 A 
ATOM     38  H   LIG d   1       8.386   4.059  -9.941  0.00  0.00     0.064 H 
ATOM     39  C   LIG d   1       9.822   3.550  -6.913  0.00  0.00    -0.040 A 
ATOM     40  C   LIG d   1       9.612   2.195  -6.791  0.00  0.00    -0.051 A 
ATOM     41  H   LIG d   1      10.327   4.091  -6.125  0.00  0.00     0.064 H 
ATOM     42  H   LIG d   1       9.953   1.673  -5.908  0.00  0.00     0.062 H 
BRANCH  37  43
ATOM     43  N   LIG d   1       9.587   5.597  -8.164  0.00  0.00    -0.336 N 
BRANCH  43  44
ATOM     44  C   LIG d   1      10.257   6.331  -7.088  0.00  0.00     0.000 C 
ATOM     45  H   LIG d   1       9.826   6.044  -6.129  0.00  0.00     0.043 H 
ATOM     46  H   LIG d   1      11.321   6.093  -7.094  0.00  0.00     0.043 H 
ATOM     47  H   LIG d   1      10.123   7.402  -7.242  0.00  0.00     0.043 H 
ENDBRANCH  43  44
BRANCH  43  48
ATOM     48  C   LIG d   1       9.134   6.306  -9.364  0.00  0.00     0.000 C 
ATOM     49  H   LIG d   1       8.142   5.951  -9.643  0.00  0.00     0.043 H 
ATOM     50  H   LIG d   1       9.094   7.375  -9.160  0.00  0.00     0.043 H 
ATOM     51  H   LIG d   1       9.830   6.116 -10.181  0.00  0.00     0.043 H 
ENDBRANCH  43  48
ENDBRANCH  37  43
ENDBRANCH  31  33
ENDBRANCH  27  30
ENDBRANCH  24  27
ENDBRANCH   1  24
BRANCH   1  52
ATOM     52  C   LIG d   1       5.261  -0.942  -4.495  0.00  0.00    -0.002 A 
ATOM     53  C   LIG d   1       5.402   0.128  -3.623  0.00  0.00     0.123 A 
ATOM     54  C   LIG d   1       4.901   0.039  -2.332  0.00  0.00    -0.020 A 
ATOM     55  C   LIG d   1       4.252  -1.111  -1.922  0.00  0.00    -0.058 A 
ATOM     56  H   LIG d   1       5.013   0.869  -1.650  0.00  0.00     0.065 H 
ATOM     57  C   LIG d   1       4.113  -2.175  -2.794  0.00  0.00    -0.061 A 
ATOM     58  H   LIG d   1       3.858  -1.179  -0.919  0.00  0.00     0.062 H 
ATOM     59  C   LIG d   1       4.616  -2.091  -4.078  0.00  0.00    -0.055 A 
ATOM     60  H   LIG d   1       3.609  -3.074  -2.470  0.00  0.00     0.062 H 
ATOM     61  H   LIG d   1       4.506  -2.924  -4.757  0.00  0.00     0.062 H 
BRANCH  53  62
ATOM     62  O   LIG d   1       6.035   1.259  -4.030  0.00  0.00    -0.495 OA
BRANCH  62  63
ATOM     63  C   LIG d   1       7.409   1.401  -3.664  0.00  0.00     0.079 C 
ATOM     64  H   LIG d   1       7.931   1.981  -4.425  0.00  0.00     0.066 H 
ATOM     65  H   LIG d   1       7.478   1.916  -2.705  0.00  0.00     0.066 H 
ATOM     66  H   LIG d   1       7.867   0.416  -3.580  0.00  0.00     0.066 H 
ENDBRANCH  62  63
ENDBRANCH  53  62
ENDBRANCH   1  52
TORSDOF 13
ENDMDL
