MODEL 1
REMARK VINA RESULT:      -6.3      0.000      0.000
REMARK  7 active torsions:
REMARK  status: ('A' for Active; 'I' for Inactive)
REMARK    1  A    between atoms: C_1  and  C_2 
REMARK    2  A    between atoms: C_2  and  C_3 
REMARK    3  A    between atoms: C_2  and  N_4 
REMARK       I    between atoms: N_4  and  C_5 
REMARK       I    between atoms: C_5  and  N_7 
REMARK    4  A    between atoms: N_7  and  C_8 
REMARK       I    between atoms: N_18  and  C_26 
REMARK       I    between atoms: C_26  and  N_28 
REMARK    5  A    between atoms: N_28  and  C_29 
REMARK    6  A    between atoms: C_33  and  O_35 
REMARK    7  A    between atoms: O_35  and  C_36 
ROOT
ATOM      1  C   LIG d   1       8.710   1.766  -5.408  0.00  0.00     0.043 C 
ATOM      2  H   LIG d   1       9.328   0.900  -5.172  0.00  0.00     0.051 H 
ATOM      3  C   LIG d   1       9.008   2.263  -6.838  0.00  0.00    -0.006 C 
ATOM      4  CA  LIG d   1       9.918   3.489  -6.632  0.00  0.00     0.104 C 
ATOM      5  HA  LIG d   1      10.973   3.211  -6.624  0.00  0.00     0.060 H 
ATOM      6  C   LIG d   1       9.638   4.518  -7.691  0.00  0.00     0.237 C 
ATOM      7  O   LIG d   1       9.308   4.151  -8.799  0.00  0.00    -0.274 OA
ATOM      8  N   LIG d   1       9.746   5.844  -7.436  0.00  0.00    -0.285 N 
ATOM      9  C   LIG d   1       9.611   6.735  -8.595  0.00  0.00     0.031 C 
ATOM     10  C   LIG d   1       8.801   7.978  -8.238  0.00  0.00     0.032 C 
ATOM     11  N   LIG d   1       9.364   8.541  -7.000  0.00  0.00    -0.282 N 
ATOM     12  C   LIG d   1       9.375   7.694  -5.808  0.00  0.00     0.043 C 
ATOM     13  CA  LIG d   1      10.006   6.339  -6.097  0.00  0.00     0.118 C 
ATOM     14  HA  LIG d   1      11.083   6.454  -5.984  0.00  0.00     0.061 H 
ATOM     15  C   LIG d   1       9.535   5.362  -5.044  0.00  0.00     0.238 C 
ATOM     16  O   LIG d   1       9.185   5.758  -3.954  0.00  0.00    -0.274 OA
ATOM     17  N   LIG d   1       9.506   4.049  -5.331  0.00  0.00    -0.286 N 
ATOM     18  C   LIG d   1       9.066   2.942  -4.481  0.00  0.00     0.034 C 
ATOM     19  C   LIG d   1       9.855   9.795  -6.967  0.00  0.00     0.307 C 
ATOM     20  O   LIG d   1       9.931  10.445  -7.992  0.00  0.00    -0.252 OA
ATOM     21  N   LIG d   1      10.265  10.328  -5.800  0.00  0.00    -0.269 N 
ATOM     22  H   LIG d   1       8.085   2.552  -7.341  0.00  0.00     0.031 H 
ATOM     23  H   LIG d   1       9.528   1.492  -7.408  0.00  0.00     0.031 H 
ATOM     24  H   LIG d   1       9.109   6.200  -9.402  0.00  0.00     0.048 H 
ATOM     25  H   LIG d   1      10.603   7.038  -8.930  0.00  0.00     0.048 H 
ATOM     26  H   LIG d   1       8.871   8.709  -9.042  0.00  0.00     0.048 H 
ATOM     27  H   LIG d   1       7.757   7.705  -8.077  0.00  0.00     0.048 H 
ATOM     28  H   LIG d   1       8.350   7.546  -5.467  0.00  0.00     0.049 H 
ATOM     29  H   LIG d   1       9.944   8.192  -5.022  0.00  0.00     0.049 H 
ATOM     30  H   LIG d   1       9.870   2.652  -3.805  0.00  0.00     0.048 H 
ATOM     31  H   LIG d   1       8.189   3.242  -3.908  0.00  0.00     0.048 H 
ATOM     32  H   LIG d   1      10.309   9.776  -5.003  0.00  0.00     0.156 HD
ENDROOT
BRANCH  21  33
ATOM     33  C   LIG d   1      10.624  11.679  -5.735  0.00  0.00     0.038 A 
ATOM     34  C   LIG d   1       9.670  12.637  -5.421  0.00  0.00     0.001 A 
ATOM     35  C   LIG d   1      10.029  13.974  -5.358  0.00  0.00     0.122 A 
ATOM     36  H   LIG d   1       8.650  12.341  -5.226  0.00  0.00     0.067 H 
ATOM     37  C   LIG d   1      11.341  14.353  -5.608  0.00  0.00    -0.020 A 
ATOM     38  C   LIG d   1      12.289  13.397  -5.920  0.00  0.00    -0.057 A 
ATOM     39  H   LIG d   1      11.620  15.394  -5.557  0.00  0.00     0.065 H 
ATOM     40  C   LIG d   1      11.937  12.063  -5.979  0.00  0.00    -0.040 A 
ATOM     41  H   LIG d   1      13.310  13.694  -6.115  0.00  0.00     0.062 H 
ATOM     42  H   LIG d   1      12.681  11.318  -6.219  0.00  0.00     0.064 H 
BRANCH  35  43
ATOM     43  O   LIG d   1       9.097  14.915  -5.051  0.00  0.00    -0.495 OA
BRANCH  43  44
ATOM     44  C   LIG d   1       8.536  14.868  -3.738  0.00  0.00     0.079 C 
ATOM     45  H   LIG d   1       7.469  15.086  -3.790  0.00  0.00     0.066 H 
ATOM     46  H   LIG d   1       8.682  13.874  -3.315  0.00  0.00     0.066 H 
ATOM     47  H   LIG d   1       9.027  15.608  -3.107  0.00  0.00     0.066 H 
ENDBRANCH  43  44
ENDBRANCH  35  43
ENDBRANCH  21  33
BRANCH   1  48
ATOM     48  N   LIG d   1       7.291   1.426  -5.274  0.00  0.00    -0.295 N 
ATOM     49  C   LIG d   1       6.875   0.663  -4.245  0.00  0.00     0.300 C 
ATOM     50  N   LIG d   1       5.570   0.350  -4.123  0.00  0.00    -0.297 N 
ATOM     51  O   LIG d   1       7.676   0.256  -3.426  0.00  0.00    -0.253 OA
ATOM     52  H   LIG d   1       4.930   0.675  -4.775  0.00  0.00     0.150 HD
ATOM     53  H   LIG d   1       6.652   1.750  -5.928  0.00  0.00     0.151 HD
BRANCH  50  54
ATOM     54  C   LIG d   1       5.117  -0.479  -3.003  0.00  0.00     0.019 C 
ATOM     55  H   LIG d   1       5.968  -1.011  -2.578  0.00  0.00     0.049 H 
BRANCH  54  56
ATOM     56  C   LIG d   1       4.486   0.411  -1.930  0.00  0.00    -0.047 C 
ATOM     57  H   LIG d   1       5.259   0.752  -1.242  0.00  0.00     0.025 H 
ATOM     58  H   LIG d   1       4.015   1.272  -2.404  0.00  0.00     0.025 H 
ATOM     59  H   LIG d   1       3.736  -0.157  -1.380  0.00  0.00     0.025 H 
ENDBRANCH  54  56
BRANCH  54  60
ATOM     60  C   LIG d   1       4.081  -1.488  -3.503  0.00  0.00    -0.047 C 
ATOM     61  H   LIG d   1       3.602  -1.101  -4.401  0.00  0.00     0.025 H 
ATOM     62  H   LIG d   1       4.575  -2.433  -3.732  0.00  0.00     0.025 H 
ATOM     63  H   LIG d   1       3.330  -1.649  -2.731  0.00  0.00     0.025 H 
ENDBRANCH  54  60
ENDBRANCH  50  54
ENDBRANCH   1  48
TORSDOF 7
ENDMDL
MODEL 2
REMARK VINA RESULT:      -6.2      9.704     12.495
REMARK  7 active torsions:
REMARK  status: ('A' for Active; 'I' for Inactive)
REMARK    1  A    between atoms: C_1  and  C_2 
REMARK    2  A    between atoms: C_2  and  C_3 
REMARK    3  A    between atoms: C_2  and  N_4 
REMARK       I    between atoms: N_4  and  C_5 
REMARK       I    between atoms: C_5  and  N_7 
REMARK    4  A    between atoms: N_7  and  C_8 
REMARK       I    between atoms: N_18  and  C_26 
REMARK       I    between atoms: C_26  and  N_28 
REMARK    5  A    between atoms: N_28  and  C_29 
REMARK    6  A    between atoms: C_33  and  O_35 
REMARK    7  A    between atoms: O_35  and  C_36 
ROOT
ATOM      1  C   LIG d   1      10.661  -6.872  -2.338  0.00  0.00     0.043 C 
ATOM      2  H   LIG d   1      11.693  -7.191  -2.493  0.00  0.00     0.051 H 
ATOM      3  C   LIG d   1       9.723  -7.600  -3.323  0.00  0.00    -0.006 C 
ATOM      4  CA  LIG d   1       9.443  -6.556  -4.422  0.00  0.00     0.104 C 
ATOM      5  HA  LIG d   1      10.168  -6.620  -5.233  0.00  0.00     0.060 H 
ATOM      6  C   LIG d   1       8.041  -6.719  -4.937  0.00  0.00     0.237 C 
ATOM      7  O   LIG d   1       7.549  -7.828  -4.974  0.00  0.00    -0.274 OA
ATOM      8  N   LIG d   1       7.314  -5.657  -5.360  0.00  0.00    -0.285 N 
ATOM      9  C   LIG d   1       6.027  -5.970  -5.994  0.00  0.00     0.031 C 
ATOM     10  C   LIG d   1       4.949  -4.980  -5.561  0.00  0.00     0.032 C 
ATOM     11  N   LIG d   1       5.490  -3.623  -5.737  0.00  0.00    -0.282 N 
ATOM     12  C   LIG d   1       6.701  -3.269  -4.997  0.00  0.00     0.043 C 
ATOM     13  CA  LIG d   1       7.801  -4.298  -5.212  0.00  0.00     0.118 C 
ATOM     14  HA  LIG d   1       8.322  -4.027  -6.130  0.00  0.00     0.061 H 
ATOM     15  C   LIG d   1       8.787  -4.185  -4.072  0.00  0.00     0.238 C 
ATOM     16  O   LIG d   1       8.907  -3.141  -3.468  0.00  0.00    -0.274 OA
ATOM     17  N   LIG d   1       9.528  -5.254  -3.734  0.00  0.00    -0.286 N 
ATOM     18  C   LIG d   1      10.513  -5.374  -2.658  0.00  0.00     0.034 C 
ATOM     19  C   LIG d   1       4.889  -2.735  -6.554  0.00  0.00     0.307 C 
ATOM     20  O   LIG d   1       3.944  -3.081  -7.237  0.00  0.00    -0.252 OA
ATOM     21  N   LIG d   1       5.336  -1.466  -6.615  0.00  0.00    -0.269 N 
ATOM     22  H   LIG d   1       8.798  -7.889  -2.825  0.00  0.00     0.031 H 
ATOM     23  H   LIG d   1      10.219  -8.475  -3.745  0.00  0.00     0.031 H 
ATOM     24  H   LIG d   1       5.723  -6.978  -5.709  0.00  0.00     0.048 H 
ATOM     25  H   LIG d   1       6.142  -5.924  -7.077  0.00  0.00     0.048 H 
ATOM     26  H   LIG d   1       4.061  -5.107  -6.179  0.00  0.00     0.048 H 
ATOM     27  H   LIG d   1       4.697  -5.144  -4.513  0.00  0.00     0.048 H 
ATOM     28  H   LIG d   1       6.465  -3.214  -3.934  0.00  0.00     0.049 H 
ATOM     29  H   LIG d   1       7.053  -2.294  -5.336  0.00  0.00     0.049 H 
ATOM     30  H   LIG d   1      11.470  -4.968  -2.985  0.00  0.00     0.048 H 
ATOM     31  H   LIG d   1      10.164  -4.838  -1.776  0.00  0.00     0.048 H 
ATOM     32  H   LIG d   1       6.154  -1.217  -6.157  0.00  0.00     0.156 HD
ENDROOT
BRANCH  21  33
ATOM     33  C   LIG d   1       4.619  -0.506  -7.337  0.00  0.00     0.038 A 
ATOM     34  C   LIG d   1       5.024  -0.154  -8.618  0.00  0.00     0.001 A 
ATOM     35  C   LIG d   1       4.311   0.797  -9.330  0.00  0.00     0.122 A 
ATOM     36  H   LIG d   1       5.892  -0.621  -9.057  0.00  0.00     0.067 H 
ATOM     37  C   LIG d   1       3.195   1.396  -8.763  0.00  0.00    -0.020 A 
ATOM     38  C   LIG d   1       2.793   1.045  -7.488  0.00  0.00    -0.057 A 
ATOM     39  H   LIG d   1       2.639   2.136  -9.319  0.00  0.00     0.065 H 
ATOM     40  C   LIG d   1       3.497   0.093  -6.777  0.00  0.00    -0.040 A 
ATOM     41  H   LIG d   1       1.924   1.513  -7.048  0.00  0.00     0.062 H 
ATOM     42  H   LIG d   1       3.179  -0.183  -5.782  0.00  0.00     0.064 H 
BRANCH  35  43
ATOM     43  O   LIG d   1       4.705   1.144 -10.584  0.00  0.00    -0.495 OA
BRANCH  43  44
ATOM     44  C   LIG d   1       4.293   0.290 -11.653  0.00  0.00     0.079 C 
ATOM     45  H   LIG d   1       3.275   0.544 -11.950  0.00  0.00     0.066 H 
ATOM     46  H   LIG d   1       4.963   0.421 -12.502  0.00  0.00     0.066 H 
ATOM     47  H   LIG d   1       4.325  -0.748 -11.322  0.00  0.00     0.066 H 
ENDBRANCH  43  44
ENDBRANCH  35  43
ENDBRANCH  21  33
BRANCH   1  48
ATOM     48  N   LIG d   1      10.252  -7.139  -0.957  0.00  0.00    -0.295 N 
ATOM     49  C   LIG d   1      11.045  -7.869  -0.148  0.00  0.00     0.300 C 
ATOM     50  N   LIG d   1      10.668  -8.114   1.122  0.00  0.00    -0.297 N 
ATOM     51  O   LIG d   1      12.100  -8.307  -0.564  0.00  0.00    -0.253 OA
ATOM     52  H   LIG d   1       9.827  -7.764   1.455  0.00  0.00     0.150 HD
ATOM     53  H   LIG d   1       9.410  -6.790  -0.625  0.00  0.00     0.151 HD
BRANCH  50  54
ATOM     54  C   LIG d   1      11.530  -8.908   2.003  0.00  0.00     0.019 C 
ATOM     55  H   LIG d   1      12.555  -8.872   1.634  0.00  0.00     0.049 H 
BRANCH  54  56
ATOM     56  C   LIG d   1      11.477  -8.335   3.420  0.00  0.00    -0.047 C 
ATOM     57  H   LIG d   1      10.982  -9.047   4.081  0.00  0.00     0.025 H 
ATOM     58  H   LIG d   1      12.491  -8.154   3.777  0.00  0.00     0.025 H 
ATOM     59  H   LIG d   1      10.921  -7.398   3.414  0.00  0.00     0.025 H 
ENDBRANCH  54  56
BRANCH  54  60
ATOM     60  C   LIG d   1      11.043 -10.358   2.019  0.00  0.00    -0.047 C 
ATOM     61  H   LIG d   1      10.405 -10.517   2.887  0.00  0.00     0.025 H 
ATOM     62  H   LIG d   1      10.478 -10.563   1.109  0.00  0.00     0.025 H 
ATOM     63  H   LIG d   1      11.901 -11.028   2.072  0.00  0.00     0.025 H 
ENDBRANCH  54  60
ENDBRANCH  50  54
ENDBRANCH   1  48
TORSDOF 7
ENDMDL
MODEL 3
REMARK VINA RESULT:      -6.1      1.701      1.938
REMARK  7 active torsions:
REMARK  status: ('A' for Active; 'I' for Inactive)
REMARK    1  A    between atoms: C_1  and  C_2 
REMARK    2  A    between atoms: C_2  and  C_3 
REMARK    3  A    between atoms: C_2  and  N_4 
REMARK       I    between atoms: N_4  and  C_5 
REMARK       I    between atoms: C_5  and  N_7 
REMARK    4  A    between atoms: N_7  and  C_8 
REMARK       I    between atoms: N_18  and  C_26 
REMARK       I    between atoms: C_26  and  N_28 
REMARK    5  A    between atoms: N_28  and  C_29 
REMARK    6  A    between atoms: C_33  and  O_35 
REMARK    7  A    between atoms: O_35  and  C_36 
ROOT
ATOM      1  C   LIG d   1       8.402   1.895  -4.356  0.00  0.00     0.043 C 
ATOM      2  H   LIG d   1       8.928   1.060  -3.893  0.00  0.00     0.051 H 
ATOM      3  C   LIG d   1       8.594   1.865  -5.886  0.00  0.00    -0.006 C 
ATOM      4  CA  LIG d   1       9.671   2.934  -6.155  0.00  0.00     0.104 C 
ATOM      5  HA  LIG d   1      10.675   2.510  -6.129  0.00  0.00     0.060 H 
ATOM      6  C   LIG d   1       9.404   3.610  -7.470  0.00  0.00     0.237 C 
ATOM      7  O   LIG d   1       8.904   2.972  -8.373  0.00  0.00    -0.274 OA
ATOM      8  N   LIG d   1       9.709   4.915  -7.671  0.00  0.00    -0.285 N 
ATOM      9  C   LIG d   1       9.556   5.407  -9.046  0.00  0.00     0.031 C 
ATOM     10  C   LIG d   1       8.957   6.811  -9.059  0.00  0.00     0.032 C 
ATOM     11  N   LIG d   1       9.727   7.637  -8.115  0.00  0.00    -0.282 N 
ATOM     12  C   LIG d   1       9.767   7.216  -6.715  0.00  0.00     0.043 C 
ATOM     13  CA  LIG d   1      10.182   5.757  -6.588  0.00  0.00     0.118 C 
ATOM     14  HA  LIG d   1      11.272   5.730  -6.593  0.00  0.00     0.061 H 
ATOM     15  C   LIG d   1       9.716   5.246  -5.244  0.00  0.00     0.238 C 
ATOM     16  O   LIG d   1       9.548   6.014  -4.322  0.00  0.00    -0.274 OA
ATOM     17  N   LIG d   1       9.487   3.931  -5.083  0.00  0.00    -0.286 N 
ATOM     18  C   LIG d   1       9.009   3.230  -3.891  0.00  0.00     0.034 C 
ATOM     19  C   LIG d   1      10.375   8.745  -8.528  0.00  0.00     0.307 C 
ATOM     20  O   LIG d   1      10.413   9.020  -9.711  0.00  0.00    -0.252 OA
ATOM     21  N   LIG d   1      10.981   9.544  -7.629  0.00  0.00    -0.269 N 
ATOM     22  H   LIG d   1       7.664   2.124  -6.392  0.00  0.00     0.031 H 
ATOM     23  H   LIG d   1       8.942   0.883  -6.207  0.00  0.00     0.031 H 
ATOM     24  H   LIG d   1       8.900   4.733  -9.597  0.00  0.00     0.048 H 
ATOM     25  H   LIG d   1      10.533   5.430  -9.528  0.00  0.00     0.048 H 
ATOM     26  H   LIG d   1       9.027   7.233 -10.062  0.00  0.00     0.048 H 
ATOM     27  H   LIG d   1       7.913   6.771  -8.747  0.00  0.00     0.048 H 
ATOM     28  H   LIG d   1       8.778   7.346  -6.275  0.00  0.00     0.049 H 
ATOM     29  H   LIG d   1      10.482   7.839  -6.177  0.00  0.00     0.049 H 
ATOM     30  H   LIG d   1       9.843   3.043  -3.213  0.00  0.00     0.048 H 
ATOM     31  H   LIG d   1       8.251   3.830  -3.389  0.00  0.00     0.048 H 
ATOM     32  H   LIG d   1      11.046   9.270  -6.701  0.00  0.00     0.156 HD
ENDROOT
BRANCH  21  33
ATOM     33  C   LIG d   1      11.514  10.773  -8.034  0.00  0.00     0.038 A 
ATOM     34  C   LIG d   1      10.735  11.921  -7.981  0.00  0.00     0.001 A 
ATOM     35  C   LIG d   1      11.266  13.136  -8.382  0.00  0.00     0.122 A 
ATOM     36  H   LIG d   1       9.716  11.866  -7.627  0.00  0.00     0.067 H 
ATOM     37  C   LIG d   1      12.576  13.204  -8.837  0.00  0.00    -0.020 A 
ATOM     38  C   LIG d   1      13.351  12.060  -8.889  0.00  0.00    -0.057 A 
ATOM     39  H   LIG d   1      12.990  14.150  -9.148  0.00  0.00     0.065 H 
ATOM     40  C   LIG d   1      12.827  10.848  -8.484  0.00  0.00    -0.040 A 
ATOM     41  H   LIG d   1      14.370  12.115  -9.243  0.00  0.00     0.062 H 
ATOM     42  H   LIG d   1      13.436   9.957  -8.522  0.00  0.00     0.064 H 
BRANCH  35  43
ATOM     43  O   LIG d   1      10.505  14.261  -8.332  0.00  0.00    -0.495 OA
BRANCH  43  44
ATOM     44  C   LIG d   1       9.896  14.576  -7.078  0.00  0.00     0.079 C 
ATOM     45  H   LIG d   1       8.867  14.898  -7.245  0.00  0.00     0.066 H 
ATOM     46  H   LIG d   1       9.900  13.693  -6.440  0.00  0.00     0.066 H 
ATOM     47  H   LIG d   1      10.453  15.377  -6.595  0.00  0.00     0.066 H 
ENDBRANCH  43  44
ENDBRANCH  35  43
ENDBRANCH  21  33
BRANCH   1  48
ATOM     48  N   LIG d   1       6.977   1.843  -4.022  0.00  0.00    -0.295 N 
ATOM     49  C   LIG d   1       6.382   0.656  -3.791  0.00  0.00     0.300 C 
ATOM     50  N   LIG d   1       5.071   0.608  -3.484  0.00  0.00    -0.297 N 
ATOM     51  O   LIG d   1       7.028  -0.372  -3.859  0.00  0.00    -0.253 OA
ATOM     52  H   LIG d   1       4.555   1.428  -3.429  0.00  0.00     0.150 HD
ATOM     53  H   LIG d   1       6.461   2.663  -3.968  0.00  0.00     0.151 HD
BRANCH  50  54
ATOM     54  C   LIG d   1       4.423  -0.682  -3.232  0.00  0.00     0.019 C 
ATOM     55  H   LIG d   1       4.953  -1.465  -3.774  0.00  0.00     0.049 H 
BRANCH  54  56
ATOM     56  C   LIG d   1       4.458  -0.987  -1.733  0.00  0.00    -0.047 C 
ATOM     57  H   LIG d   1       5.487  -0.929  -1.375  0.00  0.00     0.025 H 
ATOM     58  H   LIG d   1       3.847  -0.259  -1.199  0.00  0.00     0.025 H 
ATOM     59  H   LIG d   1       4.069  -1.989  -1.556  0.00  0.00     0.025 H 
ENDBRANCH  54  56
BRANCH  54  60
ATOM     60  C   LIG d   1       2.971  -0.624  -3.707  0.00  0.00    -0.047 C 
ATOM     61  H   LIG d   1       2.943  -0.319  -4.753  0.00  0.00     0.025 H 
ATOM     62  H   LIG d   1       2.514  -1.609  -3.603  0.00  0.00     0.025 H 
ATOM     63  H   LIG d   1       2.420   0.097  -3.103  0.00  0.00     0.025 H 
ENDBRANCH  54  60
ENDBRANCH  50  54
ENDBRANCH   1  48
TORSDOF 7
ENDMDL
MODEL 4
REMARK VINA RESULT:      -6.0      5.441      9.602
REMARK  7 active torsions:
REMARK  status: ('A' for Active; 'I' for Inactive)
REMARK    1  A    between atoms: C_1  and  C_2 
REMARK    2  A    between atoms: C_2  and  C_3 
REMARK    3  A    between atoms: C_2  and  N_4 
REMARK       I    between atoms: N_4  and  C_5 
REMARK       I    between atoms: C_5  and  N_7 
REMARK    4  A    between atoms: N_7  and  C_8 
REMARK       I    between atoms: N_18  and  C_26 
REMARK       I    between atoms: C_26  and  N_28 
REMARK    5  A    between atoms: N_28  and  C_29 
REMARK    6  A    between atoms: C_33  and  O_35 
REMARK    7  A    between atoms: O_35  and  C_36 
ROOT
ATOM      1  C   LIG d   1       6.750  -6.795  -6.029  0.00  0.00     0.043 C 
ATOM      2  H   LIG d   1       6.592  -7.358  -6.950  0.00  0.00     0.051 H 
ATOM      3  C   LIG d   1       5.522  -5.915  -5.722  0.00  0.00    -0.006 C 
ATOM      4  CA  LIG d   1       5.945  -4.502  -6.169  0.00  0.00     0.104 C 
ATOM      5  HA  LIG d   1       5.685  -4.313  -7.211  0.00  0.00     0.060 H 
ATOM      6  C   LIG d   1       5.329  -3.473  -5.264  0.00  0.00     0.237 C 
ATOM      7  O   LIG d   1       4.235  -3.685  -4.784  0.00  0.00    -0.274 OA
ATOM      8  N   LIG d   1       5.967  -2.314  -4.971  0.00  0.00    -0.285 N 
ATOM      9  C   LIG d   1       5.189  -1.324  -4.216  0.00  0.00     0.031 C 
ATOM     10  C   LIG d   1       6.053  -0.641  -3.159  0.00  0.00     0.032 C 
ATOM     11  N   LIG d   1       7.290  -0.187  -3.816  0.00  0.00    -0.282 N 
ATOM     12  C   LIG d   1       8.134  -1.197  -4.454  0.00  0.00     0.043 C 
ATOM     13  CA  LIG d   1       7.329  -2.068  -5.408  0.00  0.00     0.118 C 
ATOM     14  HA  LIG d   1       7.287  -1.547  -6.363  0.00  0.00     0.061 H 
ATOM     15  C   LIG d   1       8.083  -3.360  -5.621  0.00  0.00     0.238 C 
ATOM     16  O   LIG d   1       9.286  -3.398  -5.477  0.00  0.00    -0.274 OA
ATOM     17  N   LIG d   1       7.407  -4.467  -5.971  0.00  0.00    -0.286 N 
ATOM     18  C   LIG d   1       7.926  -5.816  -6.200  0.00  0.00     0.034 C 
ATOM     19  C   LIG d   1       7.632   1.116  -3.829  0.00  0.00     0.307 C 
ATOM     20  O   LIG d   1       6.868   1.950  -3.383  0.00  0.00    -0.252 OA
ATOM     21  N   LIG d   1       8.821   1.495  -4.338  0.00  0.00    -0.269 N 
ATOM     22  H   LIG d   1       5.301  -5.928  -4.655  0.00  0.00     0.031 H 
ATOM     23  H   LIG d   1       4.658  -6.253  -6.295  0.00  0.00     0.031 H 
ATOM     24  H   LIG d   1       4.353  -1.824  -3.726  0.00  0.00     0.048 H 
ATOM     25  H   LIG d   1       4.803  -0.572  -4.904  0.00  0.00     0.048 H 
ATOM     26  H   LIG d   1       5.521   0.214  -2.742  0.00  0.00     0.048 H 
ATOM     27  H   LIG d   1       6.295  -1.348  -2.366  0.00  0.00     0.048 H 
ATOM     28  H   LIG d   1       8.580  -1.826  -3.684  0.00  0.00     0.049 H 
ATOM     29  H   LIG d   1       8.927  -0.696  -5.011  0.00  0.00     0.049 H 
ATOM     30  H   LIG d   1       8.328  -5.892  -7.210  0.00  0.00     0.048 H 
ATOM     31  H   LIG d   1       8.706  -6.041  -5.472  0.00  0.00     0.048 H 
ATOM     32  H   LIG d   1       9.382   0.849  -4.793  0.00  0.00     0.156 HD
ENDROOT
BRANCH  21  33
ATOM     33  C   LIG d   1       9.246   2.822  -4.208  0.00  0.00     0.038 A 
ATOM     34  C   LIG d   1       9.839   3.250  -3.028  0.00  0.00     0.001 A 
ATOM     35  C   LIG d   1      10.259   4.564  -2.904  0.00  0.00     0.122 A 
ATOM     36  H   LIG d   1       9.973   2.558  -2.210  0.00  0.00     0.067 H 
ATOM     37  C   LIG d   1      10.087   5.451  -3.957  0.00  0.00    -0.020 A 
ATOM     38  C   LIG d   1       9.496   5.024  -5.132  0.00  0.00    -0.057 A 
ATOM     39  H   LIG d   1      10.415   6.474  -3.860  0.00  0.00     0.065 H 
ATOM     40  C   LIG d   1       9.081   3.713  -5.262  0.00  0.00    -0.040 A 
ATOM     41  H   LIG d   1       9.362   5.715  -5.951  0.00  0.00     0.062 H 
ATOM     42  H   LIG d   1       8.623   3.380  -6.182  0.00  0.00     0.064 H 
BRANCH  35  43
ATOM     43  O   LIG d   1      10.840   4.986  -1.749  0.00  0.00    -0.495 OA
BRANCH  43  44
ATOM     44  C   LIG d   1      10.280   6.143  -1.126  0.00  0.00     0.079 C 
ATOM     45  H   LIG d   1       9.461   6.525  -1.738  0.00  0.00     0.066 H 
ATOM     46  H   LIG d   1       9.902   5.878  -0.139  0.00  0.00     0.066 H 
ATOM     47  H   LIG d   1      11.048   6.910  -1.028  0.00  0.00     0.066 H 
ENDBRANCH  43  44
ENDBRANCH  35  43
ENDBRANCH  21  33
BRANCH   1  48
ATOM     48  N   LIG d   1       7.010  -7.711  -4.916  0.00  0.00    -0.295 N 
ATOM     49  C   LIG d   1       6.449  -8.935  -4.905  0.00  0.00     0.300 C 
ATOM     50  N   LIG d   1       6.687  -9.777  -3.880  0.00  0.00    -0.297 N 
ATOM     51  O   LIG d   1       5.726  -9.281  -5.820  0.00  0.00    -0.253 OA
ATOM     52  H   LIG d   1       7.264  -9.502  -3.151  0.00  0.00     0.150 HD
ATOM     53  H   LIG d   1       7.586  -7.434  -4.186  0.00  0.00     0.151 HD
BRANCH  50  54
ATOM     54  C   LIG d   1       6.077 -11.110  -3.869  0.00  0.00     0.019 C 
ATOM     55  H   LIG d   1       5.757 -11.370  -4.877  0.00  0.00     0.049 H 
BRANCH  54  56
ATOM     56  C   LIG d   1       7.100 -12.135  -3.377  0.00  0.00    -0.047 C 
ATOM     57  H   LIG d   1       6.977 -12.284  -2.304  0.00  0.00     0.025 H 
ATOM     58  H   LIG d   1       6.944 -13.081  -3.895  0.00  0.00     0.025 H 
ATOM     59  H   LIG d   1       8.107 -11.771  -3.579  0.00  0.00     0.025 H 
ENDBRANCH  54  56
BRANCH  54  60
ATOM     60  C   LIG d   1       4.866 -11.106  -2.934  0.00  0.00    -0.047 C 
ATOM     61  H   LIG d   1       4.541 -10.080  -2.765  0.00  0.00     0.025 H 
ATOM     62  H   LIG d   1       4.055 -11.676  -3.387  0.00  0.00     0.025 H 
ATOM     63  H   LIG d   1       5.142 -11.561  -1.982  0.00  0.00     0.025 H 
ENDBRANCH  54  60
ENDBRANCH  50  54
ENDBRANCH   1  48
TORSDOF 7
ENDMDL
MODEL 5
REMARK VINA RESULT:      -6.0      4.634      6.453
REMARK  7 active torsions:
REMARK  status: ('A' for Active; 'I' for Inactive)
REMARK    1  A    between atoms: C_1  and  C_2 
REMARK    2  A    between atoms: C_2  and  C_3 
REMARK    3  A    between atoms: C_2  and  N_4 
REMARK       I    between atoms: N_4  and  C_5 
REMARK       I    between atoms: C_5  and  N_7 
REMARK    4  A    between atoms: N_7  and  C_8 
REMARK       I    between atoms: N_18  and  C_26 
REMARK       I    between atoms: C_26  and  N_28 
REMARK    5  A    between atoms: N_28  and  C_29 
REMARK    6  A    between atoms: C_33  and  O_35 
REMARK    7  A    between atoms: O_35  and  C_36 
ROOT
ATOM      1  C   LIG d   1       5.123  -2.021  -5.803  0.00  0.00     0.043 C 
ATOM      2  H   LIG d   1       4.835  -3.013  -5.452  0.00  0.00     0.051 H 
ATOM      3  C   LIG d   1       6.589  -2.027  -6.280  0.00  0.00    -0.006 C 
ATOM      4  CA  LIG d   1       7.370  -1.387  -5.116  0.00  0.00     0.104 C 
ATOM      5  HA  LIG d   1       7.713  -2.134  -4.401  0.00  0.00     0.060 H 
ATOM      6  C   LIG d   1       8.523  -0.585  -5.653  0.00  0.00     0.237 C 
ATOM      7  O   LIG d   1       9.081  -0.955  -6.664  0.00  0.00    -0.274 OA
ATOM      8  N   LIG d   1       8.951   0.542  -5.034  0.00  0.00    -0.285 N 
ATOM      9  C   LIG d   1      10.186   1.135  -5.561  0.00  0.00     0.031 C 
ATOM     10  C   LIG d   1      10.089   2.658  -5.595  0.00  0.00     0.032 C 
ATOM     11  N   LIG d   1       9.619   3.108  -4.275  0.00  0.00    -0.282 N 
ATOM     12  C   LIG d   1       8.322   2.618  -3.808  0.00  0.00     0.043 C 
ATOM     13  CA  LIG d   1       8.237   1.102  -3.901  0.00  0.00     0.118 C 
ATOM     14  HA  LIG d   1       8.680   0.697  -2.991  0.00  0.00     0.061 H 
ATOM     15  C   LIG d   1       6.778   0.708  -3.917  0.00  0.00     0.238 C 
ATOM     16  O   LIG d   1       5.943   1.432  -3.419  0.00  0.00    -0.274 OA
ATOM     17  N   LIG d   1       6.415  -0.452  -4.492  0.00  0.00    -0.286 N 
ATOM     18  C   LIG d   1       5.071  -1.010  -4.643  0.00  0.00     0.034 C 
ATOM     19  C   LIG d   1      10.360   3.943  -3.520  0.00  0.00     0.307 C 
ATOM     20  O   LIG d   1      11.479   4.256  -3.880  0.00  0.00    -0.252 OA
ATOM     21  N   LIG d   1       9.863   4.428  -2.366  0.00  0.00    -0.269 N 
ATOM     22  H   LIG d   1       6.698  -1.432  -7.187  0.00  0.00     0.031 H 
ATOM     23  H   LIG d   1       6.930  -3.049  -6.452  0.00  0.00     0.031 H 
ATOM     24  H   LIG d   1      10.358   0.765  -6.572  0.00  0.00     0.048 H 
ATOM     25  H   LIG d   1      11.022   0.844  -4.926  0.00  0.00     0.048 H 
ATOM     26  H   LIG d   1      11.068   3.087  -5.805  0.00  0.00     0.048 H 
ATOM     27  H   LIG d   1       9.379   2.966  -6.364  0.00  0.00     0.048 H 
ATOM     28  H   LIG d   1       7.534   3.059  -4.420  0.00  0.00     0.049 H 
ATOM     29  H   LIG d   1       8.180   2.921  -2.770  0.00  0.00     0.049 H 
ATOM     30  H   LIG d   1       4.774  -1.515  -3.724  0.00  0.00     0.048 H 
ATOM     31  H   LIG d   1       4.364  -0.215  -4.875  0.00  0.00     0.048 H 
ATOM     32  H   LIG d   1       9.020   4.095  -2.022  0.00  0.00     0.156 HD
ENDROOT
BRANCH  21  33
ATOM     33  C   LIG d   1      10.564   5.415  -1.663  0.00  0.00     0.038 A 
ATOM     34  C   LIG d   1      10.176   6.744  -1.762  0.00  0.00     0.001 A 
ATOM     35  C   LIG d   1      10.871   7.719  -1.065  0.00  0.00     0.122 A 
ATOM     36  H   LIG d   1       9.335   7.018  -2.381  0.00  0.00     0.067 H 
ATOM     37  C   LIG d   1      11.953   7.366  -0.269  0.00  0.00    -0.020 A 
ATOM     38  C   LIG d   1      12.337   6.042  -0.172  0.00  0.00    -0.057 A 
ATOM     39  H   LIG d   1      12.493   8.125   0.275  0.00  0.00     0.065 H 
ATOM     40  C   LIG d   1      11.643   5.066  -0.861  0.00  0.00    -0.040 A 
ATOM     41  H   LIG d   1      13.179   5.768   0.447  0.00  0.00     0.062 H 
ATOM     42  H   LIG d   1      11.942   4.031  -0.780  0.00  0.00     0.064 H 
BRANCH  35  43
ATOM     43  O   LIG d   1      10.495   9.022  -1.160  0.00  0.00    -0.495 OA
BRANCH  43  44
ATOM     44  C   LIG d   1       9.134   9.328  -0.850  0.00  0.00     0.079 C 
ATOM     45  H   LIG d   1       8.754   8.605  -0.128  0.00  0.00     0.066 H 
ATOM     46  H   LIG d   1       9.075  10.330  -0.425  0.00  0.00     0.066 H 
ATOM     47  H   LIG d   1       8.536   9.283  -1.760  0.00  0.00     0.066 H 
ENDBRANCH  43  44
ENDBRANCH  35  43
ENDBRANCH  21  33
BRANCH   1  48
ATOM     48  N   LIG d   1       4.238  -1.593  -6.889  0.00  0.00    -0.295 N 
ATOM     49  C   LIG d   1       4.459  -0.423  -7.517  0.00  0.00     0.300 C 
ATOM     50  N   LIG d   1       3.644  -0.029  -8.516  0.00  0.00    -0.297 N 
ATOM     51  O   LIG d   1       5.393   0.280  -7.184  0.00  0.00    -0.253 OA
ATOM     52  H   LIG d   1       2.899  -0.590  -8.783  0.00  0.00     0.150 HD
ATOM     53  H   LIG d   1       3.492  -2.154  -7.155  0.00  0.00     0.151 HD
BRANCH  50  54
ATOM     54  C   LIG d   1       3.885   1.244  -9.200  0.00  0.00     0.019 C 
ATOM     55  H   LIG d   1       4.883   1.605  -8.954  0.00  0.00     0.049 H 
BRANCH  54  56
ATOM     56  C   LIG d   1       3.775   1.040 -10.712  0.00  0.00    -0.047 C 
ATOM     57  H   LIG d   1       4.306   0.130 -10.994  0.00  0.00     0.025 H 
ATOM     58  H   LIG d   1       2.726   0.949 -10.992  0.00  0.00     0.025 H 
ATOM     59  H   LIG d   1       4.217   1.892 -11.228  0.00  0.00     0.025 H 
ENDBRANCH  54  56
BRANCH  54  60
ATOM     60  C   LIG d   1       2.844   2.270  -8.747  0.00  0.00    -0.047 C 
ATOM     61  H   LIG d   1       2.262   2.600  -9.607  0.00  0.00     0.025 H 
ATOM     62  H   LIG d   1       2.181   1.815  -8.010  0.00  0.00     0.025 H 
ATOM     63  H   LIG d   1       3.350   3.126  -8.300  0.00  0.00     0.025 H 
ENDBRANCH  54  60
ENDBRANCH  50  54
ENDBRANCH   1  48
TORSDOF 7
ENDMDL
MODEL 6
REMARK VINA RESULT:      -5.9      4.659     10.908
REMARK  7 active torsions:
REMARK  status: ('A' for Active; 'I' for Inactive)
REMARK    1  A    between atoms: C_1  and  C_2 
REMARK    2  A    between atoms: C_2  and  C_3 
REMARK    3  A    between atoms: C_2  and  N_4 
REMARK       I    between atoms: N_4  and  C_5 
REMARK       I    between atoms: C_5  and  N_7 
REMARK    4  A    between atoms: N_7  and  C_8 
REMARK       I    between atoms: N_18  and  C_26 
REMARK       I    between atoms: C_26  and  N_28 
REMARK    5  A    between atoms: N_28  and  C_29 
REMARK    6  A    between atoms: C_33  and  O_35 
REMARK    7  A    between atoms: O_35  and  C_36 
ROOT
ATOM      1  C   LIG d   1      13.561   6.344  -4.095  0.00  0.00     0.043 C 
ATOM      2  H   LIG d   1      13.709   7.417  -3.971  0.00  0.00     0.051 H 
ATOM      3  C   LIG d   1      12.904   6.048  -5.459  0.00  0.00    -0.006 C 
ATOM      4  CA  LIG d   1      11.422   5.794  -5.120  0.00  0.00     0.104 C 
ATOM      5  HA  LIG d   1      10.837   6.712  -5.158  0.00  0.00     0.060 H 
ATOM      6  C   LIG d   1      10.857   4.754  -6.046  0.00  0.00     0.237 C 
ATOM      7  O   LIG d   1      11.268   4.690  -7.186  0.00  0.00    -0.274 OA
ATOM      8  N   LIG d   1       9.900   3.886  -5.636  0.00  0.00    -0.285 N 
ATOM      9  C   LIG d   1       9.314   3.035  -6.680  0.00  0.00     0.031 C 
ATOM     10  C   LIG d   1       9.096   1.614  -6.167  0.00  0.00     0.032 C 
ATOM     11  N   LIG d   1       8.391   1.706  -4.878  0.00  0.00    -0.282 N 
ATOM     12  C   LIG d   1       9.041   2.443  -3.795  0.00  0.00     0.043 C 
ATOM     13  CA  LIG d   1       9.472   3.830  -4.251  0.00  0.00     0.118 C 
ATOM     14  HA  LIG d   1       8.611   4.488  -4.139  0.00  0.00     0.061 H 
ATOM     15  C   LIG d   1      10.553   4.322  -3.316  0.00  0.00     0.238 C 
ATOM     16  O   LIG d   1      10.620   3.900  -2.182  0.00  0.00    -0.274 OA
ATOM     17  N   LIG d   1      11.440   5.231  -3.756  0.00  0.00    -0.286 N 
ATOM     18  C   LIG d   1      12.572   5.818  -3.039  0.00  0.00     0.034 C 
ATOM     19  C   LIG d   1       7.185   1.129  -4.703  0.00  0.00     0.307 C 
ATOM     20  O   LIG d   1       6.617   0.609  -5.644  0.00  0.00    -0.252 OA
ATOM     21  N   LIG d   1       6.609   1.131  -3.485  0.00  0.00    -0.269 N 
ATOM     22  H   LIG d   1      13.350   5.163  -5.912  0.00  0.00     0.031 H 
ATOM     23  H   LIG d   1      13.002   6.908  -6.123  0.00  0.00     0.031 H 
ATOM     24  H   LIG d   1       9.987   3.007  -7.538  0.00  0.00     0.048 H 
ATOM     25  H   LIG d   1       8.358   3.456  -6.989  0.00  0.00     0.048 H 
ATOM     26  H   LIG d   1       8.492   1.053  -6.880  0.00  0.00     0.048 H 
ATOM     27  H   LIG d   1      10.058   1.120  -6.027  0.00  0.00     0.048 H 
ATOM     28  H   LIG d   1       9.917   1.887  -3.462  0.00  0.00     0.049 H 
ATOM     29  H   LIG d   1       8.342   2.542  -2.963  0.00  0.00     0.049 H 
ATOM     30  H   LIG d   1      12.226   6.640  -2.412  0.00  0.00     0.048 H 
ATOM     31  H   LIG d   1      13.053   5.059  -2.423  0.00  0.00     0.048 H 
ATOM     32  H   LIG d   1       7.006   1.639  -2.761  0.00  0.00     0.156 HD
ENDROOT
BRANCH  21  33
ATOM     33  C   LIG d   1       5.437   0.398  -3.265  0.00  0.00     0.038 A 
ATOM     34  C   LIG d   1       5.422  -0.972  -3.492  0.00  0.00     0.001 A 
ATOM     35  C   LIG d   1       4.261  -1.695  -3.272  0.00  0.00     0.122 A 
ATOM     36  H   LIG d   1       6.314  -1.472  -3.838  0.00  0.00     0.067 H 
ATOM     37  C   LIG d   1       3.115  -1.050  -2.827  0.00  0.00    -0.020 A 
ATOM     38  C   LIG d   1       3.132   0.314  -2.601  0.00  0.00    -0.057 A 
ATOM     39  H   LIG d   1       2.211  -1.613  -2.655  0.00  0.00     0.065 H 
ATOM     40  C   LIG d   1       4.289   1.037  -2.813  0.00  0.00    -0.040 A 
ATOM     41  H   LIG d   1       2.240   0.814  -2.255  0.00  0.00     0.062 H 
ATOM     42  H   LIG d   1       4.302   2.102  -2.632  0.00  0.00     0.064 H 
BRANCH  35  43
ATOM     43  O   LIG d   1       4.242  -3.036  -3.493  0.00  0.00    -0.495 OA
BRANCH  43  44
ATOM     44  C   LIG d   1       4.978  -3.518  -4.619  0.00  0.00     0.079 C 
ATOM     45  H   LIG d   1       4.465  -4.379  -5.048  0.00  0.00     0.066 H 
ATOM     46  H   LIG d   1       5.053  -2.730  -5.369  0.00  0.00     0.066 H 
ATOM     47  H   LIG d   1       5.978  -3.812  -4.301  0.00  0.00     0.066 H 
ENDBRANCH  43  44
ENDBRANCH  35  43
ENDBRANCH  21  33
BRANCH   1  48
ATOM     48  N   LIG d   1      14.841   5.641  -3.985  0.00  0.00    -0.295 N 
ATOM     49  C   LIG d   1      15.886   6.234  -3.375  0.00  0.00     0.300 C 
ATOM     50  N   LIG d   1      17.063   5.587  -3.274  0.00  0.00    -0.297 N 
ATOM     51  O   LIG d   1      15.766   7.353  -2.915  0.00  0.00    -0.253 OA
ATOM     52  H   LIG d   1      17.159   4.694  -3.640  0.00  0.00     0.150 HD
ATOM     53  H   LIG d   1      14.937   4.748  -4.352  0.00  0.00     0.151 HD
BRANCH  50  54
ATOM     54  C   LIG d   1      18.200   6.232  -2.611  0.00  0.00     0.019 C 
ATOM     55  H   LIG d   1      17.973   7.285  -2.446  0.00  0.00     0.049 H 
BRANCH  54  56
ATOM     56  C   LIG d   1      18.460   5.550  -1.266  0.00  0.00    -0.047 C 
ATOM     57  H   LIG d   1      18.406   6.290  -0.468  0.00  0.00     0.025 H 
ATOM     58  H   LIG d   1      17.707   4.779  -1.097  0.00  0.00     0.025 H 
ATOM     59  H   LIG d   1      19.450   5.096  -1.273  0.00  0.00     0.025 H 
ENDBRANCH  54  56
BRANCH  54  60
ATOM     60  C   LIG d   1      19.442   6.108  -3.494  0.00  0.00    -0.047 C 
ATOM     61  H   LIG d   1      19.304   5.292  -4.202  0.00  0.00     0.025 H 
ATOM     62  H   LIG d   1      19.596   7.040  -4.038  0.00  0.00     0.025 H 
ATOM     63  H   LIG d   1      20.312   5.905  -2.870  0.00  0.00     0.025 H 
ENDBRANCH  54  60
ENDBRANCH  50  54
ENDBRANCH   1  48
TORSDOF 7
ENDMDL
MODEL 7
REMARK VINA RESULT:      -5.7      9.751     13.552
REMARK  7 active torsions:
REMARK  status: ('A' for Active; 'I' for Inactive)
REMARK    1  A    between atoms: C_1  and  C_2 
REMARK    2  A    between atoms: C_2  and  C_3 
REMARK    3  A    between atoms: C_2  and  N_4 
REMARK       I    between atoms: N_4  and  C_5 
REMARK       I    between atoms: C_5  and  N_7 
REMARK    4  A    between atoms: N_7  and  C_8 
REMARK       I    between atoms: N_18  and  C_26 
REMARK       I    between atoms: C_26  and  N_28 
REMARK    5  A    between atoms: N_28  and  C_29 
REMARK    6  A    between atoms: C_33  and  O_35 
REMARK    7  A    between atoms: O_35  and  C_36 
ROOT
ATOM      1  C   LIG d   1       1.153  -2.856 -14.465  0.00  0.00     0.043 C 
ATOM      2  H   LIG d   1       1.322  -3.691 -15.146  0.00  0.00     0.051 H 
ATOM      3  C   LIG d   1       2.413  -1.969 -14.383  0.00  0.00    -0.006 C 
ATOM      4  CA  LIG d   1       3.078  -2.378 -13.054  0.00  0.00     0.104 C 
ATOM      5  HA  LIG d   1       3.791  -3.191 -13.193  0.00  0.00     0.060 H 
ATOM      6  C   LIG d   1       3.737  -1.183 -12.424  0.00  0.00     0.237 C 
ATOM      7  O   LIG d   1       4.217  -0.327 -13.137  0.00  0.00    -0.274 OA
ATOM      8  N   LIG d   1       3.808  -1.041 -11.078  0.00  0.00    -0.285 N 
ATOM      9  C   LIG d   1       4.623   0.079 -10.591  0.00  0.00     0.031 C 
ATOM     10  C   LIG d   1       3.956   0.763  -9.401  0.00  0.00     0.032 C 
ATOM     11  N   LIG d   1       3.579  -0.283  -8.436  0.00  0.00    -0.282 N 
ATOM     12  C   LIG d   1       2.658  -1.327  -8.886  0.00  0.00     0.043 C 
ATOM     13  CA  LIG d   1       3.135  -1.964 -10.183  0.00  0.00     0.118 C 
ATOM     14  HA  LIG d   1       3.842  -2.749  -9.915  0.00  0.00     0.061 H 
ATOM     15  C   LIG d   1       1.950  -2.621 -10.853  0.00  0.00     0.238 C 
ATOM     16  O   LIG d   1       1.001  -2.987 -10.195  0.00  0.00    -0.274 OA
ATOM     17  N   LIG d   1       1.960  -2.793 -12.186  0.00  0.00    -0.286 N 
ATOM     18  C   LIG d   1       0.919  -3.374 -13.035  0.00  0.00     0.034 C 
ATOM     19  C   LIG d   1       4.067  -0.278  -7.180  0.00  0.00     0.307 C 
ATOM     20  O   LIG d   1       4.909   0.538  -6.858  0.00  0.00    -0.252 OA
ATOM     21  N   LIG d   1       3.624  -1.180  -6.282  0.00  0.00    -0.269 N 
ATOM     22  H   LIG d   1       2.136  -0.915 -14.364  0.00  0.00     0.031 H 
ATOM     23  H   LIG d   1       3.078  -2.174 -15.222  0.00  0.00     0.031 H 
ATOM     24  H   LIG d   1       4.750   0.805 -11.396  0.00  0.00     0.048 H 
ATOM     25  H   LIG d   1       5.600  -0.295 -10.288  0.00  0.00     0.048 H 
ATOM     26  H   LIG d   1       4.653   1.460  -8.937  0.00  0.00     0.048 H 
ATOM     27  H   LIG d   1       3.065   1.297  -9.733  0.00  0.00     0.048 H 
ATOM     28  H   LIG d   1       1.672  -0.888  -9.044  0.00  0.00     0.049 H 
ATOM     29  H   LIG d   1       2.588  -2.095  -8.115  0.00  0.00     0.049 H 
ATOM     30  H   LIG d   1       0.992  -4.461 -13.018  0.00  0.00     0.048 H 
ATOM     31  H   LIG d   1      -0.063  -3.062 -12.682  0.00  0.00     0.048 H 
ATOM     32  H   LIG d   1       3.038  -1.899  -6.565  0.00  0.00     0.156 HD
ENDROOT
BRANCH  21  33
ATOM     33  C   LIG d   1       4.008  -1.078  -4.941  0.00  0.00     0.038 A 
ATOM     34  C   LIG d   1       5.259  -1.528  -4.540  0.00  0.00     0.001 A 
ATOM     35  C   LIG d   1       5.636  -1.425  -3.210  0.00  0.00     0.122 A 
ATOM     36  H   LIG d   1       5.936  -1.958  -5.263  0.00  0.00     0.067 H 
ATOM     37  C   LIG d   1       4.764  -0.872  -2.282  0.00  0.00    -0.020 A 
ATOM     38  C   LIG d   1       3.520  -0.424  -2.683  0.00  0.00    -0.057 A 
ATOM     39  H   LIG d   1       5.059  -0.791  -1.247  0.00  0.00     0.065 H 
ATOM     40  C   LIG d   1       3.142  -0.520  -4.008  0.00  0.00    -0.040 A 
ATOM     41  H   LIG d   1       2.842   0.006  -1.960  0.00  0.00     0.062 H 
ATOM     42  H   LIG d   1       2.171  -0.165  -4.320  0.00  0.00     0.064 H 
BRANCH  35  43
ATOM     43  O   LIG d   1       6.859  -1.866  -2.815  0.00  0.00    -0.495 OA
BRANCH  43  44
ATOM     44  C   LIG d   1       7.654  -2.539  -3.793  0.00  0.00     0.079 C 
ATOM     45  H   LIG d   1       7.016  -2.875  -4.611  0.00  0.00     0.066 H 
ATOM     46  H   LIG d   1       8.410  -1.856  -4.179  0.00  0.00     0.066 H 
ATOM     47  H   LIG d   1       8.141  -3.400  -3.335  0.00  0.00     0.066 H 
ENDBRANCH  43  44
ENDBRANCH  35  43
ENDBRANCH  21  33
BRANCH   1  48
ATOM     48  N   LIG d   1       0.004  -2.064 -14.912  0.00  0.00    -0.295 N 
ATOM     49  C   LIG d   1      -0.361  -2.079 -16.209  0.00  0.00     0.300 C 
ATOM     50  N   LIG d   1      -1.417  -1.350 -16.620  0.00  0.00    -0.297 N 
ATOM     51  O   LIG d   1       0.263  -2.748 -17.009  0.00  0.00    -0.253 OA
ATOM     52  H   LIG d   1      -1.916  -0.816 -15.982  0.00  0.00     0.150 HD
ATOM     53  H   LIG d   1      -0.493  -1.530 -14.274  0.00  0.00     0.151 HD
BRANCH  50  54
ATOM     54  C   LIG d   1      -1.815  -1.366 -18.031  0.00  0.00     0.019 C 
ATOM     55  H   LIG d   1      -1.177  -2.058 -18.579  0.00  0.00     0.049 H 
BRANCH  54  56
ATOM     56  C   LIG d   1      -3.272  -1.816 -18.145  0.00  0.00    -0.047 C 
ATOM     57  H   LIG d   1      -3.340  -2.650 -18.844  0.00  0.00     0.025 H 
ATOM     58  H   LIG d   1      -3.634  -2.132 -17.167  0.00  0.00     0.025 H 
ATOM     59  H   LIG d   1      -3.881  -0.988 -18.509  0.00  0.00     0.025 H 
ENDBRANCH  54  56
BRANCH  54  60
ATOM     60  C   LIG d   1      -1.666   0.039 -18.617  0.00  0.00    -0.047 C 
ATOM     61  H   LIG d   1      -2.608   0.577 -18.513  0.00  0.00     0.025 H 
ATOM     62  H   LIG d   1      -0.880   0.575 -18.083  0.00  0.00     0.025 H 
ATOM     63  H   LIG d   1      -1.404  -0.034 -19.672  0.00  0.00     0.025 H 
ENDBRANCH  54  60
ENDBRANCH  50  54
ENDBRANCH   1  48
TORSDOF 7
ENDMDL
MODEL 8
REMARK VINA RESULT:      -5.7      8.701     13.024
REMARK  7 active torsions:
REMARK  status: ('A' for Active; 'I' for Inactive)
REMARK    1  A    between atoms: C_1  and  C_2 
REMARK    2  A    between atoms: C_2  and  C_3 
REMARK    3  A    between atoms: C_2  and  N_4 
REMARK       I    between atoms: N_4  and  C_5 
REMARK       I    between atoms: C_5  and  N_7 
REMARK    4  A    between atoms: N_7  and  C_8 
REMARK       I    between atoms: N_18  and  C_26 
REMARK       I    between atoms: C_26  and  N_28 
REMARK    5  A    between atoms: N_28  and  C_29 
REMARK    6  A    between atoms: C_33  and  O_35 
REMARK    7  A    between atoms: O_35  and  C_36 
ROOT
ATOM      1  C   LIG d   1       3.296  -4.970 -13.735  0.00  0.00     0.043 C 
ATOM      2  H   LIG d   1       4.035  -5.448 -14.379  0.00  0.00     0.051 H 
ATOM      3  C   LIG d   1       3.389  -3.436 -13.861  0.00  0.00    -0.006 C 
ATOM      4  CA  LIG d   1       4.161  -2.997 -12.601  0.00  0.00     0.104 C 
ATOM      5  HA  LIG d   1       5.236  -2.968 -12.777  0.00  0.00     0.060 H 
ATOM      6  C   LIG d   1       3.655  -1.663 -12.130  0.00  0.00     0.237 C 
ATOM      7  O   LIG d   1       3.262  -0.856 -12.947  0.00  0.00    -0.274 OA
ATOM      8  N   LIG d   1       3.627  -1.341 -10.814  0.00  0.00    -0.285 N 
ATOM      9  C   LIG d   1       3.271   0.049 -10.499  0.00  0.00     0.031 C 
ATOM     10  C   LIG d   1       2.356   0.115  -9.280  0.00  0.00     0.032 C 
ATOM     11  N   LIG d   1       2.968  -0.696  -8.214  0.00  0.00    -0.282 N 
ATOM     12  C   LIG d   1       3.199  -2.115  -8.484  0.00  0.00     0.043 C 
ATOM     13  CA  LIG d   1       3.956  -2.314  -9.789  0.00  0.00     0.118 C 
ATOM     14  HA  LIG d   1       5.018  -2.217  -9.563  0.00  0.00     0.061 H 
ATOM     15  C   LIG d   1       3.714  -3.726 -10.268  0.00  0.00     0.238 C 
ATOM     16  O   LIG d   1       3.429  -4.600  -9.478  0.00  0.00    -0.274 OA
ATOM     17  N   LIG d   1       3.815  -4.004 -11.579  0.00  0.00    -0.286 N 
ATOM     18  C   LIG d   1       3.598  -5.281 -12.258  0.00  0.00     0.034 C 
ATOM     19  C   LIG d   1       3.304  -0.148  -7.030  0.00  0.00     0.307 C 
ATOM     20  O   LIG d   1       3.199   1.052  -6.863  0.00  0.00    -0.252 OA
ATOM     21  N   LIG d   1       3.761  -0.930  -6.032  0.00  0.00    -0.269 N 
ATOM     22  H   LIG d   1       2.392  -2.994 -13.872  0.00  0.00     0.031 H 
ATOM     23  H   LIG d   1       3.939  -3.160 -14.761  0.00  0.00     0.031 H 
ATOM     24  H   LIG d   1       2.759   0.490 -11.355  0.00  0.00     0.048 H 
ATOM     25  H   LIG d   1       4.181   0.613 -10.296  0.00  0.00     0.048 H 
ATOM     26  H   LIG d   1       2.257   1.148  -8.947  0.00  0.00     0.048 H 
ATOM     27  H   LIG d   1       1.374  -0.287  -9.532  0.00  0.00     0.048 H 
ATOM     28  H   LIG d   1       2.238  -2.626  -8.546  0.00  0.00     0.049 H 
ATOM     29  H   LIG d   1       3.779  -2.542  -7.665  0.00  0.00     0.049 H 
ATOM     30  H   LIG d   1       4.495  -5.897 -12.184  0.00  0.00     0.048 H 
ATOM     31  H   LIG d   1       2.753  -5.801 -11.807  0.00  0.00     0.048 H 
ATOM     32  H   LIG d   1       3.950  -1.866  -6.197  0.00  0.00     0.156 HD
ENDROOT
BRANCH  21  33
ATOM     33  C   LIG d   1       3.959  -0.390  -4.756  0.00  0.00     0.038 A 
ATOM     34  C   LIG d   1       5.186   0.164  -4.419  0.00  0.00     0.001 A 
ATOM     35  C   LIG d   1       5.379   0.697  -3.155  0.00  0.00     0.122 A 
ATOM     36  H   LIG d   1       5.989   0.179  -5.141  0.00  0.00     0.067 H 
ATOM     37  C   LIG d   1       4.345   0.677  -2.228  0.00  0.00    -0.020 A 
ATOM     38  C   LIG d   1       3.124   0.126  -2.566  0.00  0.00    -0.057 A 
ATOM     39  H   LIG d   1       4.495   1.094  -1.244  0.00  0.00     0.065 H 
ATOM     40  C   LIG d   1       2.926  -0.402  -3.827  0.00  0.00    -0.040 A 
ATOM     41  H   LIG d   1       2.321   0.110  -1.843  0.00  0.00     0.062 H 
ATOM     42  H   LIG d   1       1.969  -0.829  -4.090  0.00  0.00     0.064 H 
BRANCH  35  43
ATOM     43  O   LIG d   1       6.580   1.240  -2.821  0.00  0.00    -0.495 OA
BRANCH  43  44
ATOM     44  C   LIG d   1       7.541   1.381  -3.869  0.00  0.00     0.079 C 
ATOM     45  H   LIG d   1       7.027   1.436  -4.829  0.00  0.00     0.066 H 
ATOM     46  H   LIG d   1       8.117   2.293  -3.713  0.00  0.00     0.066 H 
ATOM     47  H   LIG d   1       8.211   0.522  -3.864  0.00  0.00     0.066 H 
ENDBRANCH  43  44
ENDBRANCH  35  43
ENDBRANCH  21  33
BRANCH   1  48
ATOM     48  N   LIG d   1       1.950  -5.428 -14.085  0.00  0.00    -0.295 N 
ATOM     49  C   LIG d   1       1.732  -6.045 -15.262  0.00  0.00     0.300 C 
ATOM     50  N   LIG d   1       0.493  -6.466 -15.584  0.00  0.00    -0.297 N 
ATOM     51  O   LIG d   1       2.653  -6.223 -16.035  0.00  0.00    -0.253 OA
ATOM     52  H   LIG d   1      -0.243  -6.325 -14.968  0.00  0.00     0.150 HD
ATOM     53  H   LIG d   1       1.214  -5.286 -13.468  0.00  0.00     0.151 HD
BRANCH  50  54
ATOM     54  C   LIG d   1       0.256  -7.138 -16.865  0.00  0.00     0.019 C 
ATOM     55  H   LIG d   1       1.206  -7.286 -17.377  0.00  0.00     0.049 H 
BRANCH  54  56
ATOM     56  C   LIG d   1      -0.405  -8.494 -16.615  0.00  0.00    -0.047 C 
ATOM     57  H   LIG d   1      -0.425  -8.696 -15.544  0.00  0.00     0.025 H 
ATOM     58  H   LIG d   1      -1.424  -8.479 -17.001  0.00  0.00     0.025 H 
ATOM     59  H   LIG d   1       0.163  -9.275 -17.120  0.00  0.00     0.025 H 
ENDBRANCH  54  56
BRANCH  54  60
ATOM     60  C   LIG d   1      -0.663  -6.273 -17.731  0.00  0.00    -0.047 C 
ATOM     61  H   LIG d   1      -1.663  -6.704 -17.739  0.00  0.00     0.025 H 
ATOM     62  H   LIG d   1      -0.704  -5.263 -17.322  0.00  0.00     0.025 H 
ATOM     63  H   LIG d   1      -0.273  -6.238 -18.748  0.00  0.00     0.025 H 
ENDBRANCH  54  60
ENDBRANCH  50  54
ENDBRANCH   1  48
TORSDOF 7
ENDMDL
MODEL 9
REMARK VINA RESULT:      -5.7     10.419     13.458
REMARK  7 active torsions:
REMARK  status: ('A' for Active; 'I' for Inactive)
REMARK    1  A    between atoms: C_1  and  C_2 
REMARK    2  A    between atoms: C_2  and  C_3 
REMARK    3  A    between atoms: C_2  and  N_4 
REMARK       I    between atoms: N_4  and  C_5 
REMARK       I    between atoms: C_5  and  N_7 
REMARK    4  A    between atoms: N_7  and  C_8 
REMARK       I    between atoms: N_18  and  C_26 
REMARK       I    between atoms: C_26  and  N_28 
REMARK    5  A    between atoms: N_28  and  C_29 
REMARK    6  A    between atoms: C_33  and  O_35 
REMARK    7  A    between atoms: O_35  and  C_36 
ROOT
ATOM      1  C   LIG d   1       0.825  -3.552 -10.796  0.00  0.00     0.043 C 
ATOM      2  H   LIG d   1       0.727  -3.499 -11.881  0.00  0.00     0.051 H 
ATOM      3  C   LIG d   1       1.157  -2.160 -10.221  0.00  0.00    -0.006 C 
ATOM      4  CA  LIG d   1       2.673  -2.214  -9.945  0.00  0.00     0.104 C 
ATOM      5  HA  LIG d   1       3.252  -1.878 -10.805  0.00  0.00     0.060 H 
ATOM      6  C   LIG d   1       2.999  -1.402  -8.723  0.00  0.00     0.237 C 
ATOM      7  O   LIG d   1       2.345  -0.410  -8.480  0.00  0.00    -0.274 OA
ATOM      8  N   LIG d   1       4.008  -1.753  -7.889  0.00  0.00    -0.285 N 
ATOM      9  C   LIG d   1       4.332  -0.788  -6.831  0.00  0.00     0.031 C 
ATOM     10  C   LIG d   1       4.633  -1.500  -5.515  0.00  0.00     0.032 C 
ATOM     11  N   LIG d   1       5.609  -2.567  -5.795  0.00  0.00    -0.282 N 
ATOM     12  C   LIG d   1       5.228  -3.605  -6.753  0.00  0.00     0.043 C 
ATOM     13  CA  LIG d   1       4.732  -2.999  -8.058  0.00  0.00     0.118 C 
ATOM     14  HA  LIG d   1       5.608  -2.797  -8.674  0.00  0.00     0.061 H 
ATOM     15  C   LIG d   1       3.894  -4.033  -8.773  0.00  0.00     0.238 C 
ATOM     16  O   LIG d   1       4.073  -5.215  -8.568  0.00  0.00    -0.274 OA
ATOM     17  N   LIG d   1       2.948  -3.631  -9.639  0.00  0.00    -0.286 N 
ATOM     18  C   LIG d   1       2.014  -4.450 -10.412  0.00  0.00     0.034 C 
ATOM     19  C   LIG d   1       6.812  -2.585  -5.189  0.00  0.00     0.307 C 
ATOM     20  O   LIG d   1       7.148  -1.659  -4.476  0.00  0.00    -0.252 OA
ATOM     21  N   LIG d   1       7.644  -3.628  -5.377  0.00  0.00    -0.269 N 
ATOM     22  H   LIG d   1       0.606  -1.987  -9.297  0.00  0.00     0.031 H 
ATOM     23  H   LIG d   1       0.930  -1.382 -10.951  0.00  0.00     0.031 H 
ATOM     24  H   LIG d   1       3.486  -0.115  -6.688  0.00  0.00     0.048 H 
ATOM     25  H   LIG d   1       5.204  -0.207  -7.132  0.00  0.00     0.048 H 
ATOM     26  H   LIG d   1       5.053  -0.794  -4.800  0.00  0.00     0.048 H 
ATOM     27  H   LIG d   1       3.718  -1.934  -5.112  0.00  0.00     0.048 H 
ATOM     28  H   LIG d   1       4.438  -4.218  -6.319  0.00  0.00     0.049 H 
ATOM     29  H   LIG d   1       6.096  -4.233  -6.958  0.00  0.00     0.049 H 
ATOM     30  H   LIG d   1       2.505  -4.821 -11.311  0.00  0.00     0.048 H 
ATOM     31  H   LIG d   1       1.668  -5.287  -9.806  0.00  0.00     0.048 H 
ATOM     32  H   LIG d   1       7.427  -4.311  -6.029  0.00  0.00     0.156 HD
ENDROOT
BRANCH  21  33
ATOM     33  C   LIG d   1       8.822  -3.726  -4.627  0.00  0.00     0.038 A 
ATOM     34  C   LIG d   1       8.845  -4.486  -3.466  0.00  0.00     0.001 A 
ATOM     35  C   LIG d   1      10.013  -4.582  -2.727  0.00  0.00     0.122 A 
ATOM     36  H   LIG d   1       7.955  -5.003  -3.141  0.00  0.00     0.067 H 
ATOM     37  C   LIG d   1      11.157  -3.917  -3.147  0.00  0.00    -0.020 A 
ATOM     38  C   LIG d   1      11.132  -3.160  -4.303  0.00  0.00    -0.057 A 
ATOM     39  H   LIG d   1      12.067  -3.992  -2.572  0.00  0.00     0.065 H 
ATOM     40  C   LIG d   1       9.972  -3.067  -5.047  0.00  0.00    -0.040 A 
ATOM     41  H   LIG d   1      12.023  -2.643  -4.629  0.00  0.00     0.062 H 
ATOM     42  H   LIG d   1       9.956  -2.479  -5.952  0.00  0.00     0.064 H 
BRANCH  35  43
ATOM     43  O   LIG d   1      10.040  -5.326  -1.589  0.00  0.00    -0.495 OA
BRANCH  43  44
ATOM     44  C   LIG d   1      10.349  -6.714  -1.729  0.00  0.00     0.079 C 
ATOM     45  H   LIG d   1       9.717  -7.151  -2.502  0.00  0.00     0.066 H 
ATOM     46  H   LIG d   1      11.396  -6.826  -2.011  0.00  0.00     0.066 H 
ATOM     47  H   LIG d   1      10.171  -7.222  -0.782  0.00  0.00     0.066 H 
ENDBRANCH  43  44
ENDBRANCH  35  43
ENDBRANCH  21  33
BRANCH   1  48
ATOM     48  N   LIG d   1      -0.411  -4.064 -10.201  0.00  0.00    -0.295 N 
ATOM     49  C   LIG d   1      -1.246  -4.826 -10.934  0.00  0.00     0.300 C 
ATOM     50  N   LIG d   1      -2.384  -5.298 -10.386  0.00  0.00    -0.297 N 
ATOM     51  O   LIG d   1      -0.974  -5.089 -12.089  0.00  0.00    -0.253 OA
ATOM     52  H   LIG d   1      -2.601  -5.089  -9.464  0.00  0.00     0.150 HD
ATOM     53  H   LIG d   1      -0.629  -3.854  -9.279  0.00  0.00     0.151 HD
BRANCH  50  54
ATOM     54  C   LIG d   1      -3.292  -6.127 -11.183  0.00  0.00     0.019 C 
ATOM     55  H   LIG d   1      -2.863  -6.287 -12.172  0.00  0.00     0.049 H 
BRANCH  54  56
ATOM     56  C   LIG d   1      -3.493  -7.476 -10.490  0.00  0.00    -0.047 C 
ATOM     57  H   LIG d   1      -4.553  -7.623 -10.283  0.00  0.00     0.025 H 
ATOM     58  H   LIG d   1      -3.135  -8.275 -11.139  0.00  0.00     0.025 H 
ATOM     59  H   LIG d   1      -2.935  -7.490  -9.553  0.00  0.00     0.025 H 
ENDBRANCH  54  56
BRANCH  54  60
ATOM     60  C   LIG d   1      -4.641  -5.418 -11.320  0.00  0.00    -0.047 C 
ATOM     61  H   LIG d   1      -4.723  -4.984 -12.316  0.00  0.00     0.025 H 
ATOM     62  H   LIG d   1      -5.447  -6.136 -11.167  0.00  0.00     0.025 H 
ATOM     63  H   LIG d   1      -4.712  -4.627 -10.573  0.00  0.00     0.025 H 
ENDBRANCH  54  60
ENDBRANCH  50  54
ENDBRANCH   1  48
TORSDOF 7
ENDMDL
