MODEL 1
REMARK VINA RESULT:      -7.2      0.000      0.000
REMARK  4 active torsions:
REMARK  status: ('A' for Active; 'I' for Inactive)
REMARK    1  A    between atoms: C_3  and  C_6 
REMARK    2  A    between atoms: C_13  and  O_25 
REMARK    3  A    between atoms: C_14  and  C_17 
REMARK    4  A    between atoms: C_17  and  N_18 
ROOT
ATOM      1  C   LIG d   1       2.622  -1.108 -10.127  0.00  0.00    -0.002 C 
ATOM      2  C   LIG d   1       3.055  -2.174  -9.393  0.00  0.00     0.177 A 
ATOM      3  C   LIG d   1       2.780  -3.539  -9.671  0.00  0.00     0.232 A 
ATOM      4  O   LIG d   1       2.122  -3.990 -10.595  0.00  0.00    -0.283 OA
ATOM      5  C   LIG d   1       3.458  -4.295  -8.603  0.00  0.00     0.068 A 
ATOM      6  C   LIG d   1       3.570  -5.654  -8.311  0.00  0.00    -0.044 A 
ATOM      7  C   LIG d   1       4.285  -6.058  -7.219  0.00  0.00    -0.019 A 
ATOM      8  C   LIG d   1       4.903  -5.118  -6.399  0.00  0.00     0.129 A 
ATOM      9  C   LIG d   1       4.800  -3.764  -6.677  0.00  0.00     0.081 A 
ATOM     10  C   LIG d   1       4.076  -3.338  -7.782  0.00  0.00     0.151 A 
ATOM     11  O   LIG d   1       3.823  -2.109  -8.280  0.00  0.00    -0.451 OA
ATOM     12  H   LIG d   1       2.011  -1.268 -11.003  0.00  0.00     0.067 H 
ATOM     13  H   LIG d   1       3.092  -6.386  -8.945  0.00  0.00     0.063 H 
ATOM     14  H   LIG d   1       4.373  -7.110  -6.992  0.00  0.00     0.065 H 
ENDROOT
BRANCH   9  15
ATOM     15  C   LIG d   1       5.472  -2.756  -5.780  0.00  0.00     0.001 C 
ATOM     16  H   LIG d   1       6.225  -3.256  -5.172  0.00  0.00     0.087 H 
ATOM     17  H   LIG d   1       5.948  -1.989  -6.390  0.00  0.00     0.087 H 
BRANCH  15  18
ATOM     18  N   LIG d   1       4.469  -2.135  -4.904  0.00  0.00     0.239 N 
ATOM     19  C   LIG d   1       4.716  -2.533  -3.589  0.00  0.00    -0.032 C 
ATOM     20  C   LIG d   1       3.648  -1.999  -2.613  0.00  0.00    -0.013 C 
ATOM     21  H   LIG d   1       4.725  -3.622  -3.544  0.00  0.00     0.081 H 
ATOM     22  H   LIG d   1       5.694  -2.160  -3.284  0.00  0.00     0.081 H 
ATOM     23  C   LIG d   1       3.935  -0.549  -2.313  0.00  0.00    -0.048 C 
ATOM     24  H   LIG d   1       3.678  -2.575  -1.689  0.00  0.00     0.032 H 
ATOM     25  H   LIG d   1       2.661  -2.088  -3.068  0.00  0.00     0.032 H 
ATOM     26  C   LIG d   1       3.175   0.407  -3.254  0.00  0.00    -0.048 C 
ATOM     27  H   LIG d   1       5.005  -0.372  -2.421  0.00  0.00     0.027 H 
ATOM     28  H   LIG d   1       3.646  -0.337  -1.285  0.00  0.00     0.027 H 
ATOM     29  C   LIG d   1       3.176  -0.100  -4.708  0.00  0.00    -0.013 C 
ATOM     30  H   LIG d   1       3.647   1.389  -3.221  0.00  0.00     0.027 H 
ATOM     31  H   LIG d   1       2.145   0.497  -2.911  0.00  0.00     0.027 H 
ATOM     32  C   LIG d   1       4.519  -0.672  -5.092  0.00  0.00    -0.032 C 
ATOM     33  H   LIG d   1       2.939   0.729  -5.375  0.00  0.00     0.032 H 
ATOM     34  H   LIG d   1       2.416  -0.874  -4.817  0.00  0.00     0.032 H 
ATOM     35  H   LIG d   1       5.294  -0.246  -4.457  0.00  0.00     0.081 H 
ATOM     36  H   LIG d   1       4.731  -0.442  -6.136  0.00  0.00     0.081 H 
ATOM     37  H   LIG d   1       3.555  -2.464  -5.176  0.00  0.00     0.204 HD
ENDBRANCH  15  18
ENDBRANCH   9  15
BRANCH   8  38
ATOM     38  O   LIG d   1       5.612  -5.530  -5.317  0.00  0.00    -0.506 OA
ATOM     39  H   LIG d   1       5.614  -6.489  -5.190  0.00  0.00     0.292 HD
ENDBRANCH   8  38
BRANCH   1  40
ATOM     40  C   LIG d   1       2.975   0.205  -9.742  0.00  0.00     0.016 A 
ATOM     41  C   LIG d   1       2.496   0.966  -8.679  0.00  0.00    -0.047 A 
ATOM     42  C   LIG d   1       3.036   2.223  -8.558  0.00  0.00    -0.054 A 
ATOM     43  H   LIG d   1       1.749   0.592  -7.994  0.00  0.00     0.063 H 
ATOM     44  C   LIG d   1       3.971   2.628  -9.454  0.00  0.00    -0.024 A 
ATOM     45  H   LIG d   1       2.717   2.881  -7.764  0.00  0.00     0.062 H 
ATOM     46  S   LIG d   1       4.149   1.318 -10.490  0.00  0.00    -0.097 SA
ATOM     47  H   LIG d   1       4.485   3.578  -9.491  0.00  0.00     0.069 H 
ENDBRANCH   1  40
TORSDOF 4
ENDMDL
MODEL 2
REMARK VINA RESULT:      -7.1      2.140      4.979
REMARK  4 active torsions:
REMARK  status: ('A' for Active; 'I' for Inactive)
REMARK    1  A    between atoms: C_3  and  C_6 
REMARK    2  A    between atoms: C_13  and  O_25 
REMARK    3  A    between atoms: C_14  and  C_17 
REMARK    4  A    between atoms: C_17  and  N_18 
ROOT
ATOM      1  C   LIG d   1       3.594  -5.228  -8.744  0.00  0.00    -0.002 C 
ATOM      2  C   LIG d   1       3.330  -3.892  -8.837  0.00  0.00     0.177 A 
ATOM      3  C   LIG d   1       2.459  -3.282  -9.779  0.00  0.00     0.232 A 
ATOM      4  O   LIG d   1       1.807  -3.833 -10.651  0.00  0.00    -0.283 OA
ATOM      5  C   LIG d   1       2.513  -1.841  -9.477  0.00  0.00     0.068 A 
ATOM      6  C   LIG d   1       1.895  -0.720 -10.031  0.00  0.00    -0.044 A 
ATOM      7  C   LIG d   1       2.151   0.521  -9.520  0.00  0.00    -0.019 A 
ATOM      8  C   LIG d   1       3.026   0.669  -8.446  0.00  0.00     0.129 A 
ATOM      9  C   LIG d   1       3.648  -0.436  -7.886  0.00  0.00     0.081 A 
ATOM     10  C   LIG d   1       3.397  -1.703  -8.395  0.00  0.00     0.151 A 
ATOM     11  O   LIG d   1       3.850  -2.925  -8.045  0.00  0.00    -0.451 OA
ATOM     12  H   LIG d   1       3.124  -5.920  -9.427  0.00  0.00     0.067 H 
ATOM     13  H   LIG d   1       1.215  -0.832 -10.863  0.00  0.00     0.063 H 
ATOM     14  H   LIG d   1       1.674   1.389  -9.948  0.00  0.00     0.065 H 
ENDROOT
BRANCH   9  15
ATOM     15  C   LIG d   1       4.594  -0.262  -6.726  0.00  0.00     0.001 C 
ATOM     16  H   LIG d   1       5.575  -0.651  -6.996  0.00  0.00     0.087 H 
ATOM     17  H   LIG d   1       4.679   0.797  -6.482  0.00  0.00     0.087 H 
BRANCH  15  18
ATOM     18  N   LIG d   1       4.080  -0.995  -5.561  0.00  0.00     0.239 N 
ATOM     19  C   LIG d   1       5.085  -1.838  -5.084  0.00  0.00    -0.032 C 
ATOM     20  C   LIG d   1       4.595  -2.717  -3.915  0.00  0.00    -0.013 C 
ATOM     21  H   LIG d   1       5.421  -2.483  -5.896  0.00  0.00     0.081 H 
ATOM     22  H   LIG d   1       5.926  -1.232  -4.745  0.00  0.00     0.081 H 
ATOM     23  C   LIG d   1       4.578  -1.893  -2.653  0.00  0.00    -0.048 C 
ATOM     24  H   LIG d   1       5.270  -3.564  -3.788  0.00  0.00     0.032 H 
ATOM     25  H   LIG d   1       3.590  -3.079  -4.127  0.00  0.00     0.032 H 
ATOM     26  C   LIG d   1       3.203  -1.244  -2.394  0.00  0.00    -0.048 C 
ATOM     27  H   LIG d   1       5.329  -1.107  -2.735  0.00  0.00     0.027 H 
ATOM     28  H   LIG d   1       4.831  -2.533  -1.809  0.00  0.00     0.027 H 
ATOM     29  C   LIG d   1       2.578  -0.694  -3.690  0.00  0.00    -0.013 C 
ATOM     30  H   LIG d   1       3.324  -0.426  -1.684  0.00  0.00     0.027 H 
ATOM     31  H   LIG d   1       2.534  -1.989  -1.965  0.00  0.00     0.027 H 
ATOM     32  C   LIG d   1       3.610  -0.019  -4.559  0.00  0.00    -0.032 C 
ATOM     33  H   LIG d   1       1.802   0.028  -3.432  0.00  0.00     0.032 H 
ATOM     34  H   LIG d   1       2.128  -1.517  -4.246  0.00  0.00     0.032 H 
ATOM     35  H   LIG d   1       4.448   0.309  -3.944  0.00  0.00     0.081 H 
ATOM     36  H   LIG d   1       3.163   0.839  -5.061  0.00  0.00     0.081 H 
ATOM     37  H   LIG d   1       3.297  -1.558  -5.854  0.00  0.00     0.204 HD
ENDBRANCH  15  18
ENDBRANCH   9  15
BRANCH   8  38
ATOM     38  O   LIG d   1       3.274   1.906  -7.946  0.00  0.00    -0.506 OA
ATOM     39  H   LIG d   1       2.977   2.629  -8.517  0.00  0.00     0.292 HD
ENDBRANCH   8  38
BRANCH   1  40
ATOM     40  C   LIG d   1       4.480  -5.705  -7.752  0.00  0.00     0.016 A 
ATOM     41  C   LIG d   1       4.262  -5.872  -6.387  0.00  0.00    -0.047 A 
ATOM     42  C   LIG d   1       5.326  -6.362  -5.671  0.00  0.00    -0.054 A 
ATOM     43  H   LIG d   1       3.317  -5.632  -5.921  0.00  0.00     0.063 H 
ATOM     44  C   LIG d   1       6.485  -6.643  -6.321  0.00  0.00    -0.024 A 
ATOM     45  H   LIG d   1       5.245  -6.518  -4.606  0.00  0.00     0.062 H 
ATOM     46  S   LIG d   1       6.168  -6.251  -7.923  0.00  0.00    -0.097 SA
ATOM     47  H   LIG d   1       7.402  -7.030  -5.902  0.00  0.00     0.069 H 
ENDBRANCH   1  40
TORSDOF 4
ENDMDL
MODEL 3
REMARK VINA RESULT:      -7.1      4.375      7.644
REMARK  4 active torsions:
REMARK  status: ('A' for Active; 'I' for Inactive)
REMARK    1  A    between atoms: C_3  and  C_6 
REMARK    2  A    between atoms: C_13  and  O_25 
REMARK    3  A    between atoms: C_14  and  C_17 
REMARK    4  A    between atoms: C_17  and  N_18 
ROOT
ATOM      1  C   LIG d   1       6.846   0.630  -3.139  0.00  0.00    -0.002 C 
ATOM      2  C   LIG d   1       7.400   1.223  -4.236  0.00  0.00     0.177 A 
ATOM      3  C   LIG d   1       8.378   2.252  -4.218  0.00  0.00     0.232 A 
ATOM      4  O   LIG d   1       8.886   2.775  -3.239  0.00  0.00    -0.283 OA
ATOM      5  C   LIG d   1       8.649   2.552  -5.635  0.00  0.00     0.068 A 
ATOM      6  C   LIG d   1       9.497   3.451  -6.281  0.00  0.00    -0.044 A 
ATOM      7  C   LIG d   1       9.526   3.498  -7.646  0.00  0.00    -0.019 A 
ATOM      8  C   LIG d   1       8.713   2.650  -8.394  0.00  0.00     0.129 A 
ATOM      9  C   LIG d   1       7.865   1.752  -7.765  0.00  0.00     0.081 A 
ATOM     10  C   LIG d   1       7.825   1.693  -6.379  0.00  0.00     0.151 A 
ATOM     11  O   LIG d   1       7.113   0.926  -5.526  0.00  0.00    -0.451 OA
ATOM     12  H   LIG d   1       7.145   0.940  -2.148  0.00  0.00     0.067 H 
ATOM     13  H   LIG d   1      10.129   4.110  -5.704  0.00  0.00     0.063 H 
ATOM     14  H   LIG d   1      10.182   4.194  -8.147  0.00  0.00     0.065 H 
ENDROOT
BRANCH   9  15
ATOM     15  C   LIG d   1       6.988   0.840  -8.585  0.00  0.00     0.001 C 
ATOM     16  H   LIG d   1       7.103   1.081  -9.642  0.00  0.00     0.087 H 
ATOM     17  H   LIG d   1       7.282  -0.195  -8.415  0.00  0.00     0.087 H 
BRANCH  15  18
ATOM     18  N   LIG d   1       5.586   1.025  -8.191  0.00  0.00     0.239 N 
ATOM     19  C   LIG d   1       4.944   1.793  -9.164  0.00  0.00    -0.032 C 
ATOM     20  C   LIG d   1       3.486   2.115  -8.779  0.00  0.00    -0.013 C 
ATOM     21  H   LIG d   1       5.491   2.727  -9.296  0.00  0.00     0.081 H 
ATOM     22  H   LIG d   1       4.950   1.246 -10.108  0.00  0.00     0.081 H 
ATOM     23  C   LIG d   1       2.626   0.906  -9.052  0.00  0.00    -0.048 C 
ATOM     24  H   LIG d   1       3.129   2.957  -9.372  0.00  0.00     0.032 H 
ATOM     25  H   LIG d   1       3.435   2.366  -7.720  0.00  0.00     0.032 H 
ATOM     26  C   LIG d   1       2.476   0.000  -7.813  0.00  0.00    -0.048 C 
ATOM     27  H   LIG d   1       3.077   0.328  -9.859  0.00  0.00     0.027 H 
ATOM     28  H   LIG d   1       1.639   1.239  -9.368  0.00  0.00     0.027 H 
ATOM     29  C   LIG d   1       3.805  -0.148  -7.049  0.00  0.00    -0.013 C 
ATOM     30  H   LIG d   1       2.139  -0.986  -8.132  0.00  0.00     0.027 H 
ATOM     31  H   LIG d   1       1.730   0.432  -7.146  0.00  0.00     0.027 H 
ATOM     32  C   LIG d   1       4.971  -0.302  -7.994  0.00  0.00    -0.032 C 
ATOM     33  H   LIG d   1       3.750  -1.027  -6.405  0.00  0.00     0.032 H 
ATOM     34  H   LIG d   1       3.963   0.736  -6.431  0.00  0.00     0.032 H 
ATOM     35  H   LIG d   1       4.620  -0.690  -8.949  0.00  0.00     0.081 H 
ATOM     36  H   LIG d   1       5.704  -0.987  -7.565  0.00  0.00     0.081 H 
ATOM     37  H   LIG d   1       5.560   1.525  -7.315  0.00  0.00     0.204 HD
ENDBRANCH  15  18
ENDBRANCH   9  15
BRANCH   8  38
ATOM     38  O   LIG d   1       8.749   2.704  -9.749  0.00  0.00    -0.506 OA
ATOM     39  H   LIG d   1       8.609   3.590 -10.112  0.00  0.00     0.292 HD
ENDBRANCH   8  38
BRANCH   1  40
ATOM     40  C   LIG d   1       5.883  -0.391  -3.298  0.00  0.00     0.016 A 
ATOM     41  C   LIG d   1       4.529  -0.380  -2.969  0.00  0.00    -0.047 A 
ATOM     42  C   LIG d   1       3.841  -1.535  -3.247  0.00  0.00    -0.054 A 
ATOM     43  H   LIG d   1       4.052   0.482  -2.525  0.00  0.00     0.063 H 
ATOM     44  C   LIG d   1       4.504  -2.580  -3.806  0.00  0.00    -0.024 A 
ATOM     45  H   LIG d   1       2.789  -1.614  -3.019  0.00  0.00     0.062 H 
ATOM     46  S   LIG d   1       6.082  -2.028  -3.973  0.00  0.00    -0.097 SA
ATOM     47  H   LIG d   1       4.107  -3.546  -4.081  0.00  0.00     0.069 H 
ENDBRANCH   1  40
TORSDOF 4
ENDMDL
MODEL 4
REMARK VINA RESULT:      -6.8      3.432      5.022
REMARK  4 active torsions:
REMARK  status: ('A' for Active; 'I' for Inactive)
REMARK    1  A    between atoms: C_3  and  C_6 
REMARK    2  A    between atoms: C_13  and  O_25 
REMARK    3  A    between atoms: C_14  and  C_17 
REMARK    4  A    between atoms: C_17  and  N_18 
ROOT
ATOM      1  C   LIG d   1       2.418   0.699  -7.149  0.00  0.00    -0.002 C 
ATOM      2  C   LIG d   1       3.192   0.176  -6.153  0.00  0.00     0.177 A 
ATOM      3  C   LIG d   1       2.747  -0.159  -4.847  0.00  0.00     0.232 A 
ATOM      4  O   LIG d   1       1.620  -0.042  -4.394  0.00  0.00    -0.283 OA
ATOM      5  C   LIG d   1       3.940  -0.677  -4.155  0.00  0.00     0.068 A 
ATOM      6  C   LIG d   1       4.168  -1.166  -2.868  0.00  0.00    -0.044 A 
ATOM      7  C   LIG d   1       5.418  -1.585  -2.511  0.00  0.00    -0.019 A 
ATOM      8  C   LIG d   1       6.466  -1.526  -3.427  0.00  0.00     0.129 A 
ATOM      9  C   LIG d   1       6.254  -1.043  -4.708  0.00  0.00     0.081 A 
ATOM     10  C   LIG d   1       4.989  -0.614  -5.086  0.00  0.00     0.151 A 
ATOM     11  O   LIG d   1       4.511  -0.114  -6.246  0.00  0.00    -0.451 OA
ATOM     12  H   LIG d   1       1.370   0.895  -6.972  0.00  0.00     0.067 H 
ATOM     13  H   LIG d   1       3.357  -1.213  -2.155  0.00  0.00     0.063 H 
ATOM     14  H   LIG d   1       5.595  -1.963  -1.515  0.00  0.00     0.065 H 
ENDROOT
BRANCH   9  15
ATOM     15  C   LIG d   1       7.396  -0.982  -5.690  0.00  0.00     0.001 C 
ATOM     16  H   LIG d   1       8.326  -1.233  -5.181  0.00  0.00     0.087 H 
ATOM     17  H   LIG d   1       7.220  -1.695  -6.496  0.00  0.00     0.087 H 
BRANCH  15  18
ATOM     18  N   LIG d   1       7.492   0.374  -6.247  0.00  0.00     0.239 N 
ATOM     19  C   LIG d   1       8.592   1.015  -5.674  0.00  0.00    -0.032 C 
ATOM     20  C   LIG d   1       8.709   2.483  -6.135  0.00  0.00    -0.013 C 
ATOM     21  H   LIG d   1       8.490   0.991  -4.589  0.00  0.00     0.081 H 
ATOM     22  H   LIG d   1       9.500   0.481  -5.954  0.00  0.00     0.081 H 
ATOM     23  C   LIG d   1       9.309   2.518  -7.518  0.00  0.00    -0.048 C 
ATOM     24  H   LIG d   1       9.352   3.031  -5.446  0.00  0.00     0.032 H 
ATOM     25  H   LIG d   1       7.720   2.939  -6.155  0.00  0.00     0.032 H 
ATOM     26  C   LIG d   1       8.233   2.533  -8.624  0.00  0.00    -0.048 C 
ATOM     27  H   LIG d   1       9.939   1.639  -7.651  0.00  0.00     0.027 H 
ATOM     28  H   LIG d   1       9.926   3.410  -7.613  0.00  0.00     0.027 H 
ATOM     29  C   LIG d   1       7.072   1.573  -8.304  0.00  0.00    -0.013 C 
ATOM     30  H   LIG d   1       8.690   2.235  -9.567  0.00  0.00     0.027 H 
ATOM     31  H   LIG d   1       7.841   3.545  -8.723  0.00  0.00     0.027 H 
ATOM     32  C   LIG d   1       7.572   0.277  -7.717  0.00  0.00    -0.032 C 
ATOM     33  H   LIG d   1       6.523   1.361  -9.222  0.00  0.00     0.032 H 
ATOM     34  H   LIG d   1       6.400   2.051  -7.591  0.00  0.00     0.032 H 
ATOM     35  H   LIG d   1       8.605   0.112  -8.019  0.00  0.00     0.081 H 
ATOM     36  H   LIG d   1       6.950  -0.548  -8.066  0.00  0.00     0.081 H 
ATOM     37  H   LIG d   1       6.656   0.883  -6.002  0.00  0.00     0.204 HD
ENDBRANCH  15  18
ENDBRANCH   9  15
BRANCH   8  38
ATOM     38  O   LIG d   1       7.703  -1.945  -3.062  0.00  0.00    -0.506 OA
ATOM     39  H   LIG d   1       8.042  -2.681  -3.591  0.00  0.00     0.292 HD
ENDBRANCH   8  38
BRANCH   1  40
ATOM     40  C   LIG d   1       2.987   0.982  -8.410  0.00  0.00     0.016 A 
ATOM     41  C   LIG d   1       3.396   2.206  -8.934  0.00  0.00    -0.047 A 
ATOM     42  C   LIG d   1       3.918   2.165 -10.203  0.00  0.00    -0.054 A 
ATOM     43  H   LIG d   1       3.308   3.128  -8.378  0.00  0.00     0.063 H 
ATOM     44  C   LIG d   1       3.999   0.971 -10.845  0.00  0.00    -0.024 A 
ATOM     45  H   LIG d   1       4.255   3.069 -10.686  0.00  0.00     0.062 H 
ATOM     46  S   LIG d   1       3.369  -0.133  -9.747  0.00  0.00    -0.097 SA
ATOM     47  H   LIG d   1       4.382   0.776 -11.836  0.00  0.00     0.069 H 
ENDBRANCH   1  40
TORSDOF 4
ENDMDL
MODEL 5
REMARK VINA RESULT:      -6.7      4.170      5.912
REMARK  4 active torsions:
REMARK  status: ('A' for Active; 'I' for Inactive)
REMARK    1  A    between atoms: C_3  and  C_6 
REMARK    2  A    between atoms: C_13  and  O_25 
REMARK    3  A    between atoms: C_14  and  C_17 
REMARK    4  A    between atoms: C_17  and  N_18 
ROOT
ATOM      1  C   LIG d   1       9.075   2.809  -6.966  0.00  0.00    -0.002 C 
ATOM      2  C   LIG d   1       8.065   2.023  -7.442  0.00  0.00     0.177 A 
ATOM      3  C   LIG d   1       7.542   2.053  -8.761  0.00  0.00     0.232 A 
ATOM      4  O   LIG d   1       7.895   2.772  -9.682  0.00  0.00    -0.283 OA
ATOM      5  C   LIG d   1       6.480   1.032  -8.779  0.00  0.00     0.068 A 
ATOM      6  C   LIG d   1       5.600   0.579  -9.761  0.00  0.00    -0.044 A 
ATOM      7  C   LIG d   1       4.703  -0.409  -9.468  0.00  0.00    -0.019 A 
ATOM      8  C   LIG d   1       4.666  -0.965  -8.191  0.00  0.00     0.129 A 
ATOM      9  C   LIG d   1       5.534  -0.525  -7.205  0.00  0.00     0.081 A 
ATOM     10  C   LIG d   1       6.452   0.478  -7.489  0.00  0.00     0.151 A 
ATOM     11  O   LIG d   1       7.397   1.079  -6.737  0.00  0.00    -0.451 OA
ATOM     12  H   LIG d   1       9.545   3.535  -7.613  0.00  0.00     0.067 H 
ATOM     13  H   LIG d   1       5.626   1.008 -10.752  0.00  0.00     0.063 H 
ATOM     14  H   LIG d   1       4.021  -0.760 -10.228  0.00  0.00     0.065 H 
ENDROOT
BRANCH   9  15
ATOM     15  C   LIG d   1       5.484  -1.134  -5.828  0.00  0.00     0.001 C 
ATOM     16  H   LIG d   1       4.796  -1.979  -5.830  0.00  0.00     0.087 H 
ATOM     17  H   LIG d   1       6.479  -1.476  -5.545  0.00  0.00     0.087 H 
BRANCH  15  18
ATOM     18  N   LIG d   1       5.018  -0.127  -4.865  0.00  0.00     0.239 N 
ATOM     19  C   LIG d   1       3.635  -0.250  -4.722  0.00  0.00    -0.032 C 
ATOM     20  C   LIG d   1       3.051   0.837  -3.796  0.00  0.00    -0.013 C 
ATOM     21  H   LIG d   1       3.169  -0.167  -5.704  0.00  0.00     0.081 H 
ATOM     22  H   LIG d   1       3.407  -1.232  -4.305  0.00  0.00     0.081 H 
ATOM     23  C   LIG d   1       3.313   0.454  -2.361  0.00  0.00    -0.048 C 
ATOM     24  H   LIG d   1       1.976   0.917  -3.961  0.00  0.00     0.032 H 
ATOM     25  H   LIG d   1       3.526   1.793  -4.010  0.00  0.00     0.032 H 
ATOM     26  C   LIG d   1       4.620   1.068  -1.819  0.00  0.00    -0.048 C 
ATOM     27  H   LIG d   1       3.378  -0.632  -2.292  0.00  0.00     0.027 H 
ATOM     28  H   LIG d   1       2.481   0.795  -1.747  0.00  0.00     0.027 H 
ATOM     29  C   LIG d   1       5.754   1.007  -2.859  0.00  0.00    -0.013 C 
ATOM     30  H   LIG d   1       4.927   0.521  -0.928  0.00  0.00     0.027 H 
ATOM     31  H   LIG d   1       4.438   2.108  -1.552  0.00  0.00     0.027 H 
ATOM     32  C   LIG d   1       5.756  -0.308  -3.599  0.00  0.00    -0.032 C 
ATOM     33  H   LIG d   1       6.711   1.131  -2.350  0.00  0.00     0.032 H 
ATOM     34  H   LIG d   1       5.625   1.819  -3.576  0.00  0.00     0.032 H 
ATOM     35  H   LIG d   1       5.266  -1.069  -2.994  0.00  0.00     0.081 H 
ATOM     36  H   LIG d   1       6.782  -0.609  -3.810  0.00  0.00     0.081 H 
ATOM     37  H   LIG d   1       5.226   0.790  -5.230  0.00  0.00     0.204 HD
ENDBRANCH  15  18
ENDBRANCH   9  15
BRANCH   8  38
ATOM     38  O   LIG d   1       3.771  -1.946  -7.910  0.00  0.00    -0.506 OA
ATOM     39  H   LIG d   1       4.000  -2.477  -7.134  0.00  0.00     0.292 HD
ENDBRANCH   8  38
BRANCH   1  40
ATOM     40  C   LIG d   1       9.505   2.672  -5.627  0.00  0.00     0.016 A 
ATOM     41  C   LIG d   1       8.855   3.044  -4.453  0.00  0.00    -0.047 A 
ATOM     42  C   LIG d   1       9.533   2.779  -3.289  0.00  0.00    -0.054 A 
ATOM     43  H   LIG d   1       7.881   3.511  -4.458  0.00  0.00     0.063 H 
ATOM     44  C   LIG d   1      10.755   2.190  -3.356  0.00  0.00    -0.024 A 
ATOM     45  H   LIG d   1       9.103   3.039  -2.334  0.00  0.00     0.062 H 
ATOM     46  S   LIG d   1      11.023   1.977  -5.001  0.00  0.00    -0.097 SA
ATOM     47  H   LIG d   1      11.406   1.920  -2.538  0.00  0.00     0.069 H 
ENDBRANCH   1  40
TORSDOF 4
ENDMDL
MODEL 6
REMARK VINA RESULT:      -6.6      3.270      4.728
REMARK  4 active torsions:
REMARK  status: ('A' for Active; 'I' for Inactive)
REMARK    1  A    between atoms: C_3  and  C_6 
REMARK    2  A    between atoms: C_13  and  O_25 
REMARK    3  A    between atoms: C_14  and  C_17 
REMARK    4  A    between atoms: C_17  and  N_18 
ROOT
ATOM      1  C   LIG d   1       6.326   1.764  -9.160  0.00  0.00    -0.002 C 
ATOM      2  C   LIG d   1       7.108   1.102  -8.258  0.00  0.00     0.177 A 
ATOM      3  C   LIG d   1       8.520   1.205  -8.152  0.00  0.00     0.232 A 
ATOM      4  O   LIG d   1       9.267   1.888  -8.833  0.00  0.00    -0.283 OA
ATOM      5  C   LIG d   1       8.890   0.309  -7.042  0.00  0.00     0.068 A 
ATOM      6  C   LIG d   1      10.105  -0.033  -6.448  0.00  0.00    -0.044 A 
ATOM      7  C   LIG d   1      10.128  -0.918  -5.407  0.00  0.00    -0.019 A 
ATOM      8  C   LIG d   1       8.942  -1.480  -4.938  0.00  0.00     0.129 A 
ATOM      9  C   LIG d   1       7.728  -1.150  -5.520  0.00  0.00     0.081 A 
ATOM     10  C   LIG d   1       7.689  -0.251  -6.578  0.00  0.00     0.151 A 
ATOM     11  O   LIG d   1       6.668   0.242  -7.310  0.00  0.00    -0.451 OA
ATOM     12  H   LIG d   1       6.778   2.432  -9.878  0.00  0.00     0.067 H 
ATOM     13  H   LIG d   1      11.026   0.401  -6.809  0.00  0.00     0.063 H 
ATOM     14  H   LIG d   1      11.067  -1.183  -4.946  0.00  0.00     0.065 H 
ENDROOT
BRANCH   9  15
ATOM     15  C   LIG d   1       6.453  -1.765  -5.004  0.00  0.00     0.001 C 
ATOM     16  H   LIG d   1       5.952  -2.295  -5.814  0.00  0.00     0.087 H 
ATOM     17  H   LIG d   1       6.685  -2.464  -4.202  0.00  0.00     0.087 H 
BRANCH  15  18
ATOM     18  N   LIG d   1       5.571  -0.707  -4.494  0.00  0.00     0.239 N 
ATOM     19  C   LIG d   1       4.245  -1.118  -4.645  0.00  0.00    -0.032 C 
ATOM     20  C   LIG d   1       3.248  -0.021  -4.219  0.00  0.00    -0.013 C 
ATOM     21  H   LIG d   1       4.069  -1.370  -5.691  0.00  0.00     0.081 H 
ATOM     22  H   LIG d   1       4.078  -2.006  -4.036  0.00  0.00     0.081 H 
ATOM     23  C   LIG d   1       3.153   0.001  -2.714  0.00  0.00    -0.048 C 
ATOM     24  H   LIG d   1       2.267  -0.236  -4.642  0.00  0.00     0.032 H 
ATOM     25  H   LIG d   1       3.596   0.948  -4.576  0.00  0.00     0.032 H 
ATOM     26  C   LIG d   1       4.130   1.011  -2.079  0.00  0.00    -0.048 C 
ATOM     27  H   LIG d   1       3.378  -0.995  -2.332  0.00  0.00     0.027 H 
ATOM     28  H   LIG d   1       2.136   0.265  -2.428  0.00  0.00     0.027 H 
ATOM     29  C   LIG d   1       5.506   0.989  -2.770  0.00  0.00    -0.013 C 
ATOM     30  H   LIG d   1       4.259   0.766  -1.025  0.00  0.00     0.027 H 
ATOM     31  H   LIG d   1       3.707   2.012  -2.161  0.00  0.00     0.027 H 
ATOM     32  C   LIG d   1       5.938  -0.420  -3.094  0.00  0.00    -0.032 C 
ATOM     33  H   LIG d   1       6.243   1.446  -2.110  0.00  0.00     0.032 H 
ATOM     34  H   LIG d   1       5.450   1.565  -3.695  0.00  0.00     0.032 H 
ATOM     35  H   LIG d   1       5.432  -1.120  -2.430  0.00  0.00     0.081 H 
ATOM     36  H   LIG d   1       7.018  -0.510  -2.971  0.00  0.00     0.081 H 
ATOM     37  H   LIG d   1       5.716   0.127  -5.042  0.00  0.00     0.204 HD
ENDBRANCH  15  18
ENDBRANCH   9  15
BRANCH   8  38
ATOM     38  O   LIG d   1       8.976  -2.357  -3.904  0.00  0.00    -0.506 OA
ATOM     39  H   LIG d   1       9.528  -3.136  -4.066  0.00  0.00     0.292 HD
ENDBRANCH   8  38
BRANCH   1  40
ATOM     40  C   LIG d   1       4.926   1.575  -9.153  0.00  0.00     0.016 A 
ATOM     41  C   LIG d   1       3.915   2.512  -8.957  0.00  0.00    -0.047 A 
ATOM     42  C   LIG d   1       2.633   2.022  -9.008  0.00  0.00    -0.054 A 
ATOM     43  H   LIG d   1       4.125   3.556  -8.776  0.00  0.00     0.063 H 
ATOM     44  C   LIG d   1       2.441   0.698  -9.239  0.00  0.00    -0.024 A 
ATOM     45  H   LIG d   1       1.789   2.680  -8.861  0.00  0.00     0.062 H 
ATOM     46  S   LIG d   1       3.994   0.075  -9.395  0.00  0.00    -0.097 SA
ATOM     47  H   LIG d   1       1.504   0.167  -9.308  0.00  0.00     0.069 H 
ENDBRANCH   1  40
TORSDOF 4
ENDMDL
MODEL 7
REMARK VINA RESULT:      -6.5      3.818      6.553
REMARK  4 active torsions:
REMARK  status: ('A' for Active; 'I' for Inactive)
REMARK    1  A    between atoms: C_3  and  C_6 
REMARK    2  A    between atoms: C_13  and  O_25 
REMARK    3  A    between atoms: C_14  and  C_17 
REMARK    4  A    between atoms: C_17  and  N_18 
ROOT
ATOM      1  C   LIG d   1       9.003   2.128  -6.063  0.00  0.00    -0.002 C 
ATOM      2  C   LIG d   1       7.971   1.512  -5.416  0.00  0.00     0.177 A 
ATOM      3  C   LIG d   1       7.751   1.515  -4.014  0.00  0.00     0.232 A 
ATOM      4  O   LIG d   1       8.430   2.058  -3.158  0.00  0.00    -0.283 OA
ATOM      5  C   LIG d   1       6.526   0.720  -3.814  0.00  0.00     0.068 A 
ATOM      6  C   LIG d   1       5.793   0.353  -2.686  0.00  0.00    -0.044 A 
ATOM      7  C   LIG d   1       4.668  -0.411  -2.824  0.00  0.00    -0.019 A 
ATOM      8  C   LIG d   1       4.252  -0.823  -4.088  0.00  0.00     0.129 A 
ATOM      9  C   LIG d   1       4.971  -0.466  -5.218  0.00  0.00     0.081 A 
ATOM     10  C   LIG d   1       6.115   0.311  -5.093  0.00  0.00     0.151 A 
ATOM     11  O   LIG d   1       6.983   0.798  -6.005  0.00  0.00    -0.451 OA
ATOM     12  H   LIG d   1       9.744   2.676  -5.498  0.00  0.00     0.067 H 
ATOM     13  H   LIG d   1       6.113   0.671  -1.704  0.00  0.00     0.063 H 
ATOM     14  H   LIG d   1       4.101  -0.696  -1.951  0.00  0.00     0.065 H 
ENDROOT
BRANCH   9  15
ATOM     15  C   LIG d   1       4.511  -0.919  -6.579  0.00  0.00     0.001 C 
ATOM     16  H   LIG d   1       5.168  -1.710  -6.940  0.00  0.00     0.087 H 
ATOM     17  H   LIG d   1       3.492  -1.297  -6.511  0.00  0.00     0.087 H 
BRANCH  15  18
ATOM     18  N   LIG d   1       4.553   0.215  -7.512  0.00  0.00     0.239 N 
ATOM     19  C   LIG d   1       5.341  -0.137  -8.609  0.00  0.00    -0.032 C 
ATOM     20  C   LIG d   1       5.515   1.036  -9.596  0.00  0.00    -0.013 C 
ATOM     21  H   LIG d   1       6.323  -0.450  -8.254  0.00  0.00     0.081 H 
ATOM     22  H   LIG d   1       4.872  -0.972  -9.130  0.00  0.00     0.081 H 
ATOM     23  C   LIG d   1       4.267   1.165 -10.433  0.00  0.00    -0.048 C 
ATOM     24  H   LIG d   1       6.370   0.844 -10.244  0.00  0.00     0.032 H 
ATOM     25  H   LIG d   1       5.677   1.959  -9.040  0.00  0.00     0.032 H 
ATOM     26  C   LIG d   1       3.258   2.165  -9.833  0.00  0.00    -0.048 C 
ATOM     27  H   LIG d   1       3.792   0.187 -10.509  0.00  0.00     0.027 H 
ATOM     28  H   LIG d   1       4.545   1.499 -11.431  0.00  0.00     0.027 H 
ATOM     29  C   LIG d   1       3.156   2.025  -8.302  0.00  0.00    -0.013 C 
ATOM     30  H   LIG d   1       2.277   1.985 -10.271  0.00  0.00     0.027 H 
ATOM     31  H   LIG d   1       3.576   3.178 -10.076  0.00  0.00     0.027 H 
ATOM     32  C   LIG d   1       3.170   0.577  -7.878  0.00  0.00    -0.032 C 
ATOM     33  H   LIG d   1       2.228   2.487  -7.964  0.00  0.00     0.032 H 
ATOM     34  H   LIG d   1       3.999   2.539  -7.840  0.00  0.00     0.032 H 
ATOM     35  H   LIG d   1       2.831  -0.050  -8.702  0.00  0.00     0.081 H 
ATOM     36  H   LIG d   1       2.514   0.440  -7.018  0.00  0.00     0.081 H 
ATOM     37  H   LIG d   1       4.979   1.001  -7.046  0.00  0.00     0.204 HD
ENDBRANCH  15  18
ENDBRANCH   9  15
BRANCH   8  38
ATOM     38  O   LIG d   1       3.134  -1.582  -4.214  0.00  0.00    -0.506 OA
ATOM     39  H   LIG d   1       2.517  -1.501  -3.473  0.00  0.00     0.292 HD
ENDBRANCH   8  38
BRANCH   1  40
ATOM     40  C   LIG d   1       9.103   2.051  -7.470  0.00  0.00     0.016 A 
ATOM     41  C   LIG d   1       8.858   3.037  -8.422  0.00  0.00    -0.047 A 
ATOM     42  C   LIG d   1       9.043   2.659  -9.729  0.00  0.00    -0.054 A 
ATOM     43  H   LIG d   1       8.544   4.034  -8.151  0.00  0.00     0.063 H 
ATOM     44  C   LIG d   1       9.439   1.389  -9.999  0.00  0.00    -0.024 A 
ATOM     45  H   LIG d   1       8.871   3.360 -10.532  0.00  0.00     0.062 H 
ATOM     46  S   LIG d   1       9.574   0.667  -8.488  0.00  0.00    -0.097 SA
ATOM     47  H   LIG d   1       9.626   0.944 -10.966  0.00  0.00     0.069 H 
ENDBRANCH   1  40
TORSDOF 4
ENDMDL
MODEL 8
REMARK VINA RESULT:      -6.3      3.296      5.885
REMARK  4 active torsions:
REMARK  status: ('A' for Active; 'I' for Inactive)
REMARK    1  A    between atoms: C_3  and  C_6 
REMARK    2  A    between atoms: C_13  and  O_25 
REMARK    3  A    between atoms: C_14  and  C_17 
REMARK    4  A    between atoms: C_17  and  N_18 
ROOT
ATOM      1  C   LIG d   1       8.168  -0.094  -6.125  0.00  0.00    -0.002 C 
ATOM      2  C   LIG d   1       6.980  -0.357  -5.507  0.00  0.00     0.177 A 
ATOM      3  C   LIG d   1       6.800  -1.197  -4.377  0.00  0.00     0.232 A 
ATOM      4  O   LIG d   1       7.658  -1.819  -3.771  0.00  0.00    -0.283 OA
ATOM      5  C   LIG d   1       5.355  -1.159  -4.093  0.00  0.00     0.068 A 
ATOM      6  C   LIG d   1       4.549  -1.761  -3.127  0.00  0.00    -0.044 A 
ATOM      7  C   LIG d   1       3.203  -1.526  -3.120  0.00  0.00    -0.019 A 
ATOM      8  C   LIG d   1       2.633  -0.687  -4.075  0.00  0.00     0.129 A 
ATOM      9  C   LIG d   1       3.422  -0.082  -5.041  0.00  0.00     0.081 A 
ATOM     10  C   LIG d   1       4.791  -0.311  -5.060  0.00  0.00     0.151 A 
ATOM     11  O   LIG d   1       5.774   0.143  -5.866  0.00  0.00    -0.451 OA
ATOM     12  H   LIG d   1       9.079  -0.546  -5.758  0.00  0.00     0.067 H 
ATOM     13  H   LIG d   1       4.988  -2.412  -2.385  0.00  0.00     0.063 H 
ATOM     14  H   LIG d   1       2.579  -1.992  -2.372  0.00  0.00     0.065 H 
ENDROOT
BRANCH   9  15
ATOM     15  C   LIG d   1       2.793   0.823  -6.070  0.00  0.00     0.001 C 
ATOM     16  H   LIG d   1       1.734   0.586  -6.162  0.00  0.00     0.087 H 
ATOM     17  H   LIG d   1       2.908   1.861  -5.758  0.00  0.00     0.087 H 
BRANCH  15  18
ATOM     18  N   LIG d   1       3.454   0.623  -7.366  0.00  0.00     0.239 N 
ATOM     19  C   LIG d   1       2.969  -0.554  -7.939  0.00  0.00    -0.032 C 
ATOM     20  C   LIG d   1       3.683  -0.888  -9.265  0.00  0.00    -0.013 C 
ATOM     21  H   LIG d   1       3.117  -1.376  -7.239  0.00  0.00     0.081 H 
ATOM     22  H   LIG d   1       1.901  -0.441  -8.130  0.00  0.00     0.081 H 
ATOM     23  C   LIG d   1       3.114  -0.025 -10.363  0.00  0.00    -0.048 C 
ATOM     24  H   LIG d   1       3.525  -1.939  -9.509  0.00  0.00     0.032 H 
ATOM     25  H   LIG d   1       4.750  -0.693  -9.164  0.00  0.00     0.032 H 
ATOM     26  C   LIG d   1       3.919   1.276 -10.563  0.00  0.00    -0.048 C 
ATOM     27  H   LIG d   1       2.085   0.233 -10.111  0.00  0.00     0.027 H 
ATOM     28  H   LIG d   1       3.118  -0.589 -11.294  0.00  0.00     0.027 H 
ATOM     29  C   LIG d   1       4.337   1.902  -9.219  0.00  0.00    -0.013 C 
ATOM     30  H   LIG d   1       3.307   1.991 -11.112  0.00  0.00     0.027 H 
ATOM     31  H   LIG d   1       4.813   1.053 -11.145  0.00  0.00     0.027 H 
ATOM     32  C   LIG d   1       3.227   1.818  -8.201  0.00  0.00    -0.032 C 
ATOM     33  H   LIG d   1       4.595   2.949  -9.380  0.00  0.00     0.032 H 
ATOM     34  H   LIG d   1       5.212   1.375  -8.836  0.00  0.00     0.032 H 
ATOM     35  H   LIG d   1       2.268   1.733  -8.711  0.00  0.00     0.081 H 
ATOM     36  H   LIG d   1       3.234   2.711  -7.576  0.00  0.00     0.081 H 
ATOM     37  H   LIG d   1       4.446   0.523  -7.211  0.00  0.00     0.204 HD
ENDBRANCH  15  18
ENDBRANCH   9  15
BRANCH   8  38
ATOM     38  O   LIG d   1       1.296  -0.460  -4.059  0.00  0.00    -0.506 OA
ATOM     39  H   LIG d   1       0.994   0.064  -3.304  0.00  0.00     0.292 HD
ENDBRANCH   8  38
BRANCH   1  40
ATOM     40  C   LIG d   1       8.208   0.769  -7.242  0.00  0.00     0.016 A 
ATOM     41  C   LIG d   1       7.823   0.521  -8.557  0.00  0.00    -0.047 A 
ATOM     42  C   LIG d   1       7.982   1.569  -9.430  0.00  0.00    -0.054 A 
ATOM     43  H   LIG d   1       7.427  -0.434  -8.871  0.00  0.00     0.063 H 
ATOM     44  C   LIG d   1       8.486   2.742  -8.969  0.00  0.00    -0.024 A 
ATOM     45  H   LIG d   1       7.713   1.461 -10.470  0.00  0.00     0.062 H 
ATOM     46  S   LIG d   1       8.763   2.460  -7.336  0.00  0.00    -0.097 SA
ATOM     47  H   LIG d   1       8.668   3.649  -9.525  0.00  0.00     0.069 H 
ENDBRANCH   1  40
TORSDOF 4
ENDMDL
MODEL 9
REMARK VINA RESULT:      -6.3      3.956      5.734
REMARK  4 active torsions:
REMARK  status: ('A' for Active; 'I' for Inactive)
REMARK    1  A    between atoms: C_3  and  C_6 
REMARK    2  A    between atoms: C_13  and  O_25 
REMARK    3  A    between atoms: C_14  and  C_17 
REMARK    4  A    between atoms: C_17  and  N_18 
ROOT
ATOM      1  C   LIG d   1       2.924   0.115  -5.375  0.00  0.00    -0.002 C 
ATOM      2  C   LIG d   1       3.786   0.048  -6.430  0.00  0.00     0.177 A 
ATOM      3  C   LIG d   1       3.422   0.073  -7.803  0.00  0.00     0.232 A 
ATOM      4  O   LIG d   1       2.298   0.158  -8.270  0.00  0.00    -0.283 OA
ATOM      5  C   LIG d   1       4.693  -0.027  -8.541  0.00  0.00     0.068 A 
ATOM      6  C   LIG d   1       5.015  -0.055  -9.898  0.00  0.00    -0.044 A 
ATOM      7  C   LIG d   1       6.322  -0.157 -10.285  0.00  0.00    -0.019 A 
ATOM      8  C   LIG d   1       7.332  -0.232  -9.329  0.00  0.00     0.129 A 
ATOM      9  C   LIG d   1       7.026  -0.206  -7.977  0.00  0.00     0.081 A 
ATOM     10  C   LIG d   1       5.703  -0.102  -7.569  0.00  0.00     0.151 A 
ATOM     11  O   LIG d   1       5.134  -0.050  -6.346  0.00  0.00    -0.451 OA
ATOM     12  H   LIG d   1       1.861   0.192  -5.550  0.00  0.00     0.067 H 
ATOM     13  H   LIG d   1       4.235   0.004 -10.642  0.00  0.00     0.063 H 
ATOM     14  H   LIG d   1       6.573  -0.179 -11.335  0.00  0.00     0.065 H 
ENDROOT
BRANCH   9  15
ATOM     15  C   LIG d   1       8.128  -0.290  -6.952  0.00  0.00     0.001 C 
ATOM     16  H   LIG d   1       7.976  -1.170  -6.328  0.00  0.00     0.087 H 
ATOM     17  H   LIG d   1       9.090  -0.366  -7.458  0.00  0.00     0.087 H 
BRANCH  15  18
ATOM     18  N   LIG d   1       8.108   0.916  -6.113  0.00  0.00     0.239 N 
ATOM     19  C   LIG d   1       7.980   0.529  -4.777  0.00  0.00    -0.032 C 
ATOM     20  C   LIG d   1       7.856   1.743  -3.834  0.00  0.00    -0.013 C 
ATOM     21  H   LIG d   1       7.092  -0.095  -4.673  0.00  0.00     0.081 H 
ATOM     22  H   LIG d   1       8.856  -0.055  -4.492  0.00  0.00     0.081 H 
ATOM     23  C   LIG d   1       9.224   2.338  -3.614  0.00  0.00    -0.048 C 
ATOM     24  H   LIG d   1       7.441   1.421  -2.878  0.00  0.00     0.032 H 
ATOM     25  H   LIG d   1       7.202   2.489  -4.284  0.00  0.00     0.032 H 
ATOM     26  C   LIG d   1       9.536   3.476  -4.607  0.00  0.00    -0.048 C 
ATOM     27  H   LIG d   1       9.972   1.554  -3.730  0.00  0.00     0.027 H 
ATOM     28  H   LIG d   1       9.280   2.729  -2.599  0.00  0.00     0.027 H 
ATOM     29  C   LIG d   1       9.055   3.140  -6.031  0.00  0.00    -0.013 C 
ATOM     30  H   LIG d   1      10.612   3.645  -4.627  0.00  0.00     0.027 H 
ATOM     31  H   LIG d   1       9.040   4.386  -4.270  0.00  0.00     0.027 H 
ATOM     32  C   LIG d   1       9.330   1.698  -6.381  0.00  0.00    -0.032 C 
ATOM     33  H   LIG d   1       9.571   3.784  -6.742  0.00  0.00     0.032 H 
ATOM     34  H   LIG d   1       7.981   3.324  -6.098  0.00  0.00     0.032 H 
ATOM     35  H   LIG d   1      10.149   1.323  -5.769  0.00  0.00     0.081 H 
ATOM     36  H   LIG d   1       9.592   1.621  -7.436  0.00  0.00     0.081 H 
ATOM     37  H   LIG d   1       7.306   1.472  -6.367  0.00  0.00     0.204 HD
ENDBRANCH  15  18
ENDBRANCH   9  15
BRANCH   8  38
ATOM     38  O   LIG d   1       8.626  -0.333  -9.723  0.00  0.00    -0.506 OA
ATOM     39  H   LIG d   1       8.959   0.448 -10.187  0.00  0.00     0.292 HD
ENDBRANCH   8  38
BRANCH   1  40
ATOM     40  C   LIG d   1       3.421   0.086  -4.053  0.00  0.00     0.016 A 
ATOM     41  C   LIG d   1       3.632   1.142  -3.171  0.00  0.00    -0.047 A 
ATOM     42  C   LIG d   1       4.131   0.797  -1.939  0.00  0.00    -0.054 A 
ATOM     43  H   LIG d   1       3.417   2.167  -3.438  0.00  0.00     0.063 H 
ATOM     44  C   LIG d   1       4.379  -0.511  -1.670  0.00  0.00    -0.024 A 
ATOM     45  H   LIG d   1       4.329   1.555  -1.196  0.00  0.00     0.062 H 
ATOM     46  S   LIG d   1       3.942  -1.313  -3.080  0.00  0.00    -0.097 SA
ATOM     47  H   LIG d   1       4.767  -0.937  -0.757  0.00  0.00     0.069 H 
ENDBRANCH   1  40
TORSDOF 4
ENDMDL
