MODEL 1
REMARK VINA RESULT:      -8.3      0.000      0.000
REMARK  4 active torsions:
REMARK  status: ('A' for Active; 'I' for Inactive)
REMARK    1  A    between atoms: C_1  and  C_2 
REMARK    2  A    between atoms: C_2  and  N_3 
REMARK    3  A    between atoms: C_14  and  N_16 
REMARK    4  A    between atoms: C_28  and  C_29 
ROOT
ATOM      1  N   LIG d   1       7.143  -1.333  -4.276  0.00  0.00    -0.340 N 
ATOM      2  C   LIG d   1       6.010  -1.135  -3.508  0.00  0.00     0.050 A 
ATOM      3  C   LIG d   1       5.002  -1.998  -3.086  0.00  0.00    -0.038 A 
ATOM      4  C   LIG d   1       3.968  -1.523  -2.309  0.00  0.00    -0.060 A 
ATOM      5  C   LIG d   1       3.918  -0.187  -1.941  0.00  0.00    -0.061 A 
ATOM      6  C   LIG d   1       4.907   0.682  -2.348  0.00  0.00    -0.052 A 
ATOM      7  C   LIG d   1       5.958   0.215  -3.134  0.00  0.00     0.008 A 
ATOM      8  C   LIG d   1       7.146   0.860  -3.725  0.00  0.00     0.009 A 
ATOM      9  C   LIG d   1       7.840  -0.143  -4.418  0.00  0.00     0.050 A 
ATOM     10  C   LIG d   1       9.018   0.177  -5.085  0.00  0.00    -0.036 A 
ATOM     11  C   LIG d   1       9.496   1.470  -5.063  0.00  0.00    -0.039 A 
ATOM     12  C   LIG d   1       8.809   2.465  -4.376  0.00  0.00     0.033 A 
ATOM     13  C   LIG d   1       7.633   2.165  -3.710  0.00  0.00    -0.031 A 
ATOM     14  H   LIG d   1       5.031  -3.040  -3.367  0.00  0.00     0.064 H 
ATOM     15  H   LIG d   1       3.188  -2.196  -1.985  0.00  0.00     0.062 H 
ATOM     16  H   LIG d   1       3.102   0.174  -1.331  0.00  0.00     0.062 H 
ATOM     17  H   LIG d   1       4.867   1.723  -2.061  0.00  0.00     0.062 H 
ATOM     18  H   LIG d   1       9.559  -0.588  -5.621  0.00  0.00     0.064 H 
ATOM     19  H   LIG d   1      10.411   1.711  -5.583  0.00  0.00     0.064 H 
ATOM     20  H   LIG d   1       7.099   2.937  -3.177  0.00  0.00     0.064 H 
ENDROOT
BRANCH  12  21
ATOM     21  N   LIG d   1       9.306   3.774  -4.360  0.00  0.00    -0.293 NA
ATOM     22  C   LIG d   1      10.282   3.981  -5.444  0.00  0.00     0.157 C 
ATOM     23  O   LIG d   1      10.588   5.375  -5.521  0.00  0.00    -0.473 OA
ATOM     24  H   LIG d   1      11.190   3.418  -5.231  0.00  0.00     0.091 H 
ATOM     25  H   LIG d   1       9.855   3.647  -6.390  0.00  0.00     0.091 H 
ATOM     26  C   LIG d   1      10.905   6.005  -4.359  0.00  0.00     0.131 A 
ATOM     27  C   LIG d   1      10.600   5.432  -3.137  0.00  0.00     0.054 A 
ATOM     28  C   LIG d   1      11.544   7.245  -4.417  0.00  0.00    -0.019 A 
ATOM     29  C   LIG d   1       9.918   4.090  -3.062  0.00  0.00     0.047 C 
ATOM     30  C   LIG d   1      10.930   6.094  -1.960  0.00  0.00     0.147 A 
ATOM     31  H   LIG d   1       9.145   4.120  -2.294  0.00  0.00     0.052 H 
ATOM     32  H   LIG d   1      10.651   3.324  -2.810  0.00  0.00     0.052 H 
ATOM     33  C   LIG d   1      11.574   7.342  -2.029  0.00  0.00     0.021 A 
ATOM     34  O   LIG d   1      10.633   5.540  -0.768  0.00  0.00    -0.422 OA
ATOM     35  C   LIG d   1      11.877   7.908  -3.273  0.00  0.00    -0.047 A 
ATOM     36  C   LIG d   1      11.919   8.034  -0.785  0.00  0.00    -0.033 A 
ATOM     37  H   LIG d   1      12.371   8.867  -3.325  0.00  0.00     0.063 H 
ATOM     38  C   LIG d   1      11.595   7.425   0.387  0.00  0.00     0.026 A 
ATOM     39  C   LIG d   1      10.950   6.174   0.366  0.00  0.00     0.338 A 
ATOM     40  H   LIG d   1      11.831   7.899   1.328  0.00  0.00     0.069 H 
ATOM     41  O   LIG d   1      10.668   5.645   1.427  0.00  0.00    -0.245 OA
ATOM     42  H   LIG d   1      11.778   7.683  -5.376  0.00  0.00     0.065 H 
BRANCH  36  43
ATOM     43  C   LIG d   1      12.609   9.373  -0.803  0.00  0.00    -0.039 C 
ATOM     44  H   LIG d   1      12.069  10.051  -1.464  0.00  0.00     0.028 H 
ATOM     45  H   LIG d   1      12.628   9.786   0.206  0.00  0.00     0.028 H 
ATOM     46  H   LIG d   1      13.631   9.251  -1.165  0.00  0.00     0.028 H 
ENDBRANCH  36  43
ENDBRANCH  12  21
BRANCH   1  47
ATOM     47  C   LIG d   1       7.548  -2.616  -4.858  0.00  0.00     0.021 C 
ATOM     48  H   LIG d   1       6.661  -3.205  -5.090  0.00  0.00     0.049 H 
ATOM     49  H   LIG d   1       8.115  -2.437  -5.770  0.00  0.00     0.049 H 
BRANCH  47  50
ATOM     50  C   LIG d   1       8.418  -3.377  -3.856  0.00  0.00    -0.047 C 
ATOM     51  H   LIG d   1       8.155  -4.435  -3.877  0.00  0.00     0.025 H 
ATOM     52  H   LIG d   1       9.468  -3.259  -4.124  0.00  0.00     0.025 H 
ATOM     53  H   LIG d   1       8.252  -2.980  -2.855  0.00  0.00     0.025 H 
ENDBRANCH  47  50
ENDBRANCH   1  47
TORSDOF 4
ENDMDL
MODEL 2
REMARK VINA RESULT:      -8.3      2.653      8.858
REMARK  4 active torsions:
REMARK  status: ('A' for Active; 'I' for Inactive)
REMARK    1  A    between atoms: C_1  and  C_2 
REMARK    2  A    between atoms: C_2  and  N_3 
REMARK    3  A    between atoms: C_14  and  N_16 
REMARK    4  A    between atoms: C_28  and  C_29 
ROOT
ATOM      1  N   LIG d   1      10.459   7.727  -4.637  0.00  0.00    -0.340 N 
ATOM      2  C   LIG d   1      10.366   8.132  -3.318  0.00  0.00     0.050 A 
ATOM      3  C   LIG d   1      10.567   9.364  -2.700  0.00  0.00    -0.038 A 
ATOM      4  C   LIG d   1      10.401   9.486  -1.337  0.00  0.00    -0.060 A 
ATOM      5  C   LIG d   1      10.037   8.391  -0.569  0.00  0.00    -0.061 A 
ATOM      6  C   LIG d   1       9.834   7.164  -1.163  0.00  0.00    -0.052 A 
ATOM      7  C   LIG d   1       9.998   7.025  -2.540  0.00  0.00     0.008 A 
ATOM      8  C   LIG d   1       9.864   5.887  -3.467  0.00  0.00     0.009 A 
ATOM      9  C   LIG d   1      10.159   6.378  -4.746  0.00  0.00     0.050 A 
ATOM     10  C   LIG d   1      10.113   5.516  -5.837  0.00  0.00    -0.036 A 
ATOM     11  C   LIG d   1       9.779   4.190  -5.658  0.00  0.00    -0.039 A 
ATOM     12  C   LIG d   1       9.485   3.702  -4.389  0.00  0.00     0.033 A 
ATOM     13  C   LIG d   1       9.531   4.545  -3.292  0.00  0.00    -0.031 A 
ATOM     14  H   LIG d   1      10.850  10.223  -3.289  0.00  0.00     0.064 H 
ATOM     15  H   LIG d   1      10.558  10.444  -0.863  0.00  0.00     0.062 H 
ATOM     16  H   LIG d   1       9.910   8.499   0.498  0.00  0.00     0.062 H 
ATOM     17  H   LIG d   1       9.551   6.311  -0.563  0.00  0.00     0.062 H 
ATOM     18  H   LIG d   1      10.339   5.885  -6.826  0.00  0.00     0.064 H 
ATOM     19  H   LIG d   1       9.745   3.527  -6.509  0.00  0.00     0.064 H 
ATOM     20  H   LIG d   1       9.303   4.167  -2.307  0.00  0.00     0.064 H 
ENDROOT
BRANCH  12  21
ATOM     21  N   LIG d   1       9.146   2.354  -4.220  0.00  0.00    -0.293 NA
ATOM     22  C   LIG d   1       9.580   1.552  -5.377  0.00  0.00     0.157 C 
ATOM     23  O   LIG d   1       9.412   0.168  -5.060  0.00  0.00    -0.473 OA
ATOM     24  H   LIG d   1       8.974   1.805  -6.246  0.00  0.00     0.091 H 
ATOM     25  H   LIG d   1      10.631   1.754  -5.589  0.00  0.00     0.091 H 
ATOM     26  C   LIG d   1       8.214  -0.208  -4.542  0.00  0.00     0.131 A 
ATOM     27  C   LIG d   1       7.345   0.732  -4.015  0.00  0.00     0.054 A 
ATOM     28  C   LIG d   1       7.871  -1.561  -4.548  0.00  0.00    -0.019 A 
ATOM     29  C   LIG d   1       7.700   2.197  -4.011  0.00  0.00     0.047 C 
ATOM     30  C   LIG d   1       6.125   0.327  -3.486  0.00  0.00     0.147 A 
ATOM     31  H   LIG d   1       7.423   2.634  -3.051  0.00  0.00     0.052 H 
ATOM     32  H   LIG d   1       7.160   2.703  -4.810  0.00  0.00     0.052 H 
ATOM     33  C   LIG d   1       5.788  -1.038  -3.497  0.00  0.00     0.021 A 
ATOM     34  O   LIG d   1       5.276   1.238  -2.970  0.00  0.00    -0.422 OA
ATOM     35  C   LIG d   1       6.677  -1.976  -4.035  0.00  0.00    -0.047 A 
ATOM     36  C   LIG d   1       4.501  -1.458  -2.939  0.00  0.00    -0.033 A 
ATOM     37  H   LIG d   1       6.419  -3.024  -4.042  0.00  0.00     0.063 H 
ATOM     38  C   LIG d   1       3.687  -0.494  -2.433  0.00  0.00     0.026 A 
ATOM     39  C   LIG d   1       4.101   0.852  -2.462  0.00  0.00     0.338 A 
ATOM     40  H   LIG d   1       2.728  -0.758  -2.012  0.00  0.00     0.069 H 
ATOM     41  O   LIG d   1       3.358   1.701  -2.004  0.00  0.00    -0.245 OA
ATOM     42  H   LIG d   1       8.556  -2.286  -4.962  0.00  0.00     0.065 H 
BRANCH  36  43
ATOM     43  C   LIG d   1       4.092  -2.909  -2.925  0.00  0.00    -0.039 C 
ATOM     44  H   LIG d   1       4.928  -3.525  -3.256  0.00  0.00     0.028 H 
ATOM     45  H   LIG d   1       3.806  -3.196  -1.914  0.00  0.00     0.028 H 
ATOM     46  H   LIG d   1       3.246  -3.054  -3.597  0.00  0.00     0.028 H 
ENDBRANCH  36  43
ENDBRANCH  12  21
BRANCH   1  47
ATOM     47  C   LIG d   1      10.821   8.598  -5.758  0.00  0.00     0.021 C 
ATOM     48  H   LIG d   1      11.468   9.400  -5.400  0.00  0.00     0.049 H 
ATOM     49  H   LIG d   1      11.347   8.017  -6.515  0.00  0.00     0.049 H 
BRANCH  47  50
ATOM     50  C   LIG d   1       9.554   9.200  -6.366  0.00  0.00    -0.047 C 
ATOM     51  H   LIG d   1       9.826  10.005  -7.050  0.00  0.00     0.025 H 
ATOM     52  H   LIG d   1       9.011   8.429  -6.913  0.00  0.00     0.025 H 
ATOM     53  H   LIG d   1       8.921   9.596  -5.572  0.00  0.00     0.025 H 
ENDBRANCH  47  50
ENDBRANCH   1  47
TORSDOF 4
ENDMDL
MODEL 3
REMARK VINA RESULT:      -8.1      2.815      9.016
REMARK  4 active torsions:
REMARK  status: ('A' for Active; 'I' for Inactive)
REMARK    1  A    between atoms: C_1  and  C_2 
REMARK    2  A    between atoms: C_2  and  N_3 
REMARK    3  A    between atoms: C_14  and  N_16 
REMARK    4  A    between atoms: C_28  and  C_29 
ROOT
ATOM      1  N   LIG d   1      10.461   8.158  -3.618  0.00  0.00    -0.340 N 
ATOM      2  C   LIG d   1      10.135   8.564  -4.899  0.00  0.00     0.050 A 
ATOM      3  C   LIG d   1      10.159   9.809  -5.522  0.00  0.00    -0.038 A 
ATOM      4  C   LIG d   1       9.772   9.928  -6.840  0.00  0.00    -0.060 A 
ATOM      5  C   LIG d   1       9.356   8.817  -7.556  0.00  0.00    -0.061 A 
ATOM      6  C   LIG d   1       9.325   7.577  -6.957  0.00  0.00    -0.052 A 
ATOM      7  C   LIG d   1       9.713   7.441  -5.625  0.00  0.00     0.008 A 
ATOM      8  C   LIG d   1       9.797   6.291  -4.706  0.00  0.00     0.009 A 
ATOM      9  C   LIG d   1      10.264   6.793  -3.483  0.00  0.00     0.050 A 
ATOM     10  C   LIG d   1      10.444   5.924  -2.411  0.00  0.00    -0.036 A 
ATOM     11  C   LIG d   1      10.164   4.581  -2.555  0.00  0.00    -0.039 A 
ATOM     12  C   LIG d   1       9.701   4.083  -3.768  0.00  0.00     0.033 A 
ATOM     13  C   LIG d   1       9.513   4.934  -4.843  0.00  0.00    -0.031 A 
ATOM     14  H   LIG d   1      10.482  10.681  -4.973  0.00  0.00     0.064 H 
ATOM     15  H   LIG d   1       9.793  10.897  -7.318  0.00  0.00     0.062 H 
ATOM     16  H   LIG d   1       9.055   8.923  -8.588  0.00  0.00     0.062 H 
ATOM     17  H   LIG d   1       9.000   6.711  -7.516  0.00  0.00     0.062 H 
ATOM     18  H   LIG d   1      10.803   6.301  -1.465  0.00  0.00     0.064 H 
ATOM     19  H   LIG d   1      10.306   3.913  -1.719  0.00  0.00     0.064 H 
ATOM     20  H   LIG d   1       9.153   4.548  -5.785  0.00  0.00     0.064 H 
ENDROOT
BRANCH  12  21
ATOM     21  N   LIG d   1       9.422   2.717  -3.902  0.00  0.00    -0.293 NA
ATOM     22  C   LIG d   1       9.818   2.225  -5.232  0.00  0.00     0.157 C 
ATOM     23  O   LIG d   1       9.718   0.799  -5.238  0.00  0.00    -0.473 OA
ATOM     24  H   LIG d   1       9.154   2.641  -5.989  0.00  0.00     0.091 H 
ATOM     25  H   LIG d   1      10.846   2.521  -5.441  0.00  0.00     0.091 H 
ATOM     26  C   LIG d   1       8.566   0.256  -4.765  0.00  0.00     0.131 A 
ATOM     27  C   LIG d   1       7.695   1.006  -3.994  0.00  0.00     0.054 A 
ATOM     28  C   LIG d   1       8.272  -1.075  -5.069  0.00  0.00    -0.019 A 
ATOM     29  C   LIG d   1       7.997   2.446  -3.667  0.00  0.00     0.047 C 
ATOM     30  C   LIG d   1       6.523   0.431  -3.516  0.00  0.00     0.147 A 
ATOM     31  H   LIG d   1       7.760   2.636  -2.620  0.00  0.00     0.052 H 
ATOM     32  H   LIG d   1       7.394   3.096  -4.300  0.00  0.00     0.052 H 
ATOM     33  C   LIG d   1       6.236  -0.909  -3.828  0.00  0.00     0.021 A 
ATOM     34  O   LIG d   1       5.673   1.157  -2.763  0.00  0.00    -0.422 OA
ATOM     35  C   LIG d   1       7.126  -1.654  -4.611  0.00  0.00    -0.047 A 
ATOM     36  C   LIG d   1       4.998  -1.508  -3.323  0.00  0.00    -0.033 A 
ATOM     37  H   LIG d   1       6.905  -2.683  -4.849  0.00  0.00     0.063 H 
ATOM     38  C   LIG d   1       4.181  -0.727  -2.569  0.00  0.00     0.026 A 
ATOM     39  C   LIG d   1       4.544   0.608  -2.303  0.00  0.00     0.338 A 
ATOM     40  H   LIG d   1       3.258  -1.127  -2.176  0.00  0.00     0.069 H 
ATOM     41  O   LIG d   1       3.797   1.292  -1.626  0.00  0.00    -0.245 OA
ATOM     42  H   LIG d   1       8.958  -1.650  -5.672  0.00  0.00     0.065 H 
BRANCH  36  43
ATOM     43  C   LIG d   1       4.644  -2.941  -3.627  0.00  0.00    -0.039 C 
ATOM     44  H   LIG d   1       5.282  -3.311  -4.429  0.00  0.00     0.028 H 
ATOM     45  H   LIG d   1       4.790  -3.549  -2.734  0.00  0.00     0.028 H 
ATOM     46  H   LIG d   1       3.600  -2.998  -3.938  0.00  0.00     0.028 H 
ENDBRANCH  36  43
ENDBRANCH  12  21
BRANCH   1  47
ATOM     47  C   LIG d   1      10.945   9.044  -2.555  0.00  0.00     0.021 C 
ATOM     48  H   LIG d   1      11.622   8.493  -1.903  0.00  0.00     0.049 H 
ATOM     49  H   LIG d   1      11.473   9.888  -2.998  0.00  0.00     0.049 H 
BRANCH  47  50
ATOM     50  C   LIG d   1       9.757   9.556  -1.740  0.00  0.00    -0.047 C 
ATOM     51  H   LIG d   1       9.576   8.885  -0.900  0.00  0.00     0.025 H 
ATOM     52  H   LIG d   1       9.978  10.556  -1.363  0.00  0.00     0.025 H 
ATOM     53  H   LIG d   1       8.870   9.594  -2.372  0.00  0.00     0.025 H 
ENDBRANCH  47  50
ENDBRANCH   1  47
TORSDOF 4
ENDMDL
MODEL 4
REMARK VINA RESULT:      -7.6      3.266      9.030
REMARK  4 active torsions:
REMARK  status: ('A' for Active; 'I' for Inactive)
REMARK    1  A    between atoms: C_1  and  C_2 
REMARK    2  A    between atoms: C_2  and  N_3 
REMARK    3  A    between atoms: C_14  and  N_16 
REMARK    4  A    between atoms: C_28  and  C_29 
ROOT
ATOM      1  N   LIG d   1      10.350   7.288  -6.388  0.00  0.00    -0.340 N 
ATOM      2  C   LIG d   1      10.151   7.167  -7.752  0.00  0.00     0.050 A 
ATOM      3  C   LIG d   1      10.293   8.070  -8.802  0.00  0.00    -0.038 A 
ATOM      4  C   LIG d   1      10.022   7.672 -10.094  0.00  0.00    -0.060 A 
ATOM      5  C   LIG d   1       9.606   6.377 -10.361  0.00  0.00    -0.061 A 
ATOM      6  C   LIG d   1       9.460   5.470  -9.334  0.00  0.00    -0.052 A 
ATOM      7  C   LIG d   1       9.730   5.858  -8.023  0.00  0.00     0.008 A 
ATOM      8  C   LIG d   1       9.677   5.157  -6.727  0.00  0.00     0.009 A 
ATOM      9  C   LIG d   1      10.069   6.088  -5.755  0.00  0.00     0.050 A 
ATOM     10  C   LIG d   1      10.114   5.703  -4.419  0.00  0.00    -0.036 A 
ATOM     11  C   LIG d   1       9.775   4.416  -4.057  0.00  0.00    -0.039 A 
ATOM     12  C   LIG d   1       9.386   3.492  -5.021  0.00  0.00     0.033 A 
ATOM     13  C   LIG d   1       9.332   3.860  -6.355  0.00  0.00    -0.031 A 
ATOM     14  H   LIG d   1      10.617   9.081  -8.605  0.00  0.00     0.064 H 
ATOM     15  H   LIG d   1      10.134   8.376 -10.906  0.00  0.00     0.062 H 
ATOM     16  H   LIG d   1       9.397   6.077 -11.377  0.00  0.00     0.062 H 
ATOM     17  H   LIG d   1       9.135   4.460  -9.544  0.00  0.00     0.062 H 
ATOM     18  H   LIG d   1      10.415   6.413  -3.663  0.00  0.00     0.064 H 
ATOM     19  H   LIG d   1       9.812   4.125  -3.018  0.00  0.00     0.064 H 
ATOM     20  H   LIG d   1       9.030   3.142  -7.104  0.00  0.00     0.064 H 
ENDROOT
BRANCH  12  21
ATOM     21  N   LIG d   1       9.045   2.188  -4.642  0.00  0.00    -0.293 NA
ATOM     22  C   LIG d   1       9.439   1.217  -5.677  0.00  0.00     0.157 C 
ATOM     23  O   LIG d   1       9.273  -0.102  -5.151  0.00  0.00    -0.473 OA
ATOM     24  H   LIG d   1       8.808   1.342  -6.556  0.00  0.00     0.091 H 
ATOM     25  H   LIG d   1      10.484   1.374  -5.947  0.00  0.00     0.091 H 
ATOM     26  C   LIG d   1       8.089  -0.383  -4.547  0.00  0.00     0.131 A 
ATOM     27  C   LIG d   1       7.242   0.634  -4.142  0.00  0.00     0.054 A 
ATOM     28  C   LIG d   1       7.738  -1.719  -4.339  0.00  0.00    -0.019 A 
ATOM     29  C   LIG d   1       7.605   2.079  -4.369  0.00  0.00     0.047 C 
ATOM     30  C   LIG d   1       6.036   0.325  -3.523  0.00  0.00     0.147 A 
ATOM     31  H   LIG d   1       7.360   2.657  -3.478  0.00  0.00     0.052 H 
ATOM     32  H   LIG d   1       7.044   2.464  -5.219  0.00  0.00     0.052 H 
ATOM     33  C   LIG d   1       5.692  -1.022  -3.318  0.00  0.00     0.021 A 
ATOM     34  O   LIG d   1       5.209   1.312  -3.125  0.00  0.00    -0.422 OA
ATOM     35  C   LIG d   1       6.559  -2.040  -3.734  0.00  0.00    -0.047 A 
ATOM     36  C   LIG d   1       4.419  -1.341  -2.666  0.00  0.00    -0.033 A 
ATOM     37  H   LIG d   1       6.294  -3.075  -3.576  0.00  0.00     0.063 H 
ATOM     38  C   LIG d   1       3.627  -0.303  -2.287  0.00  0.00     0.026 A 
ATOM     39  C   LIG d   1       4.048   1.018  -2.530  0.00  0.00     0.338 A 
ATOM     40  H   LIG d   1       2.680  -0.491  -1.803  0.00  0.00     0.069 H 
ATOM     41  O   LIG d   1       3.323   1.935  -2.183  0.00  0.00    -0.245 OA
ATOM     42  H   LIG d   1       8.406  -2.504  -4.659  0.00  0.00     0.065 H 
BRANCH  36  43
ATOM     43  C   LIG d   1       4.003  -2.768  -2.422  0.00  0.00    -0.039 C 
ATOM     44  H   LIG d   1       3.473  -3.147  -3.295  0.00  0.00     0.028 H 
ATOM     45  H   LIG d   1       4.887  -3.379  -2.239  0.00  0.00     0.028 H 
ATOM     46  H   LIG d   1       3.346  -2.811  -1.552  0.00  0.00     0.028 H 
ENDBRANCH  36  43
ENDBRANCH  12  21
BRANCH   1  47
ATOM     47  C   LIG d   1      10.792   8.510  -5.711  0.00  0.00     0.021 C 
ATOM     48  H   LIG d   1      11.313   8.246  -4.790  0.00  0.00     0.049 H 
ATOM     49  H   LIG d   1      11.466   9.064  -6.363  0.00  0.00     0.049 H 
BRANCH  47  50
ATOM     50  C   LIG d   1       9.577   9.376  -5.378  0.00  0.00    -0.047 C 
ATOM     51  H   LIG d   1       8.861   9.328  -6.199  0.00  0.00     0.025 H 
ATOM     52  H   LIG d   1       9.107   9.008  -4.465  0.00  0.00     0.025 H 
ATOM     53  H   LIG d   1       9.894  10.408  -5.232  0.00  0.00     0.025 H 
ENDBRANCH  47  50
ENDBRANCH   1  47
TORSDOF 4
ENDMDL
MODEL 5
REMARK VINA RESULT:      -7.5      1.790      3.537
REMARK  4 active torsions:
REMARK  status: ('A' for Active; 'I' for Inactive)
REMARK    1  A    between atoms: C_1  and  C_2 
REMARK    2  A    between atoms: C_2  and  N_3 
REMARK    3  A    between atoms: C_14  and  N_16 
REMARK    4  A    between atoms: C_28  and  C_29 
ROOT
ATOM      1  N   LIG d   1       6.823  -0.816  -4.865  0.00  0.00    -0.340 N 
ATOM      2  C   LIG d   1       5.821  -0.617  -3.933  0.00  0.00     0.050 A 
ATOM      3  C   LIG d   1       4.709  -1.375  -3.577  0.00  0.00    -0.038 A 
ATOM      4  C   LIG d   1       3.857  -0.928  -2.589  0.00  0.00    -0.060 A 
ATOM      5  C   LIG d   1       4.095   0.276  -1.944  0.00  0.00    -0.061 A 
ATOM      6  C   LIG d   1       5.191   1.040  -2.282  0.00  0.00    -0.052 A 
ATOM      7  C   LIG d   1       6.061   0.600  -3.278  0.00  0.00     0.008 A 
ATOM      8  C   LIG d   1       7.292   1.158  -3.868  0.00  0.00     0.009 A 
ATOM      9  C   LIG d   1       7.718   0.242  -4.841  0.00  0.00     0.050 A 
ATOM     10  C   LIG d   1       8.871   0.509  -5.571  0.00  0.00    -0.036 A 
ATOM     11  C   LIG d   1       9.587   1.664  -5.339  0.00  0.00    -0.039 A 
ATOM     12  C   LIG d   1       9.165   2.572  -4.373  0.00  0.00     0.033 A 
ATOM     13  C   LIG d   1       8.017   2.325  -3.640  0.00  0.00    -0.031 A 
ATOM     14  H   LIG d   1       4.514  -2.313  -4.073  0.00  0.00     0.064 H 
ATOM     15  H   LIG d   1       2.995  -1.519  -2.318  0.00  0.00     0.062 H 
ATOM     16  H   LIG d   1       3.421   0.616  -1.172  0.00  0.00     0.062 H 
ATOM     17  H   LIG d   1       5.375   1.978  -1.778  0.00  0.00     0.062 H 
ATOM     18  H   LIG d   1       9.207  -0.191  -6.323  0.00  0.00     0.064 H 
ATOM     19  H   LIG d   1      10.481   1.864  -5.909  0.00  0.00     0.064 H 
ATOM     20  H   LIG d   1       7.690   3.030  -2.891  0.00  0.00     0.064 H 
ENDROOT
BRANCH  12  21
ATOM     21  N   LIG d   1       9.901   3.741  -4.145  0.00  0.00    -0.293 NA
ATOM     22  C   LIG d   1       9.934   4.073  -2.710  0.00  0.00     0.157 C 
ATOM     23  O   LIG d   1      10.870   5.135  -2.509  0.00  0.00    -0.473 OA
ATOM     24  H   LIG d   1       8.944   4.392  -2.385  0.00  0.00     0.091 H 
ATOM     25  H   LIG d   1      10.245   3.198  -2.139  0.00  0.00     0.091 H 
ATOM     26  C   LIG d   1      10.767   6.215  -3.327  0.00  0.00     0.131 A 
ATOM     27  C   LIG d   1      10.047   6.142  -4.507  0.00  0.00     0.054 A 
ATOM     28  C   LIG d   1      11.401   7.403  -2.959  0.00  0.00    -0.019 A 
ATOM     29  C   LIG d   1       9.351   4.868  -4.911  0.00  0.00     0.047 C 
ATOM     30  C   LIG d   1       9.956   7.258  -5.333  0.00  0.00     0.147 A 
ATOM     31  H   LIG d   1       9.507   4.693  -5.976  0.00  0.00     0.052 H 
ATOM     32  H   LIG d   1       8.284   4.958  -4.710  0.00  0.00     0.052 H 
ATOM     33  C   LIG d   1      10.598   8.450  -4.953  0.00  0.00     0.021 A 
ATOM     34  O   LIG d   1       9.258   7.191  -6.483  0.00  0.00    -0.422 OA
ATOM     35  C   LIG d   1      11.321   8.507  -3.755  0.00  0.00    -0.047 A 
ATOM     36  C   LIG d   1      10.497   9.621  -5.826  0.00  0.00    -0.033 A 
ATOM     37  H   LIG d   1      11.814   9.423  -3.465  0.00  0.00     0.063 H 
ATOM     38  C   LIG d   1       9.779   9.494  -6.973  0.00  0.00     0.026 A 
ATOM     39  C   LIG d   1       9.168   8.262  -7.279  0.00  0.00     0.338 A 
ATOM     40  H   LIG d   1       9.679  10.332  -7.647  0.00  0.00     0.069 H 
ATOM     41  O   LIG d   1       8.529   8.169  -8.312  0.00  0.00    -0.245 OA
ATOM     42  H   LIG d   1      11.959   7.449  -2.036  0.00  0.00     0.065 H 
BRANCH  36  43
ATOM     43  C   LIG d   1      11.167  10.922  -5.466  0.00  0.00    -0.039 C 
ATOM     44  H   LIG d   1      10.679  11.741  -5.995  0.00  0.00     0.028 H 
ATOM     45  H   LIG d   1      11.090  11.086  -4.392  0.00  0.00     0.028 H 
ATOM     46  H   LIG d   1      12.218  10.881  -5.754  0.00  0.00     0.028 H 
ENDBRANCH  36  43
ENDBRANCH  12  21
BRANCH   1  47
ATOM     47  C   LIG d   1       6.923  -1.978  -5.752  0.00  0.00     0.021 C 
ATOM     48  H   LIG d   1       5.923  -2.302  -6.041  0.00  0.00     0.049 H 
ATOM     49  H   LIG d   1       7.489  -1.707  -6.643  0.00  0.00     0.049 H 
BRANCH  47  50
ATOM     50  C   LIG d   1       7.637  -3.116  -5.022  0.00  0.00    -0.047 C 
ATOM     51  H   LIG d   1       7.443  -3.039  -3.951  0.00  0.00     0.025 H 
ATOM     52  H   LIG d   1       7.266  -4.073  -5.389  0.00  0.00     0.025 H 
ATOM     53  H   LIG d   1       8.709  -3.049  -5.202  0.00  0.00     0.025 H 
ENDBRANCH  47  50
ENDBRANCH   1  47
TORSDOF 4
ENDMDL
MODEL 6
REMARK VINA RESULT:      -7.3      7.844     12.472
REMARK  4 active torsions:
REMARK  status: ('A' for Active; 'I' for Inactive)
REMARK    1  A    between atoms: C_1  and  C_2 
REMARK    2  A    between atoms: C_2  and  N_3 
REMARK    3  A    between atoms: C_14  and  N_16 
REMARK    4  A    between atoms: C_28  and  C_29 
ROOT
ATOM      1  N   LIG d   1       6.432  -0.953  -4.783  0.00  0.00    -0.340 N 
ATOM      2  C   LIG d   1       5.489  -0.393  -3.942  0.00  0.00     0.050 A 
ATOM      3  C   LIG d   1       5.543   0.007  -2.609  0.00  0.00    -0.038 A 
ATOM      4  C   LIG d   1       4.427   0.548  -2.006  0.00  0.00    -0.060 A 
ATOM      5  C   LIG d   1       3.244   0.697  -2.714  0.00  0.00    -0.061 A 
ATOM      6  C   LIG d   1       3.172   0.306  -4.034  0.00  0.00    -0.052 A 
ATOM      7  C   LIG d   1       4.292  -0.242  -4.656  0.00  0.00     0.008 A 
ATOM      8  C   LIG d   1       4.549  -0.749  -6.017  0.00  0.00     0.009 A 
ATOM      9  C   LIG d   1       5.885  -1.175  -6.038  0.00  0.00     0.050 A 
ATOM     10  C   LIG d   1       6.414  -1.709  -7.208  0.00  0.00    -0.036 A 
ATOM     11  C   LIG d   1       5.629  -1.817  -8.336  0.00  0.00    -0.039 A 
ATOM     12  C   LIG d   1       4.304  -1.394  -8.317  0.00  0.00     0.033 A 
ATOM     13  C   LIG d   1       3.760  -0.865  -7.159  0.00  0.00    -0.031 A 
ATOM     14  H   LIG d   1       6.459  -0.104  -2.049  0.00  0.00     0.064 H 
ATOM     15  H   LIG d   1       4.474   0.857  -0.972  0.00  0.00     0.062 H 
ATOM     16  H   LIG d   1       2.377   1.121  -2.231  0.00  0.00     0.062 H 
ATOM     17  H   LIG d   1       2.250   0.422  -4.584  0.00  0.00     0.062 H 
ATOM     18  H   LIG d   1       7.442  -2.039  -7.233  0.00  0.00     0.064 H 
ATOM     19  H   LIG d   1       6.046  -2.232  -9.241  0.00  0.00     0.064 H 
ATOM     20  H   LIG d   1       2.731  -0.537  -7.143  0.00  0.00     0.064 H 
ENDROOT
BRANCH  12  21
ATOM     21  N   LIG d   1       3.517  -1.508  -9.469  0.00  0.00    -0.293 NA
ATOM     22  C   LIG d   1       2.743  -0.277  -9.704  0.00  0.00     0.157 C 
ATOM     23  O   LIG d   1       2.136  -0.361 -10.996  0.00  0.00    -0.473 OA
ATOM     24  H   LIG d   1       1.971  -0.178  -8.943  0.00  0.00     0.091 H 
ATOM     25  H   LIG d   1       3.409   0.586  -9.669  0.00  0.00     0.091 H 
ATOM     26  C   LIG d   1       1.464  -1.504 -11.291  0.00  0.00     0.131 A 
ATOM     27  C   LIG d   1       1.658  -2.652 -10.544  0.00  0.00     0.054 A 
ATOM     28  C   LIG d   1       0.571  -1.504 -12.366  0.00  0.00    -0.019 A 
ATOM     29  C   LIG d   1       2.612  -2.663  -9.377  0.00  0.00     0.047 C 
ATOM     30  C   LIG d   1       0.964  -3.813 -10.865  0.00  0.00     0.147 A 
ATOM     31  H   LIG d   1       3.196  -3.583  -9.396  0.00  0.00     0.052 H 
ATOM     32  H   LIG d   1       2.048  -2.609  -8.447  0.00  0.00     0.052 H 
ATOM     33  C   LIG d   1       0.067  -3.803 -11.947  0.00  0.00     0.021 A 
ATOM     34  O   LIG d   1       1.151  -4.934 -10.141  0.00  0.00    -0.422 OA
ATOM     35  C   LIG d   1      -0.120  -2.633 -12.693  0.00  0.00    -0.047 A 
ATOM     36  C   LIG d   1      -0.663  -5.029 -12.279  0.00  0.00    -0.033 A 
ATOM     37  H   LIG d   1      -0.808  -2.625 -13.525  0.00  0.00     0.063 H 
ATOM     38  C   LIG d   1      -0.432  -6.127 -11.513  0.00  0.00     0.026 A 
ATOM     39  C   LIG d   1       0.484  -6.052 -10.446  0.00  0.00     0.338 A 
ATOM     40  H   LIG d   1      -0.948  -7.053 -11.722  0.00  0.00     0.069 H 
ATOM     41  O   LIG d   1       0.676  -7.048  -9.771  0.00  0.00    -0.245 OA
ATOM     42  H   LIG d   1       0.427  -0.602 -12.941  0.00  0.00     0.065 H 
BRANCH  36  43
ATOM     43  C   LIG d   1      -1.634  -5.071 -13.431  0.00  0.00    -0.039 C 
ATOM     44  H   LIG d   1      -1.353  -4.323 -14.171  0.00  0.00     0.028 H 
ATOM     45  H   LIG d   1      -1.614  -6.061 -13.887  0.00  0.00     0.028 H 
ATOM     46  H   LIG d   1      -2.640  -4.860 -13.065  0.00  0.00     0.028 H 
ENDBRANCH  36  43
ENDBRANCH  12  21
BRANCH   1  47
ATOM     47  C   LIG d   1       7.813  -1.268  -4.404  0.00  0.00     0.021 C 
ATOM     48  H   LIG d   1       8.455  -1.197  -5.282  0.00  0.00     0.049 H 
ATOM     49  H   LIG d   1       8.152  -0.562  -3.647  0.00  0.00     0.049 H 
BRANCH  47  50
ATOM     50  C   LIG d   1       7.874  -2.689  -3.842  0.00  0.00    -0.047 C 
ATOM     51  H   LIG d   1       8.144  -2.650  -2.786  0.00  0.00     0.025 H 
ATOM     52  H   LIG d   1       6.900  -3.165  -3.950  0.00  0.00     0.025 H 
ATOM     53  H   LIG d   1       8.622  -3.264  -4.387  0.00  0.00     0.025 H 
ENDBRANCH  47  50
ENDBRANCH   1  47
TORSDOF 4
ENDMDL
MODEL 7
REMARK VINA RESULT:      -7.3      2.427      8.803
REMARK  4 active torsions:
REMARK  status: ('A' for Active; 'I' for Inactive)
REMARK    1  A    between atoms: C_1  and  C_2 
REMARK    2  A    between atoms: C_2  and  N_3 
REMARK    3  A    between atoms: C_14  and  N_16 
REMARK    4  A    between atoms: C_28  and  C_29 
ROOT
ATOM      1  N   LIG d   1      11.019   8.341  -1.539  0.00  0.00    -0.340 N 
ATOM      2  C   LIG d   1      11.126   7.955  -0.216  0.00  0.00     0.050 A 
ATOM      3  C   LIG d   1      11.399   8.668   0.948  0.00  0.00    -0.038 A 
ATOM      4  C   LIG d   1      11.446   8.015   2.162  0.00  0.00    -0.060 A 
ATOM      5  C   LIG d   1      11.224   6.648   2.237  0.00  0.00    -0.061 A 
ATOM      6  C   LIG d   1      10.952   5.926   1.095  0.00  0.00    -0.052 A 
ATOM      7  C   LIG d   1      10.902   6.573  -0.138  0.00  0.00     0.008 A 
ATOM      8  C   LIG d   1      10.644   6.112  -1.515  0.00  0.00     0.009 A 
ATOM      9  C   LIG d   1      10.729   7.244  -2.337  0.00  0.00     0.050 A 
ATOM     10  C   LIG d   1      10.528   7.112  -3.707  0.00  0.00    -0.036 A 
ATOM     11  C   LIG d   1      10.248   5.875  -4.249  0.00  0.00    -0.039 A 
ATOM     12  C   LIG d   1      10.163   4.751  -3.434  0.00  0.00     0.033 A 
ATOM     13  C   LIG d   1      10.364   4.864  -2.069  0.00  0.00    -0.031 A 
ATOM     14  H   LIG d   1      11.574   9.732   0.901  0.00  0.00     0.064 H 
ATOM     15  H   LIG d   1      11.659   8.572   3.062  0.00  0.00     0.062 H 
ATOM     16  H   LIG d   1      11.263   6.148   3.193  0.00  0.00     0.062 H 
ATOM     17  H   LIG d   1      10.779   4.861   1.155  0.00  0.00     0.062 H 
ATOM     18  H   LIG d   1      10.591   7.979  -4.348  0.00  0.00     0.064 H 
ATOM     19  H   LIG d   1      10.093   5.780  -5.313  0.00  0.00     0.064 H 
ATOM     20  H   LIG d   1      10.299   3.992  -1.436  0.00  0.00     0.064 H 
ENDROOT
BRANCH  12  21
ATOM     21  N   LIG d   1       9.877   3.501  -3.996  0.00  0.00    -0.293 NA
ATOM     22  C   LIG d   1      10.037   3.531  -5.460  0.00  0.00     0.157 C 
ATOM     23  O   LIG d   1       9.951   2.193  -5.955  0.00  0.00    -0.473 OA
ATOM     24  H   LIG d   1       9.247   4.136  -5.903  0.00  0.00     0.091 H 
ATOM     25  H   LIG d   1      11.010   3.953  -5.713  0.00  0.00     0.091 H 
ATOM     26  C   LIG d   1       8.905   1.439  -5.526  0.00  0.00     0.131 A 
ATOM     27  C   LIG d   1       8.177   1.810  -4.410  0.00  0.00     0.054 A 
ATOM     28  C   LIG d   1       8.575   0.280  -6.231  0.00  0.00    -0.019 A 
ATOM     29  C   LIG d   1       8.518   3.064  -3.646  0.00  0.00     0.047 C 
ATOM     30  C   LIG d   1       7.112   1.024  -3.985  0.00  0.00     0.147 A 
ATOM     31  H   LIG d   1       8.466   2.861  -2.576  0.00  0.00     0.052 H 
ATOM     32  H   LIG d   1       7.807   3.849  -3.901  0.00  0.00     0.052 H 
ATOM     33  C   LIG d   1       6.787  -0.141  -4.701  0.00  0.00     0.021 A 
ATOM     34  O   LIG d   1       6.401   1.380  -2.897  0.00  0.00    -0.422 OA
ATOM     35  C   LIG d   1       7.533  -0.502  -5.830  0.00  0.00    -0.047 A 
ATOM     36  C   LIG d   1       5.663  -0.965  -4.249  0.00  0.00    -0.033 A 
ATOM     37  H   LIG d   1       7.283  -1.398  -6.379  0.00  0.00     0.063 H 
ATOM     38  C   LIG d   1       4.984  -0.554  -3.146  0.00  0.00     0.026 A 
ATOM     39  C   LIG d   1       5.376   0.627  -2.487  0.00  0.00     0.338 A 
ATOM     40  H   LIG d   1       4.148  -1.131  -2.777  0.00  0.00     0.069 H 
ATOM     41  O   LIG d   1       4.753   0.978  -1.499  0.00  0.00    -0.245 OA
ATOM     42  H   LIG d   1       9.150   0.000  -7.101  0.00  0.00     0.065 H 
BRANCH  36  43
ATOM     43  C   LIG d   1       5.275  -2.224  -4.980  0.00  0.00    -0.039 C 
ATOM     44  H   LIG d   1       4.255  -2.128  -5.352  0.00  0.00     0.028 H 
ATOM     45  H   LIG d   1       5.954  -2.383  -5.817  0.00  0.00     0.028 H 
ATOM     46  H   LIG d   1       5.334  -3.073  -4.298  0.00  0.00     0.028 H 
ENDBRANCH  36  43
ENDBRANCH  12  21
BRANCH   1  47
ATOM     47  C   LIG d   1      11.188   9.712  -2.029  0.00  0.00     0.021 C 
ATOM     48  H   LIG d   1      11.905  10.237  -1.398  0.00  0.00     0.049 H 
ATOM     49  H   LIG d   1      11.556   9.688  -3.055  0.00  0.00     0.049 H 
BRANCH  47  50
ATOM     50  C   LIG d   1       9.843  10.438  -1.986  0.00  0.00    -0.047 C 
ATOM     51  H   LIG d   1       9.798  11.065  -1.095  0.00  0.00     0.025 H 
ATOM     52  H   LIG d   1       9.738  11.062  -2.874  0.00  0.00     0.025 H 
ATOM     53  H   LIG d   1       9.036   9.707  -1.958  0.00  0.00     0.025 H 
ENDBRANCH  47  50
ENDBRANCH   1  47
TORSDOF 4
ENDMDL
MODEL 8
REMARK VINA RESULT:      -7.0      7.742     12.620
REMARK  4 active torsions:
REMARK  status: ('A' for Active; 'I' for Inactive)
REMARK    1  A    between atoms: C_1  and  C_2 
REMARK    2  A    between atoms: C_2  and  N_3 
REMARK    3  A    between atoms: C_14  and  N_16 
REMARK    4  A    between atoms: C_28  and  C_29 
ROOT
ATOM      1  N   LIG d   1       3.383  -0.175  -5.065  0.00  0.00    -0.340 N 
ATOM      2  C   LIG d   1       3.285   0.254  -6.375  0.00  0.00     0.050 A 
ATOM      3  C   LIG d   1       2.757   1.410  -6.945  0.00  0.00    -0.038 A 
ATOM      4  C   LIG d   1       2.793   1.583  -8.312  0.00  0.00    -0.060 A 
ATOM      5  C   LIG d   1       3.350   0.614  -9.132  0.00  0.00    -0.061 A 
ATOM      6  C   LIG d   1       3.878  -0.537  -8.586  0.00  0.00    -0.052 A 
ATOM      7  C   LIG d   1       3.848  -0.725  -7.206  0.00  0.00     0.008 A 
ATOM      8  C   LIG d   1       4.312  -1.810  -6.321  0.00  0.00     0.009 A 
ATOM      9  C   LIG d   1       3.999  -1.417  -5.012  0.00  0.00     0.050 A 
ATOM     10  C   LIG d   1       4.324  -2.255  -3.950  0.00  0.00    -0.036 A 
ATOM     11  C   LIG d   1       4.947  -3.462  -4.187  0.00  0.00    -0.039 A 
ATOM     12  C   LIG d   1       5.259  -3.852  -5.485  0.00  0.00     0.033 A 
ATOM     13  C   LIG d   1       4.939  -3.032  -6.553  0.00  0.00    -0.031 A 
ATOM     14  H   LIG d   1       2.321   2.171  -6.316  0.00  0.00     0.064 H 
ATOM     15  H   LIG d   1       2.382   2.481  -8.749  0.00  0.00     0.062 H 
ATOM     16  H   LIG d   1       3.373   0.761 -10.202  0.00  0.00     0.062 H 
ATOM     17  H   LIG d   1       4.312  -1.291  -9.227  0.00  0.00     0.062 H 
ATOM     18  H   LIG d   1       4.086  -1.960  -2.939  0.00  0.00     0.064 H 
ATOM     19  H   LIG d   1       5.196  -4.107  -3.358  0.00  0.00     0.064 H 
ATOM     20  H   LIG d   1       5.180  -3.335  -7.562  0.00  0.00     0.064 H 
ENDROOT
BRANCH  12  21
ATOM     21  N   LIG d   1       5.893  -5.079  -5.713  0.00  0.00    -0.293 NA
ATOM     22  C   LIG d   1       6.337  -5.192  -7.113  0.00  0.00     0.157 C 
ATOM     23  O   LIG d   1       7.164  -6.353  -7.236  0.00  0.00    -0.473 OA
ATOM     24  H   LIG d   1       5.471  -5.290  -7.765  0.00  0.00     0.091 H 
ATOM     25  H   LIG d   1       6.908  -4.305  -7.388  0.00  0.00     0.091 H 
ATOM     26  C   LIG d   1       6.688  -7.511  -6.708  0.00  0.00     0.131 A 
ATOM     27  C   LIG d   1       5.647  -7.498  -5.796  0.00  0.00     0.054 A 
ATOM     28  C   LIG d   1       7.268  -8.719  -7.100  0.00  0.00    -0.019 A 
ATOM     29  C   LIG d   1       5.007  -6.201  -5.372  0.00  0.00     0.047 C 
ATOM     30  C   LIG d   1       5.177  -8.694  -5.265  0.00  0.00     0.147 A 
ATOM     31  H   LIG d   1       4.839  -6.216  -4.295  0.00  0.00     0.052 H 
ATOM     32  H   LIG d   1       4.055  -6.082  -5.887  0.00  0.00     0.052 H 
ATOM     33  C   LIG d   1       5.767  -9.905  -5.666  0.00  0.00     0.021 A 
ATOM     34  O   LIG d   1       4.165  -8.686  -4.375  0.00  0.00    -0.422 OA
ATOM     35  C   LIG d   1       6.819  -9.901  -6.591  0.00  0.00    -0.047 A 
ATOM     36  C   LIG d   1       5.267 -11.162  -5.104  0.00  0.00    -0.033 A 
ATOM     37  H   LIG d   1       7.272 -10.832  -6.898  0.00  0.00     0.063 H 
ATOM     38  C   LIG d   1       4.244 -11.091  -4.212  0.00  0.00     0.026 A 
ATOM     39  C   LIG d   1       3.710  -9.835  -3.864  0.00  0.00     0.338 A 
ATOM     40  H   LIG d   1       3.843 -11.992  -3.772  0.00  0.00     0.069 H 
ATOM     41  O   LIG d   1       2.793  -9.792  -3.062  0.00  0.00    -0.245 OA
ATOM     42  H   LIG d   1       8.079  -8.717  -7.813  0.00  0.00     0.065 H 
BRANCH  36  43
ATOM     43  C   LIG d   1       5.865 -12.487  -5.500  0.00  0.00    -0.039 C 
ATOM     44  H   LIG d   1       6.478 -12.357  -6.391  0.00  0.00     0.028 H 
ATOM     45  H   LIG d   1       6.482 -12.865  -4.685  0.00  0.00     0.028 H 
ATOM     46  H   LIG d   1       5.065 -13.198  -5.710  0.00  0.00     0.028 H 
ENDBRANCH  36  43
ENDBRANCH  12  21
BRANCH   1  47
ATOM     47  C   LIG d   1       2.905   0.572  -3.899  0.00  0.00     0.021 C 
ATOM     48  H   LIG d   1       2.271   1.395  -4.231  0.00  0.00     0.049 H 
ATOM     49  H   LIG d   1       2.330  -0.091  -3.253  0.00  0.00     0.049 H 
BRANCH  47  50
ATOM     50  C   LIG d   1       4.101   1.130  -3.125  0.00  0.00    -0.047 C 
ATOM     51  H   LIG d   1       4.527   0.344  -2.501  0.00  0.00     0.025 H 
ATOM     52  H   LIG d   1       4.855   1.483  -3.828  0.00  0.00     0.025 H 
ATOM     53  H   LIG d   1       3.774   1.957  -2.496  0.00  0.00     0.025 H 
ENDBRANCH  47  50
ENDBRANCH   1  47
TORSDOF 4
ENDMDL
MODEL 9
REMARK VINA RESULT:      -6.9      8.295     11.242
REMARK  4 active torsions:
REMARK  status: ('A' for Active; 'I' for Inactive)
REMARK    1  A    between atoms: C_1  and  C_2 
REMARK    2  A    between atoms: C_2  and  N_3 
REMARK    3  A    between atoms: C_14  and  N_16 
REMARK    4  A    between atoms: C_28  and  C_29 
ROOT
ATOM      1  N   LIG d   1       3.603  -1.227 -14.437  0.00  0.00    -0.340 N 
ATOM      2  C   LIG d   1       2.476  -1.977 -14.720  0.00  0.00     0.050 A 
ATOM      3  C   LIG d   1       2.023  -2.581 -15.890  0.00  0.00    -0.038 A 
ATOM      4  C   LIG d   1       0.837  -3.285 -15.888  0.00  0.00    -0.060 A 
ATOM      5  C   LIG d   1       0.086  -3.397 -14.728  0.00  0.00    -0.061 A 
ATOM      6  C   LIG d   1       0.518  -2.806 -13.561  0.00  0.00    -0.052 A 
ATOM      7  C   LIG d   1       1.714  -2.091 -13.549  0.00  0.00     0.008 A 
ATOM      8  C   LIG d   1       2.445  -1.356 -12.500  0.00  0.00     0.009 A 
ATOM      9  C   LIG d   1       3.601  -0.844 -13.105  0.00  0.00     0.050 A 
ATOM     10  C   LIG d   1       4.495  -0.095 -12.346  0.00  0.00    -0.036 A 
ATOM     11  C   LIG d   1       4.243   0.140 -11.012  0.00  0.00    -0.039 A 
ATOM     12  C   LIG d   1       3.096  -0.368 -10.410  0.00  0.00     0.033 A 
ATOM     13  C   LIG d   1       2.194  -1.111 -11.152  0.00  0.00    -0.031 A 
ATOM     14  H   LIG d   1       2.601  -2.500 -16.798  0.00  0.00     0.064 H 
ATOM     15  H   LIG d   1       0.490  -3.752 -16.797  0.00  0.00     0.062 H 
ATOM     16  H   LIG d   1      -0.841  -3.951 -14.739  0.00  0.00     0.062 H 
ATOM     17  H   LIG d   1      -0.069  -2.894 -12.658  0.00  0.00     0.062 H 
ATOM     18  H   LIG d   1       5.389   0.304 -12.804  0.00  0.00     0.064 H 
ATOM     19  H   LIG d   1       4.941   0.722 -10.429  0.00  0.00     0.064 H 
ATOM     20  H   LIG d   1       1.303  -1.506 -10.685  0.00  0.00     0.064 H 
ENDROOT
BRANCH  12  21
ATOM     21  N   LIG d   1       2.851  -0.123  -9.054  0.00  0.00    -0.293 NA
ATOM     22  C   LIG d   1       3.023   1.305  -8.736  0.00  0.00     0.157 C 
ATOM     23  O   LIG d   1       2.552   1.535  -7.406  0.00  0.00    -0.473 OA
ATOM     24  H   LIG d   1       4.078   1.570  -8.801  0.00  0.00     0.091 H 
ATOM     25  H   LIG d   1       2.447   1.908  -9.438  0.00  0.00     0.091 H 
ATOM     26  C   LIG d   1       2.996   0.692  -6.437  0.00  0.00     0.131 A 
ATOM     27  C   LIG d   1       3.571  -0.523  -6.765  0.00  0.00     0.054 A 
ATOM     28  C   LIG d   1       2.861   1.071  -5.099  0.00  0.00    -0.019 A 
ATOM     29  C   LIG d   1       3.730  -0.939  -8.204  0.00  0.00     0.047 C 
ATOM     30  C   LIG d   1       4.016  -1.372  -5.758  0.00  0.00     0.147 A 
ATOM     31  H   LIG d   1       3.461  -1.990  -8.309  0.00  0.00     0.052 H 
ATOM     32  H   LIG d   1       4.766  -0.797  -8.511  0.00  0.00     0.052 H 
ATOM     33  C   LIG d   1       3.876  -0.982  -4.415  0.00  0.00     0.021 A 
ATOM     34  O   LIG d   1       4.576  -2.557  -6.073  0.00  0.00    -0.422 OA
ATOM     35  C   LIG d   1       3.293   0.251  -4.099  0.00  0.00    -0.047 A 
ATOM     36  C   LIG d   1       4.348  -1.881  -3.359  0.00  0.00    -0.033 A 
ATOM     37  H   LIG d   1       3.186   0.551  -3.067  0.00  0.00     0.063 H 
ATOM     38  C   LIG d   1       4.904  -3.062  -3.738  0.00  0.00     0.026 A 
ATOM     39  C   LIG d   1       5.006  -3.376  -5.107  0.00  0.00     0.338 A 
ATOM     40  H   LIG d   1       5.265  -3.756  -2.993  0.00  0.00     0.069 H 
ATOM     41  O   LIG d   1       5.507  -4.440  -5.426  0.00  0.00    -0.245 OA
ATOM     42  H   LIG d   1       2.411   2.022  -4.855  0.00  0.00     0.065 H 
BRANCH  36  43
ATOM     43  C   LIG d   1       4.221  -1.511  -1.904  0.00  0.00    -0.039 C 
ATOM     44  H   LIG d   1       4.196  -2.417  -1.299  0.00  0.00     0.028 H 
ATOM     45  H   LIG d   1       5.073  -0.899  -1.609  0.00  0.00     0.028 H 
ATOM     46  H   LIG d   1       3.299  -0.947  -1.752  0.00  0.00     0.028 H 
ENDBRANCH  36  43
ENDBRANCH  12  21
BRANCH   1  47
ATOM     47  C   LIG d   1       4.647  -0.885 -15.406  0.00  0.00     0.021 C 
ATOM     48  H   LIG d   1       5.590  -0.726 -14.883  0.00  0.00     0.049 H 
ATOM     49  H   LIG d   1       4.761  -1.699 -16.121  0.00  0.00     0.049 H 
BRANCH  47  50
ATOM     50  C   LIG d   1       4.255   0.394 -16.148  0.00  0.00    -0.047 C 
ATOM     51  H   LIG d   1       3.271   0.722 -15.811  0.00  0.00     0.025 H 
ATOM     52  H   LIG d   1       4.988   1.174 -15.940  0.00  0.00     0.025 H 
ATOM     53  H   LIG d   1       4.226   0.199 -17.220  0.00  0.00     0.025 H 
ENDBRANCH  47  50
ENDBRANCH   1  47
TORSDOF 4
ENDMDL
MODEL 10
REMARK VINA RESULT:      -6.8      5.856     10.878
REMARK  4 active torsions:
REMARK  status: ('A' for Active; 'I' for Inactive)
REMARK    1  A    between atoms: C_1  and  C_2 
REMARK    2  A    between atoms: C_2  and  N_3 
REMARK    3  A    between atoms: C_14  and  N_16 
REMARK    4  A    between atoms: C_28  and  C_29 
ROOT
ATOM      1  N   LIG d   1       7.410   0.441  -4.024  0.00  0.00    -0.340 N 
ATOM      2  C   LIG d   1       6.230   0.370  -3.307  0.00  0.00     0.050 A 
ATOM      3  C   LIG d   1       5.411   1.349  -2.752  0.00  0.00    -0.038 A 
ATOM      4  C   LIG d   1       4.267   0.988  -2.074  0.00  0.00    -0.060 A 
ATOM      5  C   LIG d   1       3.920  -0.347  -1.936  0.00  0.00    -0.061 A 
ATOM      6  C   LIG d   1       4.718  -1.331  -2.479  0.00  0.00    -0.052 A 
ATOM      7  C   LIG d   1       5.878  -0.980  -3.167  0.00  0.00     0.008 A 
ATOM      8  C   LIG d   1       6.926  -1.761  -3.851  0.00  0.00     0.009 A 
ATOM      9  C   LIG d   1       7.845  -0.832  -4.361  0.00  0.00     0.050 A 
ATOM     10  C   LIG d   1       8.955  -1.286  -5.064  0.00  0.00    -0.036 A 
ATOM     11  C   LIG d   1       9.148  -2.637  -5.256  0.00  0.00    -0.039 A 
ATOM     12  C   LIG d   1       8.237  -3.559  -4.752  0.00  0.00     0.033 A 
ATOM     13  C   LIG d   1       7.128  -3.125  -4.045  0.00  0.00    -0.031 A 
ATOM     14  H   LIG d   1       5.672   2.392  -2.853  0.00  0.00     0.064 H 
ATOM     15  H   LIG d   1       3.635   1.752  -1.644  0.00  0.00     0.062 H 
ATOM     16  H   LIG d   1       3.021  -0.618  -1.403  0.00  0.00     0.062 H 
ATOM     17  H   LIG d   1       4.446  -2.371  -2.371  0.00  0.00     0.062 H 
ATOM     18  H   LIG d   1       9.669  -0.578  -5.460  0.00  0.00     0.064 H 
ATOM     19  H   LIG d   1      10.013  -2.982  -5.804  0.00  0.00     0.064 H 
ATOM     20  H   LIG d   1       6.421  -3.840  -3.653  0.00  0.00     0.064 H 
ENDROOT
BRANCH  12  21
ATOM     21  N   LIG d   1       8.443  -4.929  -4.955  0.00  0.00    -0.293 NA
ATOM     22  C   LIG d   1       7.253  -5.559  -5.552  0.00  0.00     0.157 C 
ATOM     23  O   LIG d   1       7.590  -6.894  -5.939  0.00  0.00    -0.473 OA
ATOM     24  H   LIG d   1       6.446  -5.584  -4.821  0.00  0.00     0.091 H 
ATOM     25  H   LIG d   1       6.940  -4.992  -6.429  0.00  0.00     0.091 H 
ATOM     26  C   LIG d   1       8.224  -7.665  -5.017  0.00  0.00     0.131 A 
ATOM     27  C   LIG d   1       8.829  -7.093  -3.912  0.00  0.00     0.054 A 
ATOM     28  C   LIG d   1       8.258  -9.048  -5.203  0.00  0.00    -0.019 A 
ATOM     29  C   LIG d   1       8.792  -5.601  -3.696  0.00  0.00     0.047 C 
ATOM     30  C   LIG d   1       9.476  -7.899  -2.982  0.00  0.00     0.147 A 
ATOM     31  H   LIG d   1       9.773  -5.260  -3.362  0.00  0.00     0.052 H 
ATOM     32  H   LIG d   1       8.048  -5.363  -2.938  0.00  0.00     0.052 H 
ATOM     33  C   LIG d   1       9.504  -9.290  -3.177  0.00  0.00     0.021 A 
ATOM     34  O   LIG d   1      10.068  -7.346  -1.905  0.00  0.00    -0.422 OA
ATOM     35  C   LIG d   1       8.886  -9.854  -4.300  0.00  0.00    -0.047 A 
ATOM     36  C   LIG d   1      10.185 -10.134  -2.193  0.00  0.00    -0.033 A 
ATOM     37  H   LIG d   1       8.908 -10.923  -4.450  0.00  0.00     0.063 H 
ATOM     38  C   LIG d   1      10.764  -9.520  -1.128  0.00  0.00     0.026 A 
ATOM     39  C   LIG d   1      10.690  -8.118  -1.008  0.00  0.00     0.338 A 
ATOM     40  H   LIG d   1      11.277 -10.102  -0.377  0.00  0.00     0.069 H 
ATOM     41  O   LIG d   1      11.215  -7.587  -0.045  0.00  0.00    -0.245 OA
ATOM     42  H   LIG d   1       7.782  -9.484  -6.069  0.00  0.00     0.065 H 
BRANCH  36  43
ATOM     43  C   LIG d   1      10.245 -11.631  -2.356  0.00  0.00    -0.039 C 
ATOM     44  H   LIG d   1      11.133 -12.016  -1.855  0.00  0.00     0.028 H 
ATOM     45  H   LIG d   1       9.355 -12.080  -1.918  0.00  0.00     0.028 H 
ATOM     46  H   LIG d   1      10.292 -11.879  -3.418  0.00  0.00     0.028 H 
ENDBRANCH  36  43
ENDBRANCH  12  21
BRANCH   1  47
ATOM     47  C   LIG d   1       8.103   1.683  -4.377  0.00  0.00     0.021 C 
ATOM     48  H   LIG d   1       7.620   2.523  -3.879  0.00  0.00     0.049 H 
ATOM     49  H   LIG d   1       9.144   1.621  -4.059  0.00  0.00     0.049 H 
BRANCH  47  50
ATOM     50  C   LIG d   1       8.044   1.886  -5.892  0.00  0.00    -0.047 C 
ATOM     51  H   LIG d   1       8.008   2.953  -6.114  0.00  0.00     0.025 H 
ATOM     52  H   LIG d   1       8.930   1.449  -6.353  0.00  0.00     0.025 H 
ATOM     53  H   LIG d   1       7.152   1.402  -6.289  0.00  0.00     0.025 H 
ENDBRANCH  47  50
ENDBRANCH   1  47
TORSDOF 4
ENDMDL
