MODEL 1
REMARK VINA RESULT:      -4.3      0.000      0.000
REMARK  6 active torsions:
REMARK  status: ('A' for Active; 'I' for Inactive)
REMARK    1  A    between atoms: C_1  and  N_2 
REMARK    2  A    between atoms: N_2  and  C_16 
REMARK    3  A    between atoms: C_7  and  O_14 
REMARK    4  A    between atoms: C_8  and  O_12 
REMARK    5  A    between atoms: O_12  and  C_13 
REMARK    6  A    between atoms: O_14  and  C_15 
ROOT
ATOM      1  N   LIG d   1       4.086  -0.677  -3.247  0.00  0.00     0.242 N 
ATOM      2  C   LIG d   1       2.637  -0.647  -3.496  0.00  0.00    -0.026 C 
ATOM      3  C   LIG d   1       2.357   0.340  -4.629  0.00  0.00     0.013 C 
ATOM      4  C   LIG d   1       3.246   0.032  -5.805  0.00  0.00    -0.030 A 
ATOM      5  C   LIG d   1       2.922   0.571  -7.042  0.00  0.00    -0.013 A 
ATOM      6  C   LIG d   1       3.716   0.315  -8.145  0.00  0.00     0.162 A 
ATOM      7  C   LIG d   1       4.845  -0.488  -8.012  0.00  0.00     0.162 A 
ATOM      8  C   LIG d   1       5.163  -1.024  -6.777  0.00  0.00    -0.008 A 
ATOM      9  C   LIG d   1       4.363  -0.767  -5.673  0.00  0.00     0.004 A 
ATOM     10  C   LIG d   1       4.746  -1.379  -4.351  0.00  0.00    -0.004 C 
ATOM     11  H   LIG d   1       2.295  -1.642  -3.783  0.00  0.00     0.082 H 
ATOM     12  H   LIG d   1       2.117  -0.327  -2.593  0.00  0.00     0.082 H 
ATOM     13  H   LIG d   1       1.313   0.256  -4.932  0.00  0.00     0.036 H 
ATOM     14  H   LIG d   1       2.551   1.354  -4.282  0.00  0.00     0.036 H 
ATOM     15  H   LIG d   1       2.045   1.194  -7.143  0.00  0.00     0.066 H 
ATOM     16  H   LIG d   1       6.039  -1.647  -6.672  0.00  0.00     0.066 H 
ATOM     17  H   LIG d   1       5.827  -1.315  -4.224  0.00  0.00     0.087 H 
ATOM     18  H   LIG d   1       4.446  -2.427  -4.340  0.00  0.00     0.087 H 
ENDROOT
BRANCH   1  19
ATOM     19  C   LIG d   1       4.598   0.698  -3.163  0.00  0.00    -0.041 C 
ATOM     20  H   LIG d   1       5.503   0.786  -3.765  0.00  0.00     0.078 H 
ATOM     21  H   LIG d   1       3.844   1.390  -3.537  0.00  0.00     0.078 H 
ATOM     22  H   LIG d   1       4.828   0.937  -2.124  0.00  0.00     0.078 H 
ENDBRANCH   1  19
BRANCH   1  23
ATOM     23  C   LIG d   1       4.357  -1.379  -1.986  0.00  0.00    -0.041 C 
ATOM     24  H   LIG d   1       3.524  -1.228  -1.299  0.00  0.00     0.078 H 
ATOM     25  H   LIG d   1       4.476  -2.445  -2.182  0.00  0.00     0.078 H 
ATOM     26  H   LIG d   1       5.271  -0.988  -1.540  0.00  0.00     0.078 H 
ENDBRANCH   1  23
BRANCH   7  27
ATOM     27  O   LIG d   1       5.631  -0.744  -9.090  0.00  0.00    -0.491 OA
BRANCH  27  28
ATOM     28  C   LIG d   1       6.858  -0.017  -9.186  0.00  0.00     0.079 C 
ATOM     29  H   LIG d   1       7.615  -0.497  -8.564  0.00  0.00     0.066 H 
ATOM     30  H   LIG d   1       7.194  -0.006 -10.223  0.00  0.00     0.066 H 
ATOM     31  H   LIG d   1       6.702   1.005  -8.843  0.00  0.00     0.066 H 
ENDBRANCH  27  28
ENDBRANCH   7  27
BRANCH   6  32
ATOM     32  O   LIG d   1       3.394   0.844  -9.356  0.00  0.00    -0.491 OA
BRANCH  32  33
ATOM     33  C   LIG d   1       3.702   2.224  -9.564  0.00  0.00     0.079 C 
ATOM     34  H   LIG d   1       3.661   2.450 -10.629  0.00  0.00     0.066 H 
ATOM     35  H   LIG d   1       2.978   2.843  -9.033  0.00  0.00     0.066 H 
ATOM     36  H   LIG d   1       4.703   2.433  -9.187  0.00  0.00     0.066 H 
ENDBRANCH  32  33
ENDBRANCH   6  32
TORSDOF 6
ENDMDL
MODEL 2
REMARK VINA RESULT:      -4.2      2.915      5.123
REMARK  6 active torsions:
REMARK  status: ('A' for Active; 'I' for Inactive)
REMARK    1  A    between atoms: C_1  and  N_2 
REMARK    2  A    between atoms: N_2  and  C_16 
REMARK    3  A    between atoms: C_7  and  O_14 
REMARK    4  A    between atoms: C_8  and  O_12 
REMARK    5  A    between atoms: O_12  and  C_13 
REMARK    6  A    between atoms: O_14  and  C_15 
ROOT
ATOM      1  N   LIG d   1       3.761  -0.681  -9.384  0.00  0.00     0.242 N 
ATOM      2  C   LIG d   1       3.565   0.758  -9.147  0.00  0.00    -0.026 C 
ATOM      3  C   LIG d   1       2.697   0.932  -7.900  0.00  0.00     0.013 C 
ATOM      4  C   LIG d   1       3.267   0.123  -6.764  0.00  0.00    -0.030 A 
ATOM      5  C   LIG d   1       2.846   0.405  -5.473  0.00  0.00    -0.013 A 
ATOM      6  C   LIG d   1       3.343  -0.319  -4.403  0.00  0.00     0.162 A 
ATOM      7  C   LIG d   1       4.270  -1.333  -4.627  0.00  0.00     0.162 A 
ATOM      8  C   LIG d   1       4.687  -1.608  -5.917  0.00  0.00    -0.008 A 
ATOM      9  C   LIG d   1       4.188  -0.880  -6.986  0.00  0.00     0.004 A 
ATOM     10  C   LIG d   1       4.678  -1.211  -8.371  0.00  0.00    -0.004 C 
ATOM     11  H   LIG d   1       4.531   1.237  -8.991  0.00  0.00     0.082 H 
ATOM     12  H   LIG d   1       3.066   1.205 -10.006  0.00  0.00     0.082 H 
ATOM     13  H   LIG d   1       2.674   1.985  -7.620  0.00  0.00     0.036 H 
ATOM     14  H   LIG d   1       1.684   0.593  -8.115  0.00  0.00     0.036 H 
ATOM     15  H   LIG d   1       2.127   1.191  -5.302  0.00  0.00     0.066 H 
ATOM     16  H   LIG d   1       5.407  -2.395  -6.091  0.00  0.00     0.066 H 
ATOM     17  H   LIG d   1       4.747  -2.294  -8.480  0.00  0.00     0.087 H 
ATOM     18  H   LIG d   1       5.666  -0.773  -8.518  0.00  0.00     0.087 H 
ENDROOT
BRANCH   1  19
ATOM     19  C   LIG d   1       2.470  -1.375  -9.289  0.00  0.00    -0.041 C 
ATOM     20  H   LIG d   1       2.321  -1.727  -8.268  0.00  0.00     0.078 H 
ATOM     21  H   LIG d   1       1.667  -0.688  -9.557  0.00  0.00     0.078 H 
ATOM     22  H   LIG d   1       2.464  -2.226  -9.971  0.00  0.00     0.078 H 
ENDBRANCH   1  19
BRANCH   1  23
ATOM     23  C   LIG d   1       4.332  -0.888 -10.721  0.00  0.00    -0.041 C 
ATOM     24  H   LIG d   1       3.573  -1.311 -11.380  0.00  0.00     0.078 H 
ATOM     25  H   LIG d   1       4.670   0.067 -11.124  0.00  0.00     0.078 H 
ATOM     26  H   LIG d   1       5.178  -1.573 -10.654  0.00  0.00     0.078 H 
ENDBRANCH   1  23
BRANCH   7  27
ATOM     27  O   LIG d   1       4.763  -2.049  -3.582  0.00  0.00    -0.491 OA
BRANCH  27  28
ATOM     28  C   LIG d   1       6.125  -1.811  -3.219  0.00  0.00     0.079 C 
ATOM     29  H   LIG d   1       6.278  -0.743  -3.060  0.00  0.00     0.066 H 
ATOM     30  H   LIG d   1       6.355  -2.351  -2.300  0.00  0.00     0.066 H 
ATOM     31  H   LIG d   1       6.780  -2.156  -4.018  0.00  0.00     0.066 H 
ENDBRANCH  27  28
ENDBRANCH   7  27
BRANCH   6  32
ATOM     32  O   LIG d   1       2.928  -0.039  -3.138  0.00  0.00    -0.491 OA
BRANCH  32  33
ATOM     33  C   LIG d   1       3.575   1.046  -2.469  0.00  0.00     0.079 C 
ATOM     34  H   LIG d   1       4.541   1.238  -2.938  0.00  0.00     0.066 H 
ATOM     35  H   LIG d   1       2.954   1.938  -2.537  0.00  0.00     0.066 H 
ATOM     36  H   LIG d   1       3.726   0.788  -1.421  0.00  0.00     0.066 H 
ENDBRANCH  32  33
ENDBRANCH   6  32
TORSDOF 6
ENDMDL
MODEL 3
REMARK VINA RESULT:      -4.2      8.572     10.201
REMARK  6 active torsions:
REMARK  status: ('A' for Active; 'I' for Inactive)
REMARK    1  A    between atoms: C_1  and  N_2 
REMARK    2  A    between atoms: N_2  and  C_16 
REMARK    3  A    between atoms: C_7  and  O_14 
REMARK    4  A    between atoms: C_8  and  O_12 
REMARK    5  A    between atoms: O_12  and  C_13 
REMARK    6  A    between atoms: O_14  and  C_15 
ROOT
ATOM      1  N   LIG d   1      10.638   3.018  -4.032  0.00  0.00     0.242 N 
ATOM      2  C   LIG d   1      10.529   4.089  -5.035  0.00  0.00    -0.026 C 
ATOM      3  C   LIG d   1       9.510   5.117  -4.543  0.00  0.00     0.013 C 
ATOM      4  C   LIG d   1       9.843   5.531  -3.133  0.00  0.00    -0.030 A 
ATOM      5  C   LIG d   1       9.267   6.688  -2.628  0.00  0.00    -0.013 A 
ATOM      6  C   LIG d   1       9.545   7.100  -1.337  0.00  0.00     0.162 A 
ATOM      7  C   LIG d   1      10.407   6.349  -0.543  0.00  0.00     0.162 A 
ATOM      8  C   LIG d   1      10.980   5.198  -1.053  0.00  0.00    -0.008 A 
ATOM      9  C   LIG d   1      10.701   4.789  -2.348  0.00  0.00     0.004 A 
ATOM     10  C   LIG d   1      11.354   3.532  -2.861  0.00  0.00    -0.004 C 
ATOM     11  H   LIG d   1      11.500   4.569  -5.164  0.00  0.00     0.082 H 
ATOM     12  H   LIG d   1      10.197   3.669  -5.984  0.00  0.00     0.082 H 
ATOM     13  H   LIG d   1       9.534   5.991  -5.193  0.00  0.00     0.036 H 
ATOM     14  H   LIG d   1       8.513   4.677  -4.566  0.00  0.00     0.036 H 
ATOM     15  H   LIG d   1       8.598   7.269  -3.245  0.00  0.00     0.066 H 
ATOM     16  H   LIG d   1      11.649   4.614  -0.438  0.00  0.00     0.066 H 
ATOM     17  H   LIG d   1      11.348   2.777  -2.076  0.00  0.00     0.087 H 
ATOM     18  H   LIG d   1      12.385   3.751  -3.140  0.00  0.00     0.087 H 
ENDROOT
BRANCH   1  19
ATOM     19  C   LIG d   1       9.293   2.581  -3.633  0.00  0.00    -0.041 C 
ATOM     20  H   LIG d   1       8.978   3.137  -2.749  0.00  0.00     0.078 H 
ATOM     21  H   LIG d   1       8.594   2.768  -4.447  0.00  0.00     0.078 H 
ATOM     22  H   LIG d   1       9.311   1.516  -3.405  0.00  0.00     0.078 H 
ENDBRANCH   1  19
BRANCH   1  23
ATOM     23  C   LIG d   1      11.375   1.882  -4.600  0.00  0.00    -0.041 C 
ATOM     24  H   LIG d   1      10.669   1.127  -4.946  0.00  0.00     0.078 H 
ATOM     25  H   LIG d   1      11.981   2.225  -5.439  0.00  0.00     0.078 H 
ATOM     26  H   LIG d   1      12.023   1.451  -3.837  0.00  0.00     0.078 H 
ENDBRANCH   1  23
BRANCH   7  27
ATOM     27  O   LIG d   1      10.686   6.746   0.727  0.00  0.00    -0.491 OA
BRANCH  27  28
ATOM     28  C   LIG d   1      11.000   5.721   1.672  0.00  0.00     0.079 C 
ATOM     29  H   LIG d   1      11.809   5.102   1.281  0.00  0.00     0.066 H 
ATOM     30  H   LIG d   1      11.313   6.177   2.611  0.00  0.00     0.066 H 
ATOM     31  H   LIG d   1      10.120   5.102   1.843  0.00  0.00     0.066 H 
ENDBRANCH  27  28
ENDBRANCH   7  27
BRANCH   6  32
ATOM     32  O   LIG d   1       8.979   8.235  -0.846  0.00  0.00    -0.491 OA
BRANCH  32  33
ATOM     33  C   LIG d   1       9.518   9.478  -1.301  0.00  0.00     0.079 C 
ATOM     34  H   LIG d   1       9.787   9.393  -2.354  0.00  0.00     0.066 H 
ATOM     35  H   LIG d   1       8.773  10.264  -1.178  0.00  0.00     0.066 H 
ATOM     36  H   LIG d   1      10.405   9.724  -0.718  0.00  0.00     0.066 H 
ENDBRANCH  32  33
ENDBRANCH   6  32
TORSDOF 6
ENDMDL
MODEL 4
REMARK VINA RESULT:      -4.2      1.563      2.976
REMARK  6 active torsions:
REMARK  status: ('A' for Active; 'I' for Inactive)
REMARK    1  A    between atoms: C_1  and  N_2 
REMARK    2  A    between atoms: N_2  and  C_16 
REMARK    3  A    between atoms: C_7  and  O_14 
REMARK    4  A    between atoms: C_8  and  O_12 
REMARK    5  A    between atoms: O_12  and  C_13 
REMARK    6  A    between atoms: O_14  and  C_15 
ROOT
ATOM      1  N   LIG d   1       4.380  -0.553  -2.955  0.00  0.00     0.242 N 
ATOM      2  C   LIG d   1       5.685  -1.101  -3.354  0.00  0.00    -0.026 C 
ATOM      3  C   LIG d   1       5.464  -2.119  -4.474  0.00  0.00     0.013 C 
ATOM      4  C   LIG d   1       4.618  -1.507  -5.560  0.00  0.00    -0.030 A 
ATOM      5  C   LIG d   1       4.588  -2.122  -6.803  0.00  0.00    -0.013 A 
ATOM      6  C   LIG d   1       3.820  -1.593  -7.825  0.00  0.00     0.162 A 
ATOM      7  C   LIG d   1       3.076  -0.438  -7.603  0.00  0.00     0.162 A 
ATOM      8  C   LIG d   1       3.112   0.172  -6.362  0.00  0.00    -0.008 A 
ATOM      9  C   LIG d   1       3.884  -0.360  -5.340  0.00  0.00     0.004 A 
ATOM     10  C   LIG d   1       3.896   0.344  -4.009  0.00  0.00    -0.004 C 
ATOM     11  H   LIG d   1       6.326  -0.295  -3.712  0.00  0.00     0.082 H 
ATOM     12  H   LIG d   1       6.153  -1.591  -2.500  0.00  0.00     0.082 H 
ATOM     13  H   LIG d   1       6.428  -2.415  -4.888  0.00  0.00     0.036 H 
ATOM     14  H   LIG d   1       4.960  -2.996  -4.071  0.00  0.00     0.036 H 
ATOM     15  H   LIG d   1       5.166  -3.018  -6.973  0.00  0.00     0.066 H 
ATOM     16  H   LIG d   1       2.534   1.068  -6.188  0.00  0.00     0.066 H 
ATOM     17  H   LIG d   1       2.886   0.672  -3.765  0.00  0.00     0.087 H 
ATOM     18  H   LIG d   1       4.551   1.213  -4.068  0.00  0.00     0.087 H 
ENDROOT
BRANCH   1  19
ATOM     19  C   LIG d   1       3.422  -1.651  -2.766  0.00  0.00    -0.041 C 
ATOM     20  H   LIG d   1       3.243  -1.798  -1.701  0.00  0.00     0.078 H 
ATOM     21  H   LIG d   1       2.484  -1.404  -3.262  0.00  0.00     0.078 H 
ATOM     22  H   LIG d   1       3.831  -2.566  -3.196  0.00  0.00     0.078 H 
ENDBRANCH   1  19
BRANCH   1  23
ATOM     23  C   LIG d   1       4.521   0.196  -1.699  0.00  0.00    -0.041 C 
ATOM     24  H   LIG d   1       5.184  -0.347  -1.025  0.00  0.00     0.078 H 
ATOM     25  H   LIG d   1       4.942   1.179  -1.908  0.00  0.00     0.078 H 
ATOM     26  H   LIG d   1       3.544   0.312  -1.232  0.00  0.00     0.078 H 
ENDBRANCH   1  23
BRANCH   7  27
ATOM     27  O   LIG d   1       2.318   0.088  -8.601  0.00  0.00    -0.491 OA
BRANCH  27  28
ATOM     28  C   LIG d   1       2.662   1.399  -9.053  0.00  0.00     0.079 C 
ATOM     29  H   LIG d   1       2.834   2.047  -8.193  0.00  0.00     0.066 H 
ATOM     30  H   LIG d   1       3.568   1.349  -9.658  0.00  0.00     0.066 H 
ATOM     31  H   LIG d   1       1.846   1.803  -9.653  0.00  0.00     0.066 H 
ENDBRANCH  27  28
ENDBRANCH   7  27
BRANCH   6  32
ATOM     32  O   LIG d   1       3.794  -2.199  -9.043  0.00  0.00    -0.491 OA
BRANCH  32  33
ATOM     33  C   LIG d   1       3.405  -3.574  -9.076  0.00  0.00     0.079 C 
ATOM     34  H   LIG d   1       2.376  -3.651  -9.427  0.00  0.00     0.066 H 
ATOM     35  H   LIG d   1       4.061  -4.122  -9.751  0.00  0.00     0.066 H 
ATOM     36  H   LIG d   1       3.479  -3.996  -8.074  0.00  0.00     0.066 H 
ENDBRANCH  32  33
ENDBRANCH   6  32
TORSDOF 6
ENDMDL
MODEL 5
REMARK VINA RESULT:      -4.1      2.644      4.021
REMARK  6 active torsions:
REMARK  status: ('A' for Active; 'I' for Inactive)
REMARK    1  A    between atoms: C_1  and  N_2 
REMARK    2  A    between atoms: N_2  and  C_16 
REMARK    3  A    between atoms: C_7  and  O_14 
REMARK    4  A    between atoms: C_8  and  O_12 
REMARK    5  A    between atoms: O_12  and  C_13 
REMARK    6  A    between atoms: O_14  and  C_15 
ROOT
ATOM      1  N   LIG d   1       4.112   0.077  -2.895  0.00  0.00     0.242 N 
ATOM      2  C   LIG d   1       4.309  -1.022  -1.937  0.00  0.00    -0.026 C 
ATOM      3  C   LIG d   1       3.918  -2.335  -2.615  0.00  0.00     0.013 C 
ATOM      4  C   LIG d   1       4.619  -2.452  -3.944  0.00  0.00    -0.030 A 
ATOM      5  C   LIG d   1       4.679  -3.696  -4.554  0.00  0.00    -0.013 A 
ATOM      6  C   LIG d   1       5.310  -3.844  -5.777  0.00  0.00     0.162 A 
ATOM      7  C   LIG d   1       5.886  -2.738  -6.394  0.00  0.00     0.162 A 
ATOM      8  C   LIG d   1       5.825  -1.500  -5.780  0.00  0.00    -0.008 A 
ATOM      9  C   LIG d   1       5.192  -1.356  -4.553  0.00  0.00     0.004 A 
ATOM     10  C   LIG d   1       5.157   0.010  -3.920  0.00  0.00    -0.004 C 
ATOM     11  H   LIG d   1       5.357  -1.062  -1.637  0.00  0.00     0.082 H 
ATOM     12  H   LIG d   1       3.682  -0.860  -1.061  0.00  0.00     0.082 H 
ATOM     13  H   LIG d   1       4.207  -3.171  -1.978  0.00  0.00     0.036 H 
ATOM     14  H   LIG d   1       2.840  -2.355  -2.770  0.00  0.00     0.036 H 
ATOM     15  H   LIG d   1       4.231  -4.553  -4.073  0.00  0.00     0.066 H 
ATOM     16  H   LIG d   1       6.271  -0.641  -6.258  0.00  0.00     0.066 H 
ATOM     17  H   LIG d   1       4.957   0.758  -4.688  0.00  0.00     0.087 H 
ATOM     18  H   LIG d   1       6.124   0.218  -3.461  0.00  0.00     0.087 H 
ENDROOT
BRANCH   1  19
ATOM     19  C   LIG d   1       2.793  -0.054  -3.529  0.00  0.00    -0.041 C 
ATOM     20  H   LIG d   1       2.665  -1.074  -3.892  0.00  0.00     0.078 H 
ATOM     21  H   LIG d   1       2.015   0.172  -2.800  0.00  0.00     0.078 H 
ATOM     22  H   LIG d   1       2.721   0.641  -4.365  0.00  0.00     0.078 H 
ENDBRANCH   1  19
BRANCH   1  23
ATOM     23  C   LIG d   1       4.193   1.365  -2.194  0.00  0.00    -0.041 C 
ATOM     24  H   LIG d   1       4.164   1.195  -1.117  0.00  0.00     0.078 H 
ATOM     25  H   LIG d   1       5.127   1.864  -2.457  0.00  0.00     0.078 H 
ATOM     26  H   LIG d   1       3.352   1.993  -2.486  0.00  0.00     0.078 H 
ENDBRANCH   1  23
BRANCH   7  27
ATOM     27  O   LIG d   1       6.508  -2.874  -7.596  0.00  0.00    -0.491 OA
BRANCH  27  28
ATOM     28  C   LIG d   1       5.791  -2.431  -8.750  0.00  0.00     0.079 C 
ATOM     29  H   LIG d   1       6.372  -2.653  -9.646  0.00  0.00     0.066 H 
ATOM     30  H   LIG d   1       4.832  -2.947  -8.802  0.00  0.00     0.066 H 
ATOM     31  H   LIG d   1       5.623  -1.357  -8.684  0.00  0.00     0.066 H 
ENDBRANCH  27  28
ENDBRANCH   7  27
BRANCH   6  32
ATOM     32  O   LIG d   1       5.368  -5.066  -6.372  0.00  0.00    -0.491 OA
BRANCH  32  33
ATOM     33  C   LIG d   1       4.673  -6.136  -5.726  0.00  0.00     0.079 C 
ATOM     34  H   LIG d   1       3.629  -6.131  -6.039  0.00  0.00     0.066 H 
ATOM     35  H   LIG d   1       5.131  -7.085  -6.002  0.00  0.00     0.066 H 
ATOM     36  H   LIG d   1       4.729  -6.005  -4.646  0.00  0.00     0.066 H 
ENDBRANCH  32  33
ENDBRANCH   6  32
TORSDOF 6
ENDMDL
MODEL 6
REMARK VINA RESULT:      -4.0      3.503      4.845
REMARK  6 active torsions:
REMARK  status: ('A' for Active; 'I' for Inactive)
REMARK    1  A    between atoms: C_1  and  N_2 
REMARK    2  A    between atoms: N_2  and  C_16 
REMARK    3  A    between atoms: C_7  and  O_14 
REMARK    4  A    between atoms: C_8  and  O_12 
REMARK    5  A    between atoms: O_12  and  C_13 
REMARK    6  A    between atoms: O_14  and  C_15 
ROOT
ATOM      1  N   LIG d   1       4.158   0.256  -2.997  0.00  0.00     0.242 N 
ATOM      2  C   LIG d   1       3.935  -0.969  -2.212  0.00  0.00    -0.026 C 
ATOM      3  C   LIG d   1       4.303  -2.175  -3.077  0.00  0.00     0.013 C 
ATOM      4  C   LIG d   1       5.677  -1.981  -3.665  0.00  0.00    -0.030 A 
ATOM      5  C   LIG d   1       6.337  -3.084  -4.187  0.00  0.00    -0.013 A 
ATOM      6  C   LIG d   1       7.598  -2.946  -4.740  0.00  0.00     0.162 A 
ATOM      7  C   LIG d   1       8.204  -1.693  -4.771  0.00  0.00     0.162 A 
ATOM      8  C   LIG d   1       7.542  -0.597  -4.248  0.00  0.00    -0.008 A 
ATOM      9  C   LIG d   1       6.279  -0.740  -3.693  0.00  0.00     0.004 A 
ATOM     10  C   LIG d   1       5.600   0.481  -3.129  0.00  0.00    -0.004 C 
ATOM     11  H   LIG d   1       4.562  -0.952  -1.321  0.00  0.00     0.082 H 
ATOM     12  H   LIG d   1       2.886  -1.032  -1.923  0.00  0.00     0.082 H 
ATOM     13  H   LIG d   1       4.296  -3.076  -2.463  0.00  0.00     0.036 H 
ATOM     14  H   LIG d   1       3.575  -2.280  -3.881  0.00  0.00     0.036 H 
ATOM     15  H   LIG d   1       5.864  -4.054  -4.162  0.00  0.00     0.066 H 
ATOM     16  H   LIG d   1       8.012   0.375  -4.272  0.00  0.00     0.066 H 
ATOM     17  H   LIG d   1       5.772   1.328  -3.794  0.00  0.00     0.087 H 
ATOM     18  H   LIG d   1       6.020   0.704  -2.148  0.00  0.00     0.087 H 
ENDROOT
BRANCH   1  19
ATOM     19  C   LIG d   1       3.560   0.101  -4.330  0.00  0.00    -0.041 C 
ATOM     20  H   LIG d   1       3.496  -0.959  -4.578  0.00  0.00     0.078 H 
ATOM     21  H   LIG d   1       2.561   0.536  -4.332  0.00  0.00     0.078 H 
ATOM     22  H   LIG d   1       4.181   0.611  -5.067  0.00  0.00     0.078 H 
ENDBRANCH   1  19
BRANCH   1  23
ATOM     23  C   LIG d   1       3.543   1.400  -2.312  0.00  0.00    -0.041 C 
ATOM     24  H   LIG d   1       3.333   1.133  -1.276  0.00  0.00     0.078 H 
ATOM     25  H   LIG d   1       4.226   2.249  -2.337  0.00  0.00     0.078 H 
ATOM     26  H   LIG d   1       2.613   1.667  -2.814  0.00  0.00     0.078 H 
ENDBRANCH   1  23
BRANCH   7  27
ATOM     27  O   LIG d   1       9.442  -1.548  -5.313  0.00  0.00    -0.491 OA
BRANCH  27  28
ATOM     28  C   LIG d   1       9.547  -0.736  -6.484  0.00  0.00     0.079 C 
ATOM     29  H   LIG d   1       9.994   0.224  -6.222  0.00  0.00     0.066 H 
ATOM     30  H   LIG d   1      10.173  -1.239  -7.221  0.00  0.00     0.066 H 
ATOM     31  H   LIG d   1       8.554  -0.571  -6.902  0.00  0.00     0.066 H 
ENDBRANCH  27  28
ENDBRANCH   7  27
BRANCH   6  32
ATOM     32  O   LIG d   1       8.242  -4.030  -5.250  0.00  0.00    -0.491 OA
BRANCH  32  33
ATOM     33  C   LIG d   1       8.779  -4.966  -4.312  0.00  0.00     0.079 C 
ATOM     34  H   LIG d   1       7.967  -5.544  -3.871  0.00  0.00     0.066 H 
ATOM     35  H   LIG d   1       9.468  -5.638  -4.822  0.00  0.00     0.066 H 
ATOM     36  H   LIG d   1       9.309  -4.429  -3.526  0.00  0.00     0.066 H 
ENDBRANCH  32  33
ENDBRANCH   6  32
TORSDOF 6
ENDMDL
MODEL 7
REMARK VINA RESULT:      -3.9      8.849     10.745
REMARK  6 active torsions:
REMARK  status: ('A' for Active; 'I' for Inactive)
REMARK    1  A    between atoms: C_1  and  N_2 
REMARK    2  A    between atoms: N_2  and  C_16 
REMARK    3  A    between atoms: C_7  and  O_14 
REMARK    4  A    between atoms: C_8  and  O_12 
REMARK    5  A    between atoms: O_12  and  C_13 
REMARK    6  A    between atoms: O_14  and  C_15 
ROOT
ATOM      1  N   LIG d   1      10.145   4.718  -5.243  0.00  0.00     0.242 N 
ATOM      2  C   LIG d   1       9.601   3.664  -4.372  0.00  0.00    -0.026 C 
ATOM      3  C   LIG d   1      10.280   3.763  -3.005  0.00  0.00     0.013 C 
ATOM      4  C   LIG d   1      10.200   5.180  -2.497  0.00  0.00    -0.030 A 
ATOM      5  C   LIG d   1      10.438   5.416  -1.151  0.00  0.00    -0.013 A 
ATOM      6  C   LIG d   1      10.379   6.703  -0.647  0.00  0.00     0.162 A 
ATOM      7  C   LIG d   1      10.078   7.764  -1.496  0.00  0.00     0.162 A 
ATOM      8  C   LIG d   1       9.839   7.522  -2.837  0.00  0.00    -0.008 A 
ATOM      9  C   LIG d   1       9.899   6.230  -3.339  0.00  0.00     0.004 A 
ATOM     10  C   LIG d   1       9.624   6.016  -4.804  0.00  0.00    -0.004 C 
ATOM     11  H   LIG d   1       8.526   3.804  -4.258  0.00  0.00     0.082 H 
ATOM     12  H   LIG d   1       9.802   2.688  -4.811  0.00  0.00     0.082 H 
ATOM     13  H   LIG d   1       9.778   3.098  -2.303  0.00  0.00     0.036 H 
ATOM     14  H   LIG d   1      11.325   3.469  -3.098  0.00  0.00     0.036 H 
ATOM     15  H   LIG d   1      10.672   4.591  -0.494  0.00  0.00     0.066 H 
ATOM     16  H   LIG d   1       9.606   8.345  -3.497  0.00  0.00     0.066 H 
ATOM     17  H   LIG d   1      10.103   6.809  -5.380  0.00  0.00     0.087 H 
ATOM     18  H   LIG d   1       8.548   6.047  -4.977  0.00  0.00     0.087 H 
ENDROOT
BRANCH   1  19
ATOM     19  C   LIG d   1      11.612   4.721  -5.153  0.00  0.00    -0.041 C 
ATOM     20  H   LIG d   1      11.922   4.181  -4.258  0.00  0.00     0.078 H 
ATOM     21  H   LIG d   1      12.031   4.235  -6.034  0.00  0.00     0.078 H 
ATOM     22  H   LIG d   1      11.970   5.749  -5.100  0.00  0.00     0.078 H 
ENDBRANCH   1  19
BRANCH   1  23
ATOM     23  C   LIG d   1       9.739   4.469  -6.632  0.00  0.00    -0.041 C 
ATOM     24  H   LIG d   1      10.617   4.224  -7.229  0.00  0.00     0.078 H 
ATOM     25  H   LIG d   1       9.036   3.637  -6.662  0.00  0.00     0.078 H 
ATOM     26  H   LIG d   1       9.262   5.362  -7.037  0.00  0.00     0.078 H 
ENDBRANCH   1  23
BRANCH   7  27
ATOM     27  O   LIG d   1      10.017   9.031  -1.010  0.00  0.00    -0.491 OA
BRANCH  27  28
ATOM     28  C   LIG d   1       8.717   9.577  -0.780  0.00  0.00     0.079 C 
ATOM     29  H   LIG d   1       8.598   9.799   0.281  0.00  0.00     0.066 H 
ATOM     30  H   LIG d   1       8.599  10.493  -1.359  0.00  0.00     0.066 H 
ATOM     31  H   LIG d   1       7.960   8.854  -1.086  0.00  0.00     0.066 H 
ENDBRANCH  27  28
ENDBRANCH   7  27
BRANCH   6  32
ATOM     32  O   LIG d   1      10.612   6.930   0.674  0.00  0.00    -0.491 OA
BRANCH  32  33
ATOM     33  C   LIG d   1      11.054   5.818   1.455  0.00  0.00     0.079 C 
ATOM     34  H   LIG d   1      10.952   6.055   2.515  0.00  0.00     0.066 H 
ATOM     35  H   LIG d   1      10.448   4.944   1.219  0.00  0.00     0.066 H 
ATOM     36  H   LIG d   1      12.099   5.608   1.229  0.00  0.00     0.066 H 
ENDBRANCH  32  33
ENDBRANCH   6  32
TORSDOF 6
ENDMDL
MODEL 8
REMARK VINA RESULT:      -3.9      3.985      6.265
REMARK  6 active torsions:
REMARK  status: ('A' for Active; 'I' for Inactive)
REMARK    1  A    between atoms: C_1  and  N_2 
REMARK    2  A    between atoms: N_2  and  C_16 
REMARK    3  A    between atoms: C_7  and  O_14 
REMARK    4  A    between atoms: C_8  and  O_12 
REMARK    5  A    between atoms: O_12  and  C_13 
REMARK    6  A    between atoms: O_14  and  C_15 
ROOT
ATOM      1  N   LIG d   1       1.220  -2.449 -11.667  0.00  0.00     0.242 N 
ATOM      2  C   LIG d   1       2.515  -2.464 -12.366  0.00  0.00    -0.026 C 
ATOM      3  C   LIG d   1       3.069  -1.039 -12.396  0.00  0.00     0.013 C 
ATOM      4  C   LIG d   1       3.048  -0.454 -11.008  0.00  0.00    -0.030 A 
ATOM      5  C   LIG d   1       3.812   0.675 -10.752  0.00  0.00    -0.013 A 
ATOM      6  C   LIG d   1       3.817   1.245  -9.491  0.00  0.00     0.162 A 
ATOM      7  C   LIG d   1       3.050   0.680  -8.476  0.00  0.00     0.162 A 
ATOM      8  C   LIG d   1       2.291  -0.447  -8.736  0.00  0.00    -0.008 A 
ATOM      9  C   LIG d   1       2.290  -1.016 -10.001  0.00  0.00     0.004 A 
ATOM     10  C   LIG d   1       1.454  -2.246 -10.234  0.00  0.00    -0.004 C 
ATOM     11  H   LIG d   1       3.209  -3.116 -11.835  0.00  0.00     0.082 H 
ATOM     12  H   LIG d   1       2.376  -2.825 -13.384  0.00  0.00     0.082 H 
ATOM     13  H   LIG d   1       4.094  -1.057 -12.766  0.00  0.00     0.036 H 
ATOM     14  H   LIG d   1       2.457  -0.427 -13.058  0.00  0.00     0.036 H 
ATOM     15  H   LIG d   1       4.407   1.111 -11.541  0.00  0.00     0.066 H 
ATOM     16  H   LIG d   1       1.695  -0.885  -7.949  0.00  0.00     0.066 H 
ATOM     17  H   LIG d   1       0.496  -2.132  -9.726  0.00  0.00     0.087 H 
ATOM     18  H   LIG d   1       1.972  -3.116  -9.829  0.00  0.00     0.087 H 
ENDROOT
BRANCH   1  19
ATOM     19  C   LIG d   1       0.392  -1.353 -12.189  0.00  0.00    -0.041 C 
ATOM     20  H   LIG d   1      -0.648  -1.518 -11.908  0.00  0.00     0.078 H 
ATOM     21  H   LIG d   1       0.736  -0.407 -11.771  0.00  0.00     0.078 H 
ATOM     22  H   LIG d   1       0.475  -1.322 -13.276  0.00  0.00     0.078 H 
ENDBRANCH   1  19
BRANCH   1  23
ATOM     23  C   LIG d   1       0.530  -3.728 -11.877  0.00  0.00    -0.041 C 
ATOM     24  H   LIG d   1      -0.516  -3.629 -11.587  0.00  0.00     0.078 H 
ATOM     25  H   LIG d   1       0.590  -4.005 -12.930  0.00  0.00     0.078 H 
ATOM     26  H   LIG d   1       1.004  -4.501 -11.271  0.00  0.00     0.078 H 
ENDBRANCH   1  23
BRANCH   7  27
ATOM     27  O   LIG d   1       3.047   1.233  -7.235  0.00  0.00    -0.491 OA
BRANCH  27  28
ATOM     28  C   LIG d   1       2.871   0.345  -6.129  0.00  0.00     0.079 C 
ATOM     29  H   LIG d   1       1.858   0.451  -5.736  0.00  0.00     0.066 H 
ATOM     30  H   LIG d   1       3.026  -0.682  -6.460  0.00  0.00     0.066 H 
ATOM     31  H   LIG d   1       3.590   0.589  -5.348  0.00  0.00     0.066 H 
ENDBRANCH  27  28
ENDBRANCH   7  27
BRANCH   6  32
ATOM     32  O   LIG d   1       4.569   2.351  -9.244  0.00  0.00    -0.491 OA
BRANCH  32  33
ATOM     33  C   LIG d   1       5.965   2.149  -9.015  0.00  0.00     0.079 C 
ATOM     34  H   LIG d   1       6.418   3.084  -8.686  0.00  0.00     0.066 H 
ATOM     35  H   LIG d   1       6.101   1.388  -8.247  0.00  0.00     0.066 H 
ATOM     36  H   LIG d   1       6.441   1.820  -9.939  0.00  0.00     0.066 H 
ENDBRANCH  32  33
ENDBRANCH   6  32
TORSDOF 6
ENDMDL
MODEL 9
REMARK VINA RESULT:      -3.9      2.907      5.513
REMARK  6 active torsions:
REMARK  status: ('A' for Active; 'I' for Inactive)
REMARK    1  A    between atoms: C_1  and  N_2 
REMARK    2  A    between atoms: N_2  and  C_16 
REMARK    3  A    between atoms: C_7  and  O_14 
REMARK    4  A    between atoms: C_8  and  O_12 
REMARK    5  A    between atoms: O_12  and  C_13 
REMARK    6  A    between atoms: O_14  and  C_15 
ROOT
ATOM      1  N   LIG d   1       3.376   0.066  -8.827  0.00  0.00     0.242 N 
ATOM      2  C   LIG d   1       4.207  -1.138  -8.986  0.00  0.00    -0.026 C 
ATOM      3  C   LIG d   1       5.379  -1.053  -8.008  0.00  0.00     0.013 C 
ATOM      4  C   LIG d   1       4.867  -0.754  -6.623  0.00  0.00    -0.030 A 
ATOM      5  C   LIG d   1       5.708  -0.976  -5.543  0.00  0.00    -0.013 A 
ATOM      6  C   LIG d   1       5.277  -0.709  -4.255  0.00  0.00     0.162 A 
ATOM      7  C   LIG d   1       3.992  -0.216  -4.046  0.00  0.00     0.162 A 
ATOM      8  C   LIG d   1       3.157   0.001  -5.127  0.00  0.00    -0.008 A 
ATOM      9  C   LIG d   1       3.592  -0.269  -6.416  0.00  0.00     0.004 A 
ATOM     10  C   LIG d   1       2.644  -0.023  -7.560  0.00  0.00    -0.004 C 
ATOM     11  H   LIG d   1       3.610  -2.024  -8.769  0.00  0.00     0.082 H 
ATOM     12  H   LIG d   1       4.584  -1.189 -10.007  0.00  0.00     0.082 H 
ATOM     13  H   LIG d   1       5.912  -2.004  -8.000  0.00  0.00     0.036 H 
ATOM     14  H   LIG d   1       6.057  -0.262  -8.324  0.00  0.00     0.036 H 
ATOM     15  H   LIG d   1       6.705  -1.358  -5.707  0.00  0.00     0.066 H 
ATOM     16  H   LIG d   1       2.159   0.384  -4.966  0.00  0.00     0.066 H 
ATOM     17  H   LIG d   1       2.107   0.910  -7.389  0.00  0.00     0.087 H 
ATOM     18  H   LIG d   1       1.928  -0.843  -7.617  0.00  0.00     0.087 H 
ENDROOT
BRANCH   1  19
ATOM     19  C   LIG d   1       4.235   1.258  -8.816  0.00  0.00    -0.041 C 
ATOM     20  H   LIG d   1       5.023   1.130  -8.073  0.00  0.00     0.078 H 
ATOM     21  H   LIG d   1       4.683   1.393  -9.800  0.00  0.00     0.078 H 
ATOM     22  H   LIG d   1       3.637   2.134  -8.565  0.00  0.00     0.078 H 
ENDBRANCH   1  19
BRANCH   1  23
ATOM     23  C   LIG d   1       2.422   0.159  -9.940  0.00  0.00    -0.041 C 
ATOM     24  H   LIG d   1       2.345  -0.809 -10.435  0.00  0.00     0.078 H 
ATOM     25  H   LIG d   1       1.444   0.449  -9.557  0.00  0.00     0.078 H 
ATOM     26  H   LIG d   1       2.768   0.906 -10.655  0.00  0.00     0.078 H 
ENDBRANCH   1  23
BRANCH   7  27
ATOM     27  O   LIG d   1       3.560   0.049  -2.785  0.00  0.00    -0.491 OA
BRANCH  27  28
ATOM     28  C   LIG d   1       3.694   1.395  -2.323  0.00  0.00     0.079 C 
ATOM     29  H   LIG d   1       3.629   1.414  -1.235  0.00  0.00     0.066 H 
ATOM     30  H   LIG d   1       4.660   1.792  -2.636  0.00  0.00     0.066 H 
ATOM     31  H   LIG d   1       2.895   2.005  -2.745  0.00  0.00     0.066 H 
ENDBRANCH  27  28
ENDBRANCH   7  27
BRANCH   6  32
ATOM     32  O   LIG d   1       6.104  -0.929  -3.198  0.00  0.00    -0.491 OA
BRANCH  32  33
ATOM     33  C   LIG d   1       7.085  -1.958  -3.346  0.00  0.00     0.079 C 
ATOM     34  H   LIG d   1       6.602  -2.875  -3.683  0.00  0.00     0.066 H 
ATOM     35  H   LIG d   1       7.830  -1.649  -4.079  0.00  0.00     0.066 H 
ATOM     36  H   LIG d   1       7.572  -2.136  -2.387  0.00  0.00     0.066 H 
ENDBRANCH  32  33
ENDBRANCH   6  32
TORSDOF 6
ENDMDL
MODEL 10
REMARK VINA RESULT:      -3.9      3.535      5.637
REMARK  6 active torsions:
REMARK  status: ('A' for Active; 'I' for Inactive)
REMARK    1  A    between atoms: C_1  and  N_2 
REMARK    2  A    between atoms: N_2  and  C_16 
REMARK    3  A    between atoms: C_7  and  O_14 
REMARK    4  A    between atoms: C_8  and  O_12 
REMARK    5  A    between atoms: O_12  and  C_13 
REMARK    6  A    between atoms: O_14  and  C_15 
ROOT
ATOM      1  N   LIG d   1       2.330  -2.565 -11.099  0.00  0.00     0.242 N 
ATOM      2  C   LIG d   1       2.101  -1.143 -11.401  0.00  0.00    -0.026 C 
ATOM      3  C   LIG d   1       1.644  -0.441 -10.122  0.00  0.00     0.013 C 
ATOM      4  C   LIG d   1       2.597  -0.756  -8.999  0.00  0.00    -0.030 A 
ATOM      5  C   LIG d   1       2.570   0.040  -7.863  0.00  0.00    -0.013 A 
ATOM      6  C   LIG d   1       3.427  -0.220  -6.808  0.00  0.00     0.162 A 
ATOM      7  C   LIG d   1       4.319  -1.285  -6.889  0.00  0.00     0.162 A 
ATOM      8  C   LIG d   1       4.343  -2.074  -8.026  0.00  0.00    -0.008 A 
ATOM      9  C   LIG d   1       3.484  -1.809  -9.082  0.00  0.00     0.004 A 
ATOM     10  C   LIG d   1       3.552  -2.691 -10.300  0.00  0.00    -0.004 C 
ATOM     11  H   LIG d   1       3.027  -0.691 -11.757  0.00  0.00     0.082 H 
ATOM     12  H   LIG d   1       1.329  -1.052 -12.166  0.00  0.00     0.082 H 
ATOM     13  H   LIG d   1       1.624   0.636 -10.289  0.00  0.00     0.036 H 
ATOM     14  H   LIG d   1       0.644  -0.784  -9.858  0.00  0.00     0.036 H 
ATOM     15  H   LIG d   1       1.877   0.865  -7.802  0.00  0.00     0.066 H 
ATOM     16  H   LIG d   1       5.035  -2.900  -8.090  0.00  0.00     0.066 H 
ATOM     17  H   LIG d   1       3.671  -3.729  -9.988  0.00  0.00     0.087 H 
ATOM     18  H   LIG d   1       4.409  -2.400 -10.908  0.00  0.00     0.087 H 
ENDROOT
BRANCH   1  19
ATOM     19  C   LIG d   1       1.189  -3.096 -10.340  0.00  0.00    -0.041 C 
ATOM     20  H   LIG d   1       1.528  -3.418  -9.355  0.00  0.00     0.078 H 
ATOM     21  H   LIG d   1       0.434  -2.318 -10.228  0.00  0.00     0.078 H 
ATOM     22  H   LIG d   1       0.762  -3.944 -10.874  0.00  0.00     0.078 H 
ENDBRANCH   1  19
BRANCH   1  23
ATOM     23  C   LIG d   1       2.480  -3.318 -12.351  0.00  0.00    -0.041 C 
ATOM     24  H   LIG d   1       1.703  -4.080 -12.412  0.00  0.00     0.078 H 
ATOM     25  H   LIG d   1       2.388  -2.637 -13.198  0.00  0.00     0.078 H 
ATOM     26  H   LIG d   1       3.460  -3.794 -12.374  0.00  0.00     0.078 H 
ENDBRANCH   1  23
BRANCH   7  27
ATOM     27  O   LIG d   1       5.164  -1.548  -5.858  0.00  0.00    -0.491 OA
BRANCH  27  28
ATOM     28  C   LIG d   1       4.870  -2.693  -5.055  0.00  0.00     0.079 C 
ATOM     29  H   LIG d   1       4.343  -2.380  -4.153  0.00  0.00     0.066 H 
ATOM     30  H   LIG d   1       4.244  -3.383  -5.621  0.00  0.00     0.066 H 
ATOM     31  H   LIG d   1       5.800  -3.190  -4.777  0.00  0.00     0.066 H 
ENDBRANCH  27  28
ENDBRANCH   7  27
BRANCH   6  32
ATOM     32  O   LIG d   1       3.397   0.564  -5.696  0.00  0.00    -0.491 OA
BRANCH  32  33
ATOM     33  C   LIG d   1       2.348   0.319  -4.758  0.00  0.00     0.079 C 
ATOM     34  H   LIG d   1       2.019   1.265  -4.326  0.00  0.00     0.066 H 
ATOM     35  H   LIG d   1       1.510  -0.159  -5.265  0.00  0.00     0.066 H 
ATOM     36  H   LIG d   1       2.713  -0.334  -3.966  0.00  0.00     0.066 H 
ENDBRANCH  32  33
ENDBRANCH   6  32
TORSDOF 6
ENDMDL
