MODEL 1
REMARK VINA RESULT:      -7.1      0.000      0.000
REMARK  5 active torsions:
REMARK  status: ('A' for Active; 'I' for Inactive)
REMARK    1  A    between atoms: C_4  and  N_7 
REMARK    2  A    between atoms: N_7  and  C_8 
REMARK       I    between atoms: N_7  and  C_14 
REMARK    3  A    between atoms: C_14  and  C_16 
REMARK    4  A    between atoms: C_16  and  C_17 
REMARK    5  A    between atoms: C_16  and  C_21 
ROOT
ATOM      1  N   LIG d   1       4.914  -0.371  -5.651  0.00  0.00    -0.295 N 
ATOM      2  C   LIG d   1       4.054  -0.345  -4.612  0.00  0.00     0.237 C 
ATOM      3  O   LIG d   1       2.859  -0.315  -4.814  0.00  0.00    -0.275 OA
ENDROOT
BRANCH   1   4
ATOM      4  C   LIG d   1       4.412  -0.233  -7.021  0.00  0.00     0.026 C 
ATOM      5  C   LIG d   1       3.892  -1.586  -7.512  0.00  0.00    -0.034 C 
ATOM      6  C   LIG d   1       3.368  -1.441  -8.942  0.00  0.00    -0.051 C 
ATOM      7  H   LIG d   1       3.085  -1.923  -6.861  0.00  0.00     0.028 H 
ATOM      8  H   LIG d   1       4.702  -2.315  -7.494  0.00  0.00     0.028 H 
ATOM      9  C   LIG d   1       2.230  -0.418  -8.967  0.00  0.00    -0.053 C 
ATOM     10  H   LIG d   1       2.997  -2.404  -9.292  0.00  0.00     0.027 H 
ATOM     11  H   LIG d   1       4.174  -1.104  -9.592  0.00  0.00     0.027 H 
ATOM     12  C   LIG d   1       2.750   0.934  -8.475  0.00  0.00    -0.051 C 
ATOM     13  H   LIG d   1       1.856  -0.315  -9.986  0.00  0.00     0.026 H 
ATOM     14  H   LIG d   1       1.423  -0.755  -8.316  0.00  0.00     0.026 H 
ATOM     15  C   LIG d   1       3.274   0.790  -7.045  0.00  0.00    -0.034 C 
ATOM     16  H   LIG d   1       3.557   1.272  -9.126  0.00  0.00     0.027 H 
ATOM     17  H   LIG d   1       1.940   1.664  -8.493  0.00  0.00     0.027 H 
ATOM     18  H   LIG d   1       2.467   0.453  -6.395  0.00  0.00     0.028 H 
ATOM     19  H   LIG d   1       3.645   1.754  -6.695  0.00  0.00     0.028 H 
ATOM     20  H   LIG d   1       5.218   0.105  -7.670  0.00  0.00     0.050 H 
ENDBRANCH   1   4
BRANCH   1  21
ATOM     21  C   LIG d   1       6.349  -0.538  -5.410  0.00  0.00     0.026 C 
ATOM     22  C   LIG d   1       6.717  -2.019  -5.523  0.00  0.00    -0.034 C 
ATOM     23  C   LIG d   1       8.216  -2.194  -5.272  0.00  0.00    -0.051 C 
ATOM     24  H   LIG d   1       6.155  -2.591  -4.784  0.00  0.00     0.028 H 
ATOM     25  H   LIG d   1       6.470  -2.379  -6.523  0.00  0.00     0.028 H 
ATOM     26  C   LIG d   1       9.003  -1.392  -6.310  0.00  0.00    -0.053 C 
ATOM     27  H   LIG d   1       8.477  -3.249  -5.353  0.00  0.00     0.027 H 
ATOM     28  H   LIG d   1       8.461  -1.834  -4.273  0.00  0.00     0.027 H 
ATOM     29  C   LIG d   1       8.636   0.088  -6.198  0.00  0.00    -0.051 C 
ATOM     30  H   LIG d   1       8.757  -1.752  -7.310  0.00  0.00     0.026 H 
ATOM     31  H   LIG d   1      10.071  -1.517  -6.132  0.00  0.00     0.026 H 
ATOM     32  C   LIG d   1       7.137   0.263  -6.449  0.00  0.00    -0.034 C 
ATOM     33  H   LIG d   1       9.197   0.659  -6.937  0.00  0.00     0.027 H 
ATOM     34  H   LIG d   1       8.881   0.449  -5.198  0.00  0.00     0.027 H 
ATOM     35  H   LIG d   1       6.892  -0.097  -7.447  0.00  0.00     0.028 H 
ATOM     36  H   LIG d   1       6.875   1.318  -6.367  0.00  0.00     0.028 H 
ATOM     37  H   LIG d   1       6.595  -0.179  -4.411  0.00  0.00     0.050 H 
ENDBRANCH   1  21
BRANCH   2  38
ATOM     38  C   LIG d   1       4.581  -0.351  -3.200  0.00  0.00     0.224 C 
ATOM     39  H   LIG d   1       5.670  -0.348  -3.217  0.00  0.00     0.057 H 
BRANCH  38  40
ATOM     40  C   LIG d   1       4.079   0.893  -2.464  0.00  0.00     0.409 C 
ATOM     41  F   LIG d   1       2.712   0.759  -2.198  0.00  0.00    -0.170 F 
ATOM     42  F   LIG d   1       4.777   1.036  -1.259  0.00  0.00    -0.170 F 
ATOM     43  F   LIG d   1       4.290   2.023  -3.262  0.00  0.00    -0.170 F 
ENDBRANCH  38  40
BRANCH  38  44
ATOM     44  C   LIG d   1       4.085  -1.605  -2.477  0.00  0.00     0.409 C 
ATOM     45  F   LIG d   1       4.530  -2.743  -3.158  0.00  0.00    -0.170 F 
ATOM     46  F   LIG d   1       4.584  -1.618  -1.170  0.00  0.00    -0.170 F 
ATOM     47  F   LIG d   1       2.687  -1.601  -2.441  0.00  0.00    -0.170 F 
ENDBRANCH  38  44
ENDBRANCH   2  38
TORSDOF 5
ENDMDL
MODEL 2
REMARK VINA RESULT:      -7.0      2.050      3.600
REMARK  5 active torsions:
REMARK  status: ('A' for Active; 'I' for Inactive)
REMARK    1  A    between atoms: C_4  and  N_7 
REMARK    2  A    between atoms: N_7  and  C_8 
REMARK       I    between atoms: N_7  and  C_14 
REMARK    3  A    between atoms: C_14  and  C_16 
REMARK    4  A    between atoms: C_16  and  C_17 
REMARK    5  A    between atoms: C_16  and  C_21 
ROOT
ATOM      1  N   LIG d   1       5.723  -1.074  -5.031  0.00  0.00    -0.295 N 
ATOM      2  C   LIG d   1       4.497  -1.116  -4.470  0.00  0.00     0.237 C 
ATOM      3  O   LIG d   1       3.934  -2.179  -4.320  0.00  0.00    -0.275 OA
ENDROOT
BRANCH   1   4
ATOM      4  C   LIG d   1       6.320  -2.296  -5.578  0.00  0.00     0.026 C 
ATOM      5  C   LIG d   1       6.755  -3.209  -4.429  0.00  0.00    -0.034 C 
ATOM      6  C   LIG d   1       7.378  -4.484  -5.001  0.00  0.00    -0.051 C 
ATOM      7  H   LIG d   1       5.887  -3.468  -3.823  0.00  0.00     0.028 H 
ATOM      8  H   LIG d   1       7.489  -2.691  -3.812  0.00  0.00     0.028 H 
ATOM      9  C   LIG d   1       6.347  -5.211  -5.867  0.00  0.00    -0.053 C 
ATOM     10  H   LIG d   1       7.688  -5.135  -4.183  0.00  0.00     0.027 H 
ATOM     11  H   LIG d   1       8.244  -4.225  -5.608  0.00  0.00     0.027 H 
ATOM     12  C   LIG d   1       5.911  -4.298  -7.015  0.00  0.00    -0.051 C 
ATOM     13  H   LIG d   1       6.791  -6.120  -6.274  0.00  0.00     0.026 H 
ATOM     14  H   LIG d   1       5.479  -5.470  -5.260  0.00  0.00     0.026 H 
ATOM     15  C   LIG d   1       5.289  -3.022  -6.444  0.00  0.00    -0.034 C 
ATOM     16  H   LIG d   1       6.779  -4.039  -7.623  0.00  0.00     0.027 H 
ATOM     17  H   LIG d   1       5.177  -4.815  -7.633  0.00  0.00     0.027 H 
ATOM     18  H   LIG d   1       4.421  -3.282  -5.837  0.00  0.00     0.028 H 
ATOM     19  H   LIG d   1       4.978  -2.372  -7.262  0.00  0.00     0.028 H 
ATOM     20  H   LIG d   1       7.186  -2.036  -6.185  0.00  0.00     0.050 H 
ENDBRANCH   1   4
BRANCH   1  21
ATOM     21  C   LIG d   1       6.457   0.191  -5.094  0.00  0.00     0.026 C 
ATOM     22  C   LIG d   1       7.285   0.365  -3.819  0.00  0.00    -0.034 C 
ATOM     23  C   LIG d   1       8.053   1.687  -3.885  0.00  0.00    -0.051 C 
ATOM     24  H   LIG d   1       6.623   0.372  -2.953  0.00  0.00     0.028 H 
ATOM     25  H   LIG d   1       7.991  -0.462  -3.729  0.00  0.00     0.028 H 
ATOM     26  C   LIG d   1       8.983   1.676  -5.099  0.00  0.00    -0.053 C 
ATOM     27  H   LIG d   1       8.642   1.810  -2.976  0.00  0.00     0.027 H 
ATOM     28  H   LIG d   1       7.348   2.513  -3.974  0.00  0.00     0.027 H 
ATOM     29  C   LIG d   1       8.156   1.502  -6.374  0.00  0.00    -0.051 C 
ATOM     30  H   LIG d   1       9.689   0.849  -5.009  0.00  0.00     0.026 H 
ATOM     31  H   LIG d   1       9.530   2.617  -5.146  0.00  0.00     0.026 H 
ATOM     32  C   LIG d   1       7.389   0.180  -6.308  0.00  0.00    -0.034 C 
ATOM     33  H   LIG d   1       8.819   1.496  -7.239  0.00  0.00     0.027 H 
ATOM     34  H   LIG d   1       7.450   2.329  -6.464  0.00  0.00     0.027 H 
ATOM     35  H   LIG d   1       8.094  -0.645  -6.218  0.00  0.00     0.028 H 
ATOM     36  H   LIG d   1       6.798   0.058  -7.217  0.00  0.00     0.028 H 
ATOM     37  H   LIG d   1       5.752   1.018  -5.184  0.00  0.00     0.050 H 
ENDBRANCH   1  21
BRANCH   2  38
ATOM     38  C   LIG d   1       3.828   0.161  -4.030  0.00  0.00     0.224 C 
ATOM     39  H   LIG d   1       4.521   0.994  -4.143  0.00  0.00     0.057 H 
BRANCH  38  40
ATOM     40  C   LIG d   1       2.588   0.409  -4.892  0.00  0.00     0.409 C 
ATOM     41  F   LIG d   1       2.274   1.773  -4.877  0.00  0.00    -0.170 F 
ATOM     42  F   LIG d   1       2.846   0.005  -6.207  0.00  0.00    -0.170 F 
ATOM     43  F   LIG d   1       1.511  -0.323  -4.381  0.00  0.00    -0.170 F 
ENDBRANCH  38  40
BRANCH  38  44
ATOM     44  C   LIG d   1       3.411   0.039  -2.563  0.00  0.00     0.409 C 
ATOM     45  F   LIG d   1       2.288  -0.789  -2.465  0.00  0.00    -0.170 F 
ATOM     46  F   LIG d   1       4.464  -0.512  -1.824  0.00  0.00    -0.170 F 
ATOM     47  F   LIG d   1       3.101   1.306  -2.058  0.00  0.00    -0.170 F 
ENDBRANCH  38  44
ENDBRANCH   2  38
TORSDOF 5
ENDMDL
MODEL 3
REMARK VINA RESULT:      -6.9      0.910      1.882
REMARK  5 active torsions:
REMARK  status: ('A' for Active; 'I' for Inactive)
REMARK    1  A    between atoms: C_4  and  N_7 
REMARK    2  A    between atoms: N_7  and  C_8 
REMARK       I    between atoms: N_7  and  C_14 
REMARK    3  A    between atoms: C_14  and  C_16 
REMARK    4  A    between atoms: C_16  and  C_17 
REMARK    5  A    between atoms: C_16  and  C_21 
ROOT
ATOM      1  N   LIG d   1       3.867  -0.342  -5.945  0.00  0.00    -0.295 N 
ATOM      2  C   LIG d   1       3.369  -0.120  -4.712  0.00  0.00     0.237 C 
ATOM      3  O   LIG d   1       2.211   0.211  -4.575  0.00  0.00    -0.275 OA
ENDROOT
BRANCH   1   4
ATOM      4  C   LIG d   1       3.049  -0.057  -7.127  0.00  0.00     0.026 C 
ATOM      5  C   LIG d   1       3.500   1.266  -7.751  0.00  0.00    -0.034 C 
ATOM      6  C   LIG d   1       2.646   1.563  -8.986  0.00  0.00    -0.051 C 
ATOM      7  H   LIG d   1       4.547   1.191  -8.043  0.00  0.00     0.028 H 
ATOM      8  H   LIG d   1       3.380   2.070  -7.025  0.00  0.00     0.028 H 
ATOM      9  C   LIG d   1       2.814   0.434 -10.006  0.00  0.00    -0.053 C 
ATOM     10  H   LIG d   1       2.967   2.505  -9.431  0.00  0.00     0.027 H 
ATOM     11  H   LIG d   1       1.599   1.637  -8.695  0.00  0.00     0.027 H 
ATOM     12  C   LIG d   1       2.364  -0.888  -9.381  0.00  0.00    -0.051 C 
ATOM     13  H   LIG d   1       2.206   0.646 -10.885  0.00  0.00     0.026 H 
ATOM     14  H   LIG d   1       3.862   0.360 -10.297  0.00  0.00     0.026 H 
ATOM     15  C   LIG d   1       3.218  -1.185  -8.146  0.00  0.00    -0.034 C 
ATOM     16  H   LIG d   1       1.316  -0.815  -9.090  0.00  0.00     0.027 H 
ATOM     17  H   LIG d   1       2.483  -1.692 -10.107  0.00  0.00     0.027 H 
ATOM     18  H   LIG d   1       4.265  -1.259  -8.438  0.00  0.00     0.028 H 
ATOM     19  H   LIG d   1       2.897  -2.128  -7.701  0.00  0.00     0.028 H 
ATOM     20  H   LIG d   1       2.002   0.017  -6.835  0.00  0.00     0.050 H 
ENDBRANCH   1   4
BRANCH   1  21
ATOM     21  C   LIG d   1       5.225  -0.868  -6.103  0.00  0.00     0.026 C 
ATOM     22  C   LIG d   1       6.184  -0.085  -5.204  0.00  0.00    -0.034 C 
ATOM     23  C   LIG d   1       7.602  -0.634  -5.370  0.00  0.00    -0.051 C 
ATOM     24  H   LIG d   1       6.167   0.969  -5.485  0.00  0.00     0.028 H 
ATOM     25  H   LIG d   1       5.873  -0.188  -4.165  0.00  0.00     0.028 H 
ATOM     26  C   LIG d   1       7.625  -2.112  -4.976  0.00  0.00    -0.053 C 
ATOM     27  H   LIG d   1       8.285  -0.075  -4.730  0.00  0.00     0.027 H 
ATOM     28  H   LIG d   1       7.913  -0.530  -6.409  0.00  0.00     0.027 H 
ATOM     29  C   LIG d   1       6.667  -2.895  -5.874  0.00  0.00    -0.051 C 
ATOM     30  H   LIG d   1       7.315  -2.215  -3.935  0.00  0.00     0.026 H 
ATOM     31  H   LIG d   1       8.636  -2.503  -5.093  0.00  0.00     0.026 H 
ATOM     32  C   LIG d   1       5.249  -2.346  -5.708  0.00  0.00    -0.034 C 
ATOM     33  H   LIG d   1       6.684  -3.948  -5.593  0.00  0.00     0.027 H 
ATOM     34  H   LIG d   1       6.977  -2.792  -6.914  0.00  0.00     0.027 H 
ATOM     35  H   LIG d   1       4.938  -2.449  -4.669  0.00  0.00     0.028 H 
ATOM     36  H   LIG d   1       4.566  -2.904  -6.350  0.00  0.00     0.028 H 
ATOM     37  H   LIG d   1       5.536  -0.765  -7.143  0.00  0.00     0.050 H 
ENDBRANCH   1  21
BRANCH   2  38
ATOM     38  C   LIG d   1       4.254  -0.285  -3.502  0.00  0.00     0.224 C 
ATOM     39  H   LIG d   1       5.269  -0.516  -3.822  0.00  0.00     0.057 H 
BRANCH  38  40
ATOM     40  C   LIG d   1       4.257   1.014  -2.694  0.00  0.00     0.409 C 
ATOM     41  F   LIG d   1       4.256   2.108  -3.566  0.00  0.00    -0.170 F 
ATOM     42  F   LIG d   1       3.118   1.062  -1.883  0.00  0.00    -0.170 F 
ATOM     43  F   LIG d   1       5.403   1.059  -1.891  0.00  0.00    -0.170 F 
ENDBRANCH  38  40
BRANCH  38  44
ATOM     44  C   LIG d   1       3.721  -1.425  -2.632  0.00  0.00     0.409 C 
ATOM     45  F   LIG d   1       4.008  -2.650  -3.242  0.00  0.00    -0.170 F 
ATOM     46  F   LIG d   1       4.330  -1.376  -1.374  0.00  0.00    -0.170 F 
ATOM     47  F   LIG d   1       2.336  -1.291  -2.484  0.00  0.00    -0.170 F 
ENDBRANCH  38  44
ENDBRANCH   2  38
TORSDOF 5
ENDMDL
MODEL 4
REMARK VINA RESULT:      -6.7      1.497      4.604
REMARK  5 active torsions:
REMARK  status: ('A' for Active; 'I' for Inactive)
REMARK    1  A    between atoms: C_4  and  N_7 
REMARK    2  A    between atoms: N_7  and  C_8 
REMARK       I    between atoms: N_7  and  C_14 
REMARK    3  A    between atoms: C_14  and  C_16 
REMARK    4  A    between atoms: C_16  and  C_17 
REMARK    5  A    between atoms: C_16  and  C_21 
ROOT
ATOM      1  N   LIG d   1       6.125  -0.952  -5.151  0.00  0.00    -0.295 N 
ATOM      2  C   LIG d   1       5.814  -0.696  -3.864  0.00  0.00     0.237 C 
ATOM      3  O   LIG d   1       6.597  -0.979  -2.983  0.00  0.00    -0.275 OA
ENDROOT
BRANCH   1   4
ATOM      4  C   LIG d   1       7.349  -1.690  -5.475  0.00  0.00     0.026 C 
ATOM      5  C   LIG d   1       8.565  -0.900  -4.986  0.00  0.00    -0.034 C 
ATOM      6  C   LIG d   1       9.843  -1.671  -5.325  0.00  0.00    -0.051 C 
ATOM      7  H   LIG d   1       8.499  -0.763  -3.907  0.00  0.00     0.028 H 
ATOM      8  H   LIG d   1       8.587   0.073  -5.476  0.00  0.00     0.028 H 
ATOM      9  C   LIG d   1       9.812  -3.038  -4.637  0.00  0.00    -0.053 C 
ATOM     10  H   LIG d   1      10.709  -1.109  -4.976  0.00  0.00     0.027 H 
ATOM     11  H   LIG d   1       9.909  -1.809  -6.403  0.00  0.00     0.027 H 
ATOM     12  C   LIG d   1       8.595  -3.826  -5.126  0.00  0.00    -0.051 C 
ATOM     13  H   LIG d   1      10.722  -3.586  -4.878  0.00  0.00     0.026 H 
ATOM     14  H   LIG d   1       9.745  -2.900  -3.557  0.00  0.00     0.026 H 
ATOM     15  C   LIG d   1       7.318  -3.056  -4.787  0.00  0.00    -0.034 C 
ATOM     16  H   LIG d   1       8.662  -3.965  -6.205  0.00  0.00     0.027 H 
ATOM     17  H   LIG d   1       8.573  -4.800  -4.637  0.00  0.00     0.027 H 
ATOM     18  H   LIG d   1       7.252  -2.919  -3.708  0.00  0.00     0.028 H 
ATOM     19  H   LIG d   1       6.451  -3.619  -5.136  0.00  0.00     0.028 H 
ATOM     20  H   LIG d   1       7.415  -1.827  -6.554  0.00  0.00     0.050 H 
ENDBRANCH   1   4
BRANCH   1  21
ATOM     21  C   LIG d   1       5.241  -0.494  -6.224  0.00  0.00     0.026 C 
ATOM     22  C   LIG d   1       6.074   0.156  -7.330  0.00  0.00    -0.034 C 
ATOM     23  C   LIG d   1       5.150   0.635  -8.451  0.00  0.00    -0.051 C 
ATOM     24  H   LIG d   1       6.620   1.007  -6.922  0.00  0.00     0.028 H 
ATOM     25  H   LIG d   1       6.781  -0.572  -7.728  0.00  0.00     0.028 H 
ATOM     26  C   LIG d   1       4.383  -0.558  -9.025  0.00  0.00    -0.053 C 
ATOM     27  H   LIG d   1       5.744   1.099  -9.239  0.00  0.00     0.027 H 
ATOM     28  H   LIG d   1       4.443   1.364  -8.054  0.00  0.00     0.027 H 
ATOM     29  C   LIG d   1       3.550  -1.208  -7.919  0.00  0.00    -0.051 C 
ATOM     30  H   LIG d   1       5.090  -1.287  -9.423  0.00  0.00     0.026 H 
ATOM     31  H   LIG d   1       3.725  -0.217  -9.824  0.00  0.00     0.026 H 
ATOM     32  C   LIG d   1       4.474  -1.687  -6.798  0.00  0.00    -0.034 C 
ATOM     33  H   LIG d   1       3.003  -2.058  -8.328  0.00  0.00     0.027 H 
ATOM     34  H   LIG d   1       2.843  -0.480  -7.521  0.00  0.00     0.027 H 
ATOM     35  H   LIG d   1       5.180  -2.415  -7.196  0.00  0.00     0.028 H 
ATOM     36  H   LIG d   1       3.879  -2.149  -6.010  0.00  0.00     0.028 H 
ATOM     37  H   LIG d   1       4.533   0.235  -5.827  0.00  0.00     0.050 H 
ENDBRANCH   1  21
BRANCH   2  38
ATOM     38  C   LIG d   1       4.492  -0.058  -3.523  0.00  0.00     0.224 C 
ATOM     39  H   LIG d   1       3.962   0.195  -4.440  0.00  0.00     0.057 H 
BRANCH  38  40
ATOM     40  C   LIG d   1       3.651  -1.036  -2.701  0.00  0.00     0.409 C 
ATOM     41  F   LIG d   1       3.545  -2.251  -3.387  0.00  0.00    -0.170 F 
ATOM     42  F   LIG d   1       4.265  -1.253  -1.462  0.00  0.00    -0.170 F 
ATOM     43  F   LIG d   1       2.374  -0.500  -2.501  0.00  0.00    -0.170 F 
ENDBRANCH  38  40
BRANCH  38  44
ATOM     44  C   LIG d   1       4.736   1.214  -2.707  0.00  0.00     0.409 C 
ATOM     45  F   LIG d   1       5.972   1.764  -3.061  0.00  0.00    -0.170 F 
ATOM     46  F   LIG d   1       3.720   2.139  -2.972  0.00  0.00    -0.170 F 
ATOM     47  F   LIG d   1       4.737   0.902  -1.344  0.00  0.00    -0.170 F 
ENDBRANCH  38  44
ENDBRANCH   2  38
TORSDOF 5
ENDMDL
MODEL 5
REMARK VINA RESULT:      -6.7      2.000      4.105
REMARK  5 active torsions:
REMARK  status: ('A' for Active; 'I' for Inactive)
REMARK    1  A    between atoms: C_4  and  N_7 
REMARK    2  A    between atoms: N_7  and  C_8 
REMARK       I    between atoms: N_7  and  C_14 
REMARK    3  A    between atoms: C_14  and  C_16 
REMARK    4  A    between atoms: C_16  and  C_17 
REMARK    5  A    between atoms: C_16  and  C_21 
ROOT
ATOM      1  N   LIG d   1       5.296  -1.705  -5.660  0.00  0.00    -0.295 N 
ATOM      2  C   LIG d   1       4.840  -0.879  -4.697  0.00  0.00     0.237 C 
ATOM      3  O   LIG d   1       5.319   0.227  -4.570  0.00  0.00    -0.275 OA
ENDROOT
BRANCH   1   4
ATOM      4  C   LIG d   1       6.457  -1.318  -6.468  0.00  0.00     0.026 C 
ATOM      5  C   LIG d   1       6.160  -0.001  -7.188  0.00  0.00    -0.034 C 
ATOM      6  C   LIG d   1       7.372   0.403  -8.031  0.00  0.00    -0.051 C 
ATOM      7  H   LIG d   1       5.954   0.776  -6.453  0.00  0.00     0.028 H 
ATOM      8  H   LIG d   1       5.293  -0.129  -7.837  0.00  0.00     0.028 H 
ATOM      9  C   LIG d   1       8.589   0.582  -7.121  0.00  0.00    -0.053 C 
ATOM     10  H   LIG d   1       7.162   1.340  -8.544  0.00  0.00     0.027 H 
ATOM     11  H   LIG d   1       7.579  -0.375  -8.765  0.00  0.00     0.027 H 
ATOM     12  C   LIG d   1       8.885  -0.735  -6.400  0.00  0.00    -0.051 C 
ATOM     13  H   LIG d   1       9.452   0.869  -7.720  0.00  0.00     0.026 H 
ATOM     14  H   LIG d   1       8.382   1.360  -6.385  0.00  0.00     0.026 H 
ATOM     15  C   LIG d   1       7.673  -1.139  -5.557  0.00  0.00    -0.034 C 
ATOM     16  H   LIG d   1       9.092  -1.513  -7.135  0.00  0.00     0.027 H 
ATOM     17  H   LIG d   1       9.752  -0.608  -5.751  0.00  0.00     0.027 H 
ATOM     18  H   LIG d   1       7.467  -0.361  -4.823  0.00  0.00     0.028 H 
ATOM     19  H   LIG d   1       7.884  -2.077  -5.044  0.00  0.00     0.028 H 
ATOM     20  H   LIG d   1       6.663  -2.096  -7.202  0.00  0.00     0.050 H 
ENDBRANCH   1   4
BRANCH   1  21
ATOM     21  C   LIG d   1       4.632  -2.988  -5.900  0.00  0.00     0.026 C 
ATOM     22  C   LIG d   1       4.515  -3.229  -7.407  0.00  0.00    -0.034 C 
ATOM     23  C   LIG d   1       3.821  -4.569  -7.657  0.00  0.00    -0.051 C 
ATOM     24  H   LIG d   1       3.930  -2.427  -7.859  0.00  0.00     0.028 H 
ATOM     25  H   LIG d   1       5.511  -3.245  -7.850  0.00  0.00     0.028 H 
ATOM     26  C   LIG d   1       4.642  -5.694  -7.024  0.00  0.00    -0.053 C 
ATOM     27  H   LIG d   1       3.738  -4.740  -8.731  0.00  0.00     0.027 H 
ATOM     28  H   LIG d   1       2.826  -4.552  -7.215  0.00  0.00     0.027 H 
ATOM     29  C   LIG d   1       4.760  -5.454  -5.518  0.00  0.00    -0.051 C 
ATOM     30  H   LIG d   1       5.639  -5.711  -7.468  0.00  0.00     0.026 H 
ATOM     31  H   LIG d   1       4.149  -6.649  -7.202  0.00  0.00     0.026 H 
ATOM     32  C   LIG d   1       5.454  -4.113  -5.267  0.00  0.00    -0.034 C 
ATOM     33  H   LIG d   1       5.344  -6.256  -5.066  0.00  0.00     0.027 H 
ATOM     34  H   LIG d   1       3.764  -5.436  -5.074  0.00  0.00     0.027 H 
ATOM     35  H   LIG d   1       6.448  -4.131  -5.711  0.00  0.00     0.028 H 
ATOM     36  H   LIG d   1       5.536  -3.942  -4.193  0.00  0.00     0.028 H 
ATOM     37  H   LIG d   1       3.636  -2.971  -5.457  0.00  0.00     0.050 H 
ENDBRANCH   1  21
BRANCH   2  38
ATOM     38  C   LIG d   1       3.734  -1.333  -3.779  0.00  0.00     0.224 C 
ATOM     39  H   LIG d   1       3.242  -2.206  -4.205  0.00  0.00     0.057 H 
BRANCH  38  40
ATOM     40  C   LIG d   1       4.322  -1.695  -2.414  0.00  0.00     0.409 C 
ATOM     41  F   LIG d   1       4.228  -0.592  -1.558  0.00  0.00    -0.170 F 
ATOM     42  F   LIG d   1       3.611  -2.770  -1.869  0.00  0.00    -0.170 F 
ATOM     43  F   LIG d   1       5.666  -2.054  -2.566  0.00  0.00    -0.170 F 
ENDBRANCH  38  40
BRANCH  38  44
ATOM     44  C   LIG d   1       2.716  -0.203  -3.612  0.00  0.00     0.409 C 
ATOM     45  F   LIG d   1       2.169   0.120  -4.858  0.00  0.00    -0.170 F 
ATOM     46  F   LIG d   1       1.696  -0.619  -2.748  0.00  0.00    -0.170 F 
ATOM     47  F   LIG d   1       3.350   0.922  -3.075  0.00  0.00    -0.170 F 
ENDBRANCH  38  44
ENDBRANCH   2  38
TORSDOF 5
ENDMDL
MODEL 6
REMARK VINA RESULT:      -6.5      1.243      4.445
REMARK  5 active torsions:
REMARK  status: ('A' for Active; 'I' for Inactive)
REMARK    1  A    between atoms: C_4  and  N_7 
REMARK    2  A    between atoms: N_7  and  C_8 
REMARK       I    between atoms: N_7  and  C_14 
REMARK    3  A    between atoms: C_14  and  C_16 
REMARK    4  A    between atoms: C_16  and  C_17 
REMARK    5  A    between atoms: C_16  and  C_21 
ROOT
ATOM      1  N   LIG d   1       5.600  -0.616  -5.786  0.00  0.00    -0.295 N 
ATOM      2  C   LIG d   1       5.484  -0.325  -4.475  0.00  0.00     0.237 C 
ATOM      3  O   LIG d   1       6.422   0.154  -3.874  0.00  0.00    -0.275 OA
ENDROOT
BRANCH   1   4
ATOM      4  C   LIG d   1       6.896  -0.476  -6.456  0.00  0.00     0.026 C 
ATOM      5  C   LIG d   1       7.338   0.988  -6.410  0.00  0.00    -0.034 C 
ATOM      6  C   LIG d   1       8.692   1.133  -7.109  0.00  0.00    -0.051 C 
ATOM      7  H   LIG d   1       7.429   1.308  -5.373  0.00  0.00     0.028 H 
ATOM      8  H   LIG d   1       6.599   1.606  -6.919  0.00  0.00     0.028 H 
ATOM      9  C   LIG d   1       9.730   0.264  -6.396  0.00  0.00    -0.053 C 
ATOM     10  H   LIG d   1       9.007   2.175  -7.077  0.00  0.00     0.027 H 
ATOM     11  H   LIG d   1       8.602   0.812  -8.146  0.00  0.00     0.027 H 
ATOM     12  C   LIG d   1       9.287  -1.200  -6.440  0.00  0.00    -0.051 C 
ATOM     13  H   LIG d   1      10.694   0.368  -6.893  0.00  0.00     0.026 H 
ATOM     14  H   LIG d   1       9.820   0.585  -5.357  0.00  0.00     0.026 H 
ATOM     15  C   LIG d   1       7.934  -1.345  -5.741  0.00  0.00    -0.034 C 
ATOM     16  H   LIG d   1       9.197  -1.521  -7.478  0.00  0.00     0.027 H 
ATOM     17  H   LIG d   1      10.027  -1.819  -5.932  0.00  0.00     0.027 H 
ATOM     18  H   LIG d   1       8.025  -1.024  -4.704  0.00  0.00     0.028 H 
ATOM     19  H   LIG d   1       7.619  -2.388  -5.773  0.00  0.00     0.028 H 
ATOM     20  H   LIG d   1       6.806  -0.797  -7.493  0.00  0.00     0.050 H 
ENDBRANCH   1   4
BRANCH   1  21
ATOM     21  C   LIG d   1       4.431  -1.071  -6.542  0.00  0.00     0.026 C 
ATOM     22  C   LIG d   1       3.814   0.113  -7.290  0.00  0.00    -0.034 C 
ATOM     23  C   LIG d   1       2.592  -0.363  -8.079  0.00  0.00    -0.051 C 
ATOM     24  H   LIG d   1       3.508   0.876  -6.573  0.00  0.00     0.028 H 
ATOM     25  H   LIG d   1       4.550   0.533  -7.975  0.00  0.00     0.028 H 
ATOM     26  C   LIG d   1       3.021  -1.433  -9.085  0.00  0.00    -0.053 C 
ATOM     27  H   LIG d   1       2.153   0.482  -8.611  0.00  0.00     0.027 H 
ATOM     28  H   LIG d   1       1.857  -0.782  -7.393  0.00  0.00     0.027 H 
ATOM     29  C   LIG d   1       3.638  -2.616  -8.338  0.00  0.00    -0.051 C 
ATOM     30  H   LIG d   1       3.757  -1.013  -9.771  0.00  0.00     0.026 H 
ATOM     31  H   LIG d   1       2.151  -1.771  -9.648  0.00  0.00     0.026 H 
ATOM     32  C   LIG d   1       4.859  -2.141  -7.549  0.00  0.00    -0.034 C 
ATOM     33  H   LIG d   1       3.942  -3.379  -9.055  0.00  0.00     0.027 H 
ATOM     34  H   LIG d   1       2.902  -3.037  -7.652  0.00  0.00     0.027 H 
ATOM     35  H   LIG d   1       5.594  -1.721  -8.234  0.00  0.00     0.028 H 
ATOM     36  H   LIG d   1       5.298  -2.985  -7.016  0.00  0.00     0.028 H 
ATOM     37  H   LIG d   1       3.695  -1.491  -5.857  0.00  0.00     0.050 H 
ENDBRANCH   1  21
BRANCH   2  38
ATOM     38  C   LIG d   1       4.187  -0.596  -3.756  0.00  0.00     0.224 C 
ATOM     39  H   LIG d   1       3.512  -1.141  -4.416  0.00  0.00     0.057 H 
BRANCH  38  40
ATOM     40  C   LIG d   1       4.463  -1.433  -2.506  0.00  0.00     0.409 C 
ATOM     41  F   LIG d   1       5.587  -2.238  -2.721  0.00  0.00    -0.170 F 
ATOM     42  F   LIG d   1       4.700  -0.584  -1.419  0.00  0.00    -0.170 F 
ATOM     43  F   LIG d   1       3.355  -2.242  -2.232  0.00  0.00    -0.170 F 
ENDBRANCH  38  40
BRANCH  38  44
ATOM     44  C   LIG d   1       3.543   0.731  -3.349  0.00  0.00     0.409 C 
ATOM     45  F   LIG d   1       2.711   0.525  -2.244  0.00  0.00    -0.170 F 
ATOM     46  F   LIG d   1       4.543   1.651  -3.016  0.00  0.00    -0.170 F 
ATOM     47  F   LIG d   1       2.787   1.230  -4.415  0.00  0.00    -0.170 F 
ENDBRANCH  38  44
ENDBRANCH   2  38
TORSDOF 5
ENDMDL
MODEL 7
REMARK VINA RESULT:      -6.4      3.357      5.463
REMARK  5 active torsions:
REMARK  status: ('A' for Active; 'I' for Inactive)
REMARK    1  A    between atoms: C_4  and  N_7 
REMARK    2  A    between atoms: N_7  and  C_8 
REMARK       I    between atoms: N_7  and  C_14 
REMARK    3  A    between atoms: C_14  and  C_16 
REMARK    4  A    between atoms: C_16  and  C_17 
REMARK    5  A    between atoms: C_16  and  C_21 
ROOT
ATOM      1  N   LIG d   1       4.899  -1.479  -5.579  0.00  0.00    -0.295 N 
ATOM      2  C   LIG d   1       4.713  -1.238  -6.892  0.00  0.00     0.237 C 
ATOM      3  O   LIG d   1       4.866  -2.129  -7.701  0.00  0.00    -0.275 OA
ENDROOT
BRANCH   1   4
ATOM      4  C   LIG d   1       5.414  -2.779  -5.139  0.00  0.00     0.026 C 
ATOM      5  C   LIG d   1       4.552  -3.896  -5.733  0.00  0.00    -0.034 C 
ATOM      6  C   LIG d   1       5.090  -5.253  -5.274  0.00  0.00    -0.051 C 
ATOM      7  H   LIG d   1       4.586  -3.841  -6.821  0.00  0.00     0.028 H 
ATOM      8  H   LIG d   1       3.523  -3.779  -5.394  0.00  0.00     0.028 H 
ATOM      9  C   LIG d   1       6.535  -5.416  -5.749  0.00  0.00    -0.053 C 
ATOM     10  H   LIG d   1       4.477  -6.048  -5.696  0.00  0.00     0.027 H 
ATOM     11  H   LIG d   1       5.057  -5.308  -4.186  0.00  0.00     0.027 H 
ATOM     12  C   LIG d   1       7.396  -4.299  -5.157  0.00  0.00    -0.051 C 
ATOM     13  H   LIG d   1       6.918  -6.383  -5.423  0.00  0.00     0.026 H 
ATOM     14  H   LIG d   1       6.568  -5.361  -6.838  0.00  0.00     0.026 H 
ATOM     15  C   LIG d   1       6.859  -2.942  -5.616  0.00  0.00    -0.034 C 
ATOM     16  H   LIG d   1       7.364  -4.354  -4.068  0.00  0.00     0.027 H 
ATOM     17  H   LIG d   1       8.426  -4.415  -5.495  0.00  0.00     0.027 H 
ATOM     18  H   LIG d   1       6.892  -2.888  -6.704  0.00  0.00     0.028 H 
ATOM     19  H   LIG d   1       7.473  -2.146  -5.193  0.00  0.00     0.028 H 
ATOM     20  H   LIG d   1       5.381  -2.833  -4.052  0.00  0.00     0.050 H 
ENDBRANCH   1   4
BRANCH   1  21
ATOM     21  C   LIG d   1       4.589  -0.443  -4.592  0.00  0.00     0.026 C 
ATOM     22  C   LIG d   1       3.538  -0.969  -3.613  0.00  0.00    -0.034 C 
ATOM     23  C   LIG d   1       3.213   0.113  -2.582  0.00  0.00    -0.051 C 
ATOM     24  H   LIG d   1       2.632  -1.234  -4.159  0.00  0.00     0.028 H 
ATOM     25  H   LIG d   1       3.925  -1.852  -3.104  0.00  0.00     0.028 H 
ATOM     26  C   LIG d   1       4.484   0.485  -1.815  0.00  0.00    -0.053 C 
ATOM     27  H   LIG d   1       2.464  -0.262  -1.885  0.00  0.00     0.027 H 
ATOM     28  H   LIG d   1       2.825   0.995  -3.091  0.00  0.00     0.027 H 
ATOM     29  C   LIG d   1       5.535   1.011  -2.794  0.00  0.00    -0.051 C 
ATOM     30  H   LIG d   1       4.872  -0.398  -1.305  0.00  0.00     0.026 H 
ATOM     31  H   LIG d   1       4.252   1.255  -1.080  0.00  0.00     0.026 H 
ATOM     32  C   LIG d   1       5.860  -0.072  -3.825  0.00  0.00    -0.034 C 
ATOM     33  H   LIG d   1       6.440   1.276  -2.247  0.00  0.00     0.027 H 
ATOM     34  H   LIG d   1       5.147   1.894  -3.304  0.00  0.00     0.027 H 
ATOM     35  H   LIG d   1       6.247  -0.954  -3.316  0.00  0.00     0.028 H 
ATOM     36  H   LIG d   1       6.608   0.304  -4.523  0.00  0.00     0.028 H 
ATOM     37  H   LIG d   1       4.201   0.440  -5.101  0.00  0.00     0.050 H 
ENDBRANCH   1  21
BRANCH   2  38
ATOM     38  C   LIG d   1       4.313   0.140  -7.355  0.00  0.00     0.224 C 
ATOM     39  H   LIG d   1       4.487   0.857  -6.554  0.00  0.00     0.057 H 
BRANCH  38  40
ATOM     40  C   LIG d   1       5.146   0.528  -8.578  0.00  0.00     0.409 C 
ATOM     41  F   LIG d   1       4.606  -0.072  -9.721  0.00  0.00    -0.170 F 
ATOM     42  F   LIG d   1       5.131   1.919  -8.730  0.00  0.00    -0.170 F 
ATOM     43  F   LIG d   1       6.464   0.092  -8.401  0.00  0.00    -0.170 F 
ENDBRANCH  38  40
BRANCH  38  44
ATOM     44  C   LIG d   1       2.829   0.141  -7.728  0.00  0.00     0.409 C 
ATOM     45  F   LIG d   1       2.520   1.327  -8.404  0.00  0.00    -0.170 F 
ATOM     46  F   LIG d   1       2.555  -0.953  -8.556  0.00  0.00    -0.170 F 
ATOM     47  F   LIG d   1       2.055   0.052  -6.567  0.00  0.00    -0.170 F 
ENDBRANCH  38  44
ENDBRANCH   2  38
TORSDOF 5
ENDMDL
MODEL 8
REMARK VINA RESULT:      -6.3      2.150      4.139
REMARK  5 active torsions:
REMARK  status: ('A' for Active; 'I' for Inactive)
REMARK    1  A    between atoms: C_4  and  N_7 
REMARK    2  A    between atoms: N_7  and  C_8 
REMARK       I    between atoms: N_7  and  C_14 
REMARK    3  A    between atoms: C_14  and  C_16 
REMARK    4  A    between atoms: C_16  and  C_17 
REMARK    5  A    between atoms: C_16  and  C_21 
ROOT
ATOM      1  N   LIG d   1       6.398  -0.476  -4.774  0.00  0.00    -0.295 N 
ATOM      2  C   LIG d   1       5.416   0.027  -3.999  0.00  0.00     0.237 C 
ATOM      3  O   LIG d   1       5.486   1.168  -3.595  0.00  0.00    -0.275 OA
ENDROOT
BRANCH   1   4
ATOM      4  C   LIG d   1       7.611   0.309  -5.021  0.00  0.00     0.026 C 
ATOM      5  C   LIG d   1       7.382   1.238  -6.215  0.00  0.00    -0.034 C 
ATOM      6  C   LIG d   1       8.648   2.058  -6.472  0.00  0.00    -0.051 C 
ATOM      7  H   LIG d   1       6.552   1.911  -5.998  0.00  0.00     0.028 H 
ATOM      8  H   LIG d   1       7.148   0.644  -7.098  0.00  0.00     0.028 H 
ATOM      9  C   LIG d   1       8.977   2.892  -5.233  0.00  0.00    -0.053 C 
ATOM     10  H   LIG d   1       8.486   2.720  -7.322  0.00  0.00     0.027 H 
ATOM     11  H   LIG d   1       9.478   1.386  -6.689  0.00  0.00     0.027 H 
ATOM     12  C   LIG d   1       9.205   1.962  -4.039  0.00  0.00    -0.051 C 
ATOM     13  H   LIG d   1       9.879   3.476  -5.416  0.00  0.00     0.026 H 
ATOM     14  H   LIG d   1       8.147   3.564  -5.016  0.00  0.00     0.026 H 
ATOM     15  C   LIG d   1       7.939   1.143  -3.781  0.00  0.00    -0.034 C 
ATOM     16  H   LIG d   1      10.036   1.290  -4.255  0.00  0.00     0.027 H 
ATOM     17  H   LIG d   1       9.440   2.556  -3.155  0.00  0.00     0.027 H 
ATOM     18  H   LIG d   1       7.109   1.816  -3.565  0.00  0.00     0.028 H 
ATOM     19  H   LIG d   1       8.101   0.480  -2.930  0.00  0.00     0.028 H 
ATOM     20  H   LIG d   1       8.440  -0.363  -5.237  0.00  0.00     0.050 H 
ENDBRANCH   1   4
BRANCH   1  21
ATOM     21  C   LIG d   1       6.253  -1.806  -5.370  0.00  0.00     0.026 C 
ATOM     22  C   LIG d   1       5.876  -1.666  -6.846  0.00  0.00    -0.034 C 
ATOM     23  C   LIG d   1       5.725  -3.056  -7.468  0.00  0.00    -0.051 C 
ATOM     24  H   LIG d   1       4.934  -1.125  -6.931  0.00  0.00     0.028 H 
ATOM     25  H   LIG d   1       6.659  -1.116  -7.370  0.00  0.00     0.028 H 
ATOM     26  C   LIG d   1       7.048  -3.815  -7.349  0.00  0.00    -0.053 C 
ATOM     27  H   LIG d   1       5.456  -2.955  -8.520  0.00  0.00     0.027 H 
ATOM     28  H   LIG d   1       4.942  -3.605  -6.945  0.00  0.00     0.027 H 
ATOM     29  C   LIG d   1       7.424  -3.955  -5.873  0.00  0.00    -0.051 C 
ATOM     30  H   LIG d   1       7.830  -3.265  -7.873  0.00  0.00     0.026 H 
ATOM     31  H   LIG d   1       6.940  -4.805  -7.792  0.00  0.00     0.026 H 
ATOM     32  C   LIG d   1       7.576  -2.565  -5.251  0.00  0.00    -0.034 C 
ATOM     33  H   LIG d   1       8.366  -4.496  -5.788  0.00  0.00     0.027 H 
ATOM     34  H   LIG d   1       6.642  -4.504  -5.349  0.00  0.00     0.027 H 
ATOM     35  H   LIG d   1       8.358  -2.016  -5.775  0.00  0.00     0.028 H 
ATOM     36  H   LIG d   1       7.843  -2.665  -4.199  0.00  0.00     0.028 H 
ATOM     37  H   LIG d   1       5.470  -2.356  -4.846  0.00  0.00     0.050 H 
ENDBRANCH   1  21
BRANCH   2  38
ATOM     38  C   LIG d   1       4.231  -0.830  -3.635  0.00  0.00     0.224 C 
ATOM     39  H   LIG d   1       4.102  -1.611  -4.385  0.00  0.00     0.057 H 
BRANCH  38  40
ATOM     40  C   LIG d   1       4.468  -1.472  -2.267  0.00  0.00     0.409 C 
ATOM     41  F   LIG d   1       5.735  -2.066  -2.242  0.00  0.00    -0.170 F 
ATOM     42  F   LIG d   1       4.394  -0.490  -1.272  0.00  0.00    -0.170 F 
ATOM     43  F   LIG d   1       3.491  -2.446  -2.034  0.00  0.00    -0.170 F 
ENDBRANCH  38  40
BRANCH  38  44
ATOM     44  C   LIG d   1       2.972   0.037  -3.580  0.00  0.00     0.409 C 
ATOM     45  F   LIG d   1       3.034   0.878  -2.463  0.00  0.00    -0.170 F 
ATOM     46  F   LIG d   1       2.888   0.811  -4.742  0.00  0.00    -0.170 F 
ATOM     47  F   LIG d   1       1.843  -0.783  -3.483  0.00  0.00    -0.170 F 
ENDBRANCH  38  44
ENDBRANCH   2  38
TORSDOF 5
ENDMDL
MODEL 9
REMARK VINA RESULT:      -6.3      2.914      4.659
REMARK  5 active torsions:
REMARK  status: ('A' for Active; 'I' for Inactive)
REMARK    1  A    between atoms: C_4  and  N_7 
REMARK    2  A    between atoms: N_7  and  C_8 
REMARK       I    between atoms: N_7  and  C_14 
REMARK    3  A    between atoms: C_14  and  C_16 
REMARK    4  A    between atoms: C_16  and  C_17 
REMARK    5  A    between atoms: C_16  and  C_21 
ROOT
ATOM      1  N   LIG d   1       4.451  -1.168  -5.970  0.00  0.00    -0.295 N 
ATOM      2  C   LIG d   1       4.825  -2.387  -6.406  0.00  0.00     0.237 C 
ATOM      3  O   LIG d   1       4.978  -2.588  -7.591  0.00  0.00    -0.275 OA
ENDROOT
BRANCH   1   4
ATOM      4  C   LIG d   1       4.101  -0.121  -6.935  0.00  0.00     0.026 C 
ATOM      5  C   LIG d   1       5.317   0.193  -7.809  0.00  0.00    -0.034 C 
ATOM      6  C   LIG d   1       4.951   1.285  -8.816  0.00  0.00    -0.051 C 
ATOM      7  H   LIG d   1       5.622  -0.707  -8.343  0.00  0.00     0.028 H 
ATOM      8  H   LIG d   1       6.137   0.538  -7.180  0.00  0.00     0.028 H 
ATOM      9  C   LIG d   1       3.800   0.800  -9.699  0.00  0.00    -0.053 C 
ATOM     10  H   LIG d   1       5.817   1.509  -9.439  0.00  0.00     0.027 H 
ATOM     11  H   LIG d   1       4.646   2.184  -8.283  0.00  0.00     0.027 H 
ATOM     12  C   LIG d   1       2.585   0.485  -8.825  0.00  0.00    -0.051 C 
ATOM     13  H   LIG d   1       3.540   1.578 -10.417  0.00  0.00     0.026 H 
ATOM     14  H   LIG d   1       4.106  -0.100 -10.234  0.00  0.00     0.026 H 
ATOM     15  C   LIG d   1       2.950  -0.607  -7.818  0.00  0.00    -0.034 C 
ATOM     16  H   LIG d   1       2.278   1.385  -8.291  0.00  0.00     0.027 H 
ATOM     17  H   LIG d   1       1.764   0.140  -9.454  0.00  0.00     0.027 H 
ATOM     18  H   LIG d   1       3.255  -1.506  -8.353  0.00  0.00     0.028 H 
ATOM     19  H   LIG d   1       2.083  -0.831  -7.195  0.00  0.00     0.028 H 
ATOM     20  H   LIG d   1       3.795   0.777  -6.400  0.00  0.00     0.050 H 
ENDBRANCH   1   4
BRANCH   1  21
ATOM     21  C   LIG d   1       4.393  -0.888  -4.534  0.00  0.00     0.026 C 
ATOM     22  C   LIG d   1       5.566   0.012  -4.141  0.00  0.00    -0.034 C 
ATOM     23  C   LIG d   1       5.506   0.304  -2.641  0.00  0.00    -0.051 C 
ATOM     24  H   LIG d   1       6.505  -0.491  -4.376  0.00  0.00     0.028 H 
ATOM     25  H   LIG d   1       5.507   0.948  -4.697  0.00  0.00     0.028 H 
ATOM     26  C   LIG d   1       4.189   1.010  -2.311  0.00  0.00    -0.053 C 
ATOM     27  H   LIG d   1       6.342   0.945  -2.362  0.00  0.00     0.027 H 
ATOM     28  H   LIG d   1       5.565  -0.632  -2.085  0.00  0.00     0.027 H 
ATOM     29  C   LIG d   1       3.016   0.111  -2.704  0.00  0.00    -0.051 C 
ATOM     30  H   LIG d   1       4.130   1.947  -2.867  0.00  0.00     0.026 H 
ATOM     31  H   LIG d   1       4.146   1.218  -1.242  0.00  0.00     0.026 H 
ATOM     32  C   LIG d   1       3.076  -0.181  -4.204  0.00  0.00    -0.034 C 
ATOM     33  H   LIG d   1       2.078   0.613  -2.468  0.00  0.00     0.027 H 
ATOM     34  H   LIG d   1       3.075  -0.826  -2.148  0.00  0.00     0.027 H 
ATOM     35  H   LIG d   1       3.017   0.754  -4.759  0.00  0.00     0.028 H 
ATOM     36  H   LIG d   1       2.240  -0.824  -4.483  0.00  0.00     0.028 H 
ATOM     37  H   LIG d   1       4.452  -1.824  -3.978  0.00  0.00     0.050 H 
ENDBRANCH   1  21
BRANCH   2  38
ATOM     38  C   LIG d   1       5.054  -3.502  -5.417  0.00  0.00     0.224 C 
ATOM     39  H   LIG d   1       4.485  -3.306  -4.509  0.00  0.00     0.057 H 
BRANCH  38  40
ATOM     40  C   LIG d   1       4.597  -4.827  -6.028  0.00  0.00     0.409 C 
ATOM     41  F   LIG d   1       4.430  -5.777  -5.015  0.00  0.00    -0.170 F 
ATOM     42  F   LIG d   1       3.381  -4.639  -6.695  0.00  0.00    -0.170 F 
ATOM     43  F   LIG d   1       5.562  -5.279  -6.936  0.00  0.00    -0.170 F 
ENDBRANCH  38  40
BRANCH  38  44
ATOM     44  C   LIG d   1       6.544  -3.584  -5.077  0.00  0.00     0.409 C 
ATOM     45  F   LIG d   1       7.284  -2.935  -6.071  0.00  0.00    -0.170 F 
ATOM     46  F   LIG d   1       6.776  -2.967  -3.844  0.00  0.00    -0.170 F 
ATOM     47  F   LIG d   1       6.933  -4.926  -5.008  0.00  0.00    -0.170 F 
ENDBRANCH  38  44
ENDBRANCH   2  38
TORSDOF 5
ENDMDL
