MODEL 1
REMARK VINA RESULT:      -5.8      0.000      0.000
REMARK  12 active torsions:
REMARK  status: ('A' for Active; 'I' for Inactive)
REMARK    1  A    between atoms: C_1  and  C_2 
REMARK    2  A    between atoms: C_6  and  C_40 
REMARK    3  A    between atoms: C_15  and  O_20 
REMARK    4  A    between atoms: C_17  and  C_18 
REMARK    5  A    between atoms: C_17  and  C_19 
REMARK    6  A    between atoms: O_20  and  C_21 
REMARK    7  A    between atoms: C_21  and  C_23 
REMARK    8  A    between atoms: C_27  and  C_36 
REMARK    9  A    between atoms: C_28  and  C_35 
REMARK   10  A    between atoms: C_31  and  C_34 
REMARK   11  A    between atoms: C_36  and  O_38 
REMARK   12  A    between atoms: O_38  and  C_39 
ROOT
ATOM      1  C   LIG d   1       1.811  -1.156 -11.034  0.00  0.00    -0.062 C 
ATOM      2  C   LIG d   1       2.157  -0.297 -10.233  0.00  0.00    -0.079 C 
ATOM      3  C   LIG d   1       3.511  -0.496  -9.476  0.00  0.00     0.001 C 
ATOM      4  H   LIG d   1       3.481  -1.223  -8.652  0.00  0.00     0.036 H 
ATOM      5  C   LIG d   1       4.488  -0.910 -10.560  0.00  0.00     0.002 C 
ATOM      6  C   LIG d   1       5.903  -0.881 -10.144  0.00  0.00    -0.008 C 
ATOM      7  C   LIG d   1       6.207   0.346  -9.226  0.00  0.00     0.108 C 
ATOM      8  H   LIG d   1       7.295   0.357  -9.063  0.00  0.00     0.074 H 
ATOM      9  C   LIG d   1       5.291   0.383  -7.931  0.00  0.00     0.021 C 
ATOM     10  H   LIG d   1       5.647   1.040  -7.124  0.00  0.00     0.035 H 
ATOM     11  C   LIG d   1       3.926   0.634  -8.672  0.00  0.00     0.081 C 
ATOM     12  C   LIG d   1       2.912   1.060  -7.658  0.00  0.00    -0.033 C 
ATOM     13  C   LIG d   1       2.767  -0.068  -6.639  0.00  0.00    -0.014 C 
ATOM     14  C   LIG d   1       4.102  -0.258  -5.895  0.00  0.00     0.109 C 
ATOM     15  H   LIG d   1       4.252   0.685  -5.349  0.00  0.00     0.074 H 
ATOM     16  C   LIG d   1       5.319  -0.606  -6.846  0.00  0.00     0.009 C 
ATOM     17  C   LIG d   1       4.364   1.774  -9.609  0.00  0.00     0.315 C 
ATOM     18  O   LIG d   1       3.705   2.749  -9.973  0.00  0.00    -0.250 OA
ATOM     19  O   LIG d   1       5.684   1.520  -9.863  0.00  0.00    -0.461 OA
ATOM     20  C   LIG d   1       4.091  -2.335 -11.129  0.00  0.00     0.148 A 
ATOM     21  C   LIG d   1       2.515  -2.402 -11.341  0.00  0.00     0.070 A 
ATOM     22  C   LIG d   1       2.131  -3.515 -10.387  0.00  0.00     0.154 A 
ATOM     23  O   LIG d   1       1.005  -3.893 -10.248  0.00  0.00    -0.296 OA
ATOM     24  C   LIG d   1       3.268  -4.027  -9.861  0.00  0.00     0.075 A 
ATOM     25  C   LIG d   1       4.457  -3.385 -10.237  0.00  0.00     0.162 A 
ATOM     26  O   LIG d   1       5.652  -3.898  -9.835  0.00  0.00    -0.295 OA
ATOM     27  H   LIG d   1       1.522   0.584 -10.062  0.00  0.00     0.058 H 
ATOM     28  H   LIG d   1       6.140  -1.799  -9.586  0.00  0.00     0.031 H 
ATOM     29  H   LIG d   1       6.546  -0.815 -11.035  0.00  0.00     0.031 H 
ATOM     30  H   LIG d   1       3.253   1.980  -7.163  0.00  0.00     0.028 H 
ATOM     31  H   LIG d   1       1.950   1.248  -8.158  0.00  0.00     0.028 H 
ATOM     32  H   LIG d   1       1.977   0.187  -5.918  0.00  0.00     0.030 H 
ATOM     33  H   LIG d   1       2.502  -1.000  -7.160  0.00  0.00     0.030 H 
ATOM     34  H   LIG d   1       2.743  -3.495 -10.668  0.00  0.00     0.045 H 
ENDROOT
BRANCH  14  35
ATOM     35  O   LIG d   1       4.018  -1.357  -4.926  0.00  0.00    -0.461 OA
BRANCH  35  36
ATOM     36  C   LIG d   1       3.761  -1.025  -3.651  0.00  0.00     0.304 C 
ATOM     37  O   LIG d   1       3.438   0.105  -3.373  0.00  0.00    -0.251 OA
BRANCH  36  38
ATOM     38  C   LIG d   1       3.873  -2.065  -2.566  0.00  0.00     0.033 C 
ATOM     39  H   LIG d   1       3.781  -3.068  -3.008  0.00  0.00     0.034 H 
ATOM     40  H   LIG d   1       3.068  -1.915  -1.830  0.00  0.00     0.034 H 
ATOM     41  H   LIG d   1       4.848  -1.972  -2.066  0.00  0.00     0.034 H 
ENDBRANCH  36  38
ENDBRANCH  35  36
ENDBRANCH  14  35
BRANCH  16  42
ATOM     42  C   LIG d   1       5.206  -2.005  -7.260  0.00  0.00    -0.056 C 
ATOM     43  H   LIG d   1       4.951  -2.053  -8.328  0.00  0.00     0.024 H 
ATOM     44  H   LIG d   1       4.419  -2.499  -6.672  0.00  0.00     0.024 H 
ATOM     45  H   LIG d   1       6.165  -2.516  -7.089  0.00  0.00     0.024 H 
ENDBRANCH  16  42
BRANCH  16  46
ATOM     46  C   LIG d   1       6.555  -0.444  -6.057  0.00  0.00    -0.056 C 
ATOM     47  H   LIG d   1       7.013  -1.430  -5.888  0.00  0.00     0.024 H 
ATOM     48  H   LIG d   1       6.313   0.018  -5.089  0.00  0.00     0.024 H 
ATOM     49  H   LIG d   1       7.258   0.199  -6.605  0.00  0.00     0.024 H 
ENDBRANCH  16  46
BRANCH   5  50
ATOM     50  C   LIG d   1       4.346   0.041 -11.797  0.00  0.00    -0.057 C 
ATOM     51  H   LIG d   1       4.117  -0.555 -12.692  0.00  0.00     0.024 H 
ATOM     52  H   LIG d   1       5.289   0.585 -11.950  0.00  0.00     0.024 H 
ATOM     53  H   LIG d   1       3.533   0.759 -11.616  0.00  0.00     0.024 H 
ENDBRANCH   5  50
BRANCH   1  54
ATOM     54  C   LIG d   1       0.469  -0.907 -11.749  0.00  0.00    -0.043 C 
ATOM     55  H   LIG d   1       0.636  -0.271 -12.631  0.00  0.00     0.028 H 
ATOM     56  H   LIG d   1      -0.226  -0.404 -11.060  0.00  0.00     0.028 H 
ATOM     57  H   LIG d   1       0.039  -1.868 -12.066  0.00  0.00     0.028 H 
ENDBRANCH   1  54
BRANCH  20  58
ATOM     58  C   LIG d   1       4.792  -2.480 -12.476  0.00  0.00     0.322 C 
ATOM     59  O   LIG d   1       4.600  -1.667 -13.348  0.00  0.00    -0.250 OA
BRANCH  58  60
ATOM     60  O   LIG d   1       5.624  -3.512 -12.692  0.00  0.00    -0.467 OA
BRANCH  60  61
ATOM     61  C   LIG d   1       6.988  -3.191 -13.069  0.00  0.00     0.082 C 
ATOM     62  H   LIG d   1       7.448  -4.061 -13.560  0.00  0.00     0.066 H 
ATOM     63  H   LIG d   1       7.566  -2.931 -12.169  0.00  0.00     0.066 H 
ATOM     64  H   LIG d   1       6.986  -2.336 -13.762  0.00  0.00     0.066 H 
ENDBRANCH  60  61
ENDBRANCH  58  60
ENDBRANCH  20  58
BRANCH  21  65
ATOM     65  C   LIG d   1       2.216  -2.823 -12.828  0.00  0.00    -0.048 C 
ATOM     66  H   LIG d   1       2.453  -3.889 -12.961  0.00  0.00     0.024 H 
ATOM     67  H   LIG d   1       2.833  -2.222 -13.511  0.00  0.00     0.024 H 
ATOM     68  H   LIG d   1       1.152  -2.653 -13.050  0.00  0.00     0.024 H 
ENDBRANCH  21  65
BRANCH  24  69
ATOM     69  C   LIG d   1       3.251  -5.216  -8.909  0.00  0.00    -0.049 C 
ATOM     70  H   LIG d   1       2.477  -5.061  -8.145  0.00  0.00     0.024 H 
ATOM     71  H   LIG d   1       4.234  -5.311  -8.424  0.00  0.00     0.024 H 
ATOM     72  H   LIG d   1       3.031  -6.134  -9.474  0.00  0.00     0.024 H 
ENDBRANCH  24  69
TORSDOF 12
ENDMDL
MODEL 2
REMARK VINA RESULT:      -5.8      2.800      7.153
REMARK  12 active torsions:
REMARK  status: ('A' for Active; 'I' for Inactive)
REMARK    1  A    between atoms: C_1  and  C_2 
REMARK    2  A    between atoms: C_6  and  C_40 
REMARK    3  A    between atoms: C_15  and  O_20 
REMARK    4  A    between atoms: C_17  and  C_18 
REMARK    5  A    between atoms: C_17  and  C_19 
REMARK    6  A    between atoms: O_20  and  C_21 
REMARK    7  A    between atoms: C_21  and  C_23 
REMARK    8  A    between atoms: C_27  and  C_36 
REMARK    9  A    between atoms: C_28  and  C_35 
REMARK   10  A    between atoms: C_31  and  C_34 
REMARK   11  A    between atoms: C_36  and  O_38 
REMARK   12  A    between atoms: O_38  and  C_39 
ROOT
ATOM      1  C   LIG d   1       4.855  -1.894  -3.482  0.00  0.00    -0.062 C 
ATOM      2  C   LIG d   1       5.117  -2.971  -4.000  0.00  0.00    -0.079 C 
ATOM      3  C   LIG d   1       5.567  -2.980  -5.498  0.00  0.00     0.001 C 
ATOM      4  H   LIG d   1       4.755  -2.849  -6.228  0.00  0.00     0.036 H 
ATOM      5  C   LIG d   1       6.592  -1.866  -5.587  0.00  0.00     0.002 C 
ATOM      6  C   LIG d   1       7.374  -1.860  -6.838  0.00  0.00    -0.008 C 
ATOM      7  C   LIG d   1       7.732  -3.310  -7.298  0.00  0.00     0.108 C 
ATOM      8  H   LIG d   1       8.408  -3.209  -8.160  0.00  0.00     0.074 H 
ATOM      9  C   LIG d   1       6.450  -4.222  -7.499  0.00  0.00     0.021 C 
ATOM     10  H   LIG d   1       6.614  -5.137  -8.088  0.00  0.00     0.035 H 
ATOM     11  C   LIG d   1       6.011  -4.267  -5.989  0.00  0.00     0.081 C 
ATOM     12  C   LIG d   1       5.002  -5.359  -5.824  0.00  0.00    -0.033 C 
ATOM     13  C   LIG d   1       3.808  -5.030  -6.719  0.00  0.00    -0.014 C 
ATOM     14  C   LIG d   1       4.255  -5.043  -8.192  0.00  0.00     0.109 C 
ATOM     15  H   LIG d   1       4.555  -6.083  -8.382  0.00  0.00     0.074 H 
ATOM     16  C   LIG d   1       5.413  -4.011  -8.516  0.00  0.00     0.009 C 
ATOM     17  C   LIG d   1       7.372  -4.597  -5.350  0.00  0.00     0.315 C 
ATOM     18  O   LIG d   1       7.595  -5.309  -4.370  0.00  0.00    -0.250 OA
ATOM     19  O   LIG d   1       8.290  -4.008  -6.176  0.00  0.00    -0.461 OA
ATOM     20  C   LIG d   1       5.889  -0.464  -5.348  0.00  0.00     0.148 A 
ATOM     21  C   LIG d   1       4.872  -0.582  -4.130  0.00  0.00     0.070 A 
ATOM     22  C   LIG d   1       3.553  -0.274  -4.810  0.00  0.00     0.154 A 
ATOM     23  O   LIG d   1       2.510  -0.249  -4.226  0.00  0.00    -0.296 OA
ATOM     24  C   LIG d   1       3.812   0.061  -6.096  0.00  0.00     0.075 A 
ATOM     25  C   LIG d   1       5.154  -0.037  -6.492  0.00  0.00     0.162 A 
ATOM     26  O   LIG d   1       5.517   0.378  -7.737  0.00  0.00    -0.295 OA
ATOM     27  H   LIG d   1       5.033  -3.899  -3.415  0.00  0.00     0.058 H 
ATOM     28  H   LIG d   1       6.788  -1.378  -7.634  0.00  0.00     0.031 H 
ATOM     29  H   LIG d   1       8.310  -1.304  -6.682  0.00  0.00     0.031 H 
ATOM     30  H   LIG d   1       5.448  -6.318  -6.122  0.00  0.00     0.028 H 
ATOM     31  H   LIG d   1       4.687  -5.412  -4.772  0.00  0.00     0.028 H 
ATOM     32  H   LIG d   1       3.018  -5.781  -6.567  0.00  0.00     0.030 H 
ATOM     33  H   LIG d   1       3.421  -4.033  -6.461  0.00  0.00     0.030 H 
ATOM     34  H   LIG d   1       4.132  -0.023  -5.047  0.00  0.00     0.045 H 
ENDROOT
BRANCH  14  35
ATOM     35  O   LIG d   1       3.145  -4.699  -9.087  0.00  0.00    -0.461 OA
BRANCH  35  36
ATOM     36  C   LIG d   1       2.627  -5.695  -9.824  0.00  0.00     0.304 C 
ATOM     37  O   LIG d   1       2.203  -6.689  -9.285  0.00  0.00    -0.251 OA
BRANCH  36  38
ATOM     38  C   LIG d   1       2.574  -5.571 -11.325  0.00  0.00     0.033 C 
ATOM     39  H   LIG d   1       2.331  -4.534 -11.598  0.00  0.00     0.034 H 
ATOM     40  H   LIG d   1       1.799  -6.245 -11.721  0.00  0.00     0.034 H 
ATOM     41  H   LIG d   1       3.550  -5.844 -11.751  0.00  0.00     0.034 H 
ENDBRANCH  36  38
ENDBRANCH  35  36
ENDBRANCH  14  35
BRANCH  16  42
ATOM     42  C   LIG d   1       4.840  -2.665  -8.570  0.00  0.00    -0.056 C 
ATOM     43  H   LIG d   1       4.312  -2.453  -7.630  0.00  0.00     0.024 H 
ATOM     44  H   LIG d   1       4.134  -2.601  -9.411  0.00  0.00     0.024 H 
ATOM     45  H   LIG d   1       5.646  -1.930  -8.712  0.00  0.00     0.024 H 
ENDBRANCH  16  42
BRANCH  16  46
ATOM     46  C   LIG d   1       5.945  -4.353  -9.849  0.00  0.00    -0.056 C 
ATOM     47  H   LIG d   1       5.317  -3.890 -10.624  0.00  0.00     0.024 H 
ATOM     48  H   LIG d   1       5.940  -5.445  -9.977  0.00  0.00     0.024 H 
ATOM     49  H   LIG d   1       6.975  -3.978  -9.939  0.00  0.00     0.024 H 
ENDBRANCH  16  46
BRANCH   5  50
ATOM     50  C   LIG d   1       7.609  -1.982  -4.401  0.00  0.00    -0.057 C 
ATOM     51  H   LIG d   1       7.128  -2.495  -3.556  0.00  0.00     0.024 H 
ATOM     52  H   LIG d   1       7.923  -0.976  -4.089  0.00  0.00     0.024 H 
ATOM     53  H   LIG d   1       8.488  -2.556  -4.727  0.00  0.00     0.024 H 
ENDBRANCH   5  50
BRANCH   1  54
ATOM     54  C   LIG d   1       4.417  -1.947  -2.005  0.00  0.00    -0.043 C 
ATOM     55  H   LIG d   1       4.489  -2.982  -1.639  0.00  0.00     0.028 H 
ATOM     56  H   LIG d   1       3.377  -1.600  -1.918  0.00  0.00     0.028 H 
ATOM     57  H   LIG d   1       5.072  -1.299  -1.405  0.00  0.00     0.028 H 
ENDBRANCH   1  54
BRANCH  20  58
ATOM     58  C   LIG d   1       6.994   0.525  -4.995  0.00  0.00     0.322 C 
ATOM     59  O   LIG d   1       7.617   0.395  -3.967  0.00  0.00    -0.250 OA
BRANCH  58  60
ATOM     60  O   LIG d   1       7.276   1.542  -5.825  0.00  0.00    -0.467 OA
BRANCH  60  61
ATOM     61  C   LIG d   1       8.657   1.684  -6.248  0.00  0.00     0.082 C 
ATOM     62  H   LIG d   1       9.074   0.693  -6.481  0.00  0.00     0.066 H 
ATOM     63  H   LIG d   1       9.243   2.146  -5.439  0.00  0.00     0.066 H 
ATOM     64  H   LIG d   1       8.703   2.322  -7.143  0.00  0.00     0.066 H 
ENDBRANCH  60  61
ENDBRANCH  58  60
ENDBRANCH  20  58
BRANCH  21  65
ATOM     65  C   LIG d   1       5.215   0.527  -3.068  0.00  0.00    -0.048 C 
ATOM     66  H   LIG d   1       4.389   1.251  -3.014  0.00  0.00     0.024 H 
ATOM     67  H   LIG d   1       6.139   1.045  -3.364  0.00  0.00     0.024 H 
ATOM     68  H   LIG d   1       5.358   0.058  -2.082  0.00  0.00     0.024 H 
ENDBRANCH  21  65
BRANCH  24  69
ATOM     69  C   LIG d   1       2.711   0.499  -7.052  0.00  0.00    -0.049 C 
ATOM     70  H   LIG d   1       1.922   1.017  -6.489  0.00  0.00     0.024 H 
ATOM     71  H   LIG d   1       2.286  -0.385  -7.552  0.00  0.00     0.024 H 
ATOM     72  H   LIG d   1       3.131   1.180  -7.807  0.00  0.00     0.024 H 
ENDBRANCH  24  69
TORSDOF 12
ENDMDL
MODEL 3
REMARK VINA RESULT:      -5.5      1.825      4.534
REMARK  12 active torsions:
REMARK  status: ('A' for Active; 'I' for Inactive)
REMARK    1  A    between atoms: C_1  and  C_2 
REMARK    2  A    between atoms: C_6  and  C_40 
REMARK    3  A    between atoms: C_15  and  O_20 
REMARK    4  A    between atoms: C_17  and  C_18 
REMARK    5  A    between atoms: C_17  and  C_19 
REMARK    6  A    between atoms: O_20  and  C_21 
REMARK    7  A    between atoms: C_21  and  C_23 
REMARK    8  A    between atoms: C_27  and  C_36 
REMARK    9  A    between atoms: C_28  and  C_35 
REMARK   10  A    between atoms: C_31  and  C_34 
REMARK   11  A    between atoms: C_36  and  O_38 
REMARK   12  A    between atoms: O_38  and  C_39 
ROOT
ATOM      1  C   LIG d   1       6.543  -0.845 -10.208  0.00  0.00    -0.062 C 
ATOM      2  C   LIG d   1       6.941  -1.254  -9.125  0.00  0.00    -0.079 C 
ATOM      3  C   LIG d   1       5.878  -1.643  -8.046  0.00  0.00     0.001 C 
ATOM      4  H   LIG d   1       5.408  -0.794  -7.530  0.00  0.00     0.036 H 
ATOM      5  C   LIG d   1       4.862  -2.476  -8.805  0.00  0.00     0.002 C 
ATOM      6  C   LIG d   1       3.907  -3.199  -7.945  0.00  0.00    -0.008 C 
ATOM      7  C   LIG d   1       4.602  -3.764  -6.664  0.00  0.00     0.108 C 
ATOM      8  H   LIG d   1       3.854  -4.383  -6.147  0.00  0.00     0.074 H 
ATOM      9  C   LIG d   1       5.312  -2.636  -5.805  0.00  0.00     0.021 C 
ATOM     10  H   LIG d   1       5.559  -2.919  -4.772  0.00  0.00     0.035 H 
ATOM     11  C   LIG d   1       6.422  -2.266  -6.859  0.00  0.00     0.081 C 
ATOM     12  C   LIG d   1       7.469  -1.448  -6.172  0.00  0.00    -0.033 C 
ATOM     13  C   LIG d   1       6.799  -0.185  -5.635  0.00  0.00    -0.014 C 
ATOM     14  C   LIG d   1       5.756  -0.573  -4.572  0.00  0.00     0.109 C 
ATOM     15  H   LIG d   1       6.342  -1.026  -3.759  0.00  0.00     0.074 H 
ATOM     16  C   LIG d   1       4.623  -1.540  -5.112  0.00  0.00     0.009 C 
ATOM     17  C   LIG d   1       6.897  -3.685  -7.218  0.00  0.00     0.315 C 
ATOM     18  O   LIG d   1       8.042  -4.054  -7.485  0.00  0.00    -0.250 OA
ATOM     19  O   LIG d   1       5.784  -4.467  -7.072  0.00  0.00    -0.461 OA
ATOM     20  C   LIG d   1       4.103  -1.570  -9.863  0.00  0.00     0.148 A 
ATOM     21  C   LIG d   1       5.151  -0.630 -10.606  0.00  0.00     0.070 A 
ATOM     22  C   LIG d   1       4.657   0.745 -10.204  0.00  0.00     0.154 A 
ATOM     23  O   LIG d   1       5.180   1.756 -10.572  0.00  0.00    -0.296 OA
ATOM     24  C   LIG d   1       3.514   0.590  -9.497  0.00  0.00     0.075 A 
ATOM     25  C   LIG d   1       3.128  -0.734  -9.244  0.00  0.00     0.162 A 
ATOM     26  O   LIG d   1       1.939  -0.980  -8.628  0.00  0.00    -0.295 OA
ATOM     27  H   LIG d   1       8.020  -1.340  -8.932  0.00  0.00     0.058 H 
ATOM     28  H   LIG d   1       3.105  -2.515  -7.632  0.00  0.00     0.031 H 
ATOM     29  H   LIG d   1       3.475  -4.041  -8.506  0.00  0.00     0.031 H 
ATOM     30  H   LIG d   1       7.904  -2.029  -5.346  0.00  0.00     0.028 H 
ATOM     31  H   LIG d   1       8.259  -1.186  -6.890  0.00  0.00     0.028 H 
ATOM     32  H   LIG d   1       7.559   0.470  -5.184  0.00  0.00     0.030 H 
ATOM     33  H   LIG d   1       6.302   0.345  -6.462  0.00  0.00     0.030 H 
ATOM     34  H   LIG d   1       4.234   0.223 -10.243  0.00  0.00     0.045 H 
ENDROOT
BRANCH  14  35
ATOM     35  O   LIG d   1       5.062   0.611  -4.052  0.00  0.00    -0.461 OA
BRANCH  35  36
ATOM     36  C   LIG d   1       5.475   1.085  -2.865  0.00  0.00     0.304 C 
ATOM     37  O   LIG d   1       6.530   1.667  -2.780  0.00  0.00    -0.251 OA
BRANCH  36  38
ATOM     38  C   LIG d   1       4.620   0.892  -1.639  0.00  0.00     0.033 C 
ATOM     39  H   LIG d   1       4.767  -0.125  -1.247  0.00  0.00     0.034 H 
ATOM     40  H   LIG d   1       3.561   1.032  -1.904  0.00  0.00     0.034 H 
ATOM     41  H   LIG d   1       4.907   1.626  -0.872  0.00  0.00     0.034 H 
ENDBRANCH  36  38
ENDBRANCH  35  36
ENDBRANCH  14  35
BRANCH  16  42
ATOM     42  C   LIG d   1       3.689  -0.761  -5.926  0.00  0.00    -0.056 C 
ATOM     43  H   LIG d   1       4.252  -0.098  -6.598  0.00  0.00     0.024 H 
ATOM     44  H   LIG d   1       3.046  -0.158  -5.268  0.00  0.00     0.024 H 
ATOM     45  H   LIG d   1       3.065  -1.444  -6.522  0.00  0.00     0.024 H 
ENDBRANCH  16  42
BRANCH  16  46
ATOM     46  C   LIG d   1       3.901  -2.070  -3.940  0.00  0.00    -0.056 C 
ATOM     47  H   LIG d   1       3.998  -3.165  -3.913  0.00  0.00     0.024 H 
ATOM     48  H   LIG d   1       2.838  -1.798  -4.010  0.00  0.00     0.024 H 
ATOM     49  H   LIG d   1       4.329  -1.641  -3.022  0.00  0.00     0.024 H 
ENDBRANCH  16  46
BRANCH   5  50
ATOM     50  C   LIG d   1       5.599  -3.542  -9.685  0.00  0.00    -0.057 C 
ATOM     51  H   LIG d   1       4.872  -4.283 -10.047  0.00  0.00     0.024 H 
ATOM     52  H   LIG d   1       6.367  -4.047  -9.081  0.00  0.00     0.024 H 
ATOM     53  H   LIG d   1       6.074  -3.045 -10.543  0.00  0.00     0.024 H 
ENDBRANCH   5  50
BRANCH   1  54
ATOM     54  C   LIG d   1       7.635  -0.477 -11.231  0.00  0.00    -0.043 C 
ATOM     55  H   LIG d   1       8.279   0.311 -10.811  0.00  0.00     0.028 H 
ATOM     56  H   LIG d   1       7.164  -0.111 -12.155  0.00  0.00     0.028 H 
ATOM     57  H   LIG d   1       8.242  -1.365 -11.456  0.00  0.00     0.028 H 
ENDBRANCH   1  54
BRANCH  20  58
ATOM     58  C   LIG d   1       3.464  -2.518 -10.873  0.00  0.00     0.322 C 
ATOM     59  O   LIG d   1       4.152  -3.288 -11.498  0.00  0.00    -0.250 OA
BRANCH  58  60
ATOM     60  O   LIG d   1       2.136  -2.496 -11.065  0.00  0.00    -0.467 OA
BRANCH  60  61
ATOM     61  C   LIG d   1       1.408  -3.718 -10.776  0.00  0.00     0.082 C 
ATOM     62  H   LIG d   1       2.117  -4.553 -10.679  0.00  0.00     0.066 H 
ATOM     63  H   LIG d   1       0.704  -3.929 -11.594  0.00  0.00     0.066 H 
ATOM     64  H   LIG d   1       0.850  -3.599  -9.835  0.00  0.00     0.066 H 
ENDBRANCH  60  61
ENDBRANCH  58  60
ENDBRANCH  20  58
BRANCH  21  65
ATOM     65  C   LIG d   1       5.009  -0.834 -12.160  0.00  0.00    -0.048 C 
ATOM     66  H   LIG d   1       4.363  -0.047 -12.575  0.00  0.00     0.024 H 
ATOM     67  H   LIG d   1       4.563  -1.819 -12.361  0.00  0.00     0.024 H 
ATOM     68  H   LIG d   1       6.003  -0.779 -12.629  0.00  0.00     0.024 H 
ENDBRANCH  21  65
BRANCH  24  69
ATOM     69  C   LIG d   1       2.709   1.782  -8.995  0.00  0.00    -0.049 C 
ATOM     70  H   LIG d   1       2.237   2.290  -9.848  0.00  0.00     0.024 H 
ATOM     71  H   LIG d   1       3.378   2.483  -8.473  0.00  0.00     0.024 H 
ATOM     72  H   LIG d   1       1.931   1.433  -8.300  0.00  0.00     0.024 H 
ENDBRANCH  24  69
TORSDOF 12
ENDMDL
MODEL 4
REMARK VINA RESULT:      -5.4      3.482      6.407
REMARK  12 active torsions:
REMARK  status: ('A' for Active; 'I' for Inactive)
REMARK    1  A    between atoms: C_1  and  C_2 
REMARK    2  A    between atoms: C_6  and  C_40 
REMARK    3  A    between atoms: C_15  and  O_20 
REMARK    4  A    between atoms: C_17  and  C_18 
REMARK    5  A    between atoms: C_17  and  C_19 
REMARK    6  A    between atoms: O_20  and  C_21 
REMARK    7  A    between atoms: C_21  and  C_23 
REMARK    8  A    between atoms: C_27  and  C_36 
REMARK    9  A    between atoms: C_28  and  C_35 
REMARK   10  A    between atoms: C_31  and  C_34 
REMARK   11  A    between atoms: C_36  and  O_38 
REMARK   12  A    between atoms: O_38  and  C_39 
ROOT
ATOM      1  C   LIG d   1       8.335  -4.818  -5.186  0.00  0.00    -0.062 C 
ATOM      2  C   LIG d   1       7.163  -4.588  -4.917  0.00  0.00    -0.079 C 
ATOM      3  C   LIG d   1       6.413  -3.501  -5.755  0.00  0.00     0.001 C 
ATOM      4  H   LIG d   1       6.657  -2.462  -5.492  0.00  0.00     0.036 H 
ATOM      5  C   LIG d   1       6.776  -3.821  -7.193  0.00  0.00     0.002 C 
ATOM      6  C   LIG d   1       5.963  -3.108  -8.196  0.00  0.00    -0.008 C 
ATOM      7  C   LIG d   1       4.467  -3.008  -7.757  0.00  0.00     0.108 C 
ATOM      8  H   LIG d   1       3.917  -2.575  -8.605  0.00  0.00     0.074 H 
ATOM      9  C   LIG d   1       4.288  -2.294  -6.352  0.00  0.00     0.021 C 
ATOM     10  H   LIG d   1       3.270  -1.941  -6.131  0.00  0.00     0.035 H 
ATOM     11  C   LIG d   1       4.995  -3.402  -5.486  0.00  0.00     0.081 C 
ATOM     12  C   LIG d   1       4.668  -3.154  -4.047  0.00  0.00    -0.033 C 
ATOM     13  C   LIG d   1       5.198  -1.769  -3.679  0.00  0.00    -0.014 C 
ATOM     14  C   LIG d   1       4.454  -0.703  -4.504  0.00  0.00     0.109 C 
ATOM     15  H   LIG d   1       3.408  -0.774  -4.172  0.00  0.00     0.074 H 
ATOM     16  C   LIG d   1       4.605  -0.889  -6.070  0.00  0.00     0.009 C 
ATOM     17  C   LIG d   1       4.293  -4.645  -6.062  0.00  0.00     0.315 C 
ATOM     18  O   LIG d   1       3.958  -5.669  -5.465  0.00  0.00    -0.250 OA
ATOM     19  O   LIG d   1       4.030  -4.317  -7.364  0.00  0.00    -0.461 OA
ATOM     20  C   LIG d   1       8.324  -3.566  -7.428  0.00  0.00     0.148 A 
ATOM     21  C   LIG d   1       9.150  -4.146  -6.198  0.00  0.00     0.070 A 
ATOM     22  C   LIG d   1       9.799  -2.889  -5.654  0.00  0.00     0.154 A 
ATOM     23  O   LIG d   1      10.530  -2.892  -4.707  0.00  0.00    -0.296 OA
ATOM     24  C   LIG d   1       9.491  -1.865  -6.483  0.00  0.00     0.075 A 
ATOM     25  C   LIG d   1       8.623  -2.176  -7.539  0.00  0.00     0.162 A 
ATOM     26  O   LIG d   1       8.342  -1.230  -8.478  0.00  0.00    -0.295 OA
ATOM     27  H   LIG d   1       6.666  -5.139  -4.106  0.00  0.00     0.058 H 
ATOM     28  H   LIG d   1       6.355  -2.089  -8.328  0.00  0.00     0.031 H 
ATOM     29  H   LIG d   1       6.009  -3.647  -9.154  0.00  0.00     0.031 H 
ATOM     30  H   LIG d   1       3.579  -3.195  -3.906  0.00  0.00     0.028 H 
ATOM     31  H   LIG d   1       5.147  -3.924  -3.424  0.00  0.00     0.028 H 
ATOM     32  H   LIG d   1       5.033  -1.586  -2.607  0.00  0.00     0.030 H 
ATOM     33  H   LIG d   1       6.274  -1.719  -3.899  0.00  0.00     0.030 H 
ATOM     34  H   LIG d   1       9.637  -2.941  -6.306  0.00  0.00     0.045 H 
ENDROOT
BRANCH  14  35
ATOM     35  O   LIG d   1       4.955   0.643  -4.207  0.00  0.00    -0.461 OA
BRANCH  35  36
ATOM     36  C   LIG d   1       4.820   1.077  -2.943  0.00  0.00     0.304 C 
ATOM     37  O   LIG d   1       5.793   1.415  -2.312  0.00  0.00    -0.251 OA
BRANCH  36  38
ATOM     38  C   LIG d   1       3.453   1.143  -2.312  0.00  0.00     0.033 C 
ATOM     39  H   LIG d   1       2.734   1.551  -3.038  0.00  0.00     0.034 H 
ATOM     40  H   LIG d   1       3.489   1.794  -1.426  0.00  0.00     0.034 H 
ATOM     41  H   LIG d   1       3.137   0.133  -2.012  0.00  0.00     0.034 H 
ENDBRANCH  36  38
ENDBRANCH  35  36
ENDBRANCH  14  35
BRANCH  16  42
ATOM     42  C   LIG d   1       5.941  -0.447  -6.469  0.00  0.00    -0.056 C 
ATOM     43  H   LIG d   1       6.164  -0.816  -7.480  0.00  0.00     0.024 H 
ATOM     44  H   LIG d   1       6.685  -0.843  -5.762  0.00  0.00     0.024 H 
ATOM     45  H   LIG d   1       5.981   0.653  -6.463  0.00  0.00     0.024 H 
ENDBRANCH  16  42
BRANCH  16  46
ATOM     46  C   LIG d   1       3.606  -0.015  -6.714  0.00  0.00    -0.056 C 
ATOM     47  H   LIG d   1       3.573   0.952  -6.191  0.00  0.00     0.024 H 
ATOM     48  H   LIG d   1       2.616  -0.492  -6.665  0.00  0.00     0.024 H 
ATOM     49  H   LIG d   1       3.884   0.145  -7.766  0.00  0.00     0.024 H 
ENDBRANCH  16  46
BRANCH   5  50
ATOM     50  C   LIG d   1       6.605  -5.355  -7.457  0.00  0.00    -0.057 C 
ATOM     51  H   LIG d   1       6.738  -5.906  -6.515  0.00  0.00     0.024 H 
ATOM     52  H   LIG d   1       7.358  -5.687  -8.186  0.00  0.00     0.024 H 
ATOM     53  H   LIG d   1       5.598  -5.548  -7.856  0.00  0.00     0.024 H 
ENDBRANCH   5  50
BRANCH   1  54
ATOM     54  C   LIG d   1       9.022  -5.898  -4.328  0.00  0.00    -0.043 C 
ATOM     55  H   LIG d   1       9.911  -6.275  -4.856  0.00  0.00     0.028 H 
ATOM     56  H   LIG d   1       8.322  -6.727  -4.150  0.00  0.00     0.028 H 
ATOM     57  H   LIG d   1       9.327  -5.462  -3.365  0.00  0.00     0.028 H 
ENDBRANCH   1  54
BRANCH  20  58
ATOM     58  C   LIG d   1       8.704  -4.320  -8.698  0.00  0.00     0.322 C 
ATOM     59  O   LIG d   1       8.472  -5.502  -8.792  0.00  0.00    -0.250 OA
BRANCH  58  60
ATOM     60  O   LIG d   1       9.296  -3.671  -9.713  0.00  0.00    -0.467 OA
BRANCH  60  61
ATOM     61  C   LIG d   1       8.686  -3.801 -11.024  0.00  0.00     0.082 C 
ATOM     62  H   LIG d   1       8.059  -4.705 -11.049  0.00  0.00     0.066 H 
ATOM     63  H   LIG d   1       9.472  -3.879 -11.789  0.00  0.00     0.066 H 
ATOM     64  H   LIG d   1       8.063  -2.917 -11.228  0.00  0.00     0.066 H 
ENDBRANCH  60  61
ENDBRANCH  58  60
ENDBRANCH  20  58
BRANCH  21  65
ATOM     65  C   LIG d   1      10.244  -5.139  -6.740  0.00  0.00    -0.048 C 
ATOM     66  H   LIG d   1      11.244  -4.740  -6.518  0.00  0.00     0.024 H 
ATOM     67  H   LIG d   1      10.128  -5.255  -7.828  0.00  0.00     0.024 H 
ATOM     68  H   LIG d   1      10.123  -6.119  -6.253  0.00  0.00     0.024 H 
ENDBRANCH  21  65
BRANCH  24  69
ATOM     69  C   LIG d   1      10.042  -0.461  -6.269  0.00  0.00    -0.049 C 
ATOM     70  H   LIG d   1       9.735  -0.095  -5.279  0.00  0.00     0.024 H 
ATOM     71  H   LIG d   1       9.648   0.210  -7.048  0.00  0.00     0.024 H 
ATOM     72  H   LIG d   1      11.140  -0.485  -6.328  0.00  0.00     0.024 H 
ENDBRANCH  24  69
TORSDOF 12
ENDMDL
MODEL 5
REMARK VINA RESULT:      -5.2     12.132     15.908
REMARK  12 active torsions:
REMARK  status: ('A' for Active; 'I' for Inactive)
REMARK    1  A    between atoms: C_1  and  C_2 
REMARK    2  A    between atoms: C_6  and  C_40 
REMARK    3  A    between atoms: C_15  and  O_20 
REMARK    4  A    between atoms: C_17  and  C_18 
REMARK    5  A    between atoms: C_17  and  C_19 
REMARK    6  A    between atoms: O_20  and  C_21 
REMARK    7  A    between atoms: C_21  and  C_23 
REMARK    8  A    between atoms: C_27  and  C_36 
REMARK    9  A    between atoms: C_28  and  C_35 
REMARK   10  A    between atoms: C_31  and  C_34 
REMARK   11  A    between atoms: C_36  and  O_38 
REMARK   12  A    between atoms: O_38  and  C_39 
ROOT
ATOM      1  C   LIG d   1      13.687   7.934  -1.798  0.00  0.00    -0.062 C 
ATOM      2  C   LIG d   1      13.598   9.122  -2.075  0.00  0.00    -0.079 C 
ATOM      3  C   LIG d   1      12.194   9.802  -1.968  0.00  0.00     0.001 C 
ATOM      4  H   LIG d   1      11.505   9.578  -2.795  0.00  0.00     0.036 H 
ATOM      5  C   LIG d   1      11.650   9.328  -0.634  0.00  0.00     0.002 C 
ATOM      6  C   LIG d   1      10.454  10.058  -0.172  0.00  0.00    -0.008 C 
ATOM      7  C   LIG d   1      10.554  11.584  -0.493  0.00  0.00     0.108 C 
ATOM      8  H   LIG d   1       9.688  12.065  -0.014  0.00  0.00     0.074 H 
ATOM      9  C   LIG d   1      10.766  11.872  -2.039  0.00  0.00     0.021 C 
ATOM     10  H   LIG d   1      10.555  12.904  -2.356  0.00  0.00     0.035 H 
ATOM     11  C   LIG d   1      12.201  11.238  -2.154  0.00  0.00     0.081 C 
ATOM     12  C   LIG d   1      12.806  11.676  -3.450  0.00  0.00    -0.033 C 
ATOM     13  C   LIG d   1      11.908  11.175  -4.579  0.00  0.00    -0.014 C 
ATOM     14  C   LIG d   1      10.528  11.849  -4.471  0.00  0.00     0.109 C 
ATOM     15  H   LIG d   1      10.727  12.918  -4.635  0.00  0.00     0.074 H 
ATOM     16  C   LIG d   1       9.791  11.576  -3.096  0.00  0.00     0.009 C 
ATOM     17  C   LIG d   1      12.856  11.894  -0.925  0.00  0.00     0.315 C 
ATOM     18  O   LIG d   1      14.020  12.277  -0.803  0.00  0.00    -0.250 OA
ATOM     19  O   LIG d   1      11.830  12.053  -0.035  0.00  0.00    -0.461 OA
ATOM     20  C   LIG d   1      11.378   7.766  -0.686  0.00  0.00     0.148 A 
ATOM     21  C   LIG d   1      12.595   7.040  -1.410  0.00  0.00     0.070 A 
ATOM     22  C   LIG d   1      11.908   6.434  -2.617  0.00  0.00     0.154 A 
ATOM     23  O   LIG d   1      12.487   5.780  -3.434  0.00  0.00    -0.296 OA
ATOM     24  C   LIG d   1      10.581   6.674  -2.508  0.00  0.00     0.075 A 
ATOM     25  C   LIG d   1      10.191   7.457  -1.413  0.00  0.00     0.162 A 
ATOM     26  O   LIG d   1       8.867   7.662  -1.172  0.00  0.00    -0.295 OA
ATOM     27  H   LIG d   1      14.491   9.683  -2.389  0.00  0.00     0.058 H 
ATOM     28  H   LIG d   1       9.562   9.655  -0.675  0.00  0.00     0.031 H 
ATOM     29  H   LIG d   1      10.349   9.938   0.916  0.00  0.00     0.031 H 
ATOM     30  H   LIG d   1      12.869  12.774  -3.472  0.00  0.00     0.028 H 
ATOM     31  H   LIG d   1      13.815  11.249  -3.547  0.00  0.00     0.028 H 
ATOM     32  H   LIG d   1      12.364  11.423  -5.549  0.00  0.00     0.030 H 
ATOM     33  H   LIG d   1      11.791  10.084  -4.497  0.00  0.00     0.030 H 
ATOM     34  H   LIG d   1      11.570   6.545  -2.045  0.00  0.00     0.045 H 
ENDROOT
BRANCH  14  35
ATOM     35  O   LIG d   1       9.619  11.371  -5.519  0.00  0.00    -0.461 OA
BRANCH  35  36
ATOM     36  C   LIG d   1       9.757  11.916  -6.739  0.00  0.00     0.304 C 
ATOM     37  O   LIG d   1       9.953  11.209  -7.698  0.00  0.00    -0.251 OA
BRANCH  36  38
ATOM     38  C   LIG d   1       9.667  13.410  -6.910  0.00  0.00     0.033 C 
ATOM     39  H   LIG d   1      10.292  13.904  -6.152  0.00  0.00     0.034 H 
ATOM     40  H   LIG d   1       8.621  13.731  -6.786  0.00  0.00     0.034 H 
ATOM     41  H   LIG d   1      10.019  13.688  -7.914  0.00  0.00     0.034 H 
ENDBRANCH  36  38
ENDBRANCH  35  36
ENDBRANCH  14  35
BRANCH  16  42
ATOM     42  C   LIG d   1       9.262  10.212  -3.109  0.00  0.00    -0.056 C 
ATOM     43  H   LIG d   1       9.717   9.634  -2.292  0.00  0.00     0.024 H 
ATOM     44  H   LIG d   1       9.501   9.736  -4.072  0.00  0.00     0.024 H 
ATOM     45  H   LIG d   1       8.171  10.240  -2.976  0.00  0.00     0.024 H 
ENDBRANCH  16  42
BRANCH  16  46
ATOM     46  C   LIG d   1       8.660  12.520  -3.008  0.00  0.00    -0.056 C 
ATOM     47  H   LIG d   1       8.521  13.017  -3.980  0.00  0.00     0.024 H 
ATOM     48  H   LIG d   1       8.872  13.275  -2.237  0.00  0.00     0.024 H 
ATOM     49  H   LIG d   1       7.745  11.971  -2.743  0.00  0.00     0.024 H 
ENDBRANCH  16  46
BRANCH   5  50
ATOM     50  C   LIG d   1      12.747   9.481   0.474  0.00  0.00    -0.057 C 
ATOM     51  H   LIG d   1      13.743   9.453   0.009  0.00  0.00     0.024 H 
ATOM     52  H   LIG d   1      12.656   8.655   1.195  0.00  0.00     0.024 H 
ATOM     53  H   LIG d   1      12.611  10.439   0.995  0.00  0.00     0.024 H 
ENDBRANCH   5  50
BRANCH   1  54
ATOM     54  C   LIG d   1      15.094   7.318  -1.922  0.00  0.00    -0.043 C 
ATOM     55  H   LIG d   1      15.850   8.072  -1.654  0.00  0.00     0.028 H 
ATOM     56  H   LIG d   1      15.259   6.986  -2.958  0.00  0.00     0.028 H 
ATOM     57  H   LIG d   1      15.179   6.457  -1.244  0.00  0.00     0.028 H 
ENDBRANCH   1  54
BRANCH  20  58
ATOM     58  C   LIG d   1      11.287   7.289   0.760  0.00  0.00     0.322 C 
ATOM     59  O   LIG d   1      11.874   7.884   1.631  0.00  0.00    -0.250 OA
BRANCH  58  60
ATOM     60  O   LIG d   1      10.553   6.207   1.064  0.00  0.00    -0.467 OA
BRANCH  60  61
ATOM     61  C   LIG d   1      10.826   5.561   2.335  0.00  0.00     0.082 C 
ATOM     62  H   LIG d   1      10.211   4.653   2.425  0.00  0.00     0.066 H 
ATOM     63  H   LIG d   1      10.582   6.251   3.157  0.00  0.00     0.066 H 
ATOM     64  H   LIG d   1      11.891   5.290   2.388  0.00  0.00     0.066 H 
ENDBRANCH  60  61
ENDBRANCH  58  60
ENDBRANCH  20  58
BRANCH  21  65
ATOM     65  C   LIG d   1      13.150   5.909  -0.466  0.00  0.00    -0.048 C 
ATOM     66  H   LIG d   1      12.356   5.173  -0.271  0.00  0.00     0.024 H 
ATOM     67  H   LIG d   1      13.481   6.353   0.484  0.00  0.00     0.024 H 
ATOM     68  H   LIG d   1      14.001   5.410  -0.954  0.00  0.00     0.024 H 
ENDBRANCH  21  65
BRANCH  24  69
ATOM     69  C   LIG d   1       9.580   6.140  -3.524  0.00  0.00    -0.049 C 
ATOM     70  H   LIG d   1       8.611   6.639  -3.381  0.00  0.00     0.024 H 
ATOM     71  H   LIG d   1       9.459   5.055  -3.384  0.00  0.00     0.024 H 
ATOM     72  H   LIG d   1       9.948   6.339  -4.541  0.00  0.00     0.024 H 
ENDBRANCH  24  69
TORSDOF 12
ENDMDL
MODEL 6
REMARK VINA RESULT:      -5.1      2.762      5.340
REMARK  12 active torsions:
REMARK  status: ('A' for Active; 'I' for Inactive)
REMARK    1  A    between atoms: C_1  and  C_2 
REMARK    2  A    between atoms: C_6  and  C_40 
REMARK    3  A    between atoms: C_15  and  O_20 
REMARK    4  A    between atoms: C_17  and  C_18 
REMARK    5  A    between atoms: C_17  and  C_19 
REMARK    6  A    between atoms: O_20  and  C_21 
REMARK    7  A    between atoms: C_21  and  C_23 
REMARK    8  A    between atoms: C_27  and  C_36 
REMARK    9  A    between atoms: C_28  and  C_35 
REMARK   10  A    between atoms: C_31  and  C_34 
REMARK   11  A    between atoms: C_36  and  O_38 
REMARK   12  A    between atoms: O_38  and  C_39 
ROOT
ATOM      1  C   LIG d   1       3.853  -0.372  -6.627  0.00  0.00    -0.062 C 
ATOM      2  C   LIG d   1       4.343  -1.129  -5.800  0.00  0.00    -0.079 C 
ATOM      3  C   LIG d   1       5.555  -2.015  -6.237  0.00  0.00     0.001 C 
ATOM      4  H   LIG d   1       5.295  -2.888  -6.852  0.00  0.00     0.036 H 
ATOM      5  C   LIG d   1       6.472  -1.057  -6.974  0.00  0.00     0.002 C 
ATOM      6  C   LIG d   1       7.821  -1.592  -7.239  0.00  0.00    -0.008 C 
ATOM      7  C   LIG d   1       8.352  -2.433  -6.035  0.00  0.00     0.108 C 
ATOM      8  H   LIG d   1       9.397  -2.689  -6.265  0.00  0.00     0.074 H 
ATOM      9  C   LIG d   1       7.389  -3.636  -5.656  0.00  0.00     0.021 C 
ATOM     10  H   LIG d   1       7.840  -4.416  -5.026  0.00  0.00     0.035 H 
ATOM     11  C   LIG d   1       6.178  -2.760  -5.164  0.00  0.00     0.081 C 
ATOM     12  C   LIG d   1       5.233  -3.644  -4.413  0.00  0.00    -0.033 C 
ATOM     13  C   LIG d   1       4.752  -4.733  -5.370  0.00  0.00    -0.014 C 
ATOM     14  C   LIG d   1       5.948  -5.604  -5.795  0.00  0.00     0.109 C 
ATOM     15  H   LIG d   1       6.286  -6.084  -4.866  0.00  0.00     0.074 H 
ATOM     16  C   LIG d   1       7.104  -4.793  -6.512  0.00  0.00     0.009 C 
ATOM     17  C   LIG d   1       6.941  -1.778  -4.257  0.00  0.00     0.315 C 
ATOM     18  O   LIG d   1       6.564  -1.281  -3.194  0.00  0.00    -0.250 OA
ATOM     19  O   LIG d   1       8.173  -1.661  -4.839  0.00  0.00    -0.461 OA
ATOM     20  C   LIG d   1       5.778  -0.570  -8.315  0.00  0.00     0.148 A 
ATOM     21  C   LIG d   1       4.251  -0.227  -8.028  0.00  0.00     0.070 A 
ATOM     22  C   LIG d   1       3.546  -1.229  -8.920  0.00  0.00     0.154 A 
ATOM     23  O   LIG d   1       2.355  -1.298  -9.006  0.00  0.00    -0.296 OA
ATOM     24  C   LIG d   1       4.488  -1.892  -9.632  0.00  0.00     0.075 A 
ATOM     25  C   LIG d   1       5.819  -1.572  -9.328  0.00  0.00     0.162 A 
ATOM     26  O   LIG d   1       6.824  -2.117 -10.067  0.00  0.00    -0.295 OA
ATOM     27  H   LIG d   1       3.931  -1.173  -4.781  0.00  0.00     0.058 H 
ATOM     28  H   LIG d   1       7.790  -2.239  -8.128  0.00  0.00     0.031 H 
ATOM     29  H   LIG d   1       8.517  -0.758  -7.415  0.00  0.00     0.031 H 
ATOM     30  H   LIG d   1       5.754  -4.093  -3.556  0.00  0.00     0.028 H 
ATOM     31  H   LIG d   1       4.381  -3.049  -4.054  0.00  0.00     0.028 H 
ATOM     32  H   LIG d   1       4.001  -5.360  -4.866  0.00  0.00     0.030 H 
ATOM     33  H   LIG d   1       4.303  -4.267  -6.260  0.00  0.00     0.030 H 
ATOM     34  H   LIG d   1       4.162  -1.002  -9.073  0.00  0.00     0.045 H 
ENDROOT
BRANCH  14  35
ATOM     35  O   LIG d   1       5.536  -6.646  -6.743  0.00  0.00    -0.461 OA
BRANCH  35  36
ATOM     36  C   LIG d   1       4.977  -7.752  -6.226  0.00  0.00     0.304 C 
ATOM     37  O   LIG d   1       3.949  -8.184  -6.691  0.00  0.00    -0.251 OA
BRANCH  36  38
ATOM     38  C   LIG d   1       5.632  -8.454  -5.065  0.00  0.00     0.033 C 
ATOM     39  H   LIG d   1       6.557  -7.926  -4.791  0.00  0.00     0.034 H 
ATOM     40  H   LIG d   1       5.874  -9.489  -5.352  0.00  0.00     0.034 H 
ATOM     41  H   LIG d   1       4.946  -8.463  -4.205  0.00  0.00     0.034 H 
ENDBRANCH  36  38
ENDBRANCH  35  36
ENDBRANCH  14  35
BRANCH  16  42
ATOM     42  C   LIG d   1       6.683  -4.484  -7.879  0.00  0.00    -0.056 C 
ATOM     43  H   LIG d   1       5.636  -4.147  -7.873  0.00  0.00     0.024 H 
ATOM     44  H   LIG d   1       6.775  -5.385  -8.504  0.00  0.00     0.024 H 
ATOM     45  H   LIG d   1       7.322  -3.688  -8.289  0.00  0.00     0.024 H 
ENDBRANCH  16  42
BRANCH  16  46
ATOM     46  C   LIG d   1       8.287  -5.673  -6.570  0.00  0.00    -0.056 C 
ATOM     47  H   LIG d   1       8.602  -5.796  -7.617  0.00  0.00     0.024 H 
ATOM     48  H   LIG d   1       8.035  -6.655  -6.146  0.00  0.00     0.024 H 
ATOM     49  H   LIG d   1       9.107  -5.223  -5.991  0.00  0.00     0.024 H 
ENDBRANCH  16  46
BRANCH   5  50
ATOM     50  C   LIG d   1       6.647   0.259  -6.143  0.00  0.00    -0.057 C 
ATOM     51  H   LIG d   1       7.661   0.292  -5.719  0.00  0.00     0.024 H 
ATOM     52  H   LIG d   1       5.908   0.278  -5.329  0.00  0.00     0.024 H 
ATOM     53  H   LIG d   1       6.494   1.129  -6.797  0.00  0.00     0.024 H 
ENDBRANCH   5  50
BRANCH   1  54
ATOM     54  C   LIG d   1       2.661   0.475  -6.140  0.00  0.00    -0.043 C 
ATOM     55  H   LIG d   1       1.881   0.490  -6.917  0.00  0.00     0.028 H 
ATOM     56  H   LIG d   1       2.999   1.503  -5.941  0.00  0.00     0.028 H 
ATOM     57  H   LIG d   1       2.252   0.038  -5.218  0.00  0.00     0.028 H 
ENDBRANCH   1  54
BRANCH  20  58
ATOM     58  C   LIG d   1       6.511   0.694  -8.752  0.00  0.00     0.322 C 
ATOM     59  O   LIG d   1       6.543   1.657  -8.024  0.00  0.00    -0.250 OA
BRANCH  58  60
ATOM     60  O   LIG d   1       7.121   0.737  -9.948  0.00  0.00    -0.467 OA
BRANCH  60  61
ATOM     61  C   LIG d   1       8.542   1.032  -9.952  0.00  0.00     0.082 C 
ATOM     62  H   LIG d   1       8.738   1.904  -9.310  0.00  0.00     0.066 H 
ATOM     63  H   LIG d   1       8.868   1.253 -10.979  0.00  0.00     0.066 H 
ATOM     64  H   LIG d   1       9.098   0.163  -9.571  0.00  0.00     0.066 H 
ENDBRANCH  60  61
ENDBRANCH  58  60
ENDBRANCH  20  58
BRANCH  21  65
ATOM     65  C   LIG d   1       3.958   1.242  -8.511  0.00  0.00    -0.048 C 
ATOM     66  H   LIG d   1       3.963   1.273  -9.610  0.00  0.00     0.024 H 
ATOM     67  H   LIG d   1       4.732   1.918  -8.120  0.00  0.00     0.024 H 
ATOM     68  H   LIG d   1       2.971   1.559  -8.139  0.00  0.00     0.024 H 
ENDBRANCH  21  65
BRANCH  24  69
ATOM     69  C   LIG d   1       4.120  -2.930 -10.684  0.00  0.00    -0.049 C 
ATOM     70  H   LIG d   1       3.026  -2.987 -10.775  0.00  0.00     0.024 H 
ATOM     71  H   LIG d   1       4.515  -3.912 -10.384  0.00  0.00     0.024 H 
ATOM     72  H   LIG d   1       4.554  -2.640 -11.652  0.00  0.00     0.024 H 
ENDBRANCH  24  69
TORSDOF 12
ENDMDL
MODEL 7
REMARK VINA RESULT:      -4.9     10.308     13.848
REMARK  12 active torsions:
REMARK  status: ('A' for Active; 'I' for Inactive)
REMARK    1  A    between atoms: C_1  and  C_2 
REMARK    2  A    between atoms: C_6  and  C_40 
REMARK    3  A    between atoms: C_15  and  O_20 
REMARK    4  A    between atoms: C_17  and  C_18 
REMARK    5  A    between atoms: C_17  and  C_19 
REMARK    6  A    between atoms: O_20  and  C_21 
REMARK    7  A    between atoms: C_21  and  C_23 
REMARK    8  A    between atoms: C_27  and  C_36 
REMARK    9  A    between atoms: C_28  and  C_35 
REMARK   10  A    between atoms: C_31  and  C_34 
REMARK   11  A    between atoms: C_36  and  O_38 
REMARK   12  A    between atoms: O_38  and  C_39 
ROOT
ATOM      1  C   LIG d   1      13.332   5.328  -2.842  0.00  0.00    -0.062 C 
ATOM      2  C   LIG d   1      13.162   6.273  -2.083  0.00  0.00    -0.079 C 
ATOM      3  C   LIG d   1      11.866   7.133  -2.253  0.00  0.00     0.001 C 
ATOM      4  H   LIG d   1      11.885   7.839  -3.096  0.00  0.00     0.036 H 
ATOM      5  C   LIG d   1      10.755   6.111  -2.397  0.00  0.00     0.002 C 
ATOM      6  C   LIG d   1       9.396   6.674  -2.286  0.00  0.00    -0.008 C 
ATOM      7  C   LIG d   1       9.321   7.782  -1.187  0.00  0.00     0.108 C 
ATOM      8  H   LIG d   1       8.261   8.059  -1.089  0.00  0.00     0.074 H 
ATOM      9  C   LIG d   1      10.347   8.965  -1.440  0.00  0.00     0.021 C 
ATOM     10  H   LIG d   1      10.143   9.889  -0.879  0.00  0.00     0.035 H 
ATOM     11  C   LIG d   1      11.660   8.126  -1.221  0.00  0.00     0.081 C 
ATOM     12  C   LIG d   1      12.804   9.077  -1.059  0.00  0.00    -0.033 C 
ATOM     13  C   LIG d   1      12.906   9.907  -2.337  0.00  0.00    -0.014 C 
ATOM     14  C   LIG d   1      11.631  10.755  -2.499  0.00  0.00     0.109 C 
ATOM     15  H   LIG d   1      11.641  11.439  -1.639  0.00  0.00     0.074 H 
ATOM     16  C   LIG d   1      10.301   9.897  -2.573  0.00  0.00     0.009 C 
ATOM     17  C   LIG d   1      11.276   7.410   0.086  0.00  0.00     0.315 C 
ATOM     18  O   LIG d   1      12.009   7.119   1.032  0.00  0.00    -0.250 OA
ATOM     19  O   LIG d   1       9.918   7.263   0.010  0.00  0.00    -0.461 OA
ATOM     20  C   LIG d   1      10.931   5.309  -3.754  0.00  0.00     0.148 A 
ATOM     21  C   LIG d   1      12.462   4.925  -3.948  0.00  0.00     0.070 A 
ATOM     22  C   LIG d   1      12.798   5.668  -5.226  0.00  0.00     0.154 A 
ATOM     23  O   LIG d   1      13.880   5.633  -5.734  0.00  0.00    -0.296 OA
ATOM     24  C   LIG d   1      11.660   6.234  -5.693  0.00  0.00     0.075 A 
ATOM     25  C   LIG d   1      10.526   6.080  -4.883  0.00  0.00     0.162 A 
ATOM     26  O   LIG d   1       9.320   6.530  -5.326  0.00  0.00    -0.295 OA
ATOM     27  H   LIG d   1      13.908   6.497  -1.307  0.00  0.00     0.058 H 
ATOM     28  H   LIG d   1       9.105   7.119  -3.249  0.00  0.00     0.031 H 
ATOM     29  H   LIG d   1       8.689   5.874  -2.022  0.00  0.00     0.031 H 
ATOM     30  H   LIG d   1      12.618   9.730  -0.195  0.00  0.00     0.028 H 
ATOM     31  H   LIG d   1      13.732   8.510  -0.897  0.00  0.00     0.028 H 
ATOM     32  H   LIG d   1      13.782  10.570  -2.275  0.00  0.00     0.030 H 
ATOM     33  H   LIG d   1      13.013   9.236  -3.202  0.00  0.00     0.030 H 
ATOM     34  H   LIG d   1      12.170   5.459  -5.102  0.00  0.00     0.045 H 
ENDROOT
BRANCH  14  35
ATOM     35  O   LIG d   1      11.671  11.545  -3.734  0.00  0.00    -0.461 OA
BRANCH  35  36
ATOM     36  C   LIG d   1      12.029  12.835  -3.619  0.00  0.00     0.304 C 
ATOM     37  O   LIG d   1      12.600  13.388  -4.528  0.00  0.00    -0.251 OA
BRANCH  36  38
ATOM     38  C   LIG d   1      11.715  13.592  -2.354  0.00  0.00     0.033 C 
ATOM     39  H   LIG d   1      10.812  13.172  -1.889  0.00  0.00     0.034 H 
ATOM     40  H   LIG d   1      11.543  14.652  -2.595  0.00  0.00     0.034 H 
ATOM     41  H   LIG d   1      12.561  13.507  -1.655  0.00  0.00     0.034 H 
ENDBRANCH  36  38
ENDBRANCH  35  36
ENDBRANCH  14  35
BRANCH  16  42
ATOM     42  C   LIG d   1      10.212   9.282  -3.898  0.00  0.00    -0.056 C 
ATOM     43  H   LIG d   1      10.597   9.982  -4.654  0.00  0.00     0.024 H 
ATOM     44  H   LIG d   1       9.161   9.043  -4.121  0.00  0.00     0.024 H 
ATOM     45  H   LIG d   1      10.809   8.358  -3.914  0.00  0.00     0.024 H 
ENDBRANCH  16  42
BRANCH  16  46
ATOM     46  C   LIG d   1       9.168  10.828  -2.406  0.00  0.00    -0.056 C 
ATOM     47  H   LIG d   1       9.303  11.692  -3.073  0.00  0.00     0.024 H 
ATOM     48  H   LIG d   1       9.127  11.173  -1.363  0.00  0.00     0.024 H 
ATOM     49  H   LIG d   1       8.230  10.312  -2.659  0.00  0.00     0.024 H 
ENDBRANCH  16  46
BRANCH   5  50
ATOM     50  C   LIG d   1      10.896   5.011  -1.290  0.00  0.00    -0.057 C 
ATOM     51  H   LIG d   1      10.376   5.340  -0.379  0.00  0.00     0.024 H 
ATOM     52  H   LIG d   1      11.961   4.851  -1.067  0.00  0.00     0.024 H 
ATOM     53  H   LIG d   1      10.451   4.072  -1.648  0.00  0.00     0.024 H 
ENDBRANCH   5  50
BRANCH   1  54
ATOM     54  C   LIG d   1      14.624   4.517  -2.627  0.00  0.00    -0.043 C 
ATOM     55  H   LIG d   1      14.508   3.868  -1.747  0.00  0.00     0.028 H 
ATOM     56  H   LIG d   1      15.467   5.206  -2.466  0.00  0.00     0.028 H 
ATOM     57  H   LIG d   1      14.821   3.899  -3.515  0.00  0.00     0.028 H 
ENDBRANCH   1  54
BRANCH  20  58
ATOM     58  C   LIG d   1      10.099   4.037  -3.621  0.00  0.00     0.322 C 
ATOM     59  O   LIG d   1      10.279   3.292  -2.687  0.00  0.00    -0.250 OA
BRANCH  58  60
ATOM     60  O   LIG d   1       9.168   3.745  -4.543  0.00  0.00    -0.467 OA
BRANCH  60  61
ATOM     61  C   LIG d   1       8.423   2.513  -4.359  0.00  0.00     0.082 C 
ATOM     62  H   LIG d   1       8.527   2.173  -3.318  0.00  0.00     0.066 H 
ATOM     63  H   LIG d   1       8.816   1.741  -5.037  0.00  0.00     0.066 H 
ATOM     64  H   LIG d   1       7.360   2.690  -4.583  0.00  0.00     0.066 H 
ENDBRANCH  60  61
ENDBRANCH  58  60
ENDBRANCH  20  58
BRANCH  21  65
ATOM     65  C   LIG d   1      12.576   3.371  -4.170  0.00  0.00    -0.048 C 
ATOM     66  H   LIG d   1      13.333   3.165  -4.940  0.00  0.00     0.024 H 
ATOM     67  H   LIG d   1      11.603   2.975  -4.495  0.00  0.00     0.024 H 
ATOM     68  H   LIG d   1      12.871   2.887  -3.226  0.00  0.00     0.024 H 
ENDBRANCH  21  65
BRANCH  24  69
ATOM     69  C   LIG d   1      11.623   7.003  -7.007  0.00  0.00    -0.049 C 
ATOM     70  H   LIG d   1      11.655   8.082  -6.800  0.00  0.00     0.024 H 
ATOM     71  H   LIG d   1      10.697   6.760  -7.548  0.00  0.00     0.024 H 
ATOM     72  H   LIG d   1      12.491   6.721  -7.621  0.00  0.00     0.024 H 
ENDBRANCH  24  69
TORSDOF 12
ENDMDL
MODEL 8
REMARK VINA RESULT:      -4.9      4.015      6.479
REMARK  12 active torsions:
REMARK  status: ('A' for Active; 'I' for Inactive)
REMARK    1  A    between atoms: C_1  and  C_2 
REMARK    2  A    between atoms: C_6  and  C_40 
REMARK    3  A    between atoms: C_15  and  O_20 
REMARK    4  A    between atoms: C_17  and  C_18 
REMARK    5  A    between atoms: C_17  and  C_19 
REMARK    6  A    between atoms: O_20  and  C_21 
REMARK    7  A    between atoms: C_21  and  C_23 
REMARK    8  A    between atoms: C_27  and  C_36 
REMARK    9  A    between atoms: C_28  and  C_35 
REMARK   10  A    between atoms: C_31  and  C_34 
REMARK   11  A    between atoms: C_36  and  O_38 
REMARK   12  A    between atoms: O_38  and  C_39 
ROOT
ATOM      1  C   LIG d   1       9.902   2.451  -8.015  0.00  0.00    -0.062 C 
ATOM      2  C   LIG d   1       9.925   2.085  -6.847  0.00  0.00    -0.079 C 
ATOM      3  C   LIG d   1       9.016   0.882  -6.433  0.00  0.00     0.001 C 
ATOM      4  H   LIG d   1       7.950   1.124  -6.315  0.00  0.00     0.036 H 
ATOM      5  C   LIG d   1       9.245  -0.151  -7.519  0.00  0.00     0.002 C 
ATOM      6  C   LIG d   1       8.715  -1.491  -7.203  0.00  0.00    -0.008 C 
ATOM      7  C   LIG d   1       8.935  -1.856  -5.700  0.00  0.00     0.108 C 
ATOM      8  H   LIG d   1       8.623  -2.904  -5.580  0.00  0.00     0.074 H 
ATOM      9  C   LIG d   1       8.281  -0.800  -4.713  0.00  0.00     0.021 C 
ATOM     10  H   LIG d   1       8.152  -1.146  -3.676  0.00  0.00     0.035 H 
ATOM     11  C   LIG d   1       9.220   0.408  -5.080  0.00  0.00     0.081 C 
ATOM     12  C   LIG d   1       9.053   1.467  -4.036  0.00  0.00    -0.033 C 
ATOM     13  C   LIG d   1       7.590   1.905  -4.044  0.00  0.00    -0.014 C 
ATOM     14  C   LIG d   1       6.700   0.718  -3.632  0.00  0.00     0.109 C 
ATOM     15  H   LIG d   1       6.991   0.499  -2.595  0.00  0.00     0.074 H 
ATOM     16  C   LIG d   1       6.842  -0.544  -4.579  0.00  0.00     0.009 C 
ATOM     17  C   LIG d   1      10.580  -0.309  -5.006  0.00  0.00     0.315 C 
ATOM     18  O   LIG d   1      11.654   0.147  -4.612  0.00  0.00    -0.250 OA
ATOM     19  O   LIG d   1      10.308  -1.598  -5.375  0.00  0.00    -0.461 OA
ATOM     20  C   LIG d   1       8.668   0.379  -8.898  0.00  0.00     0.148 A 
ATOM     21  C   LIG d   1       9.067   1.908  -9.087  0.00  0.00     0.070 A 
ATOM     22  C   LIG d   1       7.705   2.570  -9.131  0.00  0.00     0.154 A 
ATOM     23  O   LIG d   1       7.559   3.748  -9.275  0.00  0.00    -0.296 OA
ATOM     24  C   LIG d   1       6.764   1.597  -9.097  0.00  0.00     0.075 A 
ATOM     25  C   LIG d   1       7.247   0.288  -8.950  0.00  0.00     0.162 A 
ATOM     26  O   LIG d   1       6.377  -0.757  -9.008  0.00  0.00    -0.295 OA
ATOM     27  H   LIG d   1      10.572   2.599  -6.122  0.00  0.00     0.058 H 
ATOM     28  H   LIG d   1       7.635  -1.516  -7.413  0.00  0.00     0.031 H 
ATOM     29  H   LIG d   1       9.228  -2.243  -7.822  0.00  0.00     0.031 H 
ATOM     30  H   LIG d   1       9.324   1.058  -3.053  0.00  0.00     0.028 H 
ATOM     31  H   LIG d   1       9.708   2.319  -4.271  0.00  0.00     0.028 H 
ATOM     32  H   LIG d   1       7.451   2.733  -3.333  0.00  0.00     0.030 H 
ATOM     33  H   LIG d   1       7.312   2.239  -5.055  0.00  0.00     0.030 H 
ATOM     34  H   LIG d   1       7.786   1.931  -9.329  0.00  0.00     0.045 H 
ENDROOT
BRANCH  14  35
ATOM     35  O   LIG d   1       5.280   1.085  -3.658  0.00  0.00    -0.461 OA
BRANCH  35  36
ATOM     36  C   LIG d   1       4.583   0.899  -2.525  0.00  0.00     0.304 C 
ATOM     37  O   LIG d   1       5.033   1.278  -1.470  0.00  0.00    -0.251 OA
BRANCH  36  38
ATOM     38  C   LIG d   1       3.239   0.219  -2.571  0.00  0.00     0.033 C 
ATOM     39  H   LIG d   1       3.370  -0.861  -2.415  0.00  0.00     0.034 H 
ATOM     40  H   LIG d   1       2.773   0.394  -3.552  0.00  0.00     0.034 H 
ATOM     41  H   LIG d   1       2.593   0.628  -1.780  0.00  0.00     0.034 H 
ENDBRANCH  36  38
ENDBRANCH  35  36
ENDBRANCH  14  35
BRANCH  16  42
ATOM     42  C   LIG d   1       6.126  -0.278  -5.827  0.00  0.00    -0.056 C 
ATOM     43  H   LIG d   1       6.418   0.709  -6.215  0.00  0.00     0.024 H 
ATOM     44  H   LIG d   1       5.042  -0.292  -5.638  0.00  0.00     0.024 H 
ATOM     45  H   LIG d   1       6.378  -1.052  -6.567  0.00  0.00     0.024 H 
ENDBRANCH  16  42
BRANCH  16  46
ATOM     46  C   LIG d   1       6.195  -1.681  -3.896  0.00  0.00    -0.056 C 
ATOM     47  H   LIG d   1       6.642  -1.812  -2.899  0.00  0.00     0.024 H 
ATOM     48  H   LIG d   1       6.344  -2.596  -4.488  0.00  0.00     0.024 H 
ATOM     49  H   LIG d   1       5.119  -1.482  -3.793  0.00  0.00     0.024 H 
ENDBRANCH  16  46
BRANCH   5  50
ATOM     50  C   LIG d   1      10.780  -0.309  -7.790  0.00  0.00    -0.057 C 
ATOM     51  H   LIG d   1      11.321   0.531  -7.331  0.00  0.00     0.024 H 
ATOM     52  H   LIG d   1      10.961  -0.312  -8.875  0.00  0.00     0.024 H 
ATOM     53  H   LIG d   1      11.134  -1.255  -7.356  0.00  0.00     0.024 H 
ENDBRANCH   5  50
BRANCH   1  54
ATOM     54  C   LIG d   1      10.816   3.641  -8.365  0.00  0.00    -0.043 C 
ATOM     55  H   LIG d   1      10.464   4.541  -7.839  0.00  0.00     0.028 H 
ATOM     56  H   LIG d   1      10.790   3.817  -9.450  0.00  0.00     0.028 H 
ATOM     57  H   LIG d   1      11.847   3.415  -8.055  0.00  0.00     0.028 H 
ENDBRANCH   1  54
BRANCH  20  58
ATOM     58  C   LIG d   1       9.320  -0.457  -9.996  0.00  0.00     0.322 C 
ATOM     59  O   LIG d   1       8.632  -1.075 -10.773  0.00  0.00    -0.250 OA
BRANCH  58  60
ATOM     60  O   LIG d   1      10.658  -0.506 -10.097  0.00  0.00    -0.467 OA
BRANCH  60  61
ATOM     61  C   LIG d   1      11.207  -1.242 -11.221  0.00  0.00     0.082 C 
ATOM     62  H   LIG d   1      11.302  -0.571 -12.088  0.00  0.00     0.066 H 
ATOM     63  H   LIG d   1      10.537  -2.076 -11.476  0.00  0.00     0.066 H 
ATOM     64  H   LIG d   1      12.198  -1.637 -10.952  0.00  0.00     0.066 H 
ENDBRANCH  60  61
ENDBRANCH  58  60
ENDBRANCH  20  58
BRANCH  21  65
ATOM     65  C   LIG d   1       9.806   2.077 -10.467  0.00  0.00    -0.048 C 
ATOM     66  H   LIG d   1      10.126   3.122 -10.585  0.00  0.00     0.024 H 
ATOM     67  H   LIG d   1       9.121   1.808 -11.284  0.00  0.00     0.024 H 
ATOM     68  H   LIG d   1      10.686   1.417 -10.495  0.00  0.00     0.024 H 
ENDBRANCH  21  65
BRANCH  24  69
ATOM     69  C   LIG d   1       5.277   1.910  -9.196  0.00  0.00    -0.049 C 
ATOM     70  H   LIG d   1       5.050   2.799  -8.590  0.00  0.00     0.024 H 
ATOM     71  H   LIG d   1       4.697   1.053  -8.823  0.00  0.00     0.024 H 
ATOM     72  H   LIG d   1       5.012   2.103 -10.246  0.00  0.00     0.024 H 
ENDBRANCH  24  69
TORSDOF 12
ENDMDL
MODEL 9
REMARK VINA RESULT:      -4.9      3.385      6.423
REMARK  12 active torsions:
REMARK  status: ('A' for Active; 'I' for Inactive)
REMARK    1  A    between atoms: C_1  and  C_2 
REMARK    2  A    between atoms: C_6  and  C_40 
REMARK    3  A    between atoms: C_15  and  O_20 
REMARK    4  A    between atoms: C_17  and  C_18 
REMARK    5  A    between atoms: C_17  and  C_19 
REMARK    6  A    between atoms: O_20  and  C_21 
REMARK    7  A    between atoms: C_21  and  C_23 
REMARK    8  A    between atoms: C_27  and  C_36 
REMARK    9  A    between atoms: C_28  and  C_35 
REMARK   10  A    between atoms: C_31  and  C_34 
REMARK   11  A    between atoms: C_36  and  O_38 
REMARK   12  A    between atoms: O_38  and  C_39 
ROOT
ATOM      1  C   LIG d   1       7.939  -5.415  -7.986  0.00  0.00    -0.062 C 
ATOM      2  C   LIG d   1       8.119  -4.267  -7.602  0.00  0.00    -0.079 C 
ATOM      3  C   LIG d   1       6.963  -3.561  -6.820  0.00  0.00     0.001 C 
ATOM      4  H   LIG d   1       6.133  -3.200  -7.444  0.00  0.00     0.036 H 
ATOM      5  C   LIG d   1       6.504  -4.597  -5.813  0.00  0.00     0.002 C 
ATOM      6  C   LIG d   1       5.610  -4.070  -4.765  0.00  0.00    -0.008 C 
ATOM      7  C   LIG d   1       6.051  -2.646  -4.297  0.00  0.00     0.108 C 
ATOM      8  H   LIG d   1       5.410  -2.382  -3.442  0.00  0.00     0.074 H 
ATOM      9  C   LIG d   1       6.114  -1.602  -5.489  0.00  0.00     0.021 C 
ATOM     10  H   LIG d   1       6.133  -0.545  -5.186  0.00  0.00     0.035 H 
ATOM     11  C   LIG d   1       7.311  -2.271  -6.262  0.00  0.00     0.081 C 
ATOM     12  C   LIG d   1       7.824  -1.293  -7.272  0.00  0.00    -0.033 C 
ATOM     13  C   LIG d   1       6.681  -0.970  -8.232  0.00  0.00    -0.014 C 
ATOM     14  C   LIG d   1       5.547  -0.271  -7.459  0.00  0.00     0.109 C 
ATOM     15  H   LIG d   1       5.988   0.675  -7.113  0.00  0.00     0.074 H 
ATOM     16  C   LIG d   1       4.961  -1.136  -6.268  0.00  0.00     0.009 C 
ATOM     17  C   LIG d   1       8.274  -2.486  -5.081  0.00  0.00     0.315 C 
ATOM     18  O   LIG d   1       9.502  -2.401  -5.082  0.00  0.00    -0.250 OA
ATOM     19  O   LIG d   1       7.454  -2.688  -4.004  0.00  0.00    -0.461 OA
ATOM     20  C   LIG d   1       5.839  -5.824  -6.566  0.00  0.00     0.148 A 
ATOM     21  C   LIG d   1       6.719  -6.209  -7.834  0.00  0.00     0.070 A 
ATOM     22  C   LIG d   1       5.741  -5.960  -8.964  0.00  0.00     0.154 A 
ATOM     23  O   LIG d   1       6.016  -6.144 -10.114  0.00  0.00    -0.296 OA
ATOM     24  C   LIG d   1       4.547  -5.630  -8.420  0.00  0.00     0.075 A 
ATOM     25  C   LIG d   1       4.524  -5.517  -7.023  0.00  0.00     0.162 A 
ATOM     26  O   LIG d   1       3.341  -5.288  -6.388  0.00  0.00    -0.295 OA
ATOM     27  H   LIG d   1       9.073  -3.761  -7.808  0.00  0.00     0.058 H 
ATOM     28  H   LIG d   1       4.584  -4.004  -5.158  0.00  0.00     0.031 H 
ATOM     29  H   LIG d   1       5.628  -4.743  -3.895  0.00  0.00     0.031 H 
ATOM     30  H   LIG d   1       8.161  -0.381  -6.759  0.00  0.00     0.028 H 
ATOM     31  H   LIG d   1       8.667  -1.740  -7.818  0.00  0.00     0.028 H 
ATOM     32  H   LIG d   1       7.048  -0.304  -9.027  0.00  0.00     0.030 H 
ATOM     33  H   LIG d   1       6.302  -1.901  -8.678  0.00  0.00     0.030 H 
ATOM     34  H   LIG d   1       5.524  -6.129  -8.349  0.00  0.00     0.045 H 
ENDROOT
BRANCH  14  35
ATOM     35  O   LIG d   1       4.412   0.029  -8.338  0.00  0.00    -0.461 OA
BRANCH  35  36
ATOM     36  C   LIG d   1       4.220   1.318  -8.664  0.00  0.00     0.304 C 
ATOM     37  O   LIG d   1       5.160   2.072  -8.729  0.00  0.00    -0.251 OA
BRANCH  36  38
ATOM     38  C   LIG d   1       2.828   1.822  -8.950  0.00  0.00     0.033 C 
ATOM     39  H   LIG d   1       2.874   2.606  -9.720  0.00  0.00     0.034 H 
ATOM     40  H   LIG d   1       2.393   2.238  -8.029  0.00  0.00     0.034 H 
ATOM     41  H   LIG d   1       2.203   0.991  -9.309  0.00  0.00     0.034 H 
ENDBRANCH  36  38
ENDBRANCH  35  36
ENDBRANCH  14  35
BRANCH  16  42
ATOM     42  C   LIG d   1       4.105  -2.184  -6.826  0.00  0.00    -0.056 C 
ATOM     43  H   LIG d   1       3.489  -1.764  -7.634  0.00  0.00     0.024 H 
ATOM     44  H   LIG d   1       3.452  -2.583  -6.035  0.00  0.00     0.024 H 
ATOM     45  H   LIG d   1       4.732  -2.994  -7.226  0.00  0.00     0.024 H 
ENDBRANCH  16  42
BRANCH  16  46
ATOM     46  C   LIG d   1       4.131  -0.239  -5.441  0.00  0.00    -0.056 C 
ATOM     47  H   LIG d   1       4.783   0.404  -4.830  0.00  0.00     0.024 H 
ATOM     48  H   LIG d   1       3.488  -0.839  -4.781  0.00  0.00     0.024 H 
ATOM     49  H   LIG d   1       3.505   0.387  -6.093  0.00  0.00     0.024 H 
ENDBRANCH  16  46
BRANCH   5  50
ATOM     50  C   LIG d   1       7.745  -5.227  -5.093  0.00  0.00    -0.057 C 
ATOM     51  H   LIG d   1       7.968  -6.208  -5.539  0.00  0.00     0.024 H 
ATOM     52  H   LIG d   1       7.523  -5.352  -4.024  0.00  0.00     0.024 H 
ATOM     53  H   LIG d   1       8.614  -4.564  -5.213  0.00  0.00     0.024 H 
ENDBRANCH   5  50
BRANCH   1  54
ATOM     54  C   LIG d   1       9.112  -6.060  -8.750  0.00  0.00    -0.043 C 
ATOM     55  H   LIG d   1      10.054  -5.849  -8.221  0.00  0.00     0.028 H 
ATOM     56  H   LIG d   1       9.160  -5.643  -9.767  0.00  0.00     0.028 H 
ATOM     57  H   LIG d   1       8.959  -7.148  -8.806  0.00  0.00     0.028 H 
ENDBRANCH   1  54
BRANCH  20  58
ATOM     58  C   LIG d   1       5.828  -6.989  -5.580  0.00  0.00     0.322 C 
ATOM     59  O   LIG d   1       6.861  -7.373  -5.086  0.00  0.00    -0.250 OA
BRANCH  58  60
ATOM     60  O   LIG d   1       4.669  -7.587  -5.262  0.00  0.00    -0.467 OA
BRANCH  60  61
ATOM     61  C   LIG d   1       4.727  -8.997  -4.922  0.00  0.00     0.082 C 
ATOM     62  H   LIG d   1       4.161  -9.577  -5.667  0.00  0.00     0.066 H 
ATOM     63  H   LIG d   1       4.288  -9.154  -3.926  0.00  0.00     0.066 H 
ATOM     64  H   LIG d   1       5.775  -9.331  -4.917  0.00  0.00     0.066 H 
ENDBRANCH  60  61
ENDBRANCH  58  60
ENDBRANCH  20  58
BRANCH  21  65
ATOM     65  C   LIG d   1       7.090  -7.737  -7.754  0.00  0.00    -0.048 C 
ATOM     66  H   LIG d   1       6.565  -8.284  -8.550  0.00  0.00     0.024 H 
ATOM     67  H   LIG d   1       6.790  -8.136  -6.774  0.00  0.00     0.024 H 
ATOM     68  H   LIG d   1       8.177  -7.857  -7.881  0.00  0.00     0.024 H 
ENDBRANCH  21  65
BRANCH  24  69
ATOM     69  C   LIG d   1       3.313  -5.379  -9.277  0.00  0.00    -0.049 C 
ATOM     70  H   LIG d   1       2.896  -6.341  -9.608  0.00  0.00     0.024 H 
ATOM     71  H   LIG d   1       3.592  -4.778 -10.156  0.00  0.00     0.024 H 
ATOM     72  H   LIG d   1       2.560  -4.836  -8.687  0.00  0.00     0.024 H 
ENDBRANCH  24  69
TORSDOF 12
ENDMDL
