MODEL 1
REMARK VINA RESULT:      -6.9      0.000      0.000
REMARK  9 active torsions:
REMARK  status: ('A' for Active; 'I' for Inactive)
REMARK    1  A    between atoms: C_1  and  C_2 
REMARK    2  A    between atoms: C_5  and  N_21 
REMARK    3  A    between atoms: C_10  and  C_11 
REMARK    4  A    between atoms: C_11  and  C_13 
REMARK    5  A    between atoms: C_17  and  O_19 
REMARK    6  A    between atoms: O_19  and  C_20 
REMARK       I    between atoms: N_21  and  C_22 
REMARK    7  A    between atoms: C_22  and  C_24 
REMARK    8  A    between atoms: C_29  and  O_30 
REMARK    9  A    between atoms: O_30  and  C_31 
ROOT
ATOM      1  C   LIG d   1       2.236  -2.394 -10.450  0.00  0.00     0.006 A 
ATOM      2  C   LIG d   1       2.683  -1.334  -9.550  0.00  0.00     0.025 A 
ATOM      3  C   LIG d   1       3.173  -1.312  -8.241  0.00  0.00    -0.029 A 
ATOM      4  C   LIG d   1       3.513  -0.105  -7.660  0.00  0.00     0.035 A 
ATOM      5  C   LIG d   1       3.375   1.082  -8.378  0.00  0.00    -0.037 A 
ATOM      6  C   LIG d   1       2.897   1.069  -9.669  0.00  0.00    -0.017 A 
ATOM      7  C   LIG d   1       2.545  -0.134 -10.272  0.00  0.00     0.136 A 
ATOM      8  O   LIG d   1       2.062  -0.446 -11.492  0.00  0.00    -0.451 OA
ATOM      9  C   LIG d   1       1.875  -1.777 -11.608  0.00  0.00     0.179 A 
ATOM     10  H   LIG d   1       3.285  -2.233  -7.687  0.00  0.00     0.064 H 
ATOM     11  H   LIG d   1       3.645   2.020  -7.918  0.00  0.00     0.064 H 
ATOM     12  H   LIG d   1       2.795   1.996 -10.216  0.00  0.00     0.066 H 
ENDROOT
BRANCH   4  13
ATOM     13  N   LIG d   1       4.001  -0.074  -6.348  0.00  0.00    -0.281 N 
ATOM     14  C   LIG d   1       3.153   0.117  -5.317  0.00  0.00     0.252 C 
ATOM     15  O   LIG d   1       1.980   0.356  -5.531  0.00  0.00    -0.270 OA
ATOM     16  H   LIG d   1       4.949  -0.190  -6.179  0.00  0.00     0.155 HD
BRANCH  14  17
ATOM     17  C   LIG d   1       3.649   0.042  -3.930  0.00  0.00     0.079 A 
ATOM     18  C   LIG d   1       3.969  -1.199  -3.363  0.00  0.00     0.132 A 
ATOM     19  C   LIG d   1       4.435  -1.259  -2.057  0.00  0.00    -0.019 A 
ATOM     20  C   LIG d   1       4.582  -0.100  -1.322  0.00  0.00    -0.058 A 
ATOM     21  H   LIG d   1       4.682  -2.213  -1.617  0.00  0.00     0.065 H 
ATOM     22  C   LIG d   1       4.267   1.129  -1.879  0.00  0.00    -0.061 A 
ATOM     23  H   LIG d   1       4.945  -0.151  -0.306  0.00  0.00     0.062 H 
ATOM     24  C   LIG d   1       3.809   1.207  -3.176  0.00  0.00    -0.046 A 
ATOM     25  H   LIG d   1       4.386   2.030  -1.296  0.00  0.00     0.062 H 
ATOM     26  H   LIG d   1       3.569   2.168  -3.608  0.00  0.00     0.063 H 
BRANCH  18  27
ATOM     27  O   LIG d   1       3.824  -2.337  -4.087  0.00  0.00    -0.494 OA
BRANCH  27  28
ATOM     28  C   LIG d   1       5.018  -3.041  -4.435  0.00  0.00     0.079 C 
ATOM     29  H   LIG d   1       5.873  -2.565  -3.956  0.00  0.00     0.066 H 
ATOM     30  H   LIG d   1       4.942  -4.074  -4.099  0.00  0.00     0.066 H 
ATOM     31  H   LIG d   1       5.150  -3.019  -5.517  0.00  0.00     0.066 H 
ENDBRANCH  27  28
ENDBRANCH  18  27
ENDBRANCH  14  17
ENDBRANCH   4  13
BRANCH   1  32
ATOM     32  C   LIG d   1       2.185  -3.871 -10.157  0.00  0.00    -0.035 C 
ATOM     33  H   LIG d   1       1.607  -4.376 -10.931  0.00  0.00     0.028 H 
ATOM     34  H   LIG d   1       3.198  -4.272 -10.140  0.00  0.00     0.028 H 
ATOM     35  H   LIG d   1       1.713  -4.033  -9.187  0.00  0.00     0.028 H 
ENDBRANCH   1  32
BRANCH   9  36
ATOM     36  C   LIG d   1       1.360  -2.457 -12.803  0.00  0.00     0.228 C 
ATOM     37  O   LIG d   1       2.126  -2.808 -13.681  0.00  0.00    -0.283 OA
BRANCH  36  38
ATOM     38  C   LIG d   1      -0.090  -2.712 -12.940  0.00  0.00     0.029 A 
ATOM     39  C   LIG d   1      -0.954  -1.675 -13.294  0.00  0.00    -0.009 A 
ATOM     40  C   LIG d   1      -2.309  -1.924 -13.424  0.00  0.00     0.121 A 
ATOM     41  H   LIG d   1      -0.565  -0.683 -13.471  0.00  0.00     0.066 H 
ATOM     42  C   LIG d   1      -2.808  -3.198 -13.191  0.00  0.00    -0.020 A 
ATOM     43  C   LIG d   1      -1.954  -4.226 -12.835  0.00  0.00    -0.058 A 
ATOM     44  H   LIG d   1      -3.867  -3.389 -13.290  0.00  0.00     0.065 H 
ATOM     45  C   LIG d   1      -0.601  -3.991 -12.707  0.00  0.00    -0.051 A 
ATOM     46  H   LIG d   1      -2.348  -5.216 -12.655  0.00  0.00     0.062 H 
ATOM     47  H   LIG d   1       0.064  -4.796 -12.429  0.00  0.00     0.062 H 
BRANCH  40  48
ATOM     48  O   LIG d   1      -3.154  -0.918 -13.775  0.00  0.00    -0.495 OA
BRANCH  48  49
ATOM     49  C   LIG d   1      -2.796   0.403 -13.364  0.00  0.00     0.079 C 
ATOM     50  H   LIG d   1      -2.219   0.352 -12.441  0.00  0.00     0.066 H 
ATOM     51  H   LIG d   1      -2.196   0.876 -14.142  0.00  0.00     0.066 H 
ATOM     52  H   LIG d   1      -3.699   0.989 -13.194  0.00  0.00     0.066 H 
ENDBRANCH  48  49
ENDBRANCH  40  48
ENDBRANCH  36  38
ENDBRANCH   9  36
TORSDOF 9
ENDMDL
MODEL 2
REMARK VINA RESULT:      -6.5      7.713     12.896
REMARK  9 active torsions:
REMARK  status: ('A' for Active; 'I' for Inactive)
REMARK    1  A    between atoms: C_1  and  C_2 
REMARK    2  A    between atoms: C_5  and  N_21 
REMARK    3  A    between atoms: C_10  and  C_11 
REMARK    4  A    between atoms: C_11  and  C_13 
REMARK    5  A    between atoms: C_17  and  O_19 
REMARK    6  A    between atoms: O_19  and  C_20 
REMARK       I    between atoms: N_21  and  C_22 
REMARK    7  A    between atoms: C_22  and  C_24 
REMARK    8  A    between atoms: C_29  and  O_30 
REMARK    9  A    between atoms: O_30  and  C_31 
ROOT
ATOM      1  C   LIG d   1      10.763   4.840  -2.936  0.00  0.00     0.006 A 
ATOM      2  C   LIG d   1       9.996   3.837  -3.670  0.00  0.00     0.025 A 
ATOM      3  C   LIG d   1       9.242   2.722  -3.294  0.00  0.00    -0.029 A 
ATOM      4  C   LIG d   1       8.626   1.956  -4.266  0.00  0.00     0.035 A 
ATOM      5  C   LIG d   1       8.749   2.300  -5.611  0.00  0.00    -0.037 A 
ATOM      6  C   LIG d   1       9.485   3.400  -5.990  0.00  0.00    -0.017 A 
ATOM      7  C   LIG d   1      10.118   4.181  -5.029  0.00  0.00     0.136 A 
ATOM      8  O   LIG d   1      10.885   5.288  -5.103  0.00  0.00    -0.451 OA
ATOM      9  C   LIG d   1      11.272   5.685  -3.873  0.00  0.00     0.179 A 
ATOM     10  H   LIG d   1       9.143   2.460  -2.251  0.00  0.00     0.064 H 
ATOM     11  H   LIG d   1       8.261   1.699  -6.364  0.00  0.00     0.064 H 
ATOM     12  H   LIG d   1       9.572   3.656  -7.036  0.00  0.00     0.066 H 
ENDROOT
BRANCH   4  13
ATOM     13  N   LIG d   1       7.872   0.835  -3.898  0.00  0.00    -0.281 N 
ATOM     14  C   LIG d   1       6.581   0.979  -3.536  0.00  0.00     0.252 C 
ATOM     15  O   LIG d   1       6.097   2.090  -3.439  0.00  0.00    -0.270 OA
ATOM     16  H   LIG d   1       8.278  -0.046  -3.902  0.00  0.00     0.155 HD
BRANCH  14  17
ATOM     17  C   LIG d   1       5.758  -0.212  -3.253  0.00  0.00     0.079 A 
ATOM     18  C   LIG d   1       5.793  -1.314  -4.118  0.00  0.00     0.132 A 
ATOM     19  C   LIG d   1       5.014  -2.429  -3.842  0.00  0.00    -0.019 A 
ATOM     20  C   LIG d   1       4.209  -2.450  -2.721  0.00  0.00    -0.058 A 
ATOM     21  H   LIG d   1       5.038  -3.280  -4.506  0.00  0.00     0.065 H 
ATOM     22  C   LIG d   1       4.171  -1.362  -1.864  0.00  0.00    -0.061 A 
ATOM     23  H   LIG d   1       3.604  -3.320  -2.511  0.00  0.00     0.062 H 
ATOM     24  C   LIG d   1       4.942  -0.250  -2.120  0.00  0.00    -0.046 A 
ATOM     25  H   LIG d   1       3.538  -1.389  -0.990  0.00  0.00     0.062 H 
ATOM     26  H   LIG d   1       4.914   0.594  -1.446  0.00  0.00     0.063 H 
BRANCH  18  27
ATOM     27  O   LIG d   1       6.585  -1.292  -5.219  0.00  0.00    -0.494 OA
BRANCH  27  28
ATOM     28  C   LIG d   1       7.350  -2.468  -5.491  0.00  0.00     0.079 C 
ATOM     29  H   LIG d   1       7.776  -2.848  -4.563  0.00  0.00     0.066 H 
ATOM     30  H   LIG d   1       6.704  -3.228  -5.932  0.00  0.00     0.066 H 
ATOM     31  H   LIG d   1       8.153  -2.226  -6.187  0.00  0.00     0.066 H 
ENDBRANCH  27  28
ENDBRANCH  18  27
ENDBRANCH  14  17
ENDBRANCH   4  13
BRANCH   1  32
ATOM     32  C   LIG d   1      10.952   4.922  -1.444  0.00  0.00    -0.035 C 
ATOM     33  H   LIG d   1       9.980   4.886  -0.951  0.00  0.00     0.028 H 
ATOM     34  H   LIG d   1      11.560   4.083  -1.107  0.00  0.00     0.028 H 
ATOM     35  H   LIG d   1      11.453   5.858  -1.191  0.00  0.00     0.028 H 
ENDBRANCH   1  32
BRANCH   9  36
ATOM     36  C   LIG d   1      12.116   6.853  -3.589  0.00  0.00     0.228 C 
ATOM     37  O   LIG d   1      13.312   6.806  -3.805  0.00  0.00    -0.283 OA
BRANCH  36  38
ATOM     38  C   LIG d   1      11.511   8.084  -3.037  0.00  0.00     0.029 A 
ATOM     39  C   LIG d   1      10.630   8.841  -3.812  0.00  0.00    -0.009 A 
ATOM     40  C   LIG d   1      10.065   9.989  -3.286  0.00  0.00     0.121 A 
ATOM     41  H   LIG d   1      10.388   8.527  -4.817  0.00  0.00     0.066 H 
ATOM     42  C   LIG d   1      10.383  10.394  -1.996  0.00  0.00    -0.020 A 
ATOM     43  C   LIG d   1      11.259   9.648  -1.229  0.00  0.00    -0.058 A 
ATOM     44  H   LIG d   1       9.943  11.292  -1.590  0.00  0.00     0.065 H 
ATOM     45  C   LIG d   1      11.824   8.498  -1.741  0.00  0.00    -0.051 A 
ATOM     46  H   LIG d   1      11.502   9.967  -0.226  0.00  0.00     0.062 H 
ATOM     47  H   LIG d   1      12.508   7.918  -1.138  0.00  0.00     0.062 H 
BRANCH  40  48
ATOM     48  O   LIG d   1       9.203  10.726  -4.036  0.00  0.00    -0.495 OA
BRANCH  48  49
ATOM     49  C   LIG d   1       8.481  11.761  -3.365  0.00  0.00     0.079 C 
ATOM     50  H   LIG d   1       7.412  11.560  -3.430  0.00  0.00     0.066 H 
ATOM     51  H   LIG d   1       8.781  11.792  -2.317  0.00  0.00     0.066 H 
ATOM     52  H   LIG d   1       8.699  12.720  -3.834  0.00  0.00     0.066 H 
ENDBRANCH  48  49
ENDBRANCH  40  48
ENDBRANCH  36  38
ENDBRANCH   9  36
TORSDOF 9
ENDMDL
MODEL 3
REMARK VINA RESULT:      -6.4      1.864      2.978
REMARK  9 active torsions:
REMARK  status: ('A' for Active; 'I' for Inactive)
REMARK    1  A    between atoms: C_1  and  C_2 
REMARK    2  A    between atoms: C_5  and  N_21 
REMARK    3  A    between atoms: C_10  and  C_11 
REMARK    4  A    between atoms: C_11  and  C_13 
REMARK    5  A    between atoms: C_17  and  O_19 
REMARK    6  A    between atoms: O_19  and  C_20 
REMARK       I    between atoms: N_21  and  C_22 
REMARK    7  A    between atoms: C_22  and  C_24 
REMARK    8  A    between atoms: C_29  and  O_30 
REMARK    9  A    between atoms: O_30  and  C_31 
ROOT
ATOM      1  C   LIG d   1       2.164  -2.225 -10.489  0.00  0.00     0.006 A 
ATOM      2  C   LIG d   1       2.713  -1.210  -9.593  0.00  0.00     0.025 A 
ATOM      3  C   LIG d   1       3.172  -1.223  -8.273  0.00  0.00    -0.029 A 
ATOM      4  C   LIG d   1       3.639  -0.055  -7.701  0.00  0.00     0.035 A 
ATOM      5  C   LIG d   1       3.659   1.127  -8.440  0.00  0.00    -0.037 A 
ATOM      6  C   LIG d   1       3.213   1.148  -9.743  0.00  0.00    -0.017 A 
ATOM      7  C   LIG d   1       2.735  -0.015 -10.336  0.00  0.00     0.136 A 
ATOM      8  O   LIG d   1       2.247  -0.289 -11.563  0.00  0.00    -0.451 OA
ATOM      9  C   LIG d   1       1.906  -1.590 -11.665  0.00  0.00     0.179 A 
ATOM     10  H   LIG d   1       3.161  -2.141  -7.703  0.00  0.00     0.064 H 
ATOM     11  H   LIG d   1       4.028   2.034  -7.987  0.00  0.00     0.064 H 
ATOM     12  H   LIG d   1       3.235   2.071 -10.305  0.00  0.00     0.066 H 
ENDROOT
BRANCH   4  13
ATOM     13  N   LIG d   1       4.097  -0.059  -6.378  0.00  0.00    -0.281 N 
ATOM     14  C   LIG d   1       3.226   0.110  -5.362  0.00  0.00     0.252 C 
ATOM     15  O   LIG d   1       2.059   0.358  -5.597  0.00  0.00    -0.270 OA
ATOM     16  H   LIG d   1       5.040  -0.183  -6.191  0.00  0.00     0.155 HD
BRANCH  14  17
ATOM     17  C   LIG d   1       3.690  -0.003  -3.967  0.00  0.00     0.079 A 
ATOM     18  C   LIG d   1       3.991  -1.259  -3.424  0.00  0.00     0.132 A 
ATOM     19  C   LIG d   1       4.427  -1.353  -2.110  0.00  0.00    -0.019 A 
ATOM     20  C   LIG d   1       4.561  -0.214  -1.342  0.00  0.00    -0.058 A 
ATOM     21  H   LIG d   1       4.660  -2.319  -1.688  0.00  0.00     0.065 H 
ATOM     22  C   LIG d   1       4.264   1.030  -1.875  0.00  0.00    -0.061 A 
ATOM     23  H   LIG d   1       4.901  -0.292  -0.320  0.00  0.00     0.062 H 
ATOM     24  C   LIG d   1       3.836   1.142  -3.180  0.00  0.00    -0.046 A 
ATOM     25  H   LIG d   1       4.373   1.915  -1.267  0.00  0.00     0.062 H 
ATOM     26  H   LIG d   1       3.610   2.114  -3.593  0.00  0.00     0.063 H 
BRANCH  18  27
ATOM     27  O   LIG d   1       3.859  -2.378  -4.180  0.00  0.00    -0.494 OA
BRANCH  27  28
ATOM     28  C   LIG d   1       5.050  -3.116  -4.459  0.00  0.00     0.079 C 
ATOM     29  H   LIG d   1       5.797  -2.451  -4.891  0.00  0.00     0.066 H 
ATOM     30  H   LIG d   1       5.437  -3.546  -3.536  0.00  0.00     0.066 H 
ATOM     31  H   LIG d   1       4.825  -3.915  -5.166  0.00  0.00     0.066 H 
ENDBRANCH  27  28
ENDBRANCH  18  27
ENDBRANCH  14  17
ENDBRANCH   4  13
BRANCH   1  32
ATOM     32  C   LIG d   1       1.932  -3.680 -10.175  0.00  0.00    -0.035 C 
ATOM     33  H   LIG d   1       2.810  -4.259 -10.465  0.00  0.00     0.028 H 
ATOM     34  H   LIG d   1       1.757  -3.798  -9.106  0.00  0.00     0.028 H 
ATOM     35  H   LIG d   1       1.063  -4.037 -10.728  0.00  0.00     0.028 H 
ENDBRANCH   1  32
BRANCH   9  36
ATOM     36  C   LIG d   1       1.342  -2.225 -12.862  0.00  0.00     0.228 C 
ATOM     37  O   LIG d   1       0.138  -2.360 -12.969  0.00  0.00    -0.283 OA
BRANCH  36  38
ATOM     38  C   LIG d   1       2.239  -2.703 -13.937  0.00  0.00     0.029 A 
ATOM     39  C   LIG d   1       2.425  -1.935 -15.087  0.00  0.00    -0.009 A 
ATOM     40  C   LIG d   1       3.269  -2.387 -16.086  0.00  0.00     0.121 A 
ATOM     41  H   LIG d   1       1.915  -0.988 -15.195  0.00  0.00     0.066 H 
ATOM     42  C   LIG d   1       3.920  -3.606 -15.949  0.00  0.00    -0.020 A 
ATOM     43  C   LIG d   1       3.733  -4.370 -14.812  0.00  0.00    -0.058 A 
ATOM     44  H   LIG d   1       4.575  -3.958 -16.731  0.00  0.00     0.065 H 
ATOM     45  C   LIG d   1       2.897  -3.928 -13.807  0.00  0.00    -0.051 A 
ATOM     46  H   LIG d   1       4.241  -5.318 -14.710  0.00  0.00     0.062 H 
ATOM     47  H   LIG d   1       2.753  -4.527 -12.920  0.00  0.00     0.062 H 
BRANCH  40  48
ATOM     48  O   LIG d   1       3.458  -1.639 -17.206  0.00  0.00    -0.495 OA
BRANCH  48  49
ATOM     49  C   LIG d   1       3.287  -0.226 -17.079  0.00  0.00     0.079 C 
ATOM     50  H   LIG d   1       2.366  -0.020 -16.535  0.00  0.00     0.066 H 
ATOM     51  H   LIG d   1       4.132   0.195 -16.535  0.00  0.00     0.066 H 
ATOM     52  H   LIG d   1       3.231   0.224 -18.070  0.00  0.00     0.066 H 
ENDBRANCH  48  49
ENDBRANCH  40  48
ENDBRANCH  36  38
ENDBRANCH   9  36
TORSDOF 9
ENDMDL
MODEL 4
REMARK VINA RESULT:      -6.4      2.306      3.078
REMARK  9 active torsions:
REMARK  status: ('A' for Active; 'I' for Inactive)
REMARK    1  A    between atoms: C_1  and  C_2 
REMARK    2  A    between atoms: C_5  and  N_21 
REMARK    3  A    between atoms: C_10  and  C_11 
REMARK    4  A    between atoms: C_11  and  C_13 
REMARK    5  A    between atoms: C_17  and  O_19 
REMARK    6  A    between atoms: O_19  and  C_20 
REMARK       I    between atoms: N_21  and  C_22 
REMARK    7  A    between atoms: C_22  and  C_24 
REMARK    8  A    between atoms: C_29  and  O_30 
REMARK    9  A    between atoms: O_30  and  C_31 
ROOT
ATOM      1  C   LIG d   1       4.527  -1.396 -11.385  0.00  0.00     0.006 A 
ATOM      2  C   LIG d   1       4.100  -0.713 -10.166  0.00  0.00     0.025 A 
ATOM      3  C   LIG d   1       4.052  -1.071  -8.815  0.00  0.00    -0.029 A 
ATOM      4  C   LIG d   1       3.576  -0.167  -7.886  0.00  0.00     0.035 A 
ATOM      5  C   LIG d   1       3.154   1.098  -8.292  0.00  0.00    -0.037 A 
ATOM      6  C   LIG d   1       3.201   1.462  -9.620  0.00  0.00    -0.017 A 
ATOM      7  C   LIG d   1       3.673   0.565 -10.572  0.00  0.00     0.136 A 
ATOM      8  O   LIG d   1       3.831   0.642 -11.909  0.00  0.00    -0.451 OA
ATOM      9  C   LIG d   1       4.334  -0.510 -12.400  0.00  0.00     0.179 A 
ATOM     10  H   LIG d   1       4.385  -2.050  -8.501  0.00  0.00     0.064 H 
ATOM     11  H   LIG d   1       2.786   1.800  -7.560  0.00  0.00     0.064 H 
ATOM     12  H   LIG d   1       2.872   2.445  -9.922  0.00  0.00     0.066 H 
ENDROOT
BRANCH   4  13
ATOM     13  N   LIG d   1       3.521  -0.520  -6.532  0.00  0.00    -0.281 N 
ATOM     14  C   LIG d   1       4.585  -0.298  -5.734  0.00  0.00     0.252 C 
ATOM     15  O   LIG d   1       5.623   0.122  -6.207  0.00  0.00    -0.270 OA
ATOM     16  H   LIG d   1       2.719  -0.924  -6.168  0.00  0.00     0.155 HD
BRANCH  14  17
ATOM     17  C   LIG d   1       4.490  -0.569  -4.287  0.00  0.00     0.079 A 
ATOM     18  C   LIG d   1       4.257  -1.873  -3.828  0.00  0.00     0.132 A 
ATOM     19  C   LIG d   1       4.170  -2.116  -2.465  0.00  0.00    -0.019 A 
ATOM     20  C   LIG d   1       4.311  -1.078  -1.567  0.00  0.00    -0.058 A 
ATOM     21  H   LIG d   1       3.990  -3.119  -2.108  0.00  0.00     0.065 H 
ATOM     22  C   LIG d   1       4.542   0.212  -2.016  0.00  0.00    -0.061 A 
ATOM     23  H   LIG d   1       4.243  -1.272  -0.507  0.00  0.00     0.062 H 
ATOM     24  C   LIG d   1       4.637   0.471  -3.366  0.00  0.00    -0.046 A 
ATOM     25  H   LIG d   1       4.652   1.017  -1.305  0.00  0.00     0.062 H 
ATOM     26  H   LIG d   1       4.822   1.477  -3.712  0.00  0.00     0.063 H 
BRANCH  18  27
ATOM     27  O   LIG d   1       4.118  -2.892  -4.713  0.00  0.00    -0.494 OA
BRANCH  27  28
ATOM     28  C   LIG d   1       5.243  -3.756  -4.888  0.00  0.00     0.079 C 
ATOM     29  H   LIG d   1       6.093  -3.364  -4.330  0.00  0.00     0.066 H 
ATOM     30  H   LIG d   1       4.996  -4.752  -4.522  0.00  0.00     0.066 H 
ATOM     31  H   LIG d   1       5.498  -3.810  -5.946  0.00  0.00     0.066 H 
ENDBRANCH  27  28
ENDBRANCH  18  27
ENDBRANCH  14  17
ENDBRANCH   4  13
BRANCH   1  32
ATOM     32  C   LIG d   1       5.072  -2.796 -11.495  0.00  0.00    -0.035 C 
ATOM     33  H   LIG d   1       4.820  -3.208 -12.473  0.00  0.00     0.028 H 
ATOM     34  H   LIG d   1       6.156  -2.774 -11.378  0.00  0.00     0.028 H 
ATOM     35  H   LIG d   1       4.635  -3.419 -10.715  0.00  0.00     0.028 H 
ENDBRANCH   1  32
BRANCH   9  36
ATOM     36  C   LIG d   1       4.629  -0.769 -13.814  0.00  0.00     0.228 C 
ATOM     37  O   LIG d   1       5.763  -0.639 -14.234  0.00  0.00    -0.283 OA
BRANCH  36  38
ATOM     38  C   LIG d   1       3.544  -1.188 -14.729  0.00  0.00     0.029 A 
ATOM     39  C   LIG d   1       2.505  -1.993 -14.263  0.00  0.00    -0.009 A 
ATOM     40  C   LIG d   1       1.492  -2.376 -15.124  0.00  0.00     0.121 A 
ATOM     41  H   LIG d   1       2.489  -2.312 -13.230  0.00  0.00     0.066 H 
ATOM     42  C   LIG d   1       1.517  -1.970 -16.452  0.00  0.00    -0.020 A 
ATOM     43  C   LIG d   1       2.549  -1.176 -16.917  0.00  0.00    -0.058 A 
ATOM     44  H   LIG d   1       0.728  -2.274 -17.123  0.00  0.00     0.065 H 
ATOM     45  C   LIG d   1       3.562  -0.784 -16.066  0.00  0.00    -0.051 A 
ATOM     46  H   LIG d   1       2.564  -0.863 -17.951  0.00  0.00     0.062 H 
ATOM     47  H   LIG d   1       4.366  -0.163 -16.433  0.00  0.00     0.062 H 
BRANCH  40  48
ATOM     48  O   LIG d   1       0.474  -3.156 -14.672  0.00  0.00    -0.495 OA
BRANCH  48  49
ATOM     49  C   LIG d   1      -0.379  -2.594 -13.674  0.00  0.00     0.079 C 
ATOM     50  H   LIG d   1       0.153  -1.806 -13.142  0.00  0.00     0.066 H 
ATOM     51  H   LIG d   1      -1.267  -2.177 -14.148  0.00  0.00     0.066 H 
ATOM     52  H   LIG d   1      -0.675  -3.371 -12.968  0.00  0.00     0.066 H 
ENDBRANCH  48  49
ENDBRANCH  40  48
ENDBRANCH  36  38
ENDBRANCH   9  36
TORSDOF 9
ENDMDL
MODEL 5
REMARK VINA RESULT:      -6.3      5.904      8.218
REMARK  9 active torsions:
REMARK  status: ('A' for Active; 'I' for Inactive)
REMARK    1  A    between atoms: C_1  and  C_2 
REMARK    2  A    between atoms: C_5  and  N_21 
REMARK    3  A    between atoms: C_10  and  C_11 
REMARK    4  A    between atoms: C_11  and  C_13 
REMARK    5  A    between atoms: C_17  and  O_19 
REMARK    6  A    between atoms: O_19  and  C_20 
REMARK       I    between atoms: N_21  and  C_22 
REMARK    7  A    between atoms: C_22  and  C_24 
REMARK    8  A    between atoms: C_29  and  O_30 
REMARK    9  A    between atoms: O_30  and  C_31 
ROOT
ATOM      1  C   LIG d   1       4.966  -8.356  -5.895  0.00  0.00     0.006 A 
ATOM      2  C   LIG d   1       4.779  -6.934  -6.175  0.00  0.00     0.025 A 
ATOM      3  C   LIG d   1       4.426  -5.828  -5.397  0.00  0.00    -0.029 A 
ATOM      4  C   LIG d   1       4.330  -4.582  -5.987  0.00  0.00     0.035 A 
ATOM      5  C   LIG d   1       4.593  -4.429  -7.348  0.00  0.00    -0.037 A 
ATOM      6  C   LIG d   1       4.947  -5.513  -8.120  0.00  0.00    -0.017 A 
ATOM      7  C   LIG d   1       5.044  -6.776  -7.548  0.00  0.00     0.136 A 
ATOM      8  O   LIG d   1       5.362  -7.989  -8.044  0.00  0.00    -0.451 OA
ATOM      9  C   LIG d   1       5.319  -8.930  -7.078  0.00  0.00     0.179 A 
ATOM     10  H   LIG d   1       4.228  -5.947  -4.342  0.00  0.00     0.064 H 
ATOM     11  H   LIG d   1       4.520  -3.452  -7.800  0.00  0.00     0.064 H 
ATOM     12  H   LIG d   1       5.149  -5.381  -9.173  0.00  0.00     0.066 H 
ENDROOT
BRANCH   4  13
ATOM     13  N   LIG d   1       3.973  -3.470  -5.215  0.00  0.00    -0.281 N 
ATOM     14  C   LIG d   1       4.907  -2.826  -4.487  0.00  0.00     0.252 C 
ATOM     15  O   LIG d   1       6.039  -3.264  -4.427  0.00  0.00    -0.270 OA
ATOM     16  H   LIG d   1       3.053  -3.163  -5.203  0.00  0.00     0.155 HD
BRANCH  14  17
ATOM     17  C   LIG d   1       4.554  -1.591  -3.762  0.00  0.00     0.079 A 
ATOM     18  C   LIG d   1       4.065  -0.478  -4.460  0.00  0.00     0.132 A 
ATOM     19  C   LIG d   1       3.736   0.678  -3.767  0.00  0.00    -0.019 A 
ATOM     20  C   LIG d   1       3.890   0.730  -2.396  0.00  0.00    -0.058 A 
ATOM     21  H   LIG d   1       3.359   1.537  -4.301  0.00  0.00     0.065 H 
ATOM     22  C   LIG d   1       4.373  -0.367  -1.702  0.00  0.00    -0.061 A 
ATOM     23  H   LIG d   1       3.633   1.632  -1.861  0.00  0.00     0.062 H 
ATOM     24  C   LIG d   1       4.699  -1.525  -2.374  0.00  0.00    -0.046 A 
ATOM     25  H   LIG d   1       4.490  -0.317  -0.630  0.00  0.00     0.062 H 
ATOM     26  H   LIG d   1       5.071  -2.380  -1.828  0.00  0.00     0.063 H 
BRANCH  18  27
ATOM     27  O   LIG d   1       3.913  -0.532  -5.807  0.00  0.00    -0.494 OA
BRANCH  27  28
ATOM     28  C   LIG d   1       2.878   0.273  -6.375  0.00  0.00     0.079 C 
ATOM     29  H   LIG d   1       1.959  -0.310  -6.441  0.00  0.00     0.066 H 
ATOM     30  H   LIG d   1       2.709   1.146  -5.747  0.00  0.00     0.066 H 
ATOM     31  H   LIG d   1       3.175   0.595  -7.373  0.00  0.00     0.066 H 
ENDBRANCH  27  28
ENDBRANCH  18  27
ENDBRANCH  14  17
ENDBRANCH   4  13
BRANCH   1  32
ATOM     32  C   LIG d   1       4.803  -9.047  -4.567  0.00  0.00    -0.035 C 
ATOM     33  H   LIG d   1       5.742  -9.527  -4.288  0.00  0.00     0.028 H 
ATOM     34  H   LIG d   1       4.531  -8.315  -3.807  0.00  0.00     0.028 H 
ATOM     35  H   LIG d   1       4.019  -9.801  -4.642  0.00  0.00     0.028 H 
ENDBRANCH   1  32
BRANCH   9  36
ATOM     36  C   LIG d   1       5.608 -10.356  -7.273  0.00  0.00     0.228 C 
ATOM     37  O   LIG d   1       6.760 -10.746  -7.296  0.00  0.00    -0.283 OA
BRANCH  36  38
ATOM     38  C   LIG d   1       4.497 -11.318  -7.442  0.00  0.00     0.029 A 
ATOM     39  C   LIG d   1       3.959 -11.552  -8.708  0.00  0.00    -0.009 A 
ATOM     40  C   LIG d   1       2.923 -12.457  -8.858  0.00  0.00     0.121 A 
ATOM     41  H   LIG d   1       4.354 -11.032  -9.569  0.00  0.00     0.066 H 
ATOM     42  C   LIG d   1       2.413 -13.120  -7.750  0.00  0.00    -0.020 A 
ATOM     43  C   LIG d   1       2.941 -12.886  -6.494  0.00  0.00    -0.058 A 
ATOM     44  H   LIG d   1       1.602 -13.823  -7.870  0.00  0.00     0.065 H 
ATOM     45  C   LIG d   1       3.977 -11.989  -6.333  0.00  0.00    -0.051 A 
ATOM     46  H   LIG d   1       2.540 -13.404  -5.636  0.00  0.00     0.062 H 
ATOM     47  H   LIG d   1       4.388 -11.808  -5.350  0.00  0.00     0.062 H 
BRANCH  40  48
ATOM     48  O   LIG d   1       2.400 -12.692 -10.091  0.00  0.00    -0.495 OA
BRANCH  48  49
ATOM     49  C   LIG d   1       1.031 -12.338 -10.293  0.00  0.00     0.079 C 
ATOM     50  H   LIG d   1       0.390 -13.082  -9.821  0.00  0.00     0.066 H 
ATOM     51  H   LIG d   1       0.839 -11.360  -9.851  0.00  0.00     0.066 H 
ATOM     52  H   LIG d   1       0.818 -12.302 -11.362  0.00  0.00     0.066 H 
ENDBRANCH  48  49
ENDBRANCH  40  48
ENDBRANCH  36  38
ENDBRANCH   9  36
TORSDOF 9
ENDMDL
MODEL 6
REMARK VINA RESULT:      -6.3      5.706     11.708
REMARK  9 active torsions:
REMARK  status: ('A' for Active; 'I' for Inactive)
REMARK    1  A    between atoms: C_1  and  C_2 
REMARK    2  A    between atoms: C_5  and  N_21 
REMARK    3  A    between atoms: C_10  and  C_11 
REMARK    4  A    between atoms: C_11  and  C_13 
REMARK    5  A    between atoms: C_17  and  O_19 
REMARK    6  A    between atoms: O_19  and  C_20 
REMARK       I    between atoms: N_21  and  C_22 
REMARK    7  A    between atoms: C_22  and  C_24 
REMARK    8  A    between atoms: C_29  and  O_30 
REMARK    9  A    between atoms: O_30  and  C_31 
ROOT
ATOM      1  C   LIG d   1       9.168   2.434  -5.640  0.00  0.00     0.006 A 
ATOM      2  C   LIG d   1       8.132   1.406  -5.583  0.00  0.00     0.025 A 
ATOM      3  C   LIG d   1       7.285   0.826  -6.531  0.00  0.00    -0.029 A 
ATOM      4  C   LIG d   1       6.388  -0.150  -6.139  0.00  0.00     0.035 A 
ATOM      5  C   LIG d   1       6.336  -0.558  -4.806  0.00  0.00    -0.037 A 
ATOM      6  C   LIG d   1       7.170   0.005  -3.867  0.00  0.00    -0.017 A 
ATOM      7  C   LIG d   1       8.077   0.991  -4.239  0.00  0.00     0.136 A 
ATOM      8  O   LIG d   1       8.995   1.703  -3.555  0.00  0.00    -0.451 OA
ATOM      9  C   LIG d   1       9.645   2.558  -4.371  0.00  0.00     0.179 A 
ATOM     10  H   LIG d   1       7.330   1.139  -7.564  0.00  0.00     0.064 H 
ATOM     11  H   LIG d   1       5.635  -1.322  -4.508  0.00  0.00     0.064 H 
ATOM     12  H   LIG d   1       7.121  -0.321  -2.838  0.00  0.00     0.066 H 
ENDROOT
BRANCH   4  13
ATOM     13  N   LIG d   1       5.533  -0.733  -7.081  0.00  0.00    -0.281 N 
ATOM     14  C   LIG d   1       4.220  -0.427  -7.081  0.00  0.00     0.252 C 
ATOM     15  O   LIG d   1       3.761   0.281  -6.206  0.00  0.00    -0.270 OA
ATOM     16  H   LIG d   1       5.884  -1.357  -7.735  0.00  0.00     0.155 HD
BRANCH  14  17
ATOM     17  C   LIG d   1       3.339  -0.956  -8.139  0.00  0.00     0.079 A 
ATOM     18  C   LIG d   1       3.451  -2.292  -8.546  0.00  0.00     0.132 A 
ATOM     19  C   LIG d   1       2.617  -2.779  -9.543  0.00  0.00    -0.019 A 
ATOM     20  C   LIG d   1       1.683  -1.949 -10.130  0.00  0.00    -0.058 A 
ATOM     21  H   LIG d   1       2.700  -3.808  -9.860  0.00  0.00     0.065 H 
ATOM     22  C   LIG d   1       1.570  -0.628  -9.731  0.00  0.00    -0.061 A 
ATOM     23  H   LIG d   1       1.037  -2.333 -10.906  0.00  0.00     0.062 H 
ATOM     24  C   LIG d   1       2.386  -0.130  -8.739  0.00  0.00    -0.046 A 
ATOM     25  H   LIG d   1       0.836   0.013 -10.196  0.00  0.00     0.062 H 
ATOM     26  H   LIG d   1       2.290   0.901  -8.427  0.00  0.00     0.063 H 
BRANCH  18  27
ATOM     27  O   LIG d   1       4.369  -3.107  -7.968  0.00  0.00    -0.494 OA
BRANCH  27  28
ATOM     28  C   LIG d   1       3.913  -4.386  -7.524  0.00  0.00     0.079 C 
ATOM     29  H   LIG d   1       3.374  -4.274  -6.583  0.00  0.00     0.066 H 
ATOM     30  H   LIG d   1       3.249  -4.816  -8.273  0.00  0.00     0.066 H 
ATOM     31  H   LIG d   1       4.768  -5.045  -7.375  0.00  0.00     0.066 H 
ENDBRANCH  27  28
ENDBRANCH  18  27
ENDBRANCH  14  17
ENDBRANCH   4  13
BRANCH   1  32
ATOM     32  C   LIG d   1       9.619   3.201  -6.856  0.00  0.00    -0.035 C 
ATOM     33  H   LIG d   1      10.563   2.790  -7.216  0.00  0.00     0.028 H 
ATOM     34  H   LIG d   1       8.865   3.117  -7.638  0.00  0.00     0.028 H 
ATOM     35  H   LIG d   1       9.756   4.250  -6.594  0.00  0.00     0.028 H 
ENDBRANCH   1  32
BRANCH   9  36
ATOM     36  C   LIG d   1      10.706   3.484  -3.954  0.00  0.00     0.228 C 
ATOM     37  O   LIG d   1      11.873   3.191  -4.131  0.00  0.00    -0.283 OA
BRANCH  36  38
ATOM     38  C   LIG d   1      10.354   4.772  -3.317  0.00  0.00     0.029 A 
ATOM     39  C   LIG d   1      10.446   4.917  -1.932  0.00  0.00    -0.009 A 
ATOM     40  C   LIG d   1      10.119   6.127  -1.345  0.00  0.00     0.121 A 
ATOM     41  H   LIG d   1      10.777   4.089  -1.322  0.00  0.00     0.066 H 
ATOM     42  C   LIG d   1       9.689   7.188  -2.130  0.00  0.00    -0.020 A 
ATOM     43  C   LIG d   1       9.592   7.044  -3.502  0.00  0.00    -0.058 A 
ATOM     44  H   LIG d   1       9.431   8.129  -1.669  0.00  0.00     0.065 H 
ATOM     45  C   LIG d   1       9.920   5.844  -4.099  0.00  0.00    -0.051 A 
ATOM     46  H   LIG d   1       9.257   7.873  -4.108  0.00  0.00     0.062 H 
ATOM     47  H   LIG d   1       9.843   5.735  -5.171  0.00  0.00     0.062 H 
BRANCH  40  48
ATOM     48  O   LIG d   1      10.214   6.274   0.004  0.00  0.00    -0.495 OA
BRANCH  48  49
ATOM     49  C   LIG d   1      11.460   5.924   0.608  0.00  0.00     0.079 C 
ATOM     50  H   LIG d   1      12.273   6.140  -0.083  0.00  0.00     0.066 H 
ATOM     51  H   LIG d   1      11.596   6.503   1.522  0.00  0.00     0.066 H 
ATOM     52  H   LIG d   1      11.462   4.860   0.849  0.00  0.00     0.066 H 
ENDBRANCH  48  49
ENDBRANCH  40  48
ENDBRANCH  36  38
ENDBRANCH   9  36
TORSDOF 9
ENDMDL
MODEL 7
REMARK VINA RESULT:      -6.2      7.659     11.285
REMARK  9 active torsions:
REMARK  status: ('A' for Active; 'I' for Inactive)
REMARK    1  A    between atoms: C_1  and  C_2 
REMARK    2  A    between atoms: C_5  and  N_21 
REMARK    3  A    between atoms: C_10  and  C_11 
REMARK    4  A    between atoms: C_11  and  C_13 
REMARK    5  A    between atoms: C_17  and  O_19 
REMARK    6  A    between atoms: O_19  and  C_20 
REMARK       I    between atoms: N_21  and  C_22 
REMARK    7  A    between atoms: C_22  and  C_24 
REMARK    8  A    between atoms: C_29  and  O_30 
REMARK    9  A    between atoms: O_30  and  C_31 
ROOT
ATOM      1  C   LIG d   1       9.751   3.995  -7.218  0.00  0.00     0.006 A 
ATOM      2  C   LIG d   1       9.532   3.221  -5.998  0.00  0.00     0.025 A 
ATOM      3  C   LIG d   1       8.679   2.169  -5.654  0.00  0.00    -0.029 A 
ATOM      4  C   LIG d   1       8.720   1.648  -4.375  0.00  0.00     0.035 A 
ATOM      5  C   LIG d   1       9.612   2.165  -3.437  0.00  0.00    -0.037 A 
ATOM      6  C   LIG d   1      10.459   3.198  -3.768  0.00  0.00    -0.017 A 
ATOM      7  C   LIG d   1      10.432   3.740  -5.049  0.00  0.00     0.136 A 
ATOM      8  O   LIG d   1      11.126   4.731  -5.644  0.00  0.00    -0.451 OA
ATOM      9  C   LIG d   1      10.733   4.890  -6.925  0.00  0.00     0.179 A 
ATOM     10  H   LIG d   1       7.992   1.766  -6.384  0.00  0.00     0.064 H 
ATOM     11  H   LIG d   1       9.640   1.751  -2.441  0.00  0.00     0.064 H 
ATOM     12  H   LIG d   1      11.147   3.589  -3.033  0.00  0.00     0.066 H 
ENDROOT
BRANCH   4  13
ATOM     13  N   LIG d   1       7.866   0.597  -4.021  0.00  0.00    -0.281 N 
ATOM     14  C   LIG d   1       6.612   0.859  -3.599  0.00  0.00     0.252 C 
ATOM     15  O   LIG d   1       6.253   2.009  -3.437  0.00  0.00    -0.270 OA
ATOM     16  H   LIG d   1       8.175  -0.321  -4.078  0.00  0.00     0.155 HD
BRANCH  14  17
ATOM     17  C   LIG d   1       5.678  -0.250  -3.330  0.00  0.00     0.079 A 
ATOM     18  C   LIG d   1       5.583  -1.324  -4.225  0.00  0.00     0.132 A 
ATOM     19  C   LIG d   1       4.701  -2.363  -3.962  0.00  0.00    -0.019 A 
ATOM     20  C   LIG d   1       3.920  -2.335  -2.824  0.00  0.00    -0.058 A 
ATOM     21  H   LIG d   1       4.625  -3.192  -4.650  0.00  0.00     0.065 H 
ATOM     22  C   LIG d   1       4.010  -1.275  -1.937  0.00  0.00    -0.061 A 
ATOM     23  H   LIG d   1       3.235  -3.145  -2.624  0.00  0.00     0.062 H 
ATOM     24  C   LIG d   1       4.885  -0.239  -2.180  0.00  0.00    -0.046 A 
ATOM     25  H   LIG d   1       3.396  -1.263  -1.049  0.00  0.00     0.062 H 
ATOM     26  H   LIG d   1       4.956   0.583  -1.482  0.00  0.00     0.063 H 
BRANCH  18  27
ATOM     27  O   LIG d   1       6.351  -1.350  -5.343  0.00  0.00    -0.494 OA
BRANCH  27  28
ATOM     28  C   LIG d   1       6.969  -2.595  -5.677  0.00  0.00     0.079 C 
ATOM     29  H   LIG d   1       6.850  -3.293  -4.850  0.00  0.00     0.066 H 
ATOM     30  H   LIG d   1       6.499  -3.006  -6.570  0.00  0.00     0.066 H 
ATOM     31  H   LIG d   1       8.031  -2.434  -5.866  0.00  0.00     0.066 H 
ENDBRANCH  27  28
ENDBRANCH  18  27
ENDBRANCH  14  17
ENDBRANCH   4  13
BRANCH   1  32
ATOM     32  C   LIG d   1       9.036   3.833  -8.534  0.00  0.00    -0.035 C 
ATOM     33  H   LIG d   1       9.466   4.515  -9.269  0.00  0.00     0.028 H 
ATOM     34  H   LIG d   1       9.147   2.807  -8.885  0.00  0.00     0.028 H 
ATOM     35  H   LIG d   1       7.978   4.061  -8.404  0.00  0.00     0.028 H 
ENDBRANCH   1  32
BRANCH   9  36
ATOM     36  C   LIG d   1      11.280   5.880  -7.860  0.00  0.00     0.228 C 
ATOM     37  O   LIG d   1      12.091   5.541  -8.701  0.00  0.00    -0.283 OA
BRANCH  36  38
ATOM     38  C   LIG d   1      10.847   7.292  -7.778  0.00  0.00     0.029 A 
ATOM     39  C   LIG d   1      11.342   8.232  -8.683  0.00  0.00    -0.009 A 
ATOM     40  C   LIG d   1      10.928   9.550  -8.602  0.00  0.00     0.121 A 
ATOM     41  H   LIG d   1      12.044   7.929  -9.447  0.00  0.00     0.066 H 
ATOM     42  C   LIG d   1      10.032   9.938  -7.615  0.00  0.00    -0.020 A 
ATOM     43  C   LIG d   1       9.543   9.009  -6.715  0.00  0.00    -0.058 A 
ATOM     44  H   LIG d   1       9.713  10.967  -7.552  0.00  0.00     0.065 H 
ATOM     45  C   LIG d   1       9.945   7.691  -6.789  0.00  0.00    -0.051 A 
ATOM     46  H   LIG d   1       8.845   9.316  -5.949  0.00  0.00     0.062 H 
ATOM     47  H   LIG d   1       9.561   6.968  -6.084  0.00  0.00     0.062 H 
BRANCH  40  48
ATOM     48  O   LIG d   1      11.405  10.467  -9.485  0.00  0.00    -0.495 OA
BRANCH  48  49
ATOM     49  C   LIG d   1      11.797   9.985 -10.772  0.00  0.00     0.079 C 
ATOM     50  H   LIG d   1      11.030  10.236 -11.503  0.00  0.00     0.066 H 
ATOM     51  H   LIG d   1      12.741  10.448 -11.061  0.00  0.00     0.066 H 
ATOM     52  H   LIG d   1      11.921   8.902 -10.733  0.00  0.00     0.066 H 
ENDBRANCH  48  49
ENDBRANCH  40  48
ENDBRANCH  36  38
ENDBRANCH   9  36
TORSDOF 9
ENDMDL
MODEL 8
REMARK VINA RESULT:      -6.2      3.514      4.651
REMARK  9 active torsions:
REMARK  status: ('A' for Active; 'I' for Inactive)
REMARK    1  A    between atoms: C_1  and  C_2 
REMARK    2  A    between atoms: C_5  and  N_21 
REMARK    3  A    between atoms: C_10  and  C_11 
REMARK    4  A    between atoms: C_11  and  C_13 
REMARK    5  A    between atoms: C_17  and  O_19 
REMARK    6  A    between atoms: O_19  and  C_20 
REMARK       I    between atoms: N_21  and  C_22 
REMARK    7  A    between atoms: C_22  and  C_24 
REMARK    8  A    between atoms: C_29  and  O_30 
REMARK    9  A    between atoms: O_30  and  C_31 
ROOT
ATOM      1  C   LIG d   1       4.257  -1.379 -11.434  0.00  0.00     0.006 A 
ATOM      2  C   LIG d   1       4.235  -0.527 -10.247  0.00  0.00     0.025 A 
ATOM      3  C   LIG d   1       4.492  -0.743  -8.890  0.00  0.00    -0.029 A 
ATOM      4  C   LIG d   1       4.375   0.307  -7.999  0.00  0.00     0.035 A 
ATOM      5  C   LIG d   1       4.011   1.574  -8.452  0.00  0.00    -0.037 A 
ATOM      6  C   LIG d   1       3.761   1.796  -9.788  0.00  0.00    -0.017 A 
ATOM      7  C   LIG d   1       3.868   0.753 -10.701  0.00  0.00     0.136 A 
ATOM      8  O   LIG d   1       3.689   0.677 -12.036  0.00  0.00    -0.451 OA
ATOM      9  C   LIG d   1       3.915  -0.577 -12.479  0.00  0.00     0.179 A 
ATOM     10  H   LIG d   1       4.779  -1.724  -8.541  0.00  0.00     0.064 H 
ATOM     11  H   LIG d   1       3.925   2.389  -7.750  0.00  0.00     0.064 H 
ATOM     12  H   LIG d   1       3.481   2.783 -10.127  0.00  0.00     0.066 H 
ENDROOT
BRANCH   4  13
ATOM     13  N   LIG d   1       4.626   0.098  -6.637  0.00  0.00    -0.281 N 
ATOM     14  C   LIG d   1       3.599  -0.030  -5.773  0.00  0.00     0.252 C 
ATOM     15  O   LIG d   1       2.457   0.128  -6.159  0.00  0.00    -0.270 OA
ATOM     16  H   LIG d   1       5.539   0.046  -6.314  0.00  0.00     0.155 HD
BRANCH  14  17
ATOM     17  C   LIG d   1       3.861  -0.358  -4.360  0.00  0.00     0.079 A 
ATOM     18  C   LIG d   1       4.123  -1.681  -3.980  0.00  0.00     0.132 A 
ATOM     19  C   LIG d   1       4.368  -1.978  -2.647  0.00  0.00    -0.019 A 
ATOM     20  C   LIG d   1       4.353  -0.973  -1.700  0.00  0.00    -0.058 A 
ATOM     21  H   LIG d   1       4.570  -2.997  -2.350  0.00  0.00     0.065 H 
ATOM     22  C   LIG d   1       4.094   0.336  -2.071  0.00  0.00    -0.061 A 
ATOM     23  H   LIG d   1       4.544  -1.209  -0.664  0.00  0.00     0.062 H 
ATOM     24  C   LIG d   1       3.855   0.649  -3.391  0.00  0.00    -0.046 A 
ATOM     25  H   LIG d   1       4.086   1.115  -1.324  0.00  0.00     0.062 H 
ATOM     26  H   LIG d   1       3.659   1.673  -3.677  0.00  0.00     0.063 H 
BRANCH  18  27
ATOM     27  O   LIG d   1       4.138  -2.668  -4.911  0.00  0.00    -0.494 OA
BRANCH  27  28
ATOM     28  C   LIG d   1       5.349  -3.412  -5.048  0.00  0.00     0.079 C 
ATOM     29  H   LIG d   1       6.186  -2.815  -4.687  0.00  0.00     0.066 H 
ATOM     30  H   LIG d   1       5.280  -4.330  -4.464  0.00  0.00     0.066 H 
ATOM     31  H   LIG d   1       5.507  -3.660  -6.097  0.00  0.00     0.066 H 
ENDBRANCH  27  28
ENDBRANCH  18  27
ENDBRANCH  14  17
ENDBRANCH   4  13
BRANCH   1  32
ATOM     32  C   LIG d   1       4.591  -2.847 -11.489  0.00  0.00    -0.035 C 
ATOM     33  H   LIG d   1       4.026  -3.318 -12.294  0.00  0.00     0.028 H 
ATOM     34  H   LIG d   1       5.658  -2.969 -11.675  0.00  0.00     0.028 H 
ATOM     35  H   LIG d   1       4.331  -3.315 -10.540  0.00  0.00     0.028 H 
ENDBRANCH   1  32
BRANCH   9  36
ATOM     36  C   LIG d   1       3.808  -1.012 -13.877  0.00  0.00     0.228 C 
ATOM     37  O   LIG d   1       2.926  -1.780 -14.210  0.00  0.00    -0.283 OA
BRANCH  36  38
ATOM     38  C   LIG d   1       4.775  -0.516 -14.881  0.00  0.00     0.029 A 
ATOM     39  C   LIG d   1       4.330   0.225 -15.977  0.00  0.00    -0.009 A 
ATOM     40  C   LIG d   1       5.241   0.689 -16.909  0.00  0.00     0.121 A 
ATOM     41  H   LIG d   1       3.277   0.438 -16.094  0.00  0.00     0.066 H 
ATOM     42  C   LIG d   1       6.593   0.408 -16.759  0.00  0.00    -0.020 A 
ATOM     43  C   LIG d   1       7.035  -0.330 -15.676  0.00  0.00    -0.058 A 
ATOM     44  H   LIG d   1       7.302   0.768 -17.490  0.00  0.00     0.065 H 
ATOM     45  C   LIG d   1       6.136  -0.793 -14.738  0.00  0.00    -0.051 A 
ATOM     46  H   LIG d   1       8.088  -0.545 -15.565  0.00  0.00     0.062 H 
ATOM     47  H   LIG d   1       6.485  -1.369 -13.894  0.00  0.00     0.062 H 
BRANCH  40  48
ATOM     48  O   LIG d   1       4.812   1.415 -17.975  0.00  0.00    -0.495 OA
BRANCH  48  49
ATOM     49  C   LIG d   1       5.753   2.311 -18.570  0.00  0.00     0.079 C 
ATOM     50  H   LIG d   1       6.658   2.342 -17.965  0.00  0.00     0.066 H 
ATOM     51  H   LIG d   1       5.999   1.966 -19.574  0.00  0.00     0.066 H 
ATOM     52  H   LIG d   1       5.320   3.310 -18.625  0.00  0.00     0.066 H 
ENDBRANCH  48  49
ENDBRANCH  40  48
ENDBRANCH  36  38
ENDBRANCH   9  36
TORSDOF 9
ENDMDL
MODEL 9
REMARK VINA RESULT:      -6.1      7.647     11.521
REMARK  9 active torsions:
REMARK  status: ('A' for Active; 'I' for Inactive)
REMARK    1  A    between atoms: C_1  and  C_2 
REMARK    2  A    between atoms: C_5  and  N_21 
REMARK    3  A    between atoms: C_10  and  C_11 
REMARK    4  A    between atoms: C_11  and  C_13 
REMARK    5  A    between atoms: C_17  and  O_19 
REMARK    6  A    between atoms: O_19  and  C_20 
REMARK       I    between atoms: N_21  and  C_22 
REMARK    7  A    between atoms: C_22  and  C_24 
REMARK    8  A    between atoms: C_29  and  O_30 
REMARK    9  A    between atoms: O_30  and  C_31 
ROOT
ATOM      1  C   LIG d   1       9.848   5.012  -5.044  0.00  0.00     0.006 A 
ATOM      2  C   LIG d   1       9.653   3.572  -4.896  0.00  0.00     0.025 A 
ATOM      3  C   LIG d   1       8.672   2.780  -4.293  0.00  0.00    -0.029 A 
ATOM      4  C   LIG d   1       8.789   1.404  -4.329  0.00  0.00     0.035 A 
ATOM      5  C   LIG d   1       9.875   0.810  -4.971  0.00  0.00    -0.037 A 
ATOM      6  C   LIG d   1      10.843   1.582  -5.572  0.00  0.00    -0.017 A 
ATOM      7  C   LIG d   1      10.747   2.969  -5.543  0.00  0.00     0.136 A 
ATOM      8  O   LIG d   1      11.525   3.956  -6.035  0.00  0.00    -0.451 OA
ATOM      9  C   LIG d   1      11.004   5.166  -5.745  0.00  0.00     0.179 A 
ATOM     10  H   LIG d   1       7.828   3.242  -3.800  0.00  0.00     0.064 H 
ATOM     11  H   LIG d   1       9.957  -0.266  -4.998  0.00  0.00     0.064 H 
ATOM     12  H   LIG d   1      11.679   1.110  -6.067  0.00  0.00     0.066 H 
ENDROOT
BRANCH   4  13
ATOM     13  N   LIG d   1       7.813   0.603  -3.723  0.00  0.00    -0.281 N 
ATOM     14  C   LIG d   1       6.754   0.173  -4.438  0.00  0.00     0.252 C 
ATOM     15  O   LIG d   1       6.597   0.555  -5.582  0.00  0.00    -0.270 OA
ATOM     16  H   LIG d   1       7.897   0.359  -2.789  0.00  0.00     0.155 HD
BRANCH  14  17
ATOM     17  C   LIG d   1       5.784  -0.757  -3.832  0.00  0.00     0.079 A 
ATOM     18  C   LIG d   1       4.975  -0.336  -2.767  0.00  0.00     0.132 A 
ATOM     19  C   LIG d   1       4.065  -1.220  -2.205  0.00  0.00    -0.019 A 
ATOM     20  C   LIG d   1       3.959  -2.507  -2.692  0.00  0.00    -0.058 A 
ATOM     21  H   LIG d   1       3.440  -0.900  -1.384  0.00  0.00     0.065 H 
ATOM     22  C   LIG d   1       4.756  -2.927  -3.744  0.00  0.00    -0.061 A 
ATOM     23  H   LIG d   1       3.249  -3.191  -2.251  0.00  0.00     0.062 H 
ATOM     24  C   LIG d   1       5.661  -2.061  -4.318  0.00  0.00    -0.046 A 
ATOM     25  H   LIG d   1       4.665  -3.935  -4.118  0.00  0.00     0.062 H 
ATOM     26  H   LIG d   1       6.277  -2.391  -5.142  0.00  0.00     0.063 H 
BRANCH  18  27
ATOM     27  O   LIG d   1       5.080   0.929  -2.290  0.00  0.00    -0.494 OA
BRANCH  27  28
ATOM     28  C   LIG d   1       3.924   1.762  -2.400  0.00  0.00     0.079 C 
ATOM     29  H   LIG d   1       4.107   2.542  -3.140  0.00  0.00     0.066 H 
ATOM     30  H   LIG d   1       3.071   1.161  -2.711  0.00  0.00     0.066 H 
ATOM     31  H   LIG d   1       3.713   2.221  -1.434  0.00  0.00     0.066 H 
ENDBRANCH  27  28
ENDBRANCH  18  27
ENDBRANCH  14  17
ENDBRANCH   4  13
BRANCH   1  32
ATOM     32  C   LIG d   1       8.951   6.106  -4.525  0.00  0.00    -0.035 C 
ATOM     33  H   LIG d   1       8.133   5.666  -3.954  0.00  0.00     0.028 H 
ATOM     34  H   LIG d   1       9.525   6.773  -3.882  0.00  0.00     0.028 H 
ATOM     35  H   LIG d   1       8.544   6.671  -5.364  0.00  0.00     0.028 H 
ENDBRANCH   1  32
BRANCH   9  36
ATOM     36  C   LIG d   1      11.595   6.454  -6.128  0.00  0.00     0.228 C 
ATOM     37  O   LIG d   1      12.462   6.955  -5.438  0.00  0.00    -0.283 OA
BRANCH  36  38
ATOM     38  C   LIG d   1      11.134   7.143  -7.354  0.00  0.00     0.029 A 
ATOM     39  C   LIG d   1      11.130   8.537  -7.415  0.00  0.00    -0.009 A 
ATOM     40  C   LIG d   1      10.701   9.173  -8.567  0.00  0.00     0.121 A 
ATOM     41  H   LIG d   1      11.465   9.117  -6.567  0.00  0.00     0.066 H 
ATOM     42  C   LIG d   1      10.266   8.426  -9.653  0.00  0.00    -0.020 A 
ATOM     43  C   LIG d   1      10.265   7.045  -9.593  0.00  0.00    -0.058 A 
ATOM     44  H   LIG d   1       9.929   8.925 -10.549  0.00  0.00     0.065 H 
ATOM     45  C   LIG d   1      10.694   6.399  -8.451  0.00  0.00    -0.051 A 
ATOM     46  H   LIG d   1       9.925   6.469 -10.441  0.00  0.00     0.062 H 
ATOM     47  H   LIG d   1      10.692   5.320  -8.407  0.00  0.00     0.062 H 
BRANCH  40  48
ATOM     48  O   LIG d   1      10.701  10.531  -8.632  0.00  0.00    -0.495 OA
BRANCH  48  49
ATOM     49  C   LIG d   1      11.089  11.237  -7.453  0.00  0.00     0.079 C 
ATOM     50  H   LIG d   1      11.161  12.302  -7.673  0.00  0.00     0.066 H 
ATOM     51  H   LIG d   1      10.345  11.078  -6.672  0.00  0.00     0.066 H 
ATOM     52  H   LIG d   1      12.058  10.872  -7.111  0.00  0.00     0.066 H 
ENDBRANCH  48  49
ENDBRANCH  40  48
ENDBRANCH  36  38
ENDBRANCH   9  36
TORSDOF 9
ENDMDL
