MODEL 1
REMARK VINA RESULT:      -6.8      0.000      0.000
REMARK  8 active torsions:
REMARK  status: ('A' for Active; 'I' for Inactive)
REMARK    1  A    between atoms: C_1  and  O_2 
REMARK    2  A    between atoms: O_2  and  C_3 
REMARK    3  A    between atoms: C_3  and  C_5 
REMARK    4  A    between atoms: C_8  and  O_11 
REMARK    5  A    between atoms: O_11  and  C_12 
REMARK    6  A    between atoms: C_21  and  O_30 
REMARK    7  A    between atoms: C_22  and  C_23 
REMARK    8  A    between atoms: C_23  and  N_24 
ROOT
ATOM      1  C   LIG d   1       9.928   2.828  -5.142  0.00  0.00     0.210 A 
ATOM      2  C   LIG d   1       9.320   1.958  -4.311  0.00  0.00     0.139 A 
ATOM      3  O   LIG d   1       8.334   1.144  -4.709  0.00  0.00    -0.458 OA
ATOM      4  C   LIG d   1       7.874   1.132  -5.976  0.00  0.00     0.150 A 
ATOM      5  C   LIG d   1       8.436   2.000  -6.931  0.00  0.00     0.068 A 
ATOM      6  C   LIG d   1       9.521   2.899  -6.504  0.00  0.00     0.234 A 
ATOM      7  O   LIG d   1      10.048   3.674  -7.285  0.00  0.00    -0.283 OA
ATOM      8  C   LIG d   1       7.972   1.994  -8.246  0.00  0.00    -0.044 A 
ATOM      9  C   LIG d   1       6.959   1.149  -8.604  0.00  0.00    -0.019 A 
ATOM     10  C   LIG d   1       6.397   0.286  -7.665  0.00  0.00     0.129 A 
ATOM     11  C   LIG d   1       6.850   0.276  -6.356  0.00  0.00     0.081 A 
ATOM     12  H   LIG d   1       9.641   1.916  -3.280  0.00  0.00     0.107 H 
ATOM     13  H   LIG d   1       8.408   2.656  -8.979  0.00  0.00     0.063 H 
ATOM     14  H   LIG d   1       6.596   1.146  -9.621  0.00  0.00     0.065 H 
ENDROOT
BRANCH  11  15
ATOM     15  C   LIG d   1       6.234  -0.660  -5.349  0.00  0.00     0.001 C 
ATOM     16  H   LIG d   1       5.652  -1.432  -5.875  0.00  0.00     0.087 H 
ATOM     17  H   LIG d   1       7.029  -1.139  -4.759  0.00  0.00     0.087 H 
BRANCH  15  18
ATOM     18  N   LIG d   1       5.348   0.098  -4.455  0.00  0.00     0.239 N 
ATOM     19  C   LIG d   1       3.939  -0.222  -4.716  0.00  0.00    -0.032 C 
ATOM     20  C   LIG d   1       3.044   0.688  -3.871  0.00  0.00    -0.012 C 
ATOM     21  H   LIG d   1       3.718  -0.065  -5.782  0.00  0.00     0.081 H 
ATOM     22  H   LIG d   1       3.746  -1.273  -4.452  0.00  0.00     0.081 H 
ATOM     23  C   LIG d   1       3.368   0.481  -2.389  0.00  0.00    -0.043 C 
ATOM     24  H   LIG d   1       1.989   0.439  -4.055  0.00  0.00     0.032 H 
ATOM     25  H   LIG d   1       3.225   1.738  -4.143  0.00  0.00     0.032 H 
ATOM     26  C   LIG d   1       4.852   0.773  -2.153  0.00  0.00    -0.012 C 
ATOM     27  H   LIG d   1       3.149  -0.558  -2.105  0.00  0.00     0.027 H 
ATOM     28  H   LIG d   1       2.758   1.164  -1.780  0.00  0.00     0.027 H 
ATOM     29  C   LIG d   1       5.694  -0.139  -3.048  0.00  0.00    -0.032 C 
ATOM     30  H   LIG d   1       5.101   0.585  -1.099  0.00  0.00     0.032 H 
ATOM     31  H   LIG d   1       5.063   1.824  -2.399  0.00  0.00     0.032 H 
ATOM     32  H   LIG d   1       5.494  -1.189  -2.792  0.00  0.00     0.081 H 
ATOM     33  H   LIG d   1       6.761   0.078  -2.892  0.00  0.00     0.081 H 
ATOM     34  H   LIG d   1       5.493   1.168  -4.661  0.00  0.00     0.204 HD
ENDBRANCH  15  18
ENDBRANCH  11  15
BRANCH  10  35
ATOM     35  O   LIG d   1       5.395  -0.551  -8.036  0.00  0.00    -0.506 OA
ATOM     36  H   LIG d   1       5.377  -0.972  -9.051  0.00  0.00     0.292 HD
ENDBRANCH  10  35
BRANCH   1  37
ATOM     37  O   LIG d   1      10.925   3.632  -4.681  0.00  0.00    -0.449 OA
BRANCH  37  38
ATOM     38  C   LIG d   1      10.619   4.541  -3.722  0.00  0.00     0.129 A 
ATOM     39  C   LIG d   1       9.813   5.631  -4.032  0.00  0.00    -0.019 A 
ATOM     40  C   LIG d   1       9.502   6.556  -3.061  0.00  0.00    -0.044 A 
ATOM     41  H   LIG d   1       9.431   5.752  -5.034  0.00  0.00     0.065 H 
ATOM     42  C   LIG d   1       9.997   6.400  -1.764  0.00  0.00     0.059 A 
ATOM     43  H   LIG d   1       8.875   7.402  -3.302  0.00  0.00     0.063 H 
ATOM     44  C   LIG d   1      10.808   5.303  -1.456  0.00  0.00    -0.044 A 
ATOM     45  C   LIG d   1      11.111   4.379  -2.431  0.00  0.00    -0.019 A 
ATOM     46  H   LIG d   1      11.192   5.178  -0.455  0.00  0.00     0.063 H 
ATOM     47  H   LIG d   1      11.734   3.530  -2.194  0.00  0.00     0.065 H 
BRANCH  42  48
ATOM     48  C   LIG d   1       9.667   7.389  -0.721  0.00  0.00     0.339 C 
ATOM     49  O   LIG d   1      10.386   7.511   0.251  0.00  0.00    -0.245 OA
BRANCH  48  50
ATOM     50  O   LIG d   1       8.568   8.158  -0.846  0.00  0.00    -0.465 OA
BRANCH  50  51
ATOM     51  C   LIG d   1       8.756   9.595  -0.764  0.00  0.00     0.082 C 
ATOM     52  H   LIG d   1       8.829  10.014  -1.779  0.00  0.00     0.066 H 
ATOM     53  H   LIG d   1       9.680   9.814  -0.210  0.00  0.00     0.066 H 
ATOM     54  H   LIG d   1       7.900  10.049  -0.243  0.00  0.00     0.066 H 
ENDBRANCH  50  51
ENDBRANCH  48  50
ENDBRANCH  42  48
ENDBRANCH  37  38
ENDBRANCH   1  37
TORSDOF 8
ENDMDL
MODEL 2
REMARK VINA RESULT:      -6.5      2.660      4.399
REMARK  8 active torsions:
REMARK  status: ('A' for Active; 'I' for Inactive)
REMARK    1  A    between atoms: C_1  and  O_2 
REMARK    2  A    between atoms: O_2  and  C_3 
REMARK    3  A    between atoms: C_3  and  C_5 
REMARK    4  A    between atoms: C_8  and  O_11 
REMARK    5  A    between atoms: O_11  and  C_12 
REMARK    6  A    between atoms: C_21  and  O_30 
REMARK    7  A    between atoms: C_22  and  C_23 
REMARK    8  A    between atoms: C_23  and  N_24 
ROOT
ATOM      1  C   LIG d   1       8.906   2.237  -5.365  0.00  0.00     0.210 A 
ATOM      2  C   LIG d   1       8.372   1.829  -6.533  0.00  0.00     0.139 A 
ATOM      3  O   LIG d   1       7.296   1.034  -6.600  0.00  0.00    -0.458 OA
ATOM      4  C   LIG d   1       6.663   0.582  -5.499  0.00  0.00     0.150 A 
ATOM      5  C   LIG d   1       7.134   0.944  -4.223  0.00  0.00     0.068 A 
ATOM      6  C   LIG d   1       8.316   1.818  -4.138  0.00  0.00     0.234 A 
ATOM      7  O   LIG d   1       8.772   2.167  -3.062  0.00  0.00    -0.283 OA
ATOM      8  C   LIG d   1       6.484   0.486  -3.077  0.00  0.00    -0.044 A 
ATOM      9  C   LIG d   1       5.393  -0.328  -3.196  0.00  0.00    -0.019 A 
ATOM     10  C   LIG d   1       4.920  -0.692  -4.455  0.00  0.00     0.129 A 
ATOM     11  C   LIG d   1       5.550  -0.241  -5.603  0.00  0.00     0.081 A 
ATOM     12  H   LIG d   1       8.831   2.157  -7.454  0.00  0.00     0.107 H 
ATOM     13  H   LIG d   1       6.844   0.770  -2.099  0.00  0.00     0.063 H 
ATOM     14  H   LIG d   1       4.892  -0.687  -2.310  0.00  0.00     0.065 H 
ENDROOT
BRANCH  11  15
ATOM     15  C   LIG d   1       5.030  -0.642  -6.958  0.00  0.00     0.001 C 
ATOM     16  H   LIG d   1       5.824  -1.160  -7.518  0.00  0.00     0.087 H 
ATOM     17  H   LIG d   1       4.169  -1.316  -6.837  0.00  0.00     0.087 H 
BRANCH  15  18
ATOM     18  N   LIG d   1       4.613   0.557  -7.697  0.00  0.00     0.239 N 
ATOM     19  C   LIG d   1       5.009   0.470  -9.108  0.00  0.00    -0.032 C 
ATOM     20  C   LIG d   1       4.690   1.791  -9.811  0.00  0.00    -0.012 C 
ATOM     21  H   LIG d   1       6.090   0.272  -9.174  0.00  0.00     0.081 H 
ATOM     22  H   LIG d   1       4.456  -0.347  -9.595  0.00  0.00     0.081 H 
ATOM     23  C   LIG d   1       3.189   2.074  -9.700  0.00  0.00    -0.043 C 
ATOM     24  H   LIG d   1       4.973   1.721 -10.872  0.00  0.00     0.032 H 
ATOM     25  H   LIG d   1       5.253   2.607  -9.336  0.00  0.00     0.032 H 
ATOM     26  C   LIG d   1       2.793   2.111  -8.222  0.00  0.00    -0.012 C 
ATOM     27  H   LIG d   1       2.626   1.279 -10.211  0.00  0.00     0.027 H 
ATOM     28  H   LIG d   1       2.961   3.043 -10.166  0.00  0.00     0.027 H 
ATOM     29  C   LIG d   1       3.168   0.780  -7.565  0.00  0.00    -0.032 C 
ATOM     30  H   LIG d   1       1.709   2.270  -8.136  0.00  0.00     0.032 H 
ATOM     31  H   LIG d   1       3.326   2.931  -7.719  0.00  0.00     0.032 H 
ATOM     32  H   LIG d   1       2.623  -0.038  -8.059  0.00  0.00     0.081 H 
ATOM     33  H   LIG d   1       2.897   0.809  -6.499  0.00  0.00     0.081 H 
ATOM     34  H   LIG d   1       5.128   1.423  -7.257  0.00  0.00     0.204 HD
ENDBRANCH  15  18
ENDBRANCH  11  15
BRANCH  10  35
ATOM     35  O   LIG d   1       3.832  -1.497  -4.557  0.00  0.00    -0.506 OA
ATOM     36  H   LIG d   1       2.876  -1.191  -4.108  0.00  0.00     0.292 HD
ENDBRANCH  10  35
BRANCH   1  37
ATOM     37  O   LIG d   1      10.002   3.044  -5.358  0.00  0.00    -0.449 OA
BRANCH  37  38
ATOM     38  C   LIG d   1       9.824   4.363  -5.619  0.00  0.00     0.129 A 
ATOM     39  C   LIG d   1       9.350   5.210  -4.623  0.00  0.00    -0.019 A 
ATOM     40  C   LIG d   1       9.168   6.549  -4.885  0.00  0.00    -0.044 A 
ATOM     41  H   LIG d   1       9.125   4.817  -3.643  0.00  0.00     0.065 H 
ATOM     42  C   LIG d   1       9.459   7.057  -6.154  0.00  0.00     0.059 A 
ATOM     43  H   LIG d   1       8.800   7.206  -4.111  0.00  0.00     0.063 H 
ATOM     44  C   LIG d   1       9.935   6.203  -7.153  0.00  0.00    -0.044 A 
ATOM     45  C   LIG d   1      10.119   4.866  -6.882  0.00  0.00    -0.019 A 
ATOM     46  H   LIG d   1      10.161   6.592  -8.134  0.00  0.00     0.063 H 
ATOM     47  H   LIG d   1      10.490   4.206  -7.652  0.00  0.00     0.065 H 
BRANCH  42  48
ATOM     48  C   LIG d   1       9.264   8.491  -6.439  0.00  0.00     0.339 C 
ATOM     49  O   LIG d   1       9.168   8.874  -7.589  0.00  0.00    -0.245 OA
BRANCH  48  50
ATOM     50  O   LIG d   1       9.194   9.376  -5.426  0.00  0.00    -0.465 OA
BRANCH  50  51
ATOM     51  C   LIG d   1      10.435  10.008  -5.015  0.00  0.00     0.082 C 
ATOM     52  H   LIG d   1      10.666  10.841  -5.697  0.00  0.00     0.066 H 
ATOM     53  H   LIG d   1      11.250   9.272  -5.046  0.00  0.00     0.066 H 
ATOM     54  H   LIG d   1      10.328  10.395  -3.990  0.00  0.00     0.066 H 
ENDBRANCH  50  51
ENDBRANCH  48  50
ENDBRANCH  42  48
ENDBRANCH  37  38
ENDBRANCH   1  37
TORSDOF 8
ENDMDL
MODEL 3
REMARK VINA RESULT:      -6.4      1.997      3.154
REMARK  8 active torsions:
REMARK  status: ('A' for Active; 'I' for Inactive)
REMARK    1  A    between atoms: C_1  and  O_2 
REMARK    2  A    between atoms: O_2  and  C_3 
REMARK    3  A    between atoms: C_3  and  C_5 
REMARK    4  A    between atoms: C_8  and  O_11 
REMARK    5  A    between atoms: O_11  and  C_12 
REMARK    6  A    between atoms: C_21  and  O_30 
REMARK    7  A    between atoms: C_22  and  C_23 
REMARK    8  A    between atoms: C_23  and  N_24 
ROOT
ATOM      1  C   LIG d   1       8.043   1.763  -7.567  0.00  0.00     0.210 A 
ATOM      2  C   LIG d   1       7.680   0.807  -6.688  0.00  0.00     0.139 A 
ATOM      3  O   LIG d   1       6.476   0.221  -6.712  0.00  0.00    -0.458 OA
ATOM      4  C   LIG d   1       5.533   0.543  -7.619  0.00  0.00     0.150 A 
ATOM      5  C   LIG d   1       5.802   1.530  -8.586  0.00  0.00     0.068 A 
ATOM      6  C   LIG d   1       7.123   2.181  -8.570  0.00  0.00     0.234 A 
ATOM      7  O   LIG d   1       7.416   3.043  -9.381  0.00  0.00    -0.283 OA
ATOM      8  C   LIG d   1       4.836   1.869  -9.533  0.00  0.00    -0.044 A 
ATOM      9  C   LIG d   1       3.620   1.247  -9.513  0.00  0.00    -0.019 A 
ATOM     10  C   LIG d   1       3.344   0.268  -8.559  0.00  0.00     0.129 A 
ATOM     11  C   LIG d   1       4.295  -0.084  -7.616  0.00  0.00     0.081 A 
ATOM     12  H   LIG d   1       8.390   0.501  -5.934  0.00  0.00     0.107 H 
ATOM     13  H   LIG d   1       5.047   2.622 -10.278  0.00  0.00     0.063 H 
ATOM     14  H   LIG d   1       2.869   1.510 -10.243  0.00  0.00     0.065 H 
ENDROOT
BRANCH  11  15
ATOM     15  C   LIG d   1       3.986  -1.142  -6.589  0.00  0.00     0.001 C 
ATOM     16  H   LIG d   1       2.939  -1.464  -6.698  0.00  0.00     0.087 H 
ATOM     17  H   LIG d   1       4.652  -2.004  -6.738  0.00  0.00     0.087 H 
BRANCH  15  18
ATOM     18  N   LIG d   1       4.192  -0.592  -5.242  0.00  0.00     0.239 N 
ATOM     19  C   LIG d   1       3.030   0.197  -4.813  0.00  0.00    -0.032 C 
ATOM     20  C   LIG d   1       3.337   0.871  -3.474  0.00  0.00    -0.012 C 
ATOM     21  H   LIG d   1       2.809   0.966  -5.568  0.00  0.00     0.081 H 
ATOM     22  H   LIG d   1       2.159  -0.465  -4.698  0.00  0.00     0.081 H 
ATOM     23  C   LIG d   1       3.663  -0.201  -2.431  0.00  0.00    -0.043 C 
ATOM     24  H   LIG d   1       2.461   1.450  -3.144  0.00  0.00     0.032 H 
ATOM     25  H   LIG d   1       4.198   1.545  -3.590  0.00  0.00     0.032 H 
ATOM     26  C   LIG d   1       4.845  -1.039  -2.924  0.00  0.00    -0.012 C 
ATOM     27  H   LIG d   1       2.788  -0.851  -2.284  0.00  0.00     0.027 H 
ATOM     28  H   LIG d   1       3.926   0.280  -1.478  0.00  0.00     0.027 H 
ATOM     29  C   LIG d   1       4.494  -1.658  -4.279  0.00  0.00    -0.032 C 
ATOM     30  H   LIG d   1       5.057  -1.839  -2.200  0.00  0.00     0.032 H 
ATOM     31  H   LIG d   1       5.731  -0.397  -3.033  0.00  0.00     0.032 H 
ATOM     32  H   LIG d   1       3.617  -2.311  -4.168  0.00  0.00     0.081 H 
ATOM     33  H   LIG d   1       5.347  -2.250  -4.644  0.00  0.00     0.081 H 
ATOM     34  H   LIG d   1       5.059   0.082  -5.280  0.00  0.00     0.204 HD
ENDBRANCH  15  18
ENDBRANCH  11  15
BRANCH  10  35
ATOM     35  O   LIG d   1       2.133  -0.345  -8.555  0.00  0.00    -0.506 OA
ATOM     36  H   LIG d   1       2.042  -1.381  -8.199  0.00  0.00     0.292 HD
ENDBRANCH  10  35
BRANCH   1  37
ATOM     37  O   LIG d   1       9.281   2.325  -7.495  0.00  0.00    -0.449 OA
BRANCH  37  38
ATOM     38  C   LIG d   1       9.443   3.410  -6.699  0.00  0.00     0.129 A 
ATOM     39  C   LIG d   1       9.304   3.287  -5.321  0.00  0.00    -0.019 A 
ATOM     40  C   LIG d   1       9.467   4.389  -4.510  0.00  0.00    -0.044 A 
ATOM     41  H   LIG d   1       9.066   2.329  -4.886  0.00  0.00     0.065 H 
ATOM     42  C   LIG d   1       9.775   5.630  -5.073  0.00  0.00     0.059 A 
ATOM     43  H   LIG d   1       9.358   4.292  -3.440  0.00  0.00     0.063 H 
ATOM     44  C   LIG d   1       9.914   5.750  -6.459  0.00  0.00    -0.044 A 
ATOM     45  C   LIG d   1       9.754   4.643  -7.263  0.00  0.00    -0.019 A 
ATOM     46  H   LIG d   1      10.152   6.707  -6.898  0.00  0.00     0.063 H 
ATOM     47  H   LIG d   1       9.865   4.734  -8.333  0.00  0.00     0.065 H 
BRANCH  42  48
ATOM     48  C   LIG d   1       9.950   6.812  -4.208  0.00  0.00     0.339 C 
ATOM     49  O   LIG d   1       9.720   7.922  -4.644  0.00  0.00    -0.245 OA
BRANCH  48  50
ATOM     50  O   LIG d   1      10.365   6.660  -2.936  0.00  0.00    -0.465 OA
BRANCH  50  51
ATOM     51  C   LIG d   1       9.443   7.065  -1.890  0.00  0.00     0.082 C 
ATOM     52  H   LIG d   1       9.400   6.285  -1.115  0.00  0.00     0.066 H 
ATOM     53  H   LIG d   1       8.442   7.212  -2.319  0.00  0.00     0.066 H 
ATOM     54  H   LIG d   1       9.791   8.008  -1.440  0.00  0.00     0.066 H 
ENDBRANCH  50  51
ENDBRANCH  48  50
ENDBRANCH  42  48
ENDBRANCH  37  38
ENDBRANCH   1  37
TORSDOF 8
ENDMDL
MODEL 4
REMARK VINA RESULT:      -6.3      1.777      2.373
REMARK  8 active torsions:
REMARK  status: ('A' for Active; 'I' for Inactive)
REMARK    1  A    between atoms: C_1  and  O_2 
REMARK    2  A    between atoms: O_2  and  C_3 
REMARK    3  A    between atoms: C_3  and  C_5 
REMARK    4  A    between atoms: C_8  and  O_11 
REMARK    5  A    between atoms: O_11  and  C_12 
REMARK    6  A    between atoms: C_21  and  O_30 
REMARK    7  A    between atoms: C_22  and  C_23 
REMARK    8  A    between atoms: C_23  and  N_24 
ROOT
ATOM      1  C   LIG d   1       9.863   2.713  -5.383  0.00  0.00     0.210 A 
ATOM      2  C   LIG d   1       8.516   2.671  -5.437  0.00  0.00     0.139 A 
ATOM      3  O   LIG d   1       7.829   1.523  -5.490  0.00  0.00    -0.458 OA
ATOM      4  C   LIG d   1       8.433   0.318  -5.491  0.00  0.00     0.150 A 
ATOM      5  C   LIG d   1       9.837   0.241  -5.437  0.00  0.00     0.068 A 
ATOM      6  C   LIG d   1      10.603   1.497  -5.380  0.00  0.00     0.234 A 
ATOM      7  O   LIG d   1      11.823   1.496  -5.331  0.00  0.00    -0.283 OA
ATOM      8  C   LIG d   1      10.474  -1.000  -5.433  0.00  0.00    -0.044 A 
ATOM      9  C   LIG d   1       9.730  -2.144  -5.494  0.00  0.00    -0.019 A 
ATOM     10  C   LIG d   1       8.338  -2.078  -5.548  0.00  0.00     0.129 A 
ATOM     11  C   LIG d   1       7.691  -0.854  -5.547  0.00  0.00     0.081 A 
ATOM     12  H   LIG d   1       7.970   3.602  -5.439  0.00  0.00     0.107 H 
ATOM     13  H   LIG d   1      11.552  -1.057  -5.386  0.00  0.00     0.063 H 
ATOM     14  H   LIG d   1      10.221  -3.106  -5.495  0.00  0.00     0.065 H 
ENDROOT
BRANCH  11  15
ATOM     15  C   LIG d   1       6.187  -0.794  -5.606  0.00  0.00     0.001 C 
ATOM     16  H   LIG d   1       5.872   0.209  -5.934  0.00  0.00     0.087 H 
ATOM     17  H   LIG d   1       5.817  -1.545  -6.319  0.00  0.00     0.087 H 
BRANCH  15  18
ATOM     18  N   LIG d   1       5.633  -1.069  -4.274  0.00  0.00     0.239 N 
ATOM     19  C   LIG d   1       5.179   0.168  -3.627  0.00  0.00    -0.032 C 
ATOM     20  C   LIG d   1       4.744  -0.136  -2.191  0.00  0.00    -0.012 C 
ATOM     21  H   LIG d   1       6.002   0.899  -3.613  0.00  0.00     0.081 H 
ATOM     22  H   LIG d   1       4.328   0.585  -4.187  0.00  0.00     0.081 H 
ATOM     23  C   LIG d   1       3.613  -1.167  -2.213  0.00  0.00    -0.043 C 
ATOM     24  H   LIG d   1       4.390   0.788  -1.711  0.00  0.00     0.032 H 
ATOM     25  H   LIG d   1       5.597  -0.538  -1.626  0.00  0.00     0.032 H 
ATOM     26  C   LIG d   1       4.096  -2.428  -2.935  0.00  0.00    -0.012 C 
ATOM     27  H   LIG d   1       2.744  -0.751  -2.743  0.00  0.00     0.027 H 
ATOM     28  H   LIG d   1       3.326  -1.422  -1.182  0.00  0.00     0.027 H 
ATOM     29  C   LIG d   1       4.549  -2.057  -4.349  0.00  0.00    -0.032 C 
ATOM     30  H   LIG d   1       3.274  -3.156  -2.993  0.00  0.00     0.032 H 
ATOM     31  H   LIG d   1       4.939  -2.867  -2.383  0.00  0.00     0.032 H 
ATOM     32  H   LIG d   1       3.702  -1.631  -4.905  0.00  0.00     0.081 H 
ATOM     33  H   LIG d   1       4.910  -2.958  -4.866  0.00  0.00     0.081 H 
ATOM     34  H   LIG d   1       6.434  -1.497  -3.655  0.00  0.00     0.204 HD
ENDBRANCH  15  18
ENDBRANCH  11  15
BRANCH  10  35
ATOM     35  O   LIG d   1       7.612  -3.223  -5.602  0.00  0.00    -0.506 OA
ATOM     36  H   LIG d   1       7.711  -3.976  -4.807  0.00  0.00     0.292 HD
ENDBRANCH  10  35
BRANCH   1  37
ATOM     37  O   LIG d   1      10.509   3.910  -5.332  0.00  0.00    -0.449 OA
BRANCH  37  38
ATOM     38  C   LIG d   1      10.304   4.700  -4.249  0.00  0.00     0.129 A 
ATOM     39  C   LIG d   1       9.680   5.934  -4.399  0.00  0.00    -0.019 A 
ATOM     40  C   LIG d   1       9.472   6.738  -3.301  0.00  0.00    -0.044 A 
ATOM     41  H   LIG d   1       9.360   6.261  -5.376  0.00  0.00     0.065 H 
ATOM     42  C   LIG d   1       9.887   6.313  -2.036  0.00  0.00     0.059 A 
ATOM     43  H   LIG d   1       8.988   7.696  -3.418  0.00  0.00     0.063 H 
ATOM     44  C   LIG d   1      10.513   5.072  -1.889  0.00  0.00    -0.044 A 
ATOM     45  C   LIG d   1      10.714   4.271  -2.991  0.00  0.00    -0.019 A 
ATOM     46  H   LIG d   1      10.835   4.740  -0.914  0.00  0.00     0.063 H 
ATOM     47  H   LIG d   1      11.194   3.311  -2.879  0.00  0.00     0.065 H 
BRANCH  42  48
ATOM     48  C   LIG d   1       9.666   7.173  -0.857  0.00  0.00     0.339 C 
ATOM     49  O   LIG d   1       8.840   8.063  -0.902  0.00  0.00    -0.245 OA
BRANCH  48  50
ATOM     50  O   LIG d   1      10.378   6.970   0.267  0.00  0.00    -0.465 OA
BRANCH  50  51
ATOM     51  C   LIG d   1      11.282   8.031   0.674  0.00  0.00     0.082 C 
ATOM     52  H   LIG d   1      11.823   8.411  -0.206  0.00  0.00     0.066 H 
ATOM     53  H   LIG d   1      12.002   7.639   1.406  0.00  0.00     0.066 H 
ATOM     54  H   LIG d   1      10.705   8.850   1.130  0.00  0.00     0.066 H 
ENDBRANCH  50  51
ENDBRANCH  48  50
ENDBRANCH  42  48
ENDBRANCH  37  38
ENDBRANCH   1  37
TORSDOF 8
ENDMDL
MODEL 5
REMARK VINA RESULT:      -6.2      4.807      9.882
REMARK  8 active torsions:
REMARK  status: ('A' for Active; 'I' for Inactive)
REMARK    1  A    between atoms: C_1  and  O_2 
REMARK    2  A    between atoms: O_2  and  C_3 
REMARK    3  A    between atoms: C_3  and  C_5 
REMARK    4  A    between atoms: C_8  and  O_11 
REMARK    5  A    between atoms: O_11  and  C_12 
REMARK    6  A    between atoms: C_21  and  O_30 
REMARK    7  A    between atoms: C_22  and  C_23 
REMARK    8  A    between atoms: C_23  and  N_24 
ROOT
ATOM      1  C   LIG d   1       4.154   0.685  -8.735  0.00  0.00     0.210 A 
ATOM      2  C   LIG d   1       4.014  -0.308  -7.832  0.00  0.00     0.139 A 
ATOM      3  O   LIG d   1       4.993  -0.666  -6.992  0.00  0.00    -0.458 OA
ATOM      4  C   LIG d   1       6.197  -0.059  -6.984  0.00  0.00     0.150 A 
ATOM      5  C   LIG d   1       6.455   0.992  -7.883  0.00  0.00     0.068 A 
ATOM      6  C   LIG d   1       5.386   1.394  -8.812  0.00  0.00     0.234 A 
ATOM      7  O   LIG d   1       5.549   2.297  -9.616  0.00  0.00    -0.283 OA
ATOM      8  C   LIG d   1       7.695   1.631  -7.881  0.00  0.00    -0.044 A 
ATOM      9  C   LIG d   1       8.665   1.225  -7.008  0.00  0.00    -0.019 A 
ATOM     10  C   LIG d   1       8.417   0.186  -6.113  0.00  0.00     0.129 A 
ATOM     11  C   LIG d   1       7.190  -0.455  -6.099  0.00  0.00     0.081 A 
ATOM     12  H   LIG d   1       3.073  -0.835  -7.787  0.00  0.00     0.107 H 
ATOM     13  H   LIG d   1       7.889   2.440  -8.569  0.00  0.00     0.063 H 
ATOM     14  H   LIG d   1       9.626   1.716  -7.008  0.00  0.00     0.065 H 
ENDROOT
BRANCH  11  15
ATOM     15  C   LIG d   1       6.934  -1.578  -5.129  0.00  0.00     0.001 C 
ATOM     16  H   LIG d   1       6.680  -2.494  -5.685  0.00  0.00     0.087 H 
ATOM     17  H   LIG d   1       7.837  -1.756  -4.526  0.00  0.00     0.087 H 
BRANCH  15  18
ATOM     18  N   LIG d   1       5.819  -1.216  -4.244  0.00  0.00     0.239 N 
ATOM     19  C   LIG d   1       5.135  -2.415  -3.742  0.00  0.00    -0.032 C 
ATOM     20  C   LIG d   1       3.896  -2.001  -2.946  0.00  0.00    -0.012 C 
ATOM     21  H   LIG d   1       4.831  -3.046  -4.591  0.00  0.00     0.081 H 
ATOM     22  H   LIG d   1       5.817  -2.981  -3.090  0.00  0.00     0.081 H 
ATOM     23  C   LIG d   1       4.321  -1.106  -1.778  0.00  0.00    -0.043 C 
ATOM     24  H   LIG d   1       3.392  -2.898  -2.557  0.00  0.00     0.032 H 
ATOM     25  H   LIG d   1       3.206  -1.448  -3.599  0.00  0.00     0.032 H 
ATOM     26  C   LIG d   1       5.073   0.110  -2.324  0.00  0.00    -0.012 C 
ATOM     27  H   LIG d   1       4.978  -1.671  -1.101  0.00  0.00     0.027 H 
ATOM     28  H   LIG d   1       3.430  -0.770  -1.227  0.00  0.00     0.027 H 
ATOM     29  C   LIG d   1       6.278  -0.366  -3.139  0.00  0.00    -0.032 C 
ATOM     30  H   LIG d   1       5.419   0.734  -1.488  0.00  0.00     0.032 H 
ATOM     31  H   LIG d   1       4.403   0.697  -2.969  0.00  0.00     0.032 H 
ATOM     32  H   LIG d   1       6.955  -0.941  -2.490  0.00  0.00     0.081 H 
ATOM     33  H   LIG d   1       6.813   0.505  -3.545  0.00  0.00     0.081 H 
ATOM     34  H   LIG d   1       5.092  -0.638  -4.833  0.00  0.00     0.204 HD
ENDBRANCH  15  18
ENDBRANCH  11  15
BRANCH  10  35
ATOM     35  O   LIG d   1       9.389  -0.203  -5.249  0.00  0.00    -0.506 OA
ATOM     36  H   LIG d   1      10.284   0.420  -5.110  0.00  0.00     0.292 HD
ENDBRANCH  10  35
BRANCH   1  37
ATOM     37  O   LIG d   1       3.124   1.005  -9.565  0.00  0.00    -0.449 OA
BRANCH  37  38
ATOM     38  C   LIG d   1       2.791   0.122 -10.538  0.00  0.00     0.129 A 
ATOM     39  C   LIG d   1       3.642  -0.070 -11.621  0.00  0.00    -0.019 A 
ATOM     40  C   LIG d   1       3.305  -0.965 -12.612  0.00  0.00    -0.044 A 
ATOM     41  H   LIG d   1       4.566   0.484 -11.686  0.00  0.00     0.065 H 
ATOM     42  C   LIG d   1       2.108  -1.681 -12.529  0.00  0.00     0.059 A 
ATOM     43  H   LIG d   1       3.967  -1.113 -13.453  0.00  0.00     0.063 H 
ATOM     44  C   LIG d   1       1.255  -1.485 -11.438  0.00  0.00    -0.044 A 
ATOM     45  C   LIG d   1       1.600  -0.592 -10.449  0.00  0.00    -0.019 A 
ATOM     46  H   LIG d   1       0.330  -2.037 -11.370  0.00  0.00     0.063 H 
ATOM     47  H   LIG d   1       0.944  -0.443  -9.605  0.00  0.00     0.065 H 
BRANCH  42  48
ATOM     48  C   LIG d   1       1.744  -2.640 -13.588  0.00  0.00     0.339 C 
ATOM     49  O   LIG d   1       1.012  -2.295 -14.494  0.00  0.00    -0.245 OA
BRANCH  48  50
ATOM     50  O   LIG d   1       2.224  -3.898 -13.552  0.00  0.00    -0.465 OA
BRANCH  50  51
ATOM     51  C   LIG d   1       1.317  -4.937 -13.097  0.00  0.00     0.082 C 
ATOM     52  H   LIG d   1       1.420  -5.822 -13.742  0.00  0.00     0.066 H 
ATOM     53  H   LIG d   1       0.283  -4.567 -13.144  0.00  0.00     0.066 H 
ATOM     54  H   LIG d   1       1.562  -5.210 -12.060  0.00  0.00     0.066 H 
ENDBRANCH  50  51
ENDBRANCH  48  50
ENDBRANCH  42  48
ENDBRANCH  37  38
ENDBRANCH   1  37
TORSDOF 8
ENDMDL
MODEL 6
REMARK VINA RESULT:      -6.0      2.521      3.327
REMARK  8 active torsions:
REMARK  status: ('A' for Active; 'I' for Inactive)
REMARK    1  A    between atoms: C_1  and  O_2 
REMARK    2  A    between atoms: O_2  and  C_3 
REMARK    3  A    between atoms: C_3  and  C_5 
REMARK    4  A    between atoms: C_8  and  O_11 
REMARK    5  A    between atoms: O_11  and  C_12 
REMARK    6  A    between atoms: C_21  and  O_30 
REMARK    7  A    between atoms: C_22  and  C_23 
REMARK    8  A    between atoms: C_23  and  N_24 
ROOT
ATOM      1  C   LIG d   1       9.123   2.067  -4.106  0.00  0.00     0.210 A 
ATOM      2  C   LIG d   1       7.780   2.082  -4.228  0.00  0.00     0.139 A 
ATOM      3  O   LIG d   1       7.095   1.091  -4.813  0.00  0.00    -0.458 OA
ATOM      4  C   LIG d   1       7.698  -0.002  -5.324  0.00  0.00     0.150 A 
ATOM      5  C   LIG d   1       9.098  -0.124  -5.252  0.00  0.00     0.068 A 
ATOM      6  C   LIG d   1       9.862   0.960  -4.612  0.00  0.00     0.234 A 
ATOM      7  O   LIG d   1      11.077   0.912  -4.519  0.00  0.00    -0.283 OA
ATOM      8  C   LIG d   1       9.733  -1.252  -5.772  0.00  0.00    -0.044 A 
ATOM      9  C   LIG d   1       8.992  -2.234  -6.364  0.00  0.00    -0.019 A 
ATOM     10  C   LIG d   1       7.604  -2.122  -6.440  0.00  0.00     0.129 A 
ATOM     11  C   LIG d   1       6.958  -1.012  -5.923  0.00  0.00     0.081 A 
ATOM     12  H   LIG d   1       7.235   2.929  -3.839  0.00  0.00     0.107 H 
ATOM     13  H   LIG d   1      10.807  -1.346  -5.711  0.00  0.00     0.063 H 
ATOM     14  H   LIG d   1       9.482  -3.106  -6.772  0.00  0.00     0.065 H 
ENDROOT
BRANCH  11  15
ATOM     15  C   LIG d   1       5.459  -0.900  -6.011  0.00  0.00     0.001 C 
ATOM     16  H   LIG d   1       5.190   0.009  -6.571  0.00  0.00     0.087 H 
ATOM     17  H   LIG d   1       5.055  -1.782  -6.529  0.00  0.00     0.087 H 
BRANCH  15  18
ATOM     18  N   LIG d   1       4.893  -0.825  -4.657  0.00  0.00     0.239 N 
ATOM     19  C   LIG d   1       3.677  -0.002  -4.640  0.00  0.00    -0.032 C 
ATOM     20  C   LIG d   1       3.199   0.173  -3.197  0.00  0.00    -0.012 C 
ATOM     21  H   LIG d   1       3.895   0.984  -5.076  0.00  0.00     0.081 H 
ATOM     22  H   LIG d   1       2.890  -0.497  -5.229  0.00  0.00     0.081 H 
ATOM     23  C   LIG d   1       2.915  -1.203  -2.588  0.00  0.00    -0.043 C 
ATOM     24  H   LIG d   1       2.279   0.776  -3.185  0.00  0.00     0.032 H 
ATOM     25  H   LIG d   1       3.977   0.680  -2.610  0.00  0.00     0.032 H 
ATOM     26  C   LIG d   1       4.183  -2.057  -2.662  0.00  0.00    -0.012 C 
ATOM     27  H   LIG d   1       2.108  -1.696  -3.149  0.00  0.00     0.027 H 
ATOM     28  H   LIG d   1       2.613  -1.086  -1.537  0.00  0.00     0.027 H 
ATOM     29  C   LIG d   1       4.633  -2.167  -4.121  0.00  0.00    -0.032 C 
ATOM     30  H   LIG d   1       3.975  -3.061  -2.266  0.00  0.00     0.032 H 
ATOM     31  H   LIG d   1       4.980  -1.585  -2.068  0.00  0.00     0.032 H 
ATOM     32  H   LIG d   1       3.843  -2.652  -4.712  0.00  0.00     0.081 H 
ATOM     33  H   LIG d   1       5.553  -2.768  -4.177  0.00  0.00     0.081 H 
ATOM     34  H   LIG d   1       5.634  -0.341  -4.006  0.00  0.00     0.204 HD
ENDBRANCH  15  18
ENDBRANCH  11  15
BRANCH  10  35
ATOM     35  O   LIG d   1       6.880  -3.109  -7.026  0.00  0.00    -0.506 OA
ATOM     36  H   LIG d   1       7.391  -3.917  -7.569  0.00  0.00     0.292 HD
ENDBRANCH  10  35
BRANCH   1  37
ATOM     37  O   LIG d   1       9.766   3.104  -3.503  0.00  0.00    -0.449 OA
BRANCH  37  38
ATOM     38  C   LIG d   1       9.733   4.316  -4.111  0.00  0.00     0.129 A 
ATOM     39  C   LIG d   1       9.898   4.406  -5.489  0.00  0.00    -0.019 A 
ATOM     40  C   LIG d   1       9.865   5.635  -6.108  0.00  0.00    -0.044 A 
ATOM     41  H   LIG d   1      10.053   3.512  -6.073  0.00  0.00     0.065 H 
ATOM     42  C   LIG d   1       9.665   6.792  -5.351  0.00  0.00     0.059 A 
ATOM     43  H   LIG d   1       9.994   5.704  -7.178  0.00  0.00     0.063 H 
ATOM     44  C   LIG d   1       9.499   6.698  -3.966  0.00  0.00    -0.044 A 
ATOM     45  C   LIG d   1       9.529   5.465  -3.354  0.00  0.00    -0.019 A 
ATOM     46  H   LIG d   1       9.344   7.590  -3.378  0.00  0.00     0.063 H 
ATOM     47  H   LIG d   1       9.397   5.390  -2.285  0.00  0.00     0.065 H 
BRANCH  42  48
ATOM     48  C   LIG d   1       9.630   8.111  -6.011  0.00  0.00     0.339 C 
ATOM     49  O   LIG d   1       9.303   9.097  -5.380  0.00  0.00    -0.245 OA
BRANCH  48  50
ATOM     50  O   LIG d   1       9.959   8.222  -7.312  0.00  0.00    -0.465 OA
BRANCH  50  51
ATOM     51  C   LIG d   1       8.877   8.473  -8.247  0.00  0.00     0.082 C 
ATOM     52  H   LIG d   1       8.056   8.991  -7.729  0.00  0.00     0.066 H 
ATOM     53  H   LIG d   1       8.511   7.518  -8.650  0.00  0.00     0.066 H 
ATOM     54  H   LIG d   1       9.243   9.103  -9.072  0.00  0.00     0.066 H 
ENDBRANCH  50  51
ENDBRANCH  48  50
ENDBRANCH  42  48
ENDBRANCH  37  38
ENDBRANCH   1  37
TORSDOF 8
ENDMDL
MODEL 7
REMARK VINA RESULT:      -6.0      7.313      9.969
REMARK  8 active torsions:
REMARK  status: ('A' for Active; 'I' for Inactive)
REMARK    1  A    between atoms: C_1  and  O_2 
REMARK    2  A    between atoms: O_2  and  C_3 
REMARK    3  A    between atoms: C_3  and  C_5 
REMARK    4  A    between atoms: C_8  and  O_11 
REMARK    5  A    between atoms: O_11  and  C_12 
REMARK    6  A    between atoms: C_21  and  O_30 
REMARK    7  A    between atoms: C_22  and  C_23 
REMARK    8  A    between atoms: C_23  and  N_24 
ROOT
ATOM      1  C   LIG d   1       8.395  -4.966  -4.516  0.00  0.00     0.210 A 
ATOM      2  C   LIG d   1       7.845  -6.034  -5.127  0.00  0.00     0.139 A 
ATOM      3  O   LIG d   1       8.068  -7.292  -4.726  0.00  0.00    -0.458 OA
ATOM      4  C   LIG d   1       8.861  -7.586  -3.676  0.00  0.00     0.150 A 
ATOM      5  C   LIG d   1       9.487  -6.548  -2.961  0.00  0.00     0.068 A 
ATOM      6  C   LIG d   1       9.249  -5.161  -3.394  0.00  0.00     0.234 A 
ATOM      7  O   LIG d   1       9.764  -4.218  -2.816  0.00  0.00    -0.283 OA
ATOM      8  C   LIG d   1      10.305  -6.840  -1.870  0.00  0.00    -0.044 A 
ATOM      9  C   LIG d   1      10.507  -8.140  -1.502  0.00  0.00    -0.019 A 
ATOM     10  C   LIG d   1       9.890  -9.174  -2.203  0.00  0.00     0.129 A 
ATOM     11  C   LIG d   1       9.071  -8.902  -3.286  0.00  0.00     0.081 A 
ATOM     12  H   LIG d   1       7.199  -5.868  -5.977  0.00  0.00     0.107 H 
ATOM     13  H   LIG d   1      10.781  -6.041  -1.320  0.00  0.00     0.063 H 
ATOM     14  H   LIG d   1      11.143  -8.368  -0.660  0.00  0.00     0.065 H 
ENDROOT
BRANCH  11  15
ATOM     15  C   LIG d   1       8.411 -10.028  -4.037  0.00  0.00     0.001 C 
ATOM     16  H   LIG d   1       8.658  -9.950  -5.107  0.00  0.00     0.087 H 
ATOM     17  H   LIG d   1       8.772 -10.991  -3.647  0.00  0.00     0.087 H 
BRANCH  15  18
ATOM     18  N   LIG d   1       6.954  -9.945  -3.864  0.00  0.00     0.239 N 
ATOM     19  C   LIG d   1       6.257 -10.245  -5.121  0.00  0.00    -0.032 C 
ATOM     20  C   LIG d   1       4.756 -10.007  -4.942  0.00  0.00    -0.012 C 
ATOM     21  H   LIG d   1       6.639  -9.590  -5.918  0.00  0.00     0.081 H 
ATOM     22  H   LIG d   1       6.431 -11.296  -5.396  0.00  0.00     0.081 H 
ATOM     23  C   LIG d   1       4.232 -10.906  -3.819  0.00  0.00    -0.043 C 
ATOM     24  H   LIG d   1       4.231 -10.247  -5.879  0.00  0.00     0.032 H 
ATOM     25  H   LIG d   1       4.578  -8.954  -4.682  0.00  0.00     0.032 H 
ATOM     26  C   LIG d   1       5.007 -10.608  -2.533  0.00  0.00    -0.012 C 
ATOM     27  H   LIG d   1       4.372 -11.962  -4.095  0.00  0.00     0.027 H 
ATOM     28  H   LIG d   1       3.163 -10.709  -3.656  0.00  0.00     0.027 H 
ATOM     29  C   LIG d   1       6.502 -10.828  -2.782  0.00  0.00    -0.032 C 
ATOM     30  H   LIG d   1       4.667 -11.280  -1.733  0.00  0.00     0.032 H 
ATOM     31  H   LIG d   1       4.836  -9.563  -2.234  0.00  0.00     0.032 H 
ATOM     32  H   LIG d   1       6.675 -11.875  -3.067  0.00  0.00     0.081 H 
ATOM     33  H   LIG d   1       7.063 -10.600  -1.864  0.00  0.00     0.081 H 
ATOM     34  H   LIG d   1       6.705  -8.912  -3.581  0.00  0.00     0.204 HD
ENDBRANCH  15  18
ENDBRANCH  11  15
BRANCH  10  35
ATOM     35  O   LIG d   1      10.096 -10.461  -1.823  0.00  0.00    -0.506 OA
ATOM     36  H   LIG d   1      11.061 -10.948  -2.027  0.00  0.00     0.292 HD
ENDBRANCH  10  35
BRANCH   1  37
ATOM     37  O   LIG d   1       8.133  -3.709  -4.968  0.00  0.00    -0.449 OA
BRANCH  37  38
ATOM     38  C   LIG d   1       7.094  -3.036  -4.416  0.00  0.00     0.129 A 
ATOM     39  C   LIG d   1       5.789  -3.443  -4.672  0.00  0.00    -0.019 A 
ATOM     40  C   LIG d   1       4.731  -2.760  -4.114  0.00  0.00    -0.044 A 
ATOM     41  H   LIG d   1       5.605  -4.294  -5.310  0.00  0.00     0.065 H 
ATOM     42  C   LIG d   1       4.971  -1.658  -3.289  0.00  0.00     0.059 A 
ATOM     43  H   LIG d   1       3.719  -3.077  -4.314  0.00  0.00     0.063 H 
ATOM     44  C   LIG d   1       6.284  -1.252  -3.033  0.00  0.00    -0.044 A 
ATOM     45  C   LIG d   1       7.336  -1.942  -3.592  0.00  0.00    -0.019 A 
ATOM     46  H   LIG d   1       6.472  -0.401  -2.396  0.00  0.00     0.063 H 
ATOM     47  H   LIG d   1       8.351  -1.631  -3.392  0.00  0.00     0.065 H 
BRANCH  42  48
ATOM     48  C   LIG d   1       3.840  -0.924  -2.689  0.00  0.00     0.339 C 
ATOM     49  O   LIG d   1       2.699  -1.256  -2.941  0.00  0.00    -0.245 OA
BRANCH  48  50
ATOM     50  O   LIG d   1       4.074   0.113  -1.863  0.00  0.00    -0.465 OA
BRANCH  50  51
ATOM     51  C   LIG d   1       3.767   1.440  -2.367  0.00  0.00     0.082 C 
ATOM     52  H   LIG d   1       3.843   1.442  -3.465  0.00  0.00     0.066 H 
ATOM     53  H   LIG d   1       4.478   2.165  -1.949  0.00  0.00     0.066 H 
ATOM     54  H   LIG d   1       2.743   1.717  -2.072  0.00  0.00     0.066 H 
ENDBRANCH  50  51
ENDBRANCH  48  50
ENDBRANCH  42  48
ENDBRANCH  37  38
ENDBRANCH   1  37
TORSDOF 8
ENDMDL
MODEL 8
REMARK VINA RESULT:      -5.9      2.228      3.846
REMARK  8 active torsions:
REMARK  status: ('A' for Active; 'I' for Inactive)
REMARK    1  A    between atoms: C_1  and  O_2 
REMARK    2  A    between atoms: O_2  and  C_3 
REMARK    3  A    between atoms: C_3  and  C_5 
REMARK    4  A    between atoms: C_8  and  O_11 
REMARK    5  A    between atoms: O_11  and  C_12 
REMARK    6  A    between atoms: C_21  and  O_30 
REMARK    7  A    between atoms: C_22  and  C_23 
REMARK    8  A    between atoms: C_23  and  N_24 
ROOT
ATOM      1  C   LIG d   1       8.743   0.948  -5.478  0.00  0.00     0.210 A 
ATOM      2  C   LIG d   1       7.496   1.418  -5.681  0.00  0.00     0.139 A 
ATOM      3  O   LIG d   1       6.405   0.649  -5.570  0.00  0.00    -0.458 OA
ATOM      4  C   LIG d   1       6.471  -0.657  -5.242  0.00  0.00     0.150 A 
ATOM      5  C   LIG d   1       7.723  -1.255  -5.006  0.00  0.00     0.068 A 
ATOM      6  C   LIG d   1       8.929  -0.419  -5.126  0.00  0.00     0.234 A 
ATOM      7  O   LIG d   1      10.043  -0.880  -4.934  0.00  0.00    -0.283 OA
ATOM      8  C   LIG d   1       7.804  -2.604  -4.661  0.00  0.00    -0.044 A 
ATOM      9  C   LIG d   1       6.663  -3.349  -4.565  0.00  0.00    -0.019 A 
ATOM     10  C   LIG d   1       5.419  -2.765  -4.797  0.00  0.00     0.129 A 
ATOM     11  C   LIG d   1       5.321  -1.426  -5.134  0.00  0.00     0.081 A 
ATOM     12  H   LIG d   1       7.372   2.457  -5.947  0.00  0.00     0.107 H 
ATOM     13  H   LIG d   1       8.765  -3.060  -4.475  0.00  0.00     0.063 H 
ATOM     14  H   LIG d   1       6.724  -4.394  -4.302  0.00  0.00     0.065 H 
ENDROOT
BRANCH  11  15
ATOM     15  C   LIG d   1       3.971  -0.805  -5.384  0.00  0.00     0.001 C 
ATOM     16  H   LIG d   1       3.189  -1.573  -5.281  0.00  0.00     0.087 H 
ATOM     17  H   LIG d   1       3.794  -0.003  -4.652  0.00  0.00     0.087 H 
BRANCH  15  18
ATOM     18  N   LIG d   1       3.933  -0.246  -6.742  0.00  0.00     0.239 N 
ATOM     19  C   LIG d   1       3.899  -1.314  -7.750  0.00  0.00    -0.032 C 
ATOM     20  C   LIG d   1       4.007  -0.701  -9.147  0.00  0.00    -0.012 C 
ATOM     21  H   LIG d   1       4.743  -2.001  -7.585  0.00  0.00     0.081 H 
ATOM     22  H   LIG d   1       2.953  -1.869  -7.665  0.00  0.00     0.081 H 
ATOM     23  C   LIG d   1       2.842   0.270  -9.365  0.00  0.00    -0.043 C 
ATOM     24  H   LIG d   1       3.966  -1.499  -9.903  0.00  0.00     0.032 H 
ATOM     25  H   LIG d   1       4.959  -0.158  -9.239  0.00  0.00     0.032 H 
ATOM     26  C   LIG d   1       2.872   1.343  -8.275  0.00  0.00    -0.012 C 
ATOM     27  H   LIG d   1       1.890  -0.279  -9.315  0.00  0.00     0.027 H 
ATOM     28  H   LIG d   1       2.938   0.746 -10.352  0.00  0.00     0.027 H 
ATOM     29  C   LIG d   1       2.797   0.670  -6.902  0.00  0.00    -0.032 C 
ATOM     30  H   LIG d   1       2.013   2.018  -8.399  0.00  0.00     0.032 H 
ATOM     31  H   LIG d   1       3.806   1.919  -8.350  0.00  0.00     0.032 H 
ATOM     32  H   LIG d   1       1.856   0.107  -6.821  0.00  0.00     0.081 H 
ATOM     33  H   LIG d   1       2.832   1.438  -6.115  0.00  0.00     0.081 H 
ATOM     34  H   LIG d   1       4.855   0.332  -6.897  0.00  0.00     0.204 HD
ENDBRANCH  15  18
ENDBRANCH  11  15
BRANCH  10  35
ATOM     35  O   LIG d   1       4.293  -3.516  -4.692  0.00  0.00    -0.506 OA
ATOM     36  H   LIG d   1       3.311  -3.028  -4.612  0.00  0.00     0.292 HD
ENDBRANCH  10  35
BRANCH   1  37
ATOM     37  O   LIG d   1       9.816   1.775  -5.606  0.00  0.00    -0.449 OA
BRANCH  37  38
ATOM     38  C   LIG d   1       9.850   2.898  -4.847  0.00  0.00     0.129 A 
ATOM     39  C   LIG d   1      10.051   2.801  -3.474  0.00  0.00    -0.019 A 
ATOM     40  C   LIG d   1      10.085   3.939  -2.700  0.00  0.00    -0.044 A 
ATOM     41  H   LIG d   1      10.179   1.833  -3.015  0.00  0.00     0.065 H 
ATOM     42  C   LIG d   1       9.918   5.193  -3.295  0.00  0.00     0.059 A 
ATOM     43  H   LIG d   1      10.241   3.863  -1.634  0.00  0.00     0.063 H 
ATOM     44  C   LIG d   1       9.716   5.287  -4.675  0.00  0.00    -0.044 A 
ATOM     45  C   LIG d   1       9.688   4.144  -5.443  0.00  0.00    -0.019 A 
ATOM     46  H   LIG d   1       9.588   6.253  -5.139  0.00  0.00     0.063 H 
ATOM     47  H   LIG d   1       9.536   4.215  -6.510  0.00  0.00     0.065 H 
BRANCH  42  48
ATOM     48  C   LIG d   1       9.954   6.414  -2.469  0.00  0.00     0.339 C 
ATOM     49  O   LIG d   1      10.262   7.477  -2.971  0.00  0.00    -0.245 OA
BRANCH  48  50
ATOM     50  O   LIG d   1       9.646   6.351  -1.160  0.00  0.00    -0.465 OA
BRANCH  50  51
ATOM     51  C   LIG d   1      10.672   6.765  -0.220  0.00  0.00     0.082 C 
ATOM     52  H   LIG d   1      10.948   7.813  -0.415  0.00  0.00     0.066 H 
ATOM     53  H   LIG d   1      11.558   6.125  -0.338  0.00  0.00     0.066 H 
ATOM     54  H   LIG d   1      10.288   6.674   0.807  0.00  0.00     0.066 H 
ENDBRANCH  50  51
ENDBRANCH  48  50
ENDBRANCH  42  48
ENDBRANCH  37  38
ENDBRANCH   1  37
TORSDOF 8
ENDMDL
MODEL 9
REMARK VINA RESULT:      -5.8      6.263     10.629
REMARK  8 active torsions:
REMARK  status: ('A' for Active; 'I' for Inactive)
REMARK    1  A    between atoms: C_1  and  O_2 
REMARK    2  A    between atoms: O_2  and  C_3 
REMARK    3  A    between atoms: C_3  and  C_5 
REMARK    4  A    between atoms: C_8  and  O_11 
REMARK    5  A    between atoms: O_11  and  C_12 
REMARK    6  A    between atoms: C_21  and  O_30 
REMARK    7  A    between atoms: C_22  and  C_23 
REMARK    8  A    between atoms: C_23  and  N_24 
ROOT
ATOM      1  C   LIG d   1       6.263  -3.791  -6.244  0.00  0.00     0.210 A 
ATOM      2  C   LIG d   1       5.374  -3.400  -7.179  0.00  0.00     0.139 A 
ATOM      3  O   LIG d   1       4.568  -2.343  -7.016  0.00  0.00    -0.458 OA
ATOM      4  C   LIG d   1       4.585  -1.587  -5.900  0.00  0.00     0.150 A 
ATOM      5  C   LIG d   1       5.474  -1.902  -4.856  0.00  0.00     0.068 A 
ATOM      6  C   LIG d   1       6.365  -3.062  -5.024  0.00  0.00     0.234 A 
ATOM      7  O   LIG d   1       7.157  -3.386  -4.155  0.00  0.00    -0.283 OA
ATOM      8  C   LIG d   1       5.504  -1.124  -3.698  0.00  0.00    -0.044 A 
ATOM      9  C   LIG d   1       4.657  -0.059  -3.576  0.00  0.00    -0.019 A 
ATOM     10  C   LIG d   1       3.773   0.261  -4.605  0.00  0.00     0.129 A 
ATOM     11  C   LIG d   1       3.735  -0.498  -5.762  0.00  0.00     0.081 A 
ATOM     12  H   LIG d   1       5.310  -3.963  -8.098  0.00  0.00     0.107 H 
ATOM     13  H   LIG d   1       6.191  -1.365  -2.900  0.00  0.00     0.063 H 
ATOM     14  H   LIG d   1       4.676   0.542  -2.679  0.00  0.00     0.065 H 
ENDROOT
BRANCH  11  15
ATOM     15  C   LIG d   1       2.775  -0.144  -6.868  0.00  0.00     0.001 C 
ATOM     16  H   LIG d   1       2.291  -1.059  -7.241  0.00  0.00     0.087 H 
ATOM     17  H   LIG d   1       2.008   0.544  -6.481  0.00  0.00     0.087 H 
BRANCH  15  18
ATOM     18  N   LIG d   1       3.507   0.505  -7.963  0.00  0.00     0.239 N 
ATOM     19  C   LIG d   1       3.423  -0.289  -9.195  0.00  0.00    -0.032 C 
ATOM     20  C   LIG d   1       4.314   0.339 -10.270  0.00  0.00    -0.012 C 
ATOM     21  H   LIG d   1       3.762  -1.316  -8.993  0.00  0.00     0.081 H 
ATOM     22  H   LIG d   1       2.382  -0.309  -9.549  0.00  0.00     0.081 H 
ATOM     23  C   LIG d   1       3.852   1.775 -10.533  0.00  0.00    -0.043 C 
ATOM     24  H   LIG d   1       4.239  -0.247 -11.198  0.00  0.00     0.032 H 
ATOM     25  H   LIG d   1       5.358   0.347  -9.925  0.00  0.00     0.032 H 
ATOM     26  C   LIG d   1       3.903   2.568  -9.225  0.00  0.00    -0.012 C 
ATOM     27  H   LIG d   1       2.821   1.767 -10.918  0.00  0.00     0.027 H 
ATOM     28  H   LIG d   1       4.515   2.246 -11.273  0.00  0.00     0.027 H 
ATOM     29  C   LIG d   1       3.024   1.874  -8.180  0.00  0.00    -0.032 C 
ATOM     30  H   LIG d   1       3.531   3.588  -9.398  0.00  0.00     0.032 H 
ATOM     31  H   LIG d   1       4.940   2.611  -8.861  0.00  0.00     0.032 H 
ATOM     32  H   LIG d   1       1.985   1.844  -8.538  0.00  0.00     0.081 H 
ATOM     33  H   LIG d   1       3.070   2.434  -7.234  0.00  0.00     0.081 H 
ATOM     34  H   LIG d   1       4.567   0.565  -7.675  0.00  0.00     0.204 HD
ENDBRANCH  15  18
ENDBRANCH  11  15
BRANCH  10  35
ATOM     35  O   LIG d   1       2.942   1.325  -4.470  0.00  0.00    -0.506 OA
ATOM     36  H   LIG d   1       2.186   1.534  -5.241  0.00  0.00     0.292 HD
ENDBRANCH  10  35
BRANCH   1  37
ATOM     37  O   LIG d   1       7.057  -4.874  -6.464  0.00  0.00    -0.449 OA
BRANCH  37  38
ATOM     38  C   LIG d   1       6.658  -6.070  -5.965  0.00  0.00     0.129 A 
ATOM     39  C   LIG d   1       5.356  -6.511  -6.180  0.00  0.00    -0.019 A 
ATOM     40  C   LIG d   1       4.948  -7.725  -5.674  0.00  0.00    -0.044 A 
ATOM     41  H   LIG d   1       4.666  -5.902  -6.743  0.00  0.00     0.065 H 
ATOM     42  C   LIG d   1       5.842  -8.513  -4.944  0.00  0.00     0.059 A 
ATOM     43  H   LIG d   1       3.937  -8.066  -5.840  0.00  0.00     0.063 H 
ATOM     44  C   LIG d   1       7.149  -8.066  -4.730  0.00  0.00    -0.044 A 
ATOM     45  C   LIG d   1       7.552  -6.853  -5.244  0.00  0.00    -0.019 A 
ATOM     46  H   LIG d   1       7.843  -8.672  -4.168  0.00  0.00     0.063 H 
ATOM     47  H   LIG d   1       8.562  -6.509  -5.082  0.00  0.00     0.065 H 
BRANCH  42  48
ATOM     48  C   LIG d   1       5.407  -9.813  -4.400  0.00  0.00     0.339 C 
ATOM     49  O   LIG d   1       5.598 -10.832  -5.035  0.00  0.00    -0.245 OA
BRANCH  48  50
ATOM     50  O   LIG d   1       4.800  -9.872  -3.200  0.00  0.00    -0.465 OA
BRANCH  50  51
ATOM     51  C   LIG d   1       3.390 -10.218  -3.190  0.00  0.00     0.082 C 
ATOM     52  H   LIG d   1       2.801  -9.349  -2.862  0.00  0.00     0.066 H 
ATOM     53  H   LIG d   1       3.222 -11.057  -2.501  0.00  0.00     0.066 H 
ATOM     54  H   LIG d   1       3.077 -10.509  -4.205  0.00  0.00     0.066 H 
ENDBRANCH  50  51
ENDBRANCH  48  50
ENDBRANCH  42  48
ENDBRANCH  37  38
ENDBRANCH   1  37
TORSDOF 8
ENDMDL
MODEL 10
REMARK VINA RESULT:      -5.8      5.648     10.088
REMARK  8 active torsions:
REMARK  status: ('A' for Active; 'I' for Inactive)
REMARK    1  A    between atoms: C_1  and  O_2 
REMARK    2  A    between atoms: O_2  and  C_3 
REMARK    3  A    between atoms: C_3  and  C_5 
REMARK    4  A    between atoms: C_8  and  O_11 
REMARK    5  A    between atoms: O_11  and  C_12 
REMARK    6  A    between atoms: C_21  and  O_30 
REMARK    7  A    between atoms: C_22  and  C_23 
REMARK    8  A    between atoms: C_23  and  N_24 
ROOT
ATOM      1  C   LIG d   1       3.394  -1.334  -8.471  0.00  0.00     0.210 A 
ATOM      2  C   LIG d   1       4.000  -0.440  -7.664  0.00  0.00     0.139 A 
ATOM      3  O   LIG d   1       4.894  -0.793  -6.732  0.00  0.00    -0.458 OA
ATOM      4  C   LIG d   1       5.259  -2.075  -6.530  0.00  0.00     0.150 A 
ATOM      5  C   LIG d   1       4.691  -3.095  -7.316  0.00  0.00     0.068 A 
ATOM      6  C   LIG d   1       3.706  -2.718  -8.344  0.00  0.00     0.234 A 
ATOM      7  O   LIG d   1       3.179  -3.556  -9.056  0.00  0.00    -0.283 OA
ATOM      8  C   LIG d   1       5.064  -4.425  -7.119  0.00  0.00    -0.044 A 
ATOM      9  C   LIG d   1       5.977  -4.736  -6.152  0.00  0.00    -0.019 A 
ATOM     10  C   LIG d   1       6.544  -3.733  -5.369  0.00  0.00     0.129 A 
ATOM     11  C   LIG d   1       6.189  -2.408  -5.555  0.00  0.00     0.081 A 
ATOM     12  H   LIG d   1       3.752   0.606  -7.774  0.00  0.00     0.107 H 
ATOM     13  H   LIG d   1       4.631  -5.205  -7.727  0.00  0.00     0.063 H 
ATOM     14  H   LIG d   1       6.264  -5.765  -5.995  0.00  0.00     0.065 H 
ENDROOT
BRANCH  11  15
ATOM     15  C   LIG d   1       6.808  -1.331  -4.703  0.00  0.00     0.001 C 
ATOM     16  H   LIG d   1       7.545  -1.782  -4.020  0.00  0.00     0.087 H 
ATOM     17  H   LIG d   1       7.309  -0.595  -5.348  0.00  0.00     0.087 H 
BRANCH  15  18
ATOM     18  N   LIG d   1       5.760  -0.663  -3.920  0.00  0.00     0.239 N 
ATOM     19  C   LIG d   1       5.323  -1.505  -2.799  0.00  0.00    -0.032 C 
ATOM     20  C   LIG d   1       4.135  -0.844  -2.096  0.00  0.00    -0.012 C 
ATOM     21  H   LIG d   1       5.020  -2.493  -3.178  0.00  0.00     0.081 H 
ATOM     22  H   LIG d   1       6.151  -1.624  -2.085  0.00  0.00     0.081 H 
ATOM     23  C   LIG d   1       4.554   0.539  -1.588  0.00  0.00    -0.043 C 
ATOM     24  H   LIG d   1       3.817  -1.466  -1.247  0.00  0.00     0.032 H 
ATOM     25  H   LIG d   1       3.301  -0.737  -2.804  0.00  0.00     0.032 H 
ATOM     26  C   LIG d   1       5.051   1.379  -2.766  0.00  0.00    -0.012 C 
ATOM     27  H   LIG d   1       5.361   0.431  -0.848  0.00  0.00     0.027 H 
ATOM     28  H   LIG d   1       3.693   1.036  -1.119  0.00  0.00     0.027 H 
ATOM     29  C   LIG d   1       6.212   0.653  -3.450  0.00  0.00    -0.032 C 
ATOM     30  H   LIG d   1       5.394   2.358  -2.402  0.00  0.00     0.032 H 
ATOM     31  H   LIG d   1       4.232   1.521  -3.487  0.00  0.00     0.032 H 
ATOM     32  H   LIG d   1       7.036   0.524  -2.734  0.00  0.00     0.081 H 
ATOM     33  H   LIG d   1       6.562   1.247  -4.307  0.00  0.00     0.081 H 
ATOM     34  H   LIG d   1       4.894  -0.505  -4.578  0.00  0.00     0.204 HD
ENDBRANCH  15  18
ENDBRANCH  11  15
BRANCH  10  35
ATOM     35  O   LIG d   1       7.454  -4.057  -4.414  0.00  0.00    -0.506 OA
ATOM     36  H   LIG d   1       7.843  -3.282  -3.739  0.00  0.00     0.292 HD
ENDBRANCH  10  35
BRANCH   1  37
ATOM     37  O   LIG d   1       2.492  -0.917  -9.401  0.00  0.00    -0.449 OA
BRANCH  37  38
ATOM     38  C   LIG d   1       2.873  -0.913 -10.702  0.00  0.00     0.129 A 
ATOM     39  C   LIG d   1       3.994  -0.189 -11.095  0.00  0.00    -0.019 A 
ATOM     40  C   LIG d   1       4.382  -0.182 -12.416  0.00  0.00    -0.044 A 
ATOM     41  H   LIG d   1       4.559   0.369 -10.364  0.00  0.00     0.065 H 
ATOM     42  C   LIG d   1       3.650  -0.903 -13.362  0.00  0.00     0.059 A 
ATOM     43  H   LIG d   1       5.252   0.382 -12.720  0.00  0.00     0.063 H 
ATOM     44  C   LIG d   1       2.524  -1.630 -12.964  0.00  0.00    -0.044 A 
ATOM     45  C   LIG d   1       2.144  -1.636 -11.640  0.00  0.00    -0.019 A 
ATOM     46  H   LIG d   1       1.956  -2.189 -13.692  0.00  0.00     0.063 H 
ATOM     47  H   LIG d   1       1.277  -2.201 -11.331  0.00  0.00     0.065 H 
BRANCH  42  48
ATOM     48  C   LIG d   1       4.063  -0.898 -14.778  0.00  0.00     0.339 C 
ATOM     49  O   LIG d   1       3.227  -1.001 -15.654  0.00  0.00    -0.245 OA
BRANCH  48  50
ATOM     50  O   LIG d   1       5.365  -0.778 -15.100  0.00  0.00    -0.465 OA
BRANCH  50  51
ATOM     51  C   LIG d   1       5.686   0.047 -16.251  0.00  0.00     0.082 C 
ATOM     52  H   LIG d   1       6.453   0.785 -15.971  0.00  0.00     0.066 H 
ATOM     53  H   LIG d   1       4.782   0.570 -16.592  0.00  0.00     0.066 H 
ATOM     54  H   LIG d   1       6.070  -0.589 -17.062  0.00  0.00     0.066 H 
ENDBRANCH  50  51
ENDBRANCH  48  50
ENDBRANCH  42  48
ENDBRANCH  37  38
ENDBRANCH   1  37
TORSDOF 8
ENDMDL
