MODEL 1
REMARK VINA RESULT:      -5.7      0.000      0.000
REMARK  8 active torsions:
REMARK  status: ('A' for Active; 'I' for Inactive)
REMARK    1  A    between atoms: C_4  and  O_8 
REMARK    2  A    between atoms: C_5  and  N_7 
REMARK    3  A    between atoms: O_8  and  C_9 
REMARK    4  A    between atoms: C_11  and  O_24 
REMARK    5  A    between atoms: C_13  and  O_23 
REMARK    6  A    between atoms: C_15  and  O_22 
REMARK    7  A    between atoms: C_17  and  C_20 
REMARK    8  A    between atoms: C_20  and  O_21 
ROOT
ATOM      1  C   LIG d   1       3.438   0.034  -6.030  0.00  0.00     0.231 C 
ATOM      2  H   LIG d   1       4.302   0.658  -6.258  0.00  0.00     0.108 H 
ATOM      3  C   LIG d   1       2.801   0.504  -4.720  0.00  0.00     0.145 C 
ATOM      4  H   LIG d   1       1.912  -0.092  -4.512  0.00  0.00     0.068 H 
ATOM      5  C   LIG d   1       3.810   0.333  -3.579  0.00  0.00     0.115 C 
ATOM      6  H   LIG d   1       4.676   0.968  -3.761  0.00  0.00     0.065 H 
ATOM      7  C   LIG d   1       4.252  -1.133  -3.520  0.00  0.00     0.112 C 
ATOM      8  H   LIG d   1       3.394  -1.763  -3.287  0.00  0.00     0.065 H 
ATOM      9  C   LIG d   1       4.833  -1.540  -4.876  0.00  0.00     0.114 C 
ATOM     10  H   LIG d   1       5.716  -0.936  -5.089  0.00  0.00     0.065 H 
ATOM     11  O   LIG d   1       3.853  -1.326  -5.895  0.00  0.00    -0.331 OA
ENDROOT
BRANCH   1  12
ATOM     12  O   LIG d   1       2.484   0.138  -7.088  0.00  0.00    -0.459 OA
BRANCH  12  13
ATOM     13  C   LIG d   1       2.945   0.555  -8.298  0.00  0.00     0.144 A 
ATOM     14  C   LIG d   1       3.117   1.906  -8.547  0.00  0.00    -0.018 A 
ATOM     15  C   LIG d   1       3.587   2.329  -9.776  0.00  0.00    -0.058 A 
ATOM     16  H   LIG d   1       2.885   2.630  -7.780  0.00  0.00     0.066 H 
ATOM     17  C   LIG d   1       3.885   1.405 -10.762  0.00  0.00    -0.060 A 
ATOM     18  H   LIG d   1       3.720   3.384  -9.969  0.00  0.00     0.062 H 
ATOM     19  C   LIG d   1       3.717   0.055 -10.521  0.00  0.00    -0.037 A 
ATOM     20  H   LIG d   1       4.252   1.739 -11.720  0.00  0.00     0.062 H 
ATOM     21  C   LIG d   1       3.251  -0.378  -9.287  0.00  0.00     0.067 A 
ATOM     22  H   LIG d   1       3.950  -0.665 -11.292  0.00  0.00     0.064 H 
BRANCH  21  23
ATOM     23  N   LIG d   1       3.084  -1.745  -9.039  0.00  0.00    -0.355 N 
ATOM     24  H   LIG d   1       2.764  -2.330  -9.744  0.00  0.00     0.142 HD
ATOM     25  H   LIG d   1       3.288  -2.107  -8.163  0.00  0.00     0.142 HD
ENDBRANCH  21  23
ENDBRANCH  12  13
ENDBRANCH   1  12
BRANCH   3  26
ATOM     26  O   LIG d   1       2.437   1.881  -4.833  0.00  0.00    -0.383 OA
ATOM     27  H   LIG d   1       1.987   2.235  -4.053  0.00  0.00     0.210 HD
ENDBRANCH   3  26
BRANCH   9  28
ATOM     28  C   LIG d   1       5.221  -3.018  -4.842  0.00  0.00     0.073 C 
ATOM     29  H   LIG d   1       5.200  -3.424  -5.854  0.00  0.00     0.058 H 
ATOM     30  H   LIG d   1       6.226  -3.121  -4.430  0.00  0.00     0.058 H 
BRANCH  28  31
ATOM     31  O   LIG d   1       4.296  -3.735  -4.022  0.00  0.00    -0.392 OA
ATOM     32  H   LIG d   1       4.578  -4.633  -3.803  0.00  0.00     0.209 HD
ENDBRANCH  28  31
ENDBRANCH   9  28
BRANCH   5  33
ATOM     33  O   LIG d   1       3.198   0.698  -2.340  0.00  0.00    -0.386 OA
ATOM     34  H   LIG d   1       3.376   0.082  -1.617  0.00  0.00     0.210 HD
ENDBRANCH   5  33
BRANCH   7  35
ATOM     35  O   LIG d   1       5.248  -1.290  -2.507  0.00  0.00    -0.387 OA
ATOM     36  H   LIG d   1       5.040  -0.839  -1.677  0.00  0.00     0.210 HD
ENDBRANCH   7  35
TORSDOF 8
ENDMDL
MODEL 2
REMARK VINA RESULT:      -5.5      2.392      6.149
REMARK  8 active torsions:
REMARK  status: ('A' for Active; 'I' for Inactive)
REMARK    1  A    between atoms: C_4  and  O_8 
REMARK    2  A    between atoms: C_5  and  N_7 
REMARK    3  A    between atoms: O_8  and  C_9 
REMARK    4  A    between atoms: C_11  and  O_24 
REMARK    5  A    between atoms: C_13  and  O_23 
REMARK    6  A    between atoms: C_15  and  O_22 
REMARK    7  A    between atoms: C_17  and  C_20 
REMARK    8  A    between atoms: C_20  and  O_21 
ROOT
ATOM      1  C   LIG d   1       3.868  -0.352  -6.294  0.00  0.00     0.231 C 
ATOM      2  H   LIG d   1       4.781   0.142  -5.961  0.00  0.00     0.108 H 
ATOM      3  C   LIG d   1       4.228  -1.605  -7.095  0.00  0.00     0.145 C 
ATOM      4  H   LIG d   1       3.315  -2.122  -7.392  0.00  0.00     0.068 H 
ATOM      5  C   LIG d   1       5.014  -1.196  -8.345  0.00  0.00     0.115 C 
ATOM      6  H   LIG d   1       5.951  -0.725  -8.047  0.00  0.00     0.065 H 
ATOM      7  C   LIG d   1       4.177  -0.205  -9.158  0.00  0.00     0.112 C 
ATOM      8  H   LIG d   1       3.264  -0.692  -9.499  0.00  0.00     0.065 H 
ATOM      9  C   LIG d   1       3.819   0.995  -8.277  0.00  0.00     0.114 C 
ATOM     10  H   LIG d   1       4.732   1.507  -7.972  0.00  0.00     0.065 H 
ATOM     11  O   LIG d   1       3.117   0.540  -7.119  0.00  0.00    -0.331 OA
ENDROOT
BRANCH   1  12
ATOM     12  O   LIG d   1       3.086  -0.721  -5.156  0.00  0.00    -0.459 OA
BRANCH  12  13
ATOM     13  C   LIG d   1       3.547  -0.333  -3.937  0.00  0.00     0.144 A 
ATOM     14  C   LIG d   1       3.519   1.003  -3.577  0.00  0.00    -0.018 A 
ATOM     15  C   LIG d   1       3.989   1.396  -2.337  0.00  0.00    -0.058 A 
ATOM     16  H   LIG d   1       3.130   1.740  -4.264  0.00  0.00     0.066 H 
ATOM     17  C   LIG d   1       4.488   0.457  -1.453  0.00  0.00    -0.060 A 
ATOM     18  H   LIG d   1       3.966   2.439  -2.057  0.00  0.00     0.062 H 
ATOM     19  C   LIG d   1       4.520  -0.879  -1.805  0.00  0.00    -0.037 A 
ATOM     20  H   LIG d   1       4.854   0.767  -0.486  0.00  0.00     0.062 H 
ATOM     21  C   LIG d   1       4.045  -1.282  -3.046  0.00  0.00     0.067 A 
ATOM     22  H   LIG d   1       4.911  -1.611  -1.114  0.00  0.00     0.064 H 
BRANCH  21  23
ATOM     23  N   LIG d   1       4.071  -2.635  -3.403  0.00  0.00    -0.355 N 
ATOM     24  H   LIG d   1       3.373  -3.232  -3.092  0.00  0.00     0.142 HD
ATOM     25  H   LIG d   1       4.788  -2.976  -3.961  0.00  0.00     0.142 HD
ENDBRANCH  21  23
ENDBRANCH  12  13
ENDBRANCH   1  12
BRANCH   3  26
ATOM     26  O   LIG d   1       5.028  -2.473  -6.290  0.00  0.00    -0.383 OA
ATOM     27  H   LIG d   1       4.823  -2.435  -5.345  0.00  0.00     0.210 HD
ENDBRANCH   3  26
BRANCH   9  28
ATOM     28  C   LIG d   1       2.933   1.961  -9.066  0.00  0.00     0.073 C 
ATOM     29  H   LIG d   1       2.271   1.395  -9.721  0.00  0.00     0.058 H 
ATOM     30  H   LIG d   1       2.338   2.556  -8.373  0.00  0.00     0.058 H 
BRANCH  28  31
ATOM     31  O   LIG d   1       3.755   2.827  -9.852  0.00  0.00    -0.392 OA
ATOM     32  H   LIG d   1       4.673   2.876  -9.553  0.00  0.00     0.209 HD
ENDBRANCH  28  31
ENDBRANCH   9  28
BRANCH   5  33
ATOM     33  O   LIG d   1       5.289  -2.353  -9.137  0.00  0.00    -0.386 OA
ATOM     34  H   LIG d   1       6.226  -2.586  -9.182  0.00  0.00     0.210 HD
ENDBRANCH   5  33
BRANCH   7  35
ATOM     35  O   LIG d   1       4.930   0.241 -10.288  0.00  0.00    -0.387 OA
ATOM     36  H   LIG d   1       5.842   0.487 -10.081  0.00  0.00     0.210 HD
ENDBRANCH   7  35
TORSDOF 8
ENDMDL
MODEL 3
REMARK VINA RESULT:      -5.5      2.711      6.061
REMARK  8 active torsions:
REMARK  status: ('A' for Active; 'I' for Inactive)
REMARK    1  A    between atoms: C_4  and  O_8 
REMARK    2  A    between atoms: C_5  and  N_7 
REMARK    3  A    between atoms: O_8  and  C_9 
REMARK    4  A    between atoms: C_11  and  O_24 
REMARK    5  A    between atoms: C_13  and  O_23 
REMARK    6  A    between atoms: C_15  and  O_22 
REMARK    7  A    between atoms: C_17  and  C_20 
REMARK    8  A    between atoms: C_20  and  O_21 
ROOT
ATOM      1  C   LIG d   1       4.387  -0.205  -6.913  0.00  0.00     0.231 C 
ATOM      2  H   LIG d   1       3.841   0.675  -6.574  0.00  0.00     0.108 H 
ATOM      3  C   LIG d   1       5.546   0.230  -7.812  0.00  0.00     0.145 C 
ATOM      4  H   LIG d   1       6.119  -0.647  -8.118  0.00  0.00     0.068 H 
ATOM      5  C   LIG d   1       4.986   0.934  -9.053  0.00  0.00     0.115 C 
ATOM      6  H   LIG d   1       4.458   1.838  -8.750  0.00  0.00     0.065 H 
ATOM      7  C   LIG d   1       4.016  -0.012  -9.768  0.00  0.00     0.112 C 
ATOM      8  H   LIG d   1       4.556  -0.893 -10.115  0.00  0.00     0.065 H 
ATOM      9  C   LIG d   1       2.915  -0.437  -8.793  0.00  0.00     0.114 C 
ATOM     10  H   LIG d   1       2.349   0.440  -8.479  0.00  0.00     0.065 H 
ATOM     11  O   LIG d   1       3.508  -1.057  -7.650  0.00  0.00    -0.331 OA
ENDROOT
BRANCH   1  12
ATOM     12  O   LIG d   1       4.899  -0.912  -5.782  0.00  0.00    -0.459 OA
BRANCH  12  13
ATOM     13  C   LIG d   1       4.629  -0.393  -4.554  0.00  0.00     0.144 A 
ATOM     14  C   LIG d   1       3.339  -0.428  -4.054  0.00  0.00    -0.018 A 
ATOM     15  C   LIG d   1       3.066   0.100  -2.806  0.00  0.00    -0.058 A 
ATOM     16  H   LIG d   1       2.545  -0.868  -4.639  0.00  0.00     0.066 H 
ATOM     17  C   LIG d   1       4.079   0.666  -2.054  0.00  0.00    -0.060 A 
ATOM     18  H   LIG d   1       2.058   0.072  -2.417  0.00  0.00     0.062 H 
ATOM     19  C   LIG d   1       5.370   0.705  -2.546  0.00  0.00    -0.037 A 
ATOM     20  H   LIG d   1       3.862   1.077  -1.079  0.00  0.00     0.062 H 
ATOM     21  C   LIG d   1       5.653   0.172  -3.796  0.00  0.00     0.067 A 
ATOM     22  H   LIG d   1       6.159   1.147  -1.957  0.00  0.00     0.064 H 
BRANCH  21  23
ATOM     23  N   LIG d   1       6.960   0.206  -4.294  0.00  0.00    -0.355 N 
ATOM     24  H   LIG d   1       7.116   0.386  -5.234  0.00  0.00     0.142 HD
ATOM     25  H   LIG d   1       7.710   0.049  -3.699  0.00  0.00     0.142 HD
ENDBRANCH  21  23
ENDBRANCH  12  13
ENDBRANCH   1  12
BRANCH   3  26
ATOM     26  O   LIG d   1       6.396   1.128  -7.096  0.00  0.00    -0.383 OA
ATOM     27  H   LIG d   1       6.561   0.867  -6.180  0.00  0.00     0.210 HD
ENDBRANCH   3  26
BRANCH   9  28
ATOM     28  C   LIG d   1       1.977  -1.428  -9.483  0.00  0.00     0.073 C 
ATOM     29  H   LIG d   1       2.527  -1.980 -10.245  0.00  0.00     0.058 H 
ATOM     30  H   LIG d   1       1.579  -2.126  -8.745  0.00  0.00     0.058 H 
BRANCH  28  31
ATOM     31  O   LIG d   1       0.899  -0.717 -10.095  0.00  0.00    -0.392 OA
ATOM     32  H   LIG d   1       0.050  -1.175 -10.050  0.00  0.00     0.209 HD
ENDBRANCH  28  31
ENDBRANCH   9  28
BRANCH   5  33
ATOM     33  O   LIG d   1       6.057   1.276  -9.934  0.00  0.00    -0.386 OA
ATOM     34  H   LIG d   1       6.327   2.203  -9.885  0.00  0.00     0.210 HD
ENDBRANCH   5  33
BRANCH   7  35
ATOM     35  O   LIG d   1       3.431   0.660 -10.885  0.00  0.00    -0.387 OA
ATOM     36  H   LIG d   1       3.372   0.118 -11.683  0.00  0.00     0.210 HD
ENDBRANCH   7  35
TORSDOF 8
ENDMDL
MODEL 4
REMARK VINA RESULT:      -5.5      5.291      7.398
REMARK  8 active torsions:
REMARK  status: ('A' for Active; 'I' for Inactive)
REMARK    1  A    between atoms: C_4  and  O_8 
REMARK    2  A    between atoms: C_5  and  N_7 
REMARK    3  A    between atoms: O_8  and  C_9 
REMARK    4  A    between atoms: C_11  and  O_24 
REMARK    5  A    between atoms: C_13  and  O_23 
REMARK    6  A    between atoms: C_15  and  O_22 
REMARK    7  A    between atoms: C_17  and  C_20 
REMARK    8  A    between atoms: C_20  and  O_21 
ROOT
ATOM      1  C   LIG d   1       8.274   1.158  -4.052  0.00  0.00     0.231 C 
ATOM      2  H   LIG d   1       8.478   0.416  -3.280  0.00  0.00     0.108 H 
ATOM      3  C   LIG d   1       9.141   0.869  -5.280  0.00  0.00     0.145 C 
ATOM      4  H   LIG d   1       8.907   1.585  -6.068  0.00  0.00     0.068 H 
ATOM      5  C   LIG d   1      10.618   0.995  -4.895  0.00  0.00     0.115 C 
ATOM      6  H   LIG d   1      10.864   0.244  -4.145  0.00  0.00     0.065 H 
ATOM      7  C   LIG d   1      10.867   2.394  -4.323  0.00  0.00     0.112 C 
ATOM      8  H   LIG d   1      10.670   3.142  -5.091  0.00  0.00     0.065 H 
ATOM      9  C   LIG d   1       9.934   2.624  -3.132  0.00  0.00     0.114 C 
ATOM     10  H   LIG d   1      10.161   1.902  -2.347  0.00  0.00     0.065 H 
ATOM     11  O   LIG d   1       8.578   2.462  -3.553  0.00  0.00    -0.331 OA
ENDROOT
BRANCH   1  12
ATOM     12  O   LIG d   1       6.894   1.098  -4.417  0.00  0.00    -0.459 OA
BRANCH  12  13
ATOM     13  C   LIG d   1       6.052   0.476  -3.549  0.00  0.00     0.144 A 
ATOM     14  C   LIG d   1       5.388   1.208  -2.580  0.00  0.00    -0.018 A 
ATOM     15  C   LIG d   1       4.532   0.575  -1.698  0.00  0.00    -0.058 A 
ATOM     16  H   LIG d   1       5.538   2.276  -2.513  0.00  0.00     0.066 H 
ATOM     17  C   LIG d   1       4.337  -0.791  -1.779  0.00  0.00    -0.060 A 
ATOM     18  H   LIG d   1       4.015   1.149  -0.943  0.00  0.00     0.062 H 
ATOM     19  C   LIG d   1       4.996  -1.531  -2.743  0.00  0.00    -0.037 A 
ATOM     20  H   LIG d   1       3.668  -1.282  -1.089  0.00  0.00     0.062 H 
ATOM     21  C   LIG d   1       5.853  -0.901  -3.635  0.00  0.00     0.067 A 
ATOM     22  H   LIG d   1       4.843  -2.598  -2.804  0.00  0.00     0.064 H 
BRANCH  21  23
ATOM     23  N   LIG d   1       6.517  -1.646  -4.616  0.00  0.00    -0.355 N 
ATOM     24  H   LIG d   1       7.331  -2.124  -4.393  0.00  0.00     0.142 HD
ATOM     25  H   LIG d   1       6.164  -1.686  -5.518  0.00  0.00     0.142 HD
ENDBRANCH  21  23
ENDBRANCH  12  13
ENDBRANCH   1  12
BRANCH   3  26
ATOM     26  O   LIG d   1       8.880  -0.457  -5.747  0.00  0.00    -0.383 OA
ATOM     27  H   LIG d   1       8.754  -0.520  -6.703  0.00  0.00     0.210 HD
ENDBRANCH   3  26
BRANCH   9  28
ATOM     28  C   LIG d   1      10.135   4.041  -2.593  0.00  0.00     0.073 C 
ATOM     29  H   LIG d   1      10.509   4.685  -3.390  0.00  0.00     0.058 H 
ATOM     30  H   LIG d   1       9.184   4.430  -2.228  0.00  0.00     0.058 H 
BRANCH  28  31
ATOM     31  O   LIG d   1      11.080   4.013  -1.521  0.00  0.00    -0.392 OA
ATOM     32  H   LIG d   1      11.702   3.275  -1.564  0.00  0.00     0.209 HD
ENDBRANCH  28  31
ENDBRANCH   9  28
BRANCH   5  33
ATOM     33  O   LIG d   1      11.433   0.800  -6.053  0.00  0.00    -0.386 OA
ATOM     34  H   LIG d   1      12.198   0.229  -5.905  0.00  0.00     0.210 HD
ENDBRANCH   5  33
BRANCH   7  35
ATOM     35  O   LIG d   1      12.226   2.498  -3.893  0.00  0.00    -0.387 OA
ATOM     36  H   LIG d   1      12.434   3.330  -3.446  0.00  0.00     0.210 HD
ENDBRANCH   7  35
TORSDOF 8
ENDMDL
MODEL 5
REMARK VINA RESULT:      -5.4      1.951      3.199
REMARK  8 active torsions:
REMARK  status: ('A' for Active; 'I' for Inactive)
REMARK    1  A    between atoms: C_4  and  O_8 
REMARK    2  A    between atoms: C_5  and  N_7 
REMARK    3  A    between atoms: O_8  and  C_9 
REMARK    4  A    between atoms: C_11  and  O_24 
REMARK    5  A    between atoms: C_13  and  O_23 
REMARK    6  A    between atoms: C_15  and  O_22 
REMARK    7  A    between atoms: C_17  and  C_20 
REMARK    8  A    between atoms: C_20  and  O_21 
ROOT
ATOM      1  C   LIG d   1       4.559  -0.572  -5.839  0.00  0.00     0.231 C 
ATOM      2  H   LIG d   1       3.506  -0.292  -5.881  0.00  0.00     0.108 H 
ATOM      3  C   LIG d   1       4.682  -2.030  -5.389  0.00  0.00     0.145 C 
ATOM      4  H   LIG d   1       5.732  -2.323  -5.387  0.00  0.00     0.068 H 
ATOM      5  C   LIG d   1       4.108  -2.171  -3.975  0.00  0.00     0.115 C 
ATOM      6  H   LIG d   1       3.046  -1.927  -3.988  0.00  0.00     0.065 H 
ATOM      7  C   LIG d   1       4.845  -1.208  -3.039  0.00  0.00     0.112 C 
ATOM      8  H   LIG d   1       5.898  -1.484  -2.988  0.00  0.00     0.065 H 
ATOM      9  C   LIG d   1       4.716   0.218  -3.580  0.00  0.00     0.114 C 
ATOM     10  H   LIG d   1       3.665   0.509  -3.592  0.00  0.00     0.065 H 
ATOM     11  O   LIG d   1       5.240   0.271  -4.909  0.00  0.00    -0.331 OA
ENDROOT
BRANCH   1  12
ATOM     12  O   LIG d   1       5.143  -0.422  -7.134  0.00  0.00    -0.459 OA
BRANCH  12  13
ATOM     13  C   LIG d   1       4.558   0.472  -7.976  0.00  0.00     0.144 A 
ATOM     14  C   LIG d   1       3.215   0.353  -8.290  0.00  0.00    -0.018 A 
ATOM     15  C   LIG d   1       2.621   1.261  -9.146  0.00  0.00    -0.058 A 
ATOM     16  H   LIG d   1       2.630  -0.450  -7.865  0.00  0.00     0.066 H 
ATOM     17  C   LIG d   1       3.365   2.291  -9.692  0.00  0.00    -0.060 A 
ATOM     18  H   LIG d   1       1.572   1.167  -9.389  0.00  0.00     0.062 H 
ATOM     19  C   LIG d   1       4.706   2.416  -9.385  0.00  0.00    -0.037 A 
ATOM     20  H   LIG d   1       2.897   2.998 -10.360  0.00  0.00     0.062 H 
ATOM     21  C   LIG d   1       5.309   1.511  -8.522  0.00  0.00     0.067 A 
ATOM     22  H   LIG d   1       5.286   3.221  -9.813  0.00  0.00     0.064 H 
BRANCH  21  23
ATOM     23  N   LIG d   1       6.665   1.639  -8.205  0.00  0.00    -0.355 N 
ATOM     24  H   LIG d   1       7.010   1.257  -7.383  0.00  0.00     0.142 HD
ATOM     25  H   LIG d   1       7.262   2.110  -8.808  0.00  0.00     0.142 HD
ENDBRANCH  21  23
ENDBRANCH  12  13
ENDBRANCH   1  12
BRANCH   3  26
ATOM     26  O   LIG d   1       3.953  -2.870  -6.286  0.00  0.00    -0.383 OA
ATOM     27  H   LIG d   1       3.041  -2.585  -6.439  0.00  0.00     0.210 HD
ENDBRANCH   3  26
BRANCH   9  28
ATOM     28  C   LIG d   1       5.500   1.177  -2.683  0.00  0.00     0.073 C 
ATOM     29  H   LIG d   1       4.847   1.988  -2.358  0.00  0.00     0.058 H 
ATOM     30  H   LIG d   1       5.871   0.637  -1.811  0.00  0.00     0.058 H 
BRANCH  28  31
ATOM     31  O   LIG d   1       6.603   1.718  -3.413  0.00  0.00    -0.392 OA
ATOM     32  H   LIG d   1       7.455   1.621  -2.966  0.00  0.00     0.209 HD
ENDBRANCH  28  31
ENDBRANCH   9  28
BRANCH   5  33
ATOM     33  O   LIG d   1       4.287  -3.513  -3.518  0.00  0.00    -0.386 OA
ATOM     34  H   LIG d   1       4.235  -3.611  -2.558  0.00  0.00     0.210 HD
ENDBRANCH   5  33
BRANCH   7  35
ATOM     35  O   LIG d   1       4.269  -1.278  -1.734  0.00  0.00    -0.387 OA
ATOM     36  H   LIG d   1       3.818  -0.468  -1.459  0.00  0.00     0.210 HD
ENDBRANCH   7  35
TORSDOF 8
ENDMDL
MODEL 6
REMARK VINA RESULT:      -5.4      2.385      5.604
REMARK  8 active torsions:
REMARK  status: ('A' for Active; 'I' for Inactive)
REMARK    1  A    between atoms: C_4  and  O_8 
REMARK    2  A    between atoms: C_5  and  N_7 
REMARK    3  A    between atoms: O_8  and  C_9 
REMARK    4  A    between atoms: C_11  and  O_24 
REMARK    5  A    between atoms: C_13  and  O_23 
REMARK    6  A    between atoms: C_15  and  O_22 
REMARK    7  A    between atoms: C_17  and  C_20 
REMARK    8  A    between atoms: C_20  and  O_21 
ROOT
ATOM      1  C   LIG d   1       3.544  -0.176  -7.246  0.00  0.00     0.231 C 
ATOM      2  H   LIG d   1       2.476  -0.115  -7.038  0.00  0.00     0.108 H 
ATOM      3  C   LIG d   1       3.886   0.733  -8.429  0.00  0.00     0.145 C 
ATOM      4  H   LIG d   1       4.960   0.705  -8.612  0.00  0.00     0.068 H 
ATOM      5  C   LIG d   1       3.142   0.240  -9.675  0.00  0.00     0.115 C 
ATOM      6  H   LIG d   1       2.067   0.316  -9.511  0.00  0.00     0.065 H 
ATOM      7  C   LIG d   1       3.519  -1.222  -9.935  0.00  0.00     0.112 C 
ATOM      8  H   LIG d   1       4.585  -1.291 -10.149  0.00  0.00     0.065 H 
ATOM      9  C   LIG d   1       3.191  -2.056  -8.693  0.00  0.00     0.114 C 
ATOM     10  H   LIG d   1       2.118  -2.020  -8.504  0.00  0.00     0.065 H 
ATOM     11  O   LIG d   1       3.892  -1.524  -7.567  0.00  0.00    -0.331 OA
ENDROOT
BRANCH   1  12
ATOM     12  O   LIG d   1       4.279   0.244  -6.095  0.00  0.00    -0.459 OA
BRANCH  12  13
ATOM     13  C   LIG d   1       4.036  -0.419  -4.932  0.00  0.00     0.144 A 
ATOM     14  C   LIG d   1       2.905  -0.127  -4.189  0.00  0.00    -0.018 A 
ATOM     15  C   LIG d   1       2.660  -0.802  -3.007  0.00  0.00    -0.058 A 
ATOM     16  H   LIG d   1       2.213   0.628  -4.533  0.00  0.00     0.066 H 
ATOM     17  C   LIG d   1       3.543  -1.769  -2.563  0.00  0.00    -0.060 A 
ATOM     18  H   LIG d   1       1.777  -0.573  -2.429  0.00  0.00     0.062 H 
ATOM     19  C   LIG d   1       4.675  -2.066  -3.298  0.00  0.00    -0.037 A 
ATOM     20  H   LIG d   1       3.348  -2.293  -1.640  0.00  0.00     0.062 H 
ATOM     21  C   LIG d   1       4.925  -1.397  -4.489  0.00  0.00     0.067 A 
ATOM     22  H   LIG d   1       5.363  -2.821  -2.950  0.00  0.00     0.064 H 
BRANCH  21  23
ATOM     23  N   LIG d   1       6.067  -1.699  -5.238  0.00  0.00    -0.355 N 
ATOM     24  H   LIG d   1       5.981  -2.149  -6.093  0.00  0.00     0.142 HD
ATOM     25  H   LIG d   1       6.945  -1.459  -4.902  0.00  0.00     0.142 HD
ENDBRANCH  21  23
ENDBRANCH  12  13
ENDBRANCH   1  12
BRANCH   3  26
ATOM     26  O   LIG d   1       3.486   2.073  -8.134  0.00  0.00    -0.383 OA
ATOM     27  H   LIG d   1       4.079   2.535  -7.526  0.00  0.00     0.210 HD
ENDBRANCH   3  26
BRANCH   9  28
ATOM     28  C   LIG d   1       3.620  -3.505  -8.924  0.00  0.00     0.073 C 
ATOM     29  H   LIG d   1       3.094  -3.907  -9.791  0.00  0.00     0.058 H 
ATOM     30  H   LIG d   1       4.695  -3.542  -9.102  0.00  0.00     0.058 H 
BRANCH  28  31
ATOM     31  O   LIG d   1       3.302  -4.286  -7.770  0.00  0.00    -0.392 OA
ATOM     32  H   LIG d   1       4.058  -4.465  -7.196  0.00  0.00     0.209 HD
ENDBRANCH  28  31
ENDBRANCH   9  28
BRANCH   5  33
ATOM     33  O   LIG d   1       3.514   1.037 -10.801  0.00  0.00    -0.386 OA
ATOM     34  H   LIG d   1       2.766   1.444 -11.259  0.00  0.00     0.210 HD
ENDBRANCH   5  33
BRANCH   7  35
ATOM     35  O   LIG d   1       2.775  -1.715 -11.051  0.00  0.00    -0.387 OA
ATOM     36  H   LIG d   1       2.089  -1.110 -11.364  0.00  0.00     0.210 HD
ENDBRANCH   7  35
TORSDOF 8
ENDMDL
MODEL 7
REMARK VINA RESULT:      -5.3      3.180      6.223
REMARK  8 active torsions:
REMARK  status: ('A' for Active; 'I' for Inactive)
REMARK    1  A    between atoms: C_4  and  O_8 
REMARK    2  A    between atoms: C_5  and  N_7 
REMARK    3  A    between atoms: O_8  and  C_9 
REMARK    4  A    between atoms: C_11  and  O_24 
REMARK    5  A    between atoms: C_13  and  O_23 
REMARK    6  A    between atoms: C_15  and  O_22 
REMARK    7  A    between atoms: C_17  and  C_20 
REMARK    8  A    between atoms: C_20  and  O_21 
ROOT
ATOM      1  C   LIG d   1       4.721  -0.233  -6.815  0.00  0.00     0.231 C 
ATOM      2  H   LIG d   1       5.201  -1.170  -6.534  0.00  0.00     0.108 H 
ATOM      3  C   LIG d   1       3.908  -0.441  -8.095  0.00  0.00     0.145 C 
ATOM      4  H   LIG d   1       3.394   0.485  -8.354  0.00  0.00     0.068 H 
ATOM      5  C   LIG d   1       4.853  -0.838  -9.234  0.00  0.00     0.115 C 
ATOM      6  H   LIG d   1       5.328  -1.790  -8.997  0.00  0.00     0.065 H 
ATOM      7  C   LIG d   1       5.924   0.245  -9.394  0.00  0.00     0.112 C 
ATOM      8  H   LIG d   1       5.453   1.185  -9.680  0.00  0.00     0.065 H 
ATOM      9  C   LIG d   1       6.660   0.426  -8.064  0.00  0.00     0.114 C 
ATOM     10  H   LIG d   1       7.166  -0.503  -7.799  0.00  0.00     0.065 H 
ATOM     11  O   LIG d   1       5.719   0.764  -7.043  0.00  0.00    -0.331 OA
ENDROOT
BRANCH   1  12
ATOM     12  O   LIG d   1       3.854   0.193  -5.763  0.00  0.00    -0.459 OA
BRANCH  12  13
ATOM     13  C   LIG d   1       4.010  -0.409  -4.553  0.00  0.00     0.144 A 
ATOM     14  C   LIG d   1       4.243  -1.771  -4.479  0.00  0.00    -0.018 A 
ATOM     15  C   LIG d   1       4.401  -2.381  -3.249  0.00  0.00    -0.058 A 
ATOM     16  H   LIG d   1       4.302  -2.358  -5.384  0.00  0.00     0.066 H 
ATOM     17  C   LIG d   1       4.326  -1.634  -2.088  0.00  0.00    -0.060 A 
ATOM     18  H   LIG d   1       4.583  -3.445  -3.194  0.00  0.00     0.062 H 
ATOM     19  C   LIG d   1       4.094  -0.273  -2.152  0.00  0.00    -0.037 A 
ATOM     20  H   LIG d   1       4.451  -2.114  -1.129  0.00  0.00     0.062 H 
ATOM     21  C   LIG d   1       3.939   0.347  -3.384  0.00  0.00     0.067 A 
ATOM     22  H   LIG d   1       4.036   0.309  -1.244  0.00  0.00     0.064 H 
BRANCH  21  23
ATOM     23  N   LIG d   1       3.709   1.726  -3.452  0.00  0.00    -0.355 N 
ATOM     24  H   LIG d   1       4.311   2.341  -3.005  0.00  0.00     0.142 HD
ATOM     25  H   LIG d   1       2.947   2.066  -3.947  0.00  0.00     0.142 HD
ENDBRANCH  21  23
ENDBRANCH  12  13
ENDBRANCH   1  12
BRANCH   3  26
ATOM     26  O   LIG d   1       2.948  -1.478  -7.888  0.00  0.00    -0.383 OA
ATOM     27  H   LIG d   1       3.245  -2.176  -7.287  0.00  0.00     0.210 HD
ENDBRANCH   3  26
BRANCH   9  28
ATOM     28  C   LIG d   1       7.691   1.547  -8.200  0.00  0.00     0.073 C 
ATOM     29  H   LIG d   1       7.787   2.072  -7.249  0.00  0.00     0.058 H 
ATOM     30  H   LIG d   1       8.656   1.122  -8.479  0.00  0.00     0.058 H 
BRANCH  28  31
ATOM     31  O   LIG d   1       7.266   2.466  -9.209  0.00  0.00    -0.392 OA
ATOM     32  H   LIG d   1       6.307   2.571  -9.266  0.00  0.00     0.209 HD
ENDBRANCH  28  31
ENDBRANCH   9  28
BRANCH   5  33
ATOM     33  O   LIG d   1       4.112  -0.960 -10.450  0.00  0.00    -0.386 OA
ATOM     34  H   LIG d   1       3.483  -0.241 -10.602  0.00  0.00     0.210 HD
ENDBRANCH   5  33
BRANCH   7  35
ATOM     35  O   LIG d   1       6.854  -0.150 -10.404  0.00  0.00    -0.387 OA
ATOM     36  H   LIG d   1       6.681  -1.024 -10.779  0.00  0.00     0.210 HD
ENDBRANCH   7  35
TORSDOF 8
ENDMDL
MODEL 8
REMARK VINA RESULT:      -5.3      3.682      6.166
REMARK  8 active torsions:
REMARK  status: ('A' for Active; 'I' for Inactive)
REMARK    1  A    between atoms: C_4  and  O_8 
REMARK    2  A    between atoms: C_5  and  N_7 
REMARK    3  A    between atoms: O_8  and  C_9 
REMARK    4  A    between atoms: C_11  and  O_24 
REMARK    5  A    between atoms: C_13  and  O_23 
REMARK    6  A    between atoms: C_15  and  O_22 
REMARK    7  A    between atoms: C_17  and  C_20 
REMARK    8  A    between atoms: C_20  and  O_21 
ROOT
ATOM      1  C   LIG d   1       4.535  -3.929  -6.002  0.00  0.00     0.231 C 
ATOM      2  H   LIG d   1       3.530  -3.919  -5.581  0.00  0.00     0.108 H 
ATOM      3  C   LIG d   1       4.449  -3.890  -7.530  0.00  0.00     0.145 C 
ATOM      4  H   LIG d   1       5.454  -3.858  -7.951  0.00  0.00     0.068 H 
ATOM      5  C   LIG d   1       3.725  -5.146  -8.027  0.00  0.00     0.115 C 
ATOM      6  H   LIG d   1       2.704  -5.151  -7.647  0.00  0.00     0.065 H 
ATOM      7  C   LIG d   1       4.469  -6.384  -7.517  0.00  0.00     0.112 C 
ATOM      8  H   LIG d   1       5.474  -6.405  -7.938  0.00  0.00     0.065 H 
ATOM      9  C   LIG d   1       4.554  -6.328  -5.989  0.00  0.00     0.114 C 
ATOM     10  H   LIG d   1       3.549  -6.349  -5.568  0.00  0.00     0.065 H 
ATOM     11  O   LIG d   1       5.211  -5.121  -5.596  0.00  0.00    -0.331 OA
ENDROOT
BRANCH   1  12
ATOM     12  O   LIG d   1       5.259  -2.789  -5.536  0.00  0.00    -0.459 OA
BRANCH  12  13
ATOM     13  C   LIG d   1       4.657  -2.020  -4.589  0.00  0.00     0.144 A 
ATOM     14  C   LIG d   1       4.471  -2.514  -3.309  0.00  0.00    -0.018 A 
ATOM     15  C   LIG d   1       3.859  -1.732  -2.347  0.00  0.00    -0.058 A 
ATOM     16  H   LIG d   1       4.805  -3.511  -3.061  0.00  0.00     0.066 H 
ATOM     17  C   LIG d   1       3.429  -0.455  -2.660  0.00  0.00    -0.060 A 
ATOM     18  H   LIG d   1       3.715  -2.118  -1.349  0.00  0.00     0.062 H 
ATOM     19  C   LIG d   1       3.610   0.045  -3.935  0.00  0.00    -0.037 A 
ATOM     20  H   LIG d   1       2.952   0.153  -1.906  0.00  0.00     0.062 H 
ATOM     21  C   LIG d   1       4.229  -0.732  -4.905  0.00  0.00     0.067 A 
ATOM     22  H   LIG d   1       3.274   1.043  -4.178  0.00  0.00     0.064 H 
BRANCH  21  23
ATOM     23  N   LIG d   1       4.419  -0.226  -6.195  0.00  0.00    -0.355 N 
ATOM     24  H   LIG d   1       3.776  -0.426  -6.894  0.00  0.00     0.142 HD
ATOM     25  H   LIG d   1       5.192   0.325  -6.392  0.00  0.00     0.142 HD
ENDBRANCH  21  23
ENDBRANCH  12  13
ENDBRANCH   1  12
BRANCH   3  26
ATOM     26  O   LIG d   1       3.723  -2.728  -7.937  0.00  0.00    -0.383 OA
ATOM     27  H   LIG d   1       2.850  -2.646  -7.529  0.00  0.00     0.210 HD
ENDBRANCH   3  26
BRANCH   9  28
ATOM     28  C   LIG d   1       5.347  -7.531  -5.478  0.00  0.00     0.073 C 
ATOM     29  H   LIG d   1       6.015  -7.888  -6.263  0.00  0.00     0.058 H 
ATOM     30  H   LIG d   1       5.934  -7.237  -4.607  0.00  0.00     0.058 H 
BRANCH  28  31
ATOM     31  O   LIG d   1       4.443  -8.576  -5.111  0.00  0.00    -0.392 OA
ATOM     32  H   LIG d   1       3.774  -8.308  -4.467  0.00  0.00     0.209 HD
ENDBRANCH  28  31
ENDBRANCH   9  28
BRANCH   5  33
ATOM     33  O   LIG d   1       3.706  -5.154  -9.455  0.00  0.00    -0.386 OA
ATOM     34  H   LIG d   1       4.258  -4.470  -9.860  0.00  0.00     0.210 HD
ENDBRANCH   5  33
BRANCH   7  35
ATOM     35  O   LIG d   1       3.761  -7.561  -7.912  0.00  0.00    -0.387 OA
ATOM     36  H   LIG d   1       2.851  -7.397  -8.193  0.00  0.00     0.210 HD
ENDBRANCH   7  35
TORSDOF 8
ENDMDL
MODEL 9
REMARK VINA RESULT:      -5.0      4.887      7.044
REMARK  8 active torsions:
REMARK  status: ('A' for Active; 'I' for Inactive)
REMARK    1  A    between atoms: C_4  and  O_8 
REMARK    2  A    between atoms: C_5  and  N_7 
REMARK    3  A    between atoms: O_8  and  C_9 
REMARK    4  A    between atoms: C_11  and  O_24 
REMARK    5  A    between atoms: C_13  and  O_23 
REMARK    6  A    between atoms: C_15  and  O_22 
REMARK    7  A    between atoms: C_17  and  C_20 
REMARK    8  A    between atoms: C_20  and  O_21 
ROOT
ATOM      1  C   LIG d   1       7.717   0.697  -4.441  0.00  0.00     0.231 C 
ATOM      2  H   LIG d   1       7.947  -0.095  -3.728  0.00  0.00     0.108 H 
ATOM      3  C   LIG d   1       8.468   0.440  -5.750  0.00  0.00     0.145 C 
ATOM      4  H   LIG d   1       8.206   1.208  -6.477  0.00  0.00     0.068 H 
ATOM      5  C   LIG d   1       9.976   0.482  -5.482  0.00  0.00     0.115 C 
ATOM      6  H   LIG d   1      10.245  -0.319  -4.794  0.00  0.00     0.065 H 
ATOM      7  C   LIG d   1      10.335   1.835  -4.860  0.00  0.00     0.112 C 
ATOM      8  H   LIG d   1      10.112   2.632  -5.569  0.00  0.00     0.065 H 
ATOM      9  C   LIG d   1       9.512   2.038  -3.585  0.00  0.00     0.114 C 
ATOM     10  H   LIG d   1       9.767   1.264  -2.861  0.00  0.00     0.065 H 
ATOM     11  O   LIG d   1       8.121   1.957  -3.901  0.00  0.00    -0.331 OA
ENDROOT
BRANCH   1  12
ATOM     12  O   LIG d   1       6.311   0.715  -4.693  0.00  0.00    -0.459 OA
BRANCH  12  13
ATOM     13  C   LIG d   1       5.528  -0.053  -3.889  0.00  0.00     0.144 A 
ATOM     14  C   LIG d   1       5.731  -1.421  -3.824  0.00  0.00    -0.018 A 
ATOM     15  C   LIG d   1       4.935  -2.201  -3.006  0.00  0.00    -0.058 A 
ATOM     16  H   LIG d   1       6.511  -1.879  -4.414  0.00  0.00     0.066 H 
ATOM     17  C   LIG d   1       3.934  -1.619  -2.250  0.00  0.00    -0.060 A 
ATOM     18  H   LIG d   1       5.095  -3.268  -2.957  0.00  0.00     0.062 H 
ATOM     19  C   LIG d   1       3.725  -0.254  -2.309  0.00  0.00    -0.037 A 
ATOM     20  H   LIG d   1       3.315  -2.231  -1.612  0.00  0.00     0.062 H 
ATOM     21  C   LIG d   1       4.524   0.537  -3.124  0.00  0.00     0.067 A 
ATOM     22  H   LIG d   1       2.943   0.199  -1.718  0.00  0.00     0.064 H 
BRANCH  21  23
ATOM     23  N   LIG d   1       4.318   1.919  -3.181  0.00  0.00    -0.355 N 
ATOM     24  H   LIG d   1       5.019   2.526  -2.897  0.00  0.00     0.142 HD
ATOM     25  H   LIG d   1       3.474   2.271  -3.505  0.00  0.00     0.142 HD
ENDBRANCH  21  23
ENDBRANCH  12  13
ENDBRANCH   1  12
BRANCH   3  26
ATOM     26  O   LIG d   1       8.109  -0.845  -6.261  0.00  0.00    -0.383 OA
ATOM     27  H   LIG d   1       8.858  -1.447  -6.373  0.00  0.00     0.210 HD
ENDBRANCH   3  26
BRANCH   9  28
ATOM     28  C   LIG d   1       9.822   3.413  -2.992  0.00  0.00     0.073 C 
ATOM     29  H   LIG d   1      10.144   4.088  -3.785  0.00  0.00     0.058 H 
ATOM     30  H   LIG d   1       8.926   3.813  -2.515  0.00  0.00     0.058 H 
BRANCH  28  31
ATOM     31  O   LIG d   1      10.862   3.289  -2.020  0.00  0.00    -0.392 OA
ATOM     32  H   LIG d   1      11.105   2.375  -1.819  0.00  0.00     0.209 HD
ENDBRANCH  28  31
ENDBRANCH   9  28
BRANCH   5  33
ATOM     33  O   LIG d   1      10.685   0.318  -6.712  0.00  0.00    -0.386 OA
ATOM     34  H   LIG d   1      11.371  -0.363  -6.683  0.00  0.00     0.210 HD
ENDBRANCH   5  33
BRANCH   7  35
ATOM     35  O   LIG d   1      11.727   1.857  -4.538  0.00  0.00    -0.387 OA
ATOM     36  H   LIG d   1      12.007   1.141  -3.952  0.00  0.00     0.210 HD
ENDBRANCH   7  35
TORSDOF 8
ENDMDL
MODEL 10
REMARK VINA RESULT:      -5.0      3.043      6.068
REMARK  8 active torsions:
REMARK  status: ('A' for Active; 'I' for Inactive)
REMARK    1  A    between atoms: C_4  and  O_8 
REMARK    2  A    between atoms: C_5  and  N_7 
REMARK    3  A    between atoms: O_8  and  C_9 
REMARK    4  A    between atoms: C_11  and  O_24 
REMARK    5  A    between atoms: C_13  and  O_23 
REMARK    6  A    between atoms: C_15  and  O_22 
REMARK    7  A    between atoms: C_17  and  C_20 
REMARK    8  A    between atoms: C_20  and  O_21 
ROOT
ATOM      1  C   LIG d   1       5.647  -2.969  -5.215  0.00  0.00     0.231 C 
ATOM      2  H   LIG d   1       6.560  -3.452  -5.566  0.00  0.00     0.108 H 
ATOM      3  C   LIG d   1       4.444  -3.858  -5.537  0.00  0.00     0.145 C 
ATOM      4  H   LIG d   1       3.535  -3.397  -5.150  0.00  0.00     0.068 H 
ATOM      5  C   LIG d   1       4.329  -4.020  -7.057  0.00  0.00     0.115 C 
ATOM      6  H   LIG d   1       5.215  -4.528  -7.436  0.00  0.00     0.065 H 
ATOM      7  C   LIG d   1       4.217  -2.633  -7.699  0.00  0.00     0.112 C 
ATOM      8  H   LIG d   1       3.304  -2.146  -7.357  0.00  0.00     0.065 H 
ATOM      9  C   LIG d   1       5.430  -1.791  -7.293  0.00  0.00     0.114 C 
ATOM     10  H   LIG d   1       6.339  -2.258  -7.672  0.00  0.00     0.065 H 
ATOM     11  O   LIG d   1       5.494  -1.708  -5.868  0.00  0.00    -0.331 OA
ENDROOT
BRANCH   1  12
ATOM     12  O   LIG d   1       5.727  -2.768  -3.803  0.00  0.00    -0.459 OA
BRANCH  12  13
ATOM     13  C   LIG d   1       5.162  -1.635  -3.308  0.00  0.00     0.144 A 
ATOM     14  C   LIG d   1       3.809  -1.605  -3.015  0.00  0.00    -0.018 A 
ATOM     15  C   LIG d   1       3.235  -0.452  -2.511  0.00  0.00    -0.058 A 
ATOM     16  H   LIG d   1       3.201  -2.482  -3.179  0.00  0.00     0.066 H 
ATOM     17  C   LIG d   1       4.009   0.674  -2.299  0.00  0.00    -0.060 A 
ATOM     18  H   LIG d   1       2.179  -0.431  -2.283  0.00  0.00     0.062 H 
ATOM     19  C   LIG d   1       5.360   0.653  -2.589  0.00  0.00    -0.037 A 
ATOM     20  H   LIG d   1       3.557   1.572  -1.906  0.00  0.00     0.062 H 
ATOM     21  C   LIG d   1       5.944  -0.502  -3.090  0.00  0.00     0.067 A 
ATOM     22  H   LIG d   1       5.962   1.534  -2.423  0.00  0.00     0.064 H 
BRANCH  21  23
ATOM     23  N   LIG d   1       7.313  -0.528  -3.379  0.00  0.00    -0.355 N 
ATOM     24  H   LIG d   1       7.634  -1.001  -4.163  0.00  0.00     0.142 HD
ATOM     25  H   LIG d   1       7.941  -0.073  -2.797  0.00  0.00     0.142 HD
ENDBRANCH  21  23
ENDBRANCH  12  13
ENDBRANCH   1  12
BRANCH   3  26
ATOM     26  O   LIG d   1       4.623  -5.141  -4.933  0.00  0.00    -0.383 OA
ATOM     27  H   LIG d   1       5.548  -5.386  -4.796  0.00  0.00     0.210 HD
ENDBRANCH   3  26
BRANCH   9  28
ATOM     28  C   LIG d   1       5.295  -0.386  -7.882  0.00  0.00     0.073 C 
ATOM     29  H   LIG d   1       6.286   0.043  -8.032  0.00  0.00     0.058 H 
ATOM     30  H   LIG d   1       4.774  -0.442  -8.839  0.00  0.00     0.058 H 
BRANCH  28  31
ATOM     31  O   LIG d   1       4.550   0.438  -6.983  0.00  0.00    -0.392 OA
ATOM     32  H   LIG d   1       4.366   0.022  -6.130  0.00  0.00     0.209 HD
ENDBRANCH  28  31
ENDBRANCH   9  28
BRANCH   5  33
ATOM     33  O   LIG d   1       3.164  -4.786  -7.370  0.00  0.00    -0.386 OA
ATOM     34  H   LIG d   1       2.583  -4.946  -6.613  0.00  0.00     0.210 HD
ENDBRANCH   5  33
BRANCH   7  35
ATOM     35  O   LIG d   1       4.183  -2.768  -9.121  0.00  0.00    -0.387 OA
ATOM     36  H   LIG d   1       3.381  -2.416  -9.530  0.00  0.00     0.210 HD
ENDBRANCH   7  35
TORSDOF 8
ENDMDL
