MODEL 1
REMARK VINA RESULT:      -7.1      0.000      0.000
REMARK  6 active torsions:
REMARK  status: ('A' for Active; 'I' for Inactive)
REMARK    1  A    between atoms: C_1  and  C_2 
REMARK    2  A    between atoms: C_6  and  C_13 
REMARK    3  A    between atoms: C_13  and  N_14 
REMARK    4  A    between atoms: N_17  and  C_20 
REMARK    5  A    between atoms: C_20  and  C_21 
REMARK    6  A    between atoms: C_21  and  C_22 
ROOT
ATOM      1  N   LIG d   1       6.126  -6.760  -5.362  0.00  0.00    -0.296 N 
ATOM      2  C   LIG d   1       7.347  -6.026  -5.721  0.00  0.00     0.012 C 
ATOM      3  C   LIG d   1       7.222  -4.575  -5.251  0.00  0.00     0.012 C 
ATOM      4  N   LIG d   1       6.041  -3.961  -5.872  0.00  0.00    -0.299 N 
ATOM      5  C   LIG d   1       4.819  -4.696  -5.513  0.00  0.00     0.012 C 
ATOM      6  C   LIG d   1       4.943  -6.146  -5.984  0.00  0.00     0.012 C 
ATOM      7  H   LIG d   1       8.206  -6.492  -5.239  0.00  0.00     0.044 H 
ATOM      8  H   LIG d   1       7.480  -6.047  -6.803  0.00  0.00     0.044 H 
ATOM      9  H   LIG d   1       7.117  -4.552  -4.166  0.00  0.00     0.044 H 
ATOM     10  H   LIG d   1       8.115  -4.021  -5.541  0.00  0.00     0.044 H 
ATOM     11  H   LIG d   1       4.686  -4.675  -4.432  0.00  0.00     0.044 H 
ATOM     12  H   LIG d   1       3.960  -4.230  -5.996  0.00  0.00     0.044 H 
ATOM     13  H   LIG d   1       5.050  -6.170  -7.069  0.00  0.00     0.044 H 
ATOM     14  H   LIG d   1       4.051  -6.701  -5.693  0.00  0.00     0.044 H 
ENDROOT
BRANCH   1  15
ATOM     15  C   LIG d   1       6.237  -8.179  -5.731  0.00  0.00     0.025 C 
ATOM     16  H   LIG d   1       7.281  -8.424  -5.919  0.00  0.00     0.048 H 
ATOM     17  H   LIG d   1       5.651  -8.367  -6.630  0.00  0.00     0.048 H 
BRANCH  15  18
ATOM     18  C   LIG d   1       5.716  -9.031  -4.603  0.00  0.00    -0.016 A 
ATOM     19  C   LIG d   1       6.584  -9.417  -3.487  0.00  0.00     0.022 A 
ATOM     20  C   LIG d   1       7.920  -9.007  -3.436  0.00  0.00    -0.051 A 
ATOM     21  C   LIG d   1       6.056 -10.215  -2.456  0.00  0.00     0.140 A 
ATOM     22  C   LIG d   1       8.705  -9.383  -2.383  0.00  0.00    -0.058 A 
ATOM     23  H   LIG d   1       8.328  -8.394  -4.226  0.00  0.00     0.062 H 
ATOM     24  C   LIG d   1       8.188 -10.168  -1.364  0.00  0.00    -0.047 A 
ATOM     25  H   LIG d   1       9.736  -9.064  -2.344  0.00  0.00     0.062 H 
ATOM     26  C   LIG d   1       6.875 -10.589  -1.398  0.00  0.00    -0.016 A 
ATOM     27  H   LIG d   1       6.483 -11.204  -0.602  0.00  0.00     0.066 H 
ATOM     28  O   LIG d   1       4.767 -10.611  -2.507  0.00  0.00    -0.422 OA
ATOM     29  C   LIG d   1       3.966 -10.262  -3.525  0.00  0.00     0.338 A 
ATOM     30  C   LIG d   1       4.429  -9.465  -4.593  0.00  0.00     0.028 A 
ATOM     31  O   LIG d   1       2.809 -10.644  -3.528  0.00  0.00    -0.245 OA
ATOM     32  H   LIG d   1       3.763  -9.198  -5.399  0.00  0.00     0.069 H 
BRANCH  24  33
ATOM     33  C   LIG d   1       9.071 -10.573  -0.212  0.00  0.00    -0.040 C 
ATOM     34  H   LIG d   1       8.645 -11.444   0.285  0.00  0.00     0.028 H 
ATOM     35  H   LIG d   1      10.066 -10.817  -0.585  0.00  0.00     0.028 H 
ATOM     36  H   LIG d   1       9.142  -9.748   0.498  0.00  0.00     0.028 H 
ENDBRANCH  24  33
ENDBRANCH  15  18
ENDBRANCH   1  15
BRANCH   4  37
ATOM     37  C   LIG d   1       5.929  -2.543  -5.504  0.00  0.00     0.004 C 
ATOM     38  H   LIG d   1       6.366  -1.928  -6.290  0.00  0.00     0.043 H 
ATOM     39  H   LIG d   1       4.877  -2.282  -5.381  0.00  0.00     0.043 H 
BRANCH  37  40
ATOM     40  C   LIG d   1       6.672  -2.298  -4.189  0.00  0.00     0.002 C 
ATOM     41  H   LIG d   1       6.732  -3.229  -3.627  0.00  0.00     0.034 H 
ATOM     42  H   LIG d   1       7.677  -1.935  -4.402  0.00  0.00     0.034 H 
BRANCH  40  43
ATOM     43  C   LIG d   1       5.928  -1.268  -3.377  0.00  0.00     0.043 A 
ATOM     44  N   LIG d   1       6.276   0.001  -3.460  0.00  0.00    -0.260 NA
ATOM     45  C   LIG d   1       5.651   0.938  -2.772  0.00  0.00     0.028 A 
ATOM     46  C   LIG d   1       4.607   0.615  -1.925  0.00  0.00    -0.044 A 
ATOM     47  H   LIG d   1       5.962   1.967  -2.869  0.00  0.00     0.083 H 
ATOM     48  C   LIG d   1       4.217  -0.710  -1.809  0.00  0.00    -0.059 A 
ATOM     49  H   LIG d   1       4.102   1.386  -1.362  0.00  0.00     0.063 H 
ATOM     50  C   LIG d   1       4.893  -1.665  -2.552  0.00  0.00    -0.040 A 
ATOM     51  H   LIG d   1       3.404  -0.992  -1.156  0.00  0.00     0.062 H 
ATOM     52  H   LIG d   1       4.615  -2.707  -2.486  0.00  0.00     0.064 H 
ENDBRANCH  40  43
ENDBRANCH  37  40
ENDBRANCH   4  37
TORSDOF 6
ENDMDL
MODEL 2
REMARK VINA RESULT:      -6.9      8.309     13.018
REMARK  6 active torsions:
REMARK  status: ('A' for Active; 'I' for Inactive)
REMARK    1  A    between atoms: C_1  and  C_2 
REMARK    2  A    between atoms: C_6  and  C_13 
REMARK    3  A    between atoms: C_13  and  N_14 
REMARK    4  A    between atoms: N_17  and  C_20 
REMARK    5  A    between atoms: C_20  and  C_21 
REMARK    6  A    between atoms: C_21  and  C_22 
ROOT
ATOM      1  N   LIG d   1       9.516   3.103  -6.040  0.00  0.00    -0.296 N 
ATOM      2  C   LIG d   1       9.355   1.766  -6.629  0.00  0.00     0.012 C 
ATOM      3  C   LIG d   1       8.199   1.043  -5.934  0.00  0.00     0.012 C 
ATOM      4  N   LIG d   1       8.476   0.951  -4.494  0.00  0.00    -0.299 N 
ATOM      5  C   LIG d   1       8.638   2.288  -3.905  0.00  0.00     0.012 C 
ATOM      6  C   LIG d   1       9.795   3.011  -4.599  0.00  0.00     0.012 C 
ATOM      7  H   LIG d   1       9.138   1.861  -7.692  0.00  0.00     0.044 H 
ATOM      8  H   LIG d   1      10.273   1.195  -6.494  0.00  0.00     0.044 H 
ATOM      9  H   LIG d   1       7.274   1.599  -6.092  0.00  0.00     0.044 H 
ATOM     10  H   LIG d   1       8.095   0.041  -6.349  0.00  0.00     0.044 H 
ATOM     11  H   LIG d   1       7.720   2.859  -4.040  0.00  0.00     0.044 H 
ATOM     12  H   LIG d   1       8.856   2.193  -2.841  0.00  0.00     0.044 H 
ATOM     13  H   LIG d   1      10.719   2.455  -4.443  0.00  0.00     0.044 H 
ATOM     14  H   LIG d   1       9.898   4.013  -4.185  0.00  0.00     0.044 H 
ENDROOT
BRANCH   1  15
ATOM     15  C   LIG d   1      10.570   3.859  -6.732  0.00  0.00     0.025 C 
ATOM     16  H   LIG d   1      11.117   3.192  -7.398  0.00  0.00     0.048 H 
ATOM     17  H   LIG d   1      11.255   4.282  -5.998  0.00  0.00     0.048 H 
BRANCH  15  18
ATOM     18  C   LIG d   1       9.945   4.970  -7.535  0.00  0.00    -0.016 A 
ATOM     19  C   LIG d   1       9.839   6.326  -6.989  0.00  0.00     0.022 A 
ATOM     20  C   LIG d   1      10.313   6.628  -5.708  0.00  0.00    -0.051 A 
ATOM     21  C   LIG d   1       9.246   7.333  -7.773  0.00  0.00     0.140 A 
ATOM     22  C   LIG d   1      10.200   7.902  -5.227  0.00  0.00    -0.058 A 
ATOM     23  H   LIG d   1      10.769   5.857  -5.105  0.00  0.00     0.062 H 
ATOM     24  C   LIG d   1       9.617   8.897  -5.997  0.00  0.00    -0.047 A 
ATOM     25  H   LIG d   1      10.568   8.135  -4.238  0.00  0.00     0.062 H 
ATOM     26  C   LIG d   1       9.137   8.619  -7.259  0.00  0.00    -0.016 A 
ATOM     27  H   LIG d   1       8.682   9.400  -7.849  0.00  0.00     0.066 H 
ATOM     28  O   LIG d   1       8.787   7.039  -9.007  0.00  0.00    -0.422 OA
ATOM     29  C   LIG d   1       8.881   5.800  -9.514  0.00  0.00     0.338 A 
ATOM     30  C   LIG d   1       9.462   4.743  -8.783  0.00  0.00     0.028 A 
ATOM     31  O   LIG d   1       8.452   5.583 -10.633  0.00  0.00    -0.245 OA
ATOM     32  H   LIG d   1       9.525   3.755  -9.216  0.00  0.00     0.069 H 
BRANCH  24  33
ATOM     33  C   LIG d   1       9.501  10.295  -5.446  0.00  0.00    -0.040 C 
ATOM     34  H   LIG d   1       8.452  10.536  -5.283  0.00  0.00     0.028 H 
ATOM     35  H   LIG d   1      10.040  10.359  -4.501  0.00  0.00     0.028 H 
ATOM     36  H   LIG d   1       9.931  11.002  -6.157  0.00  0.00     0.028 H 
ENDBRANCH  24  33
ENDBRANCH  15  18
ENDBRANCH   1  15
BRANCH   4  37
ATOM     37  C   LIG d   1       7.423   0.196  -3.801  0.00  0.00     0.004 C 
ATOM     38  H   LIG d   1       7.003  -0.546  -4.479  0.00  0.00     0.043 H 
ATOM     39  H   LIG d   1       7.848  -0.306  -2.932  0.00  0.00     0.043 H 
BRANCH  37  40
ATOM     40  C   LIG d   1       6.322   1.156  -3.348  0.00  0.00     0.002 C 
ATOM     41  H   LIG d   1       6.569   1.554  -2.364  0.00  0.00     0.034 H 
ATOM     42  H   LIG d   1       6.238   1.976  -4.061  0.00  0.00     0.034 H 
BRANCH  40  43
ATOM     43  C   LIG d   1       5.010   0.418  -3.275  0.00  0.00     0.043 A 
ATOM     44  N   LIG d   1       3.983   0.843  -3.985  0.00  0.00    -0.260 NA
ATOM     45  C   LIG d   1       2.818   0.225  -3.957  0.00  0.00     0.028 A 
ATOM     46  C   LIG d   1       2.629  -0.894  -3.167  0.00  0.00    -0.044 A 
ATOM     47  H   LIG d   1       2.001   0.601  -4.555  0.00  0.00     0.083 H 
ATOM     48  C   LIG d   1       3.685  -1.367  -2.403  0.00  0.00    -0.059 A 
ATOM     49  H   LIG d   1       1.672  -1.392  -3.146  0.00  0.00     0.063 H 
ATOM     50  C   LIG d   1       4.896  -0.695  -2.463  0.00  0.00    -0.040 A 
ATOM     51  H   LIG d   1       3.567  -2.239  -1.777  0.00  0.00     0.062 H 
ATOM     52  H   LIG d   1       5.740  -1.036  -1.881  0.00  0.00     0.064 H 
ENDBRANCH  40  43
ENDBRANCH  37  40
ENDBRANCH   4  37
TORSDOF 6
ENDMDL
MODEL 3
REMARK VINA RESULT:      -6.8      8.096     12.605
REMARK  6 active torsions:
REMARK  status: ('A' for Active; 'I' for Inactive)
REMARK    1  A    between atoms: C_1  and  C_2 
REMARK    2  A    between atoms: C_6  and  C_13 
REMARK    3  A    between atoms: C_13  and  N_14 
REMARK    4  A    between atoms: N_17  and  C_20 
REMARK    5  A    between atoms: C_20  and  C_21 
REMARK    6  A    between atoms: C_21  and  C_22 
ROOT
ATOM      1  N   LIG d   1       9.763   3.366  -4.737  0.00  0.00    -0.296 N 
ATOM      2  C   LIG d   1       9.751   2.665  -6.028  0.00  0.00     0.012 C 
ATOM      3  C   LIG d   1       8.427   1.914  -6.185  0.00  0.00     0.012 C 
ATOM      4  N   LIG d   1       8.269   0.966  -5.073  0.00  0.00    -0.299 N 
ATOM      5  C   LIG d   1       8.281   1.668  -3.781  0.00  0.00     0.012 C 
ATOM      6  C   LIG d   1       9.606   2.418  -3.624  0.00  0.00     0.012 C 
ATOM      7  H   LIG d   1       9.857   3.388  -6.835  0.00  0.00     0.044 H 
ATOM      8  H   LIG d   1      10.578   1.955  -6.065  0.00  0.00     0.044 H 
ATOM      9  H   LIG d   1       7.602   2.627  -6.176  0.00  0.00     0.044 H 
ATOM     10  H   LIG d   1       8.427   1.370  -7.129  0.00  0.00     0.044 H 
ATOM     11  H   LIG d   1       7.455   2.378  -3.745  0.00  0.00     0.044 H 
ATOM     12  H   LIG d   1       8.176   0.944  -2.973  0.00  0.00     0.044 H 
ATOM     13  H   LIG d   1      10.431   1.706  -3.634  0.00  0.00     0.044 H 
ATOM     14  H   LIG d   1       9.606   2.963  -2.681  0.00  0.00     0.044 H 
ENDROOT
BRANCH   1  15
ATOM     15  C   LIG d   1      10.990   4.161  -4.581  0.00  0.00     0.025 C 
ATOM     16  H   LIG d   1      11.506   4.223  -5.538  0.00  0.00     0.048 H 
ATOM     17  H   LIG d   1      11.640   3.685  -3.847  0.00  0.00     0.048 H 
BRANCH  15  18
ATOM     18  C   LIG d   1      10.632   5.547  -4.111  0.00  0.00    -0.016 A 
ATOM     19  C   LIG d   1      10.774   5.924  -2.702  0.00  0.00     0.022 A 
ATOM     20  C   LIG d   1      11.244   5.011  -1.753  0.00  0.00    -0.051 A 
ATOM     21  C   LIG d   1      10.427   7.229  -2.307  0.00  0.00     0.140 A 
ATOM     22  C   LIG d   1      11.365   5.392  -0.447  0.00  0.00    -0.058 A 
ATOM     23  H   LIG d   1      11.511   4.009  -2.053  0.00  0.00     0.062 H 
ATOM     24  C   LIG d   1      11.025   6.679  -0.054  0.00  0.00    -0.047 A 
ATOM     25  H   LIG d   1      11.730   4.687   0.285  0.00  0.00     0.062 H 
ATOM     26  C   LIG d   1      10.554   7.592  -0.972  0.00  0.00    -0.016 A 
ATOM     27  H   LIG d   1      10.287   8.590  -0.656  0.00  0.00     0.066 H 
ATOM     28  O   LIG d   1       9.972   8.109  -3.223  0.00  0.00    -0.422 OA
ATOM     29  C   LIG d   1       9.839   7.771  -4.515  0.00  0.00     0.338 A 
ATOM     30  C   LIG d   1      10.168   6.480  -4.981  0.00  0.00     0.028 A 
ATOM     31  O   LIG d   1       9.424   8.600  -5.306  0.00  0.00    -0.245 OA
ATOM     32  H   LIG d   1      10.052   6.235  -6.026  0.00  0.00     0.069 H 
BRANCH  24  33
ATOM     33  C   LIG d   1      11.165   7.078   1.392  0.00  0.00    -0.040 C 
ATOM     34  H   LIG d   1      10.208   6.957   1.897  0.00  0.00     0.028 H 
ATOM     35  H   LIG d   1      11.913   6.447   1.873  0.00  0.00     0.028 H 
ATOM     36  H   LIG d   1      11.478   8.121   1.451  0.00  0.00     0.028 H 
ENDBRANCH  24  33
ENDBRANCH  15  18
ENDBRANCH   1  15
BRANCH   4  37
ATOM     37  C   LIG d   1       7.043   0.172  -5.228  0.00  0.00     0.004 C 
ATOM     38  H   LIG d   1       6.194   0.839  -5.374  0.00  0.00     0.043 H 
ATOM     39  H   LIG d   1       7.143  -0.485  -6.093  0.00  0.00     0.043 H 
BRANCH  37  40
ATOM     40  C   LIG d   1       6.820  -0.671  -3.971  0.00  0.00     0.002 C 
ATOM     41  H   LIG d   1       7.187  -1.683  -4.143  0.00  0.00     0.034 H 
ATOM     42  H   LIG d   1       7.358  -0.226  -3.134  0.00  0.00     0.034 H 
BRANCH  40  43
ATOM     43  C   LIG d   1       5.347  -0.719  -3.653  0.00  0.00     0.043 A 
ATOM     44  N   LIG d   1       4.539   0.183  -4.174  0.00  0.00    -0.260 NA
ATOM     45  C   LIG d   1       3.243   0.178  -3.928  0.00  0.00     0.028 A 
ATOM     46  C   LIG d   1       2.684  -0.778  -3.099  0.00  0.00    -0.044 A 
ATOM     47  H   LIG d   1       2.612   0.930  -4.376  0.00  0.00     0.083 H 
ATOM     48  C   LIG d   1       3.504  -1.739  -2.529  0.00  0.00    -0.059 A 
ATOM     49  H   LIG d   1       1.624  -0.774  -2.899  0.00  0.00     0.063 H 
ATOM     50  C   LIG d   1       4.860  -1.705  -2.816  0.00  0.00    -0.040 A 
ATOM     51  H   LIG d   1       3.096  -2.499  -1.878  0.00  0.00     0.062 H 
ATOM     52  H   LIG d   1       5.528  -2.439  -2.389  0.00  0.00     0.064 H 
ENDBRANCH  40  43
ENDBRANCH  37  40
ENDBRANCH   4  37
TORSDOF 6
ENDMDL
MODEL 4
REMARK VINA RESULT:      -6.7      8.215     13.616
REMARK  6 active torsions:
REMARK  status: ('A' for Active; 'I' for Inactive)
REMARK    1  A    between atoms: C_1  and  C_2 
REMARK    2  A    between atoms: C_6  and  C_13 
REMARK    3  A    between atoms: C_13  and  N_14 
REMARK    4  A    between atoms: N_17  and  C_20 
REMARK    5  A    between atoms: C_20  and  C_21 
REMARK    6  A    between atoms: C_21  and  C_22 
ROOT
ATOM      1  N   LIG d   1      10.481   4.155  -3.176  0.00  0.00    -0.296 N 
ATOM      2  C   LIG d   1       9.953   4.540  -4.491  0.00  0.00     0.012 C 
ATOM      3  C   LIG d   1       8.713   3.700  -4.806  0.00  0.00     0.012 C 
ATOM      4  N   LIG d   1       9.069   2.275  -4.782  0.00  0.00    -0.299 N 
ATOM      5  C   LIG d   1       9.598   1.890  -3.465  0.00  0.00     0.012 C 
ATOM      6  C   LIG d   1      10.839   2.729  -3.151  0.00  0.00     0.012 C 
ATOM      7  H   LIG d   1       9.684   5.596  -4.480  0.00  0.00     0.044 H 
ATOM      8  H   LIG d   1      10.712   4.366  -5.254  0.00  0.00     0.044 H 
ATOM      9  H   LIG d   1       7.943   3.895  -4.058  0.00  0.00     0.044 H 
ATOM     10  H   LIG d   1       8.336   3.964  -5.794  0.00  0.00     0.044 H 
ATOM     11  H   LIG d   1       8.839   2.065  -2.703  0.00  0.00     0.044 H 
ATOM     12  H   LIG d   1       9.868   0.834  -3.476  0.00  0.00     0.044 H 
ATOM     13  H   LIG d   1      11.609   2.535  -3.898  0.00  0.00     0.044 H 
ATOM     14  H   LIG d   1      11.215   2.466  -2.163  0.00  0.00     0.044 H 
ENDROOT
BRANCH   1  15
ATOM     15  C   LIG d   1      11.630   4.992  -2.804  0.00  0.00     0.025 C 
ATOM     16  H   LIG d   1      11.888   5.646  -3.637  0.00  0.00     0.048 H 
ATOM     17  H   LIG d   1      12.482   4.355  -2.566  0.00  0.00     0.048 H 
BRANCH  15  18
ATOM     18  C   LIG d   1      11.274   5.827  -1.601  0.00  0.00    -0.016 A 
ATOM     19  C   LIG d   1      10.792   7.203  -1.755  0.00  0.00     0.022 A 
ATOM     20  C   LIG d   1      10.651   7.781  -3.021  0.00  0.00    -0.051 A 
ATOM     21  C   LIG d   1      10.472   7.946  -0.605  0.00  0.00     0.140 A 
ATOM     22  C   LIG d   1      10.200   9.066  -3.132  0.00  0.00    -0.058 A 
ATOM     23  H   LIG d   1      10.896   7.213  -3.906  0.00  0.00     0.062 H 
ATOM     24  C   LIG d   1       9.882   9.802  -2.000  0.00  0.00    -0.047 A 
ATOM     25  H   LIG d   1      10.089   9.511  -4.110  0.00  0.00     0.062 H 
ATOM     26  C   LIG d   1      10.021   9.252  -0.743  0.00  0.00    -0.016 A 
ATOM     27  H   LIG d   1       9.775   9.835   0.133  0.00  0.00     0.066 H 
ATOM     28  O   LIG d   1      10.611   7.388   0.616  0.00  0.00    -0.422 OA
ATOM     29  C   LIG d   1      11.051   6.128   0.765  0.00  0.00     0.338 A 
ATOM     30  C   LIG d   1      11.391   5.326  -0.345  0.00  0.00     0.028 A 
ATOM     31  O   LIG d   1      11.160   5.667   1.887  0.00  0.00    -0.245 OA
ATOM     32  H   LIG d   1      11.742   4.316  -0.196  0.00  0.00     0.069 H 
BRANCH  24  33
ATOM     33  C   LIG d   1       9.387  11.218  -2.145  0.00  0.00    -0.040 C 
ATOM     34  H   LIG d   1      10.236  11.886  -2.287  0.00  0.00     0.028 H 
ATOM     35  H   LIG d   1       8.724  11.284  -3.007  0.00  0.00     0.028 H 
ATOM     36  H   LIG d   1       8.844  11.506  -1.245  0.00  0.00     0.028 H 
ENDBRANCH  24  33
ENDBRANCH  15  18
ENDBRANCH   1  15
BRANCH   4  37
ATOM     37  C   LIG d   1       7.921   1.438  -5.152  0.00  0.00     0.004 C 
ATOM     38  H   LIG d   1       7.003   2.017  -5.056  0.00  0.00     0.043 H 
ATOM     39  H   LIG d   1       8.034   1.103  -6.184  0.00  0.00     0.043 H 
BRANCH  37  40
ATOM     40  C   LIG d   1       7.857   0.221  -4.227  0.00  0.00     0.002 C 
ATOM     41  H   LIG d   1       7.924  -0.691  -4.820  0.00  0.00     0.034 H 
ATOM     42  H   LIG d   1       8.687   0.258  -3.520  0.00  0.00     0.034 H 
BRANCH  40  43
ATOM     43  C   LIG d   1       6.554   0.233  -3.470  0.00  0.00     0.043 A 
ATOM     44  N   LIG d   1       5.980   1.384  -3.179  0.00  0.00    -0.260 NA
ATOM     45  C   LIG d   1       4.837   1.444  -2.524  0.00  0.00     0.028 A 
ATOM     46  C   LIG d   1       4.200   0.289  -2.108  0.00  0.00    -0.044 A 
ATOM     47  H   LIG d   1       4.395   2.405  -2.307  0.00  0.00     0.083 H 
ATOM     48  C   LIG d   1       4.776  -0.939  -2.391  0.00  0.00    -0.059 A 
ATOM     49  H   LIG d   1       3.266   0.345  -1.568  0.00  0.00     0.063 H 
ATOM     50  C   LIG d   1       5.975  -0.962  -3.087  0.00  0.00    -0.040 A 
ATOM     51  H   LIG d   1       4.301  -1.858  -2.079  0.00  0.00     0.062 H 
ATOM     52  H   LIG d   1       6.451  -1.902  -3.325  0.00  0.00     0.064 H 
ENDBRANCH  40  43
ENDBRANCH  37  40
ENDBRANCH   4  37
TORSDOF 6
ENDMDL
MODEL 5
REMARK VINA RESULT:      -6.7      7.617     12.480
REMARK  6 active torsions:
REMARK  status: ('A' for Active; 'I' for Inactive)
REMARK    1  A    between atoms: C_1  and  C_2 
REMARK    2  A    between atoms: C_6  and  C_13 
REMARK    3  A    between atoms: C_13  and  N_14 
REMARK    4  A    between atoms: N_17  and  C_20 
REMARK    5  A    between atoms: C_20  and  C_21 
REMARK    6  A    between atoms: C_21  and  C_22 
ROOT
ATOM      1  N   LIG d   1       9.805   2.586  -4.638  0.00  0.00    -0.296 N 
ATOM      2  C   LIG d   1      10.320   1.420  -5.370  0.00  0.00     0.012 C 
ATOM      3  C   LIG d   1       9.152   0.672  -6.017  0.00  0.00     0.012 C 
ATOM      4  N   LIG d   1       8.201   0.258  -4.977  0.00  0.00    -0.299 N 
ATOM      5  C   LIG d   1       7.686   1.424  -4.244  0.00  0.00     0.012 C 
ATOM      6  C   LIG d   1       8.853   2.172  -3.596  0.00  0.00     0.012 C 
ATOM      7  H   LIG d   1      11.011   1.753  -6.143  0.00  0.00     0.044 H 
ATOM      8  H   LIG d   1      10.838   0.756  -4.679  0.00  0.00     0.044 H 
ATOM      9  H   LIG d   1       8.650   1.328  -6.729  0.00  0.00     0.044 H 
ATOM     10  H   LIG d   1       9.529  -0.209  -6.537  0.00  0.00     0.044 H 
ATOM     11  H   LIG d   1       7.168   2.088  -4.935  0.00  0.00     0.044 H 
ATOM     12  H   LIG d   1       6.994   1.091  -3.470  0.00  0.00     0.044 H 
ATOM     13  H   LIG d   1       9.356   1.516  -2.885  0.00  0.00     0.044 H 
ATOM     14  H   LIG d   1       8.478   3.053  -3.077  0.00  0.00     0.044 H 
ENDROOT
BRANCH   1  15
ATOM     15  C   LIG d   1      10.904   3.374  -4.063  0.00  0.00     0.025 C 
ATOM     16  H   LIG d   1      11.717   3.443  -4.785  0.00  0.00     0.048 H 
ATOM     17  H   LIG d   1      11.264   2.888  -3.156  0.00  0.00     0.048 H 
BRANCH  15  18
ATOM     18  C   LIG d   1      10.408   4.757  -3.730  0.00  0.00    -0.016 A 
ATOM     19  C   LIG d   1      10.086   5.717  -4.791  0.00  0.00     0.022 A 
ATOM     20  C   LIG d   1      10.232   5.379  -6.140  0.00  0.00    -0.051 A 
ATOM     21  C   LIG d   1       9.627   6.998  -4.434  0.00  0.00     0.140 A 
ATOM     22  C   LIG d   1       9.924   6.296  -7.105  0.00  0.00    -0.058 A 
ATOM     23  H   LIG d   1      10.584   4.396  -6.416  0.00  0.00     0.062 H 
ATOM     24  C   LIG d   1       9.470   7.559  -6.758  0.00  0.00    -0.047 A 
ATOM     25  H   LIG d   1      10.035   6.033  -8.147  0.00  0.00     0.062 H 
ATOM     26  C   LIG d   1       9.325   7.915  -5.433  0.00  0.00    -0.016 A 
ATOM     27  H   LIG d   1       8.975   8.903  -5.173  0.00  0.00     0.066 H 
ATOM     28  O   LIG d   1       9.488   7.323  -3.132  0.00  0.00    -0.422 OA
ATOM     29  C   LIG d   1       9.780   6.450  -2.156  0.00  0.00     0.338 A 
ATOM     30  C   LIG d   1      10.247   5.149  -2.441  0.00  0.00     0.028 A 
ATOM     31  O   LIG d   1       9.640   6.789  -0.995  0.00  0.00    -0.245 OA
ATOM     32  H   LIG d   1      10.474   4.466  -1.636  0.00  0.00     0.069 H 
BRANCH  24  33
ATOM     33  C   LIG d   1       9.137   8.556  -7.838  0.00  0.00    -0.040 C 
ATOM     34  H   LIG d   1       9.349   9.563  -7.482  0.00  0.00     0.028 H 
ATOM     35  H   LIG d   1       9.741   8.348  -8.722  0.00  0.00     0.028 H 
ATOM     36  H   LIG d   1       8.080   8.475  -8.093  0.00  0.00     0.028 H 
ENDBRANCH  24  33
ENDBRANCH  15  18
ENDBRANCH   1  15
BRANCH   4  37
ATOM     37  C   LIG d   1       7.101  -0.529  -5.551  0.00  0.00     0.004 C 
ATOM     38  H   LIG d   1       6.244   0.119  -5.727  0.00  0.00     0.043 H 
ATOM     39  H   LIG d   1       7.425  -0.970  -6.494  0.00  0.00     0.043 H 
BRANCH  37  40
ATOM     40  C   LIG d   1       6.709  -1.642  -4.576  0.00  0.00     0.002 C 
ATOM     41  H   LIG d   1       6.714  -2.599  -5.096  0.00  0.00     0.034 H 
ATOM     42  H   LIG d   1       7.421  -1.671  -3.751  0.00  0.00     0.034 H 
BRANCH  40  43
ATOM     43  C   LIG d   1       5.327  -1.372  -4.037  0.00  0.00     0.043 A 
ATOM     44  N   LIG d   1       4.559  -0.481  -4.631  0.00  0.00    -0.260 NA
ATOM     45  C   LIG d   1       3.341  -0.216  -4.198  0.00  0.00     0.028 A 
ATOM     46  C   LIG d   1       2.829  -0.863  -3.089  0.00  0.00    -0.044 A 
ATOM     47  H   LIG d   1       2.739   0.518  -4.713  0.00  0.00     0.083 H 
ATOM     48  C   LIG d   1       3.610  -1.803  -2.435  0.00  0.00    -0.059 A 
ATOM     49  H   LIG d   1       1.833  -0.639  -2.737  0.00  0.00     0.063 H 
ATOM     50  C   LIG d   1       4.882  -2.059  -2.923  0.00  0.00    -0.040 A 
ATOM     51  H   LIG d   1       3.236  -2.325  -1.566  0.00  0.00     0.062 H 
ATOM     52  H   LIG d   1       5.518  -2.785  -2.438  0.00  0.00     0.064 H 
ENDBRANCH  40  43
ENDBRANCH  37  40
ENDBRANCH   4  37
TORSDOF 6
ENDMDL
MODEL 6
REMARK VINA RESULT:      -6.5      8.480     13.060
REMARK  6 active torsions:
REMARK  status: ('A' for Active; 'I' for Inactive)
REMARK    1  A    between atoms: C_1  and  C_2 
REMARK    2  A    between atoms: C_6  and  C_13 
REMARK    3  A    between atoms: C_13  and  N_14 
REMARK    4  A    between atoms: N_17  and  C_20 
REMARK    5  A    between atoms: C_20  and  C_21 
REMARK    6  A    between atoms: C_21  and  C_22 
ROOT
ATOM      1  N   LIG d   1       9.624   3.339  -5.628  0.00  0.00    -0.296 N 
ATOM      2  C   LIG d   1       9.562   2.104  -6.420  0.00  0.00     0.012 C 
ATOM      3  C   LIG d   1       8.346   1.283  -5.985  0.00  0.00     0.012 C 
ATOM      4  N   LIG d   1       8.449   0.980  -4.551  0.00  0.00    -0.299 N 
ATOM      5  C   LIG d   1       8.511   2.217  -3.758  0.00  0.00     0.012 C 
ATOM      6  C   LIG d   1       9.728   3.037  -4.193  0.00  0.00     0.012 C 
ATOM      7  H   LIG d   1       9.473   2.353  -7.477  0.00  0.00     0.044 H 
ATOM      8  H   LIG d   1      10.469   1.521  -6.259  0.00  0.00     0.044 H 
ATOM      9  H   LIG d   1       7.436   1.854  -6.172  0.00  0.00     0.044 H 
ATOM     10  H   LIG d   1       8.314   0.352  -6.552  0.00  0.00     0.044 H 
ATOM     11  H   LIG d   1       7.604   2.798  -3.920  0.00  0.00     0.044 H 
ATOM     12  H   LIG d   1       8.601   1.966  -2.701  0.00  0.00     0.044 H 
ATOM     13  H   LIG d   1      10.637   2.466  -4.007  0.00  0.00     0.044 H 
ATOM     14  H   LIG d   1       9.759   3.968  -3.627  0.00  0.00     0.044 H 
ENDROOT
BRANCH   1  15
ATOM     15  C   LIG d   1      10.737   4.192  -6.068  0.00  0.00     0.025 C 
ATOM     16  H   LIG d   1      11.283   3.692  -6.867  0.00  0.00     0.048 H 
ATOM     17  H   LIG d   1      11.408   4.374  -5.229  0.00  0.00     0.048 H 
BRANCH  15  18
ATOM     18  C   LIG d   1      10.195   5.503  -6.573  0.00  0.00    -0.016 A 
ATOM     19  C   LIG d   1       9.899   5.698  -7.995  0.00  0.00     0.022 A 
ATOM     20  C   LIG d   1      10.112   4.675  -8.924  0.00  0.00    -0.051 A 
ATOM     21  C   LIG d   1       9.395   6.940  -8.423  0.00  0.00     0.140 A 
ATOM     22  C   LIG d   1       9.827   4.887 -10.244  0.00  0.00    -0.058 A 
ATOM     23  H   LIG d   1      10.499   3.721  -8.599  0.00  0.00     0.062 H 
ATOM     24  C   LIG d   1       9.329   6.110 -10.669  0.00  0.00    -0.047 A 
ATOM     25  H   LIG d   1       9.991   4.096 -10.960  0.00  0.00     0.062 H 
ATOM     26  C   LIG d   1       9.118   7.134  -9.770  0.00  0.00    -0.016 A 
ATOM     27  H   LIG d   1       8.733   8.083 -10.112  0.00  0.00     0.066 H 
ATOM     28  O   LIG d   1       9.191   7.927  -7.526  0.00  0.00    -0.422 OA
ATOM     29  C   LIG d   1       9.459   7.756  -6.222  0.00  0.00     0.338 A 
ATOM     30  C   LIG d   1       9.967   6.538  -5.724  0.00  0.00     0.028 A 
ATOM     31  O   LIG d   1       9.259   8.676  -5.449  0.00  0.00    -0.245 OA
ATOM     32  H   LIG d   1      10.174   6.427  -4.670  0.00  0.00     0.069 H 
BRANCH  24  33
ATOM     33  C   LIG d   1       9.022   6.323 -12.129  0.00  0.00    -0.040 C 
ATOM     34  H   LIG d   1       9.581   7.183 -12.496  0.00  0.00     0.028 H 
ATOM     35  H   LIG d   1       9.309   5.436 -12.694  0.00  0.00     0.028 H 
ATOM     36  H   LIG d   1       7.954   6.503 -12.253  0.00  0.00     0.028 H 
ENDBRANCH  24  33
ENDBRANCH  15  18
ENDBRANCH   1  15
BRANCH   4  37
ATOM     37  C   LIG d   1       7.336   0.129  -4.111  0.00  0.00     0.004 C 
ATOM     38  H   LIG d   1       6.811  -0.262  -4.981  0.00  0.00     0.043 H 
ATOM     39  H   LIG d   1       7.725  -0.700  -3.518  0.00  0.00     0.043 H 
BRANCH  37  40
ATOM     40  C   LIG d   1       6.369   0.954  -3.259  0.00  0.00     0.002 C 
ATOM     41  H   LIG d   1       6.761   1.042  -2.246  0.00  0.00     0.034 H 
ATOM     42  H   LIG d   1       6.258   1.947  -3.694  0.00  0.00     0.034 H 
BRANCH  40  43
ATOM     43  C   LIG d   1       5.026   0.270  -3.219  0.00  0.00     0.043 A 
ATOM     44  N   LIG d   1       4.030   0.750  -3.938  0.00  0.00    -0.260 NA
ATOM     45  C   LIG d   1       2.839   0.182  -3.938  0.00  0.00     0.028 A 
ATOM     46  C   LIG d   1       2.590  -0.940  -3.170  0.00  0.00    -0.044 A 
ATOM     47  H   LIG d   1       2.049   0.601  -4.543  0.00  0.00     0.083 H 
ATOM     48  C   LIG d   1       3.612  -1.470  -2.398  0.00  0.00    -0.059 A 
ATOM     49  H   LIG d   1       1.613  -1.398  -3.172  0.00  0.00     0.063 H 
ATOM     50  C   LIG d   1       4.852  -0.849  -2.428  0.00  0.00    -0.040 A 
ATOM     51  H   LIG d   1       3.448  -2.346  -1.788  0.00  0.00     0.062 H 
ATOM     52  H   LIG d   1       5.671  -1.235  -1.838  0.00  0.00     0.064 H 
ENDBRANCH  40  43
ENDBRANCH  37  40
ENDBRANCH   4  37
TORSDOF 6
ENDMDL
MODEL 7
REMARK VINA RESULT:      -6.5      4.842      7.330
REMARK  6 active torsions:
REMARK  status: ('A' for Active; 'I' for Inactive)
REMARK    1  A    between atoms: C_1  and  C_2 
REMARK    2  A    between atoms: C_6  and  C_13 
REMARK    3  A    between atoms: C_13  and  N_14 
REMARK    4  A    between atoms: N_17  and  C_20 
REMARK    5  A    between atoms: C_20  and  C_21 
REMARK    6  A    between atoms: C_21  and  C_22 
ROOT
ATOM      1  N   LIG d   1       4.661  -3.801  -7.004  0.00  0.00    -0.296 N 
ATOM      2  C   LIG d   1       5.807  -3.363  -7.813  0.00  0.00     0.012 C 
ATOM      3  C   LIG d   1       5.315  -2.442  -8.931  0.00  0.00     0.012 C 
ATOM      4  N   LIG d   1       4.335  -3.157  -9.758  0.00  0.00    -0.299 N 
ATOM      5  C   LIG d   1       3.188  -3.596  -8.949  0.00  0.00     0.012 C 
ATOM      6  C   LIG d   1       3.679  -4.518  -7.831  0.00  0.00     0.012 C 
ATOM      7  H   LIG d   1       6.513  -2.824  -7.181  0.00  0.00     0.044 H 
ATOM      8  H   LIG d   1       6.299  -4.233  -8.248  0.00  0.00     0.044 H 
ATOM      9  H   LIG d   1       4.848  -1.558  -8.495  0.00  0.00     0.044 H 
ATOM     10  H   LIG d   1       6.160  -2.138  -9.549  0.00  0.00     0.044 H 
ATOM     11  H   LIG d   1       2.697  -2.726  -8.513  0.00  0.00     0.044 H 
ATOM     12  H   LIG d   1       2.482  -4.135  -9.581  0.00  0.00     0.044 H 
ATOM     13  H   LIG d   1       4.148  -5.401  -8.266  0.00  0.00     0.044 H 
ATOM     14  H   LIG d   1       2.835  -4.821  -7.212  0.00  0.00     0.044 H 
ENDROOT
BRANCH   1  15
ATOM     15  C   LIG d   1       5.101  -4.629  -5.872  0.00  0.00     0.025 C 
ATOM     16  H   LIG d   1       5.596  -5.524  -6.248  0.00  0.00     0.048 H 
ATOM     17  H   LIG d   1       4.236  -4.917  -5.275  0.00  0.00     0.048 H 
BRANCH  15  18
ATOM     18  C   LIG d   1       6.062  -3.843  -5.019  0.00  0.00    -0.016 A 
ATOM     19  C   LIG d   1       5.597  -2.712  -4.209  0.00  0.00     0.022 A 
ATOM     20  C   LIG d   1       4.252  -2.331  -4.205  0.00  0.00    -0.051 A 
ATOM     21  C   LIG d   1       6.529  -2.005  -3.428  0.00  0.00     0.140 A 
ATOM     22  C   LIG d   1       3.850  -1.273  -3.439  0.00  0.00    -0.058 A 
ATOM     23  H   LIG d   1       3.534  -2.872  -4.803  0.00  0.00     0.062 H 
ATOM     24  C   LIG d   1       4.766  -0.574  -2.667  0.00  0.00    -0.047 A 
ATOM     25  H   LIG d   1       2.810  -0.980  -3.435  0.00  0.00     0.062 H 
ATOM     26  C   LIG d   1       6.098  -0.929  -2.662  0.00  0.00    -0.016 A 
ATOM     27  H   LIG d   1       6.804  -0.376  -2.061  0.00  0.00     0.066 H 
ATOM     28  O   LIG d   1       7.827  -2.373  -3.434  0.00  0.00    -0.422 OA
ATOM     29  C   LIG d   1       8.260  -3.407  -4.173  0.00  0.00     0.338 A 
ATOM     30  C   LIG d   1       7.381  -4.159  -4.980  0.00  0.00     0.028 A 
ATOM     31  O   LIG d   1       9.441  -3.702  -4.147  0.00  0.00    -0.245 OA
ATOM     32  H   LIG d   1       7.755  -4.986  -5.565  0.00  0.00     0.069 H 
BRANCH  24  33
ATOM     33  C   LIG d   1       4.301   0.591  -1.831  0.00  0.00    -0.040 C 
ATOM     34  H   LIG d   1       3.213   0.592  -1.781  0.00  0.00     0.028 H 
ATOM     35  H   LIG d   1       4.711   0.503  -0.825  0.00  0.00     0.028 H 
ATOM     36  H   LIG d   1       4.645   1.522  -2.283  0.00  0.00     0.028 H 
ENDBRANCH  24  33
ENDBRANCH  15  18
ENDBRANCH   1  15
BRANCH   4  37
ATOM     37  C   LIG d   1       3.894  -2.330 -10.889  0.00  0.00     0.004 C 
ATOM     38  H   LIG d   1       4.665  -1.598 -11.125  0.00  0.00     0.043 H 
ATOM     39  H   LIG d   1       3.718  -2.966 -11.757  0.00  0.00     0.043 H 
BRANCH  37  40
ATOM     40  C   LIG d   1       2.599  -1.606 -10.517  0.00  0.00     0.002 C 
ATOM     41  H   LIG d   1       1.940  -1.570 -11.384  0.00  0.00     0.034 H 
ATOM     42  H   LIG d   1       2.104  -2.139  -9.705  0.00  0.00     0.034 H 
BRANCH  40  43
ATOM     43  C   LIG d   1       2.919  -0.201 -10.072  0.00  0.00     0.043 A 
ATOM     44  N   LIG d   1       3.608   0.593 -10.868  0.00  0.00    -0.260 NA
ATOM     45  C   LIG d   1       3.907   1.831 -10.524  0.00  0.00     0.028 A 
ATOM     46  C   LIG d   1       3.513   2.339  -9.300  0.00  0.00    -0.044 A 
ATOM     47  H   LIG d   1       4.469   2.453 -11.204  0.00  0.00     0.083 H 
ATOM     48  C   LIG d   1       2.791   1.532  -8.434  0.00  0.00    -0.059 A 
ATOM     49  H   LIG d   1       3.764   3.352  -9.022  0.00  0.00     0.063 H 
ATOM     50  C   LIG d   1       2.491   0.238  -8.834  0.00  0.00    -0.040 A 
ATOM     51  H   LIG d   1       2.469   1.902  -7.472  0.00  0.00     0.062 H 
ATOM     52  H   LIG d   1       1.930  -0.418  -8.184  0.00  0.00     0.064 H 
ENDBRANCH  40  43
ENDBRANCH  37  40
ENDBRANCH   4  37
TORSDOF 6
ENDMDL
MODEL 8
REMARK VINA RESULT:      -6.4      7.548     12.034
REMARK  6 active torsions:
REMARK  status: ('A' for Active; 'I' for Inactive)
REMARK    1  A    between atoms: C_1  and  C_2 
REMARK    2  A    between atoms: C_6  and  C_13 
REMARK    3  A    between atoms: C_13  and  N_14 
REMARK    4  A    between atoms: N_17  and  C_20 
REMARK    5  A    between atoms: C_20  and  C_21 
REMARK    6  A    between atoms: C_21  and  C_22 
ROOT
ATOM      1  N   LIG d   1       9.212   1.765  -5.766  0.00  0.00    -0.296 N 
ATOM      2  C   LIG d   1       8.482   1.561  -7.025  0.00  0.00     0.012 C 
ATOM      3  C   LIG d   1       7.249   0.694  -6.761  0.00  0.00     0.012 C 
ATOM      4  N   LIG d   1       7.670  -0.591  -6.186  0.00  0.00    -0.299 N 
ATOM      5  C   LIG d   1       8.401  -0.387  -4.926  0.00  0.00     0.012 C 
ATOM      6  C   LIG d   1       9.634   0.479  -5.191  0.00  0.00     0.012 C 
ATOM      7  H   LIG d   1       8.169   2.525  -7.424  0.00  0.00     0.044 H 
ATOM      8  H   LIG d   1       9.129   1.061  -7.745  0.00  0.00     0.044 H 
ATOM      9  H   LIG d   1       6.587   1.206  -6.061  0.00  0.00     0.044 H 
ATOM     10  H   LIG d   1       6.721   0.517  -7.698  0.00  0.00     0.044 H 
ATOM     11  H   LIG d   1       7.753   0.113  -4.207  0.00  0.00     0.044 H 
ATOM     12  H   LIG d   1       8.714  -1.352  -4.528  0.00  0.00     0.044 H 
ATOM     13  H   LIG d   1      10.295  -0.032  -5.891  0.00  0.00     0.044 H 
ATOM     14  H   LIG d   1      10.162   0.656  -4.254  0.00  0.00     0.044 H 
ENDROOT
BRANCH   1  15
ATOM     15  C   LIG d   1      10.364   2.656  -5.964  0.00  0.00     0.025 C 
ATOM     16  H   LIG d   1      10.476   2.874  -7.026  0.00  0.00     0.048 H 
ATOM     17  H   LIG d   1      11.267   2.170  -5.596  0.00  0.00     0.048 H 
BRANCH  15  18
ATOM     18  C   LIG d   1      10.139   3.940  -5.208  0.00  0.00    -0.016 A 
ATOM     19  C   LIG d   1       9.922   5.204  -5.919  0.00  0.00     0.022 A 
ATOM     20  C   LIG d   1       9.918   5.255  -7.317  0.00  0.00    -0.051 A 
ATOM     21  C   LIG d   1       9.718   6.379  -5.173  0.00  0.00     0.140 A 
ATOM     22  C   LIG d   1       9.713   6.448  -7.950  0.00  0.00    -0.058 A 
ATOM     23  H   LIG d   1      10.074   4.355  -7.891  0.00  0.00     0.062 H 
ATOM     24  C   LIG d   1       9.510   7.609  -7.218  0.00  0.00    -0.047 A 
ATOM     25  H   LIG d   1       9.709   6.487  -9.029  0.00  0.00     0.062 H 
ATOM     26  C   LIG d   1       9.517   7.581  -5.840  0.00  0.00    -0.016 A 
ATOM     27  H   LIG d   1       9.362   8.491  -5.279  0.00  0.00     0.066 H 
ATOM     28  O   LIG d   1       9.723   6.328  -3.825  0.00  0.00    -0.422 OA
ATOM     29  C   LIG d   1       9.921   5.175  -3.167  0.00  0.00     0.338 A 
ATOM     30  C   LIG d   1      10.134   3.959  -3.851  0.00  0.00     0.028 A 
ATOM     31  O   LIG d   1       9.918   5.178  -1.949  0.00  0.00    -0.245 OA
ATOM     32  H   LIG d   1      10.290   3.046  -3.297  0.00  0.00     0.069 H 
BRANCH  24  33
ATOM     33  C   LIG d   1       9.287   8.915  -7.937  0.00  0.00    -0.040 C 
ATOM     34  H   LIG d   1      10.135   9.576  -7.761  0.00  0.00     0.028 H 
ATOM     35  H   LIG d   1       9.187   8.728  -9.006  0.00  0.00     0.028 H 
ATOM     36  H   LIG d   1       8.377   9.384  -7.563  0.00  0.00     0.028 H 
ENDBRANCH  24  33
ENDBRANCH  15  18
ENDBRANCH   1  15
BRANCH   4  37
ATOM     37  C   LIG d   1       6.519  -1.483  -5.987  0.00  0.00     0.004 C 
ATOM     38  H   LIG d   1       6.420  -2.145  -6.846  0.00  0.00     0.043 H 
ATOM     39  H   LIG d   1       6.671  -2.076  -5.086  0.00  0.00     0.043 H 
BRANCH  37  40
ATOM     40  C   LIG d   1       5.247  -0.646  -5.837  0.00  0.00     0.002 C 
ATOM     41  H   LIG d   1       5.410   0.343  -6.265  0.00  0.00     0.034 H 
ATOM     42  H   LIG d   1       4.425  -1.137  -6.358  0.00  0.00     0.034 H 
BRANCH  40  43
ATOM     43  C   LIG d   1       4.904  -0.510  -4.375  0.00  0.00     0.043 A 
ATOM     44  N   LIG d   1       5.015   0.665  -3.788  0.00  0.00    -0.260 NA
ATOM     45  C   LIG d   1       4.721   0.833  -2.512  0.00  0.00     0.028 A 
ATOM     46  C   LIG d   1       4.293  -0.231  -1.739  0.00  0.00    -0.044 A 
ATOM     47  H   LIG d   1       4.820   1.811  -2.066  0.00  0.00     0.083 H 
ATOM     48  C   LIG d   1       4.170  -1.482  -2.322  0.00  0.00    -0.059 A 
ATOM     49  H   LIG d   1       4.058  -0.088  -0.696  0.00  0.00     0.063 H 
ATOM     50  C   LIG d   1       4.482  -1.618  -3.666  0.00  0.00    -0.040 A 
ATOM     51  H   LIG d   1       3.837  -2.332  -1.744  0.00  0.00     0.062 H 
ATOM     52  H   LIG d   1       4.397  -2.580  -4.153  0.00  0.00     0.064 H 
ENDBRANCH  40  43
ENDBRANCH  37  40
ENDBRANCH   4  37
TORSDOF 6
ENDMDL
MODEL 9
REMARK VINA RESULT:      -6.2      8.924     12.907
REMARK  6 active torsions:
REMARK  status: ('A' for Active; 'I' for Inactive)
REMARK    1  A    between atoms: C_1  and  C_2 
REMARK    2  A    between atoms: C_6  and  C_13 
REMARK    3  A    between atoms: C_13  and  N_14 
REMARK    4  A    between atoms: N_17  and  C_20 
REMARK    5  A    between atoms: C_20  and  C_21 
REMARK    6  A    between atoms: C_21  and  C_22 
ROOT
ATOM      1  N   LIG d   1       9.254   2.724  -4.800  0.00  0.00    -0.296 N 
ATOM      2  C   LIG d   1       9.559   2.060  -6.074  0.00  0.00     0.012 C 
ATOM      3  C   LIG d   1       8.274   1.469  -6.658  0.00  0.00     0.012 C 
ATOM      4  N   LIG d   1       7.692   0.520  -5.699  0.00  0.00    -0.299 N 
ATOM      5  C   LIG d   1       7.388   1.185  -4.424  0.00  0.00     0.012 C 
ATOM      6  C   LIG d   1       8.673   1.775  -3.839  0.00  0.00     0.012 C 
ATOM      7  H   LIG d   1       9.976   2.785  -6.772  0.00  0.00     0.044 H 
ATOM      8  H   LIG d   1      10.281   1.261  -5.905  0.00  0.00     0.044 H 
ATOM      9  H   LIG d   1       7.562   2.272  -6.854  0.00  0.00     0.044 H 
ATOM     10  H   LIG d   1       8.502   0.952  -7.590  0.00  0.00     0.044 H 
ATOM     11  H   LIG d   1       6.666   1.984  -4.594  0.00  0.00     0.044 H 
ATOM     12  H   LIG d   1       6.971   0.459  -3.726  0.00  0.00     0.044 H 
ATOM     13  H   LIG d   1       9.386   0.973  -3.644  0.00  0.00     0.044 H 
ATOM     14  H   LIG d   1       8.445   2.293  -2.909  0.00  0.00     0.044 H 
ENDROOT
BRANCH   1  15
ATOM     15  C   LIG d   1      10.452   3.370  -4.242  0.00  0.00     0.025 C 
ATOM     16  H   LIG d   1      11.243   3.373  -4.991  0.00  0.00     0.048 H 
ATOM     17  H   LIG d   1      10.785   2.819  -3.363  0.00  0.00     0.048 H 
BRANCH  15  18
ATOM     18  C   LIG d   1      10.121   4.787  -3.853  0.00  0.00    -0.016 A 
ATOM     19  C   LIG d   1       9.915   5.819  -4.874  0.00  0.00     0.022 A 
ATOM     20  C   LIG d   1      10.020   5.520  -6.236  0.00  0.00    -0.051 A 
ATOM     21  C   LIG d   1       9.609   7.130  -4.465  0.00  0.00     0.140 A 
ATOM     22  C   LIG d   1       9.822   6.504  -7.163  0.00  0.00    -0.058 A 
ATOM     23  H   LIG d   1      10.254   4.515  -6.552  0.00  0.00     0.062 H 
ATOM     24  C   LIG d   1       9.520   7.798  -6.764  0.00  0.00    -0.047 A 
ATOM     25  H   LIG d   1       9.902   6.272  -8.215  0.00  0.00     0.062 H 
ATOM     26  C   LIG d   1       9.418   8.115  -5.426  0.00  0.00    -0.016 A 
ATOM     27  H   LIG d   1       9.186   9.126  -5.126  0.00  0.00     0.066 H 
ATOM     28  O   LIG d   1       9.510   7.418  -3.151  0.00  0.00    -0.422 OA
ATOM     29  C   LIG d   1       9.697   6.479  -2.211  0.00  0.00     0.338 A 
ATOM     30  C   LIG d   1      10.007   5.144  -2.549  0.00  0.00     0.028 A 
ATOM     31  O   LIG d   1       9.597   6.786  -1.037  0.00  0.00    -0.245 OA
ATOM     32  H   LIG d   1      10.152   4.408  -1.772  0.00  0.00     0.069 H 
BRANCH  24  33
ATOM     33  C   LIG d   1       9.307   8.868  -7.803  0.00  0.00    -0.040 C 
ATOM     34  H   LIG d   1       8.652   8.489  -8.587  0.00  0.00     0.028 H 
ATOM     35  H   LIG d   1       8.850   9.741  -7.338  0.00  0.00     0.028 H 
ATOM     36  H   LIG d   1      10.267   9.148  -8.237  0.00  0.00     0.028 H 
ENDBRANCH  24  33
ENDBRANCH  15  18
ENDBRANCH   1  15
BRANCH   4  37
ATOM     37  C   LIG d   1       6.495  -0.125  -6.255  0.00  0.00     0.004 C 
ATOM     38  H   LIG d   1       6.520  -1.190  -6.030  0.00  0.00     0.043 H 
ATOM     39  H   LIG d   1       5.605   0.321  -5.812  0.00  0.00     0.043 H 
BRANCH  37  40
ATOM     40  C   LIG d   1       6.466   0.077  -7.771  0.00  0.00     0.002 C 
ATOM     41  H   LIG d   1       7.335   0.658  -8.078  0.00  0.00     0.034 H 
ATOM     42  H   LIG d   1       6.483  -0.893  -8.268  0.00  0.00     0.034 H 
BRANCH  40  43
ATOM     43  C   LIG d   1       5.209   0.815  -8.155  0.00  0.00     0.043 A 
ATOM     44  N   LIG d   1       4.064   0.490  -7.588  0.00  0.00    -0.260 NA
ATOM     45  C   LIG d   1       2.940   1.112  -7.888  0.00  0.00     0.028 A 
ATOM     46  C   LIG d   1       2.922   2.128  -8.825  0.00  0.00    -0.044 A 
ATOM     47  H   LIG d   1       2.022   0.820  -7.400  0.00  0.00     0.083 H 
ATOM     48  C   LIG d   1       4.106   2.494  -9.446  0.00  0.00    -0.059 A 
ATOM     49  H   LIG d   1       1.998   2.630  -9.069  0.00  0.00     0.063 H 
ATOM     50  C   LIG d   1       5.268   1.822  -9.100  0.00  0.00    -0.040 A 
ATOM     51  H   LIG d   1       4.124   3.286 -10.181  0.00  0.00     0.062 H 
ATOM     52  H   LIG d   1       6.209   2.082  -9.564  0.00  0.00     0.064 H 
ENDBRANCH  40  43
ENDBRANCH  37  40
ENDBRANCH   4  37
TORSDOF 6
ENDMDL
