MODEL 1
REMARK VINA RESULT:      -6.5      0.000      0.000
REMARK  8 active torsions:
REMARK  status: ('A' for Active; 'I' for Inactive)
REMARK    1  A    between atoms: C_1  and  C_2 
REMARK    2  A    between atoms: C_7  and  C_8 
REMARK    3  A    between atoms: C_8  and  O_9 
REMARK    4  A    between atoms: O_9  and  C_10 
REMARK    5  A    between atoms: C_16  and  C_20 
REMARK    6  A    between atoms: C_17  and  C_19 
REMARK    7  A    between atoms: C_20  and  O_22 
REMARK    8  A    between atoms: O_22  and  C_23 
ROOT
ATOM      1  C   LIG d   1       6.016  -1.735  -5.886  0.00  0.00     0.122 A 
ATOM      2  C   LIG d   1       5.620  -3.045  -6.134  0.00  0.00    -0.016 A 
ATOM      3  C   LIG d   1       4.625  -3.315  -7.048  0.00  0.00    -0.015 A 
ATOM      4  C   LIG d   1       4.005  -2.276  -7.730  0.00  0.00     0.136 A 
ATOM      5  C   LIG d   1       4.400  -0.955  -7.476  0.00  0.00     0.038 A 
ATOM      6  C   LIG d   1       5.409  -0.688  -6.557  0.00  0.00    -0.008 A 
ATOM      7  C   LIG d   1       3.552  -0.116  -8.347  0.00  0.00     0.107 A 
ATOM      8  C   LIG d   1       2.746  -0.982  -9.021  0.00  0.00     0.117 A 
ATOM      9  O   LIG d   1       3.025  -2.238  -8.658  0.00  0.00    -0.459 OA
ATOM     10  H   LIG d   1       6.098  -3.858  -5.606  0.00  0.00     0.066 H 
ATOM     11  H   LIG d   1       4.325  -4.336  -7.232  0.00  0.00     0.066 H 
ATOM     12  H   LIG d   1       5.715   0.330  -6.365  0.00  0.00     0.066 H 
ENDROOT
BRANCH   1  13
ATOM     13  O   LIG d   1       6.999  -1.482  -4.982  0.00  0.00    -0.487 OA
BRANCH  13  14
ATOM     14  C   LIG d   1       6.691  -1.717  -3.606  0.00  0.00     0.115 C 
ATOM     15  H   LIG d   1       6.287  -2.722  -3.491  0.00  0.00     0.075 H 
ATOM     16  H   LIG d   1       7.597  -1.618  -3.009  0.00  0.00     0.075 H 
BRANCH  14  17
ATOM     17  C   LIG d   1       5.671  -0.710  -3.140  0.00  0.00    -0.007 A 
ATOM     18  C   LIG d   1       4.409  -1.127  -2.765  0.00  0.00    -0.044 A 
ATOM     19  C   LIG d   1       3.474  -0.203  -2.337  0.00  0.00    -0.059 A 
ATOM     20  C   LIG d   1       3.801   1.138  -2.284  0.00  0.00    -0.061 A 
ATOM     21  H   LIG d   1       2.487  -0.530  -2.044  0.00  0.00     0.062 H 
ATOM     22  C   LIG d   1       5.065   1.557  -2.659  0.00  0.00    -0.061 A 
ATOM     23  H   LIG d   1       3.071   1.861  -1.950  0.00  0.00     0.062 H 
ATOM     24  C   LIG d   1       6.002   0.632  -3.083  0.00  0.00    -0.055 A 
ATOM     25  H   LIG d   1       5.321   2.605  -2.618  0.00  0.00     0.062 H 
ATOM     26  H   LIG d   1       6.990   0.958  -3.371  0.00  0.00     0.062 H 
BRANCH  18  27
ATOM     27  C   LIG d   1       4.051  -2.590  -2.822  0.00  0.00    -0.039 C 
ATOM     28  H   LIG d   1       3.017  -2.698  -3.148  0.00  0.00     0.028 H 
ATOM     29  H   LIG d   1       4.710  -3.098  -3.527  0.00  0.00     0.028 H 
ATOM     30  H   LIG d   1       4.168  -3.031  -1.832  0.00  0.00     0.028 H 
ENDBRANCH  18  27
ENDBRANCH  14  17
ENDBRANCH  13  14
ENDBRANCH   1  13
BRANCH   7  31
ATOM     31  C   LIG d   1       3.574   1.348  -8.462  0.00  0.00     0.343 C 
ATOM     32  O   LIG d   1       2.903   2.028  -7.710  0.00  0.00    -0.245 OA
BRANCH  31  33
ATOM     33  O   LIG d   1       4.340   1.939  -9.401  0.00  0.00    -0.464 OA
BRANCH  33  34
ATOM     34  C   LIG d   1       5.755   2.078  -9.106  0.00  0.00     0.082 C 
ATOM     35  H   LIG d   1       6.326   1.385  -9.724  0.00  0.00     0.066 H 
ATOM     36  H   LIG d   1       6.072   3.099  -9.319  0.00  0.00     0.066 H 
ATOM     37  H   LIG d   1       5.930   1.856  -8.053  0.00  0.00     0.066 H 
ENDBRANCH  33  34
ENDBRANCH  31  33
ENDBRANCH   7  31
BRANCH   8  38
ATOM     38  C   LIG d   1       1.704  -0.584 -10.034  0.00  0.00    -0.005 C 
ATOM     39  H   LIG d   1       2.193  -0.273 -10.956  0.00  0.00     0.031 H 
ATOM     40  H   LIG d   1       1.051  -1.433 -10.237  0.00  0.00     0.031 H 
ATOM     41  H   LIG d   1       1.112   0.243  -9.641  0.00  0.00     0.031 H 
ENDBRANCH   8  38
TORSDOF 8
ENDMDL
MODEL 2
REMARK VINA RESULT:      -6.3      2.087      4.029
REMARK  8 active torsions:
REMARK  status: ('A' for Active; 'I' for Inactive)
REMARK    1  A    between atoms: C_1  and  C_2 
REMARK    2  A    between atoms: C_7  and  C_8 
REMARK    3  A    between atoms: C_8  and  O_9 
REMARK    4  A    between atoms: O_9  and  C_10 
REMARK    5  A    between atoms: C_16  and  C_20 
REMARK    6  A    between atoms: C_17  and  C_19 
REMARK    7  A    between atoms: C_20  and  O_22 
REMARK    8  A    between atoms: O_22  and  C_23 
ROOT
ATOM      1  C   LIG d   1       3.043   0.883  -7.657  0.00  0.00     0.122 A 
ATOM      2  C   LIG d   1       3.450   1.959  -8.440  0.00  0.00    -0.016 A 
ATOM      3  C   LIG d   1       3.532   1.837  -9.809  0.00  0.00    -0.015 A 
ATOM      4  C   LIG d   1       3.208   0.633 -10.422  0.00  0.00     0.136 A 
ATOM      5  C   LIG d   1       2.804  -0.453  -9.633  0.00  0.00     0.038 A 
ATOM      6  C   LIG d   1       2.717  -0.323  -8.251  0.00  0.00    -0.008 A 
ATOM      7  C   LIG d   1       2.548  -1.555 -10.582  0.00  0.00     0.107 A 
ATOM      8  C   LIG d   1       2.818  -1.049 -11.817  0.00  0.00     0.117 A 
ATOM      9  O   LIG d   1       3.195   0.229 -11.710  0.00  0.00    -0.459 OA
ATOM     10  H   LIG d   1       3.703   2.898  -7.969  0.00  0.00     0.066 H 
ATOM     11  H   LIG d   1       3.849   2.679 -10.407  0.00  0.00     0.066 H 
ATOM     12  H   LIG d   1       2.401  -1.159  -7.645  0.00  0.00     0.066 H 
ENDROOT
BRANCH   1  13
ATOM     13  O   LIG d   1       2.966   1.017  -6.306  0.00  0.00    -0.487 OA
BRANCH  13  14
ATOM     14  C   LIG d   1       2.848  -0.185  -5.541  0.00  0.00     0.115 C 
ATOM     15  H   LIG d   1       1.796  -0.453  -5.448  0.00  0.00     0.075 H 
ATOM     16  H   LIG d   1       3.386  -0.989  -6.042  0.00  0.00     0.075 H 
BRANCH  14  17
ATOM     17  C   LIG d   1       3.433   0.033  -4.170  0.00  0.00    -0.007 A 
ATOM     18  C   LIG d   1       4.149  -0.976  -3.555  0.00  0.00    -0.044 A 
ATOM     19  C   LIG d   1       4.687  -0.776  -2.298  0.00  0.00    -0.059 A 
ATOM     20  C   LIG d   1       4.509   0.434  -1.654  0.00  0.00    -0.061 A 
ATOM     21  H   LIG d   1       5.247  -1.565  -1.818  0.00  0.00     0.062 H 
ATOM     22  C   LIG d   1       3.793   1.445  -2.269  0.00  0.00    -0.061 A 
ATOM     23  H   LIG d   1       4.929   0.591  -0.672  0.00  0.00     0.062 H 
ATOM     24  C   LIG d   1       3.259   1.247  -3.528  0.00  0.00    -0.055 A 
ATOM     25  H   LIG d   1       3.654   2.391  -1.766  0.00  0.00     0.062 H 
ATOM     26  H   LIG d   1       2.704   2.037  -4.011  0.00  0.00     0.062 H 
BRANCH  18  27
ATOM     27  C   LIG d   1       4.344  -2.296  -4.257  0.00  0.00    -0.039 C 
ATOM     28  H   LIG d   1       5.058  -2.172  -5.071  0.00  0.00     0.028 H 
ATOM     29  H   LIG d   1       4.725  -3.031  -3.548  0.00  0.00     0.028 H 
ATOM     30  H   LIG d   1       3.390  -2.638  -4.658  0.00  0.00     0.028 H 
ENDBRANCH  18  27
ENDBRANCH  14  17
ENDBRANCH  13  14
ENDBRANCH   1  13
BRANCH   7  31
ATOM     31  C   LIG d   1       2.096  -2.915 -10.260  0.00  0.00     0.343 C 
ATOM     32  O   LIG d   1       0.908  -3.166 -10.213  0.00  0.00    -0.245 OA
BRANCH  31  33
ATOM     33  O   LIG d   1       2.999  -3.886 -10.016  0.00  0.00    -0.464 OA
BRANCH  33  34
ATOM     34  C   LIG d   1       3.505  -3.990  -8.659  0.00  0.00     0.082 C 
ATOM     35  H   LIG d   1       4.099  -3.107  -8.423  0.00  0.00     0.066 H 
ATOM     36  H   LIG d   1       2.668  -4.061  -7.964  0.00  0.00     0.066 H 
ATOM     37  H   LIG d   1       4.126  -4.882  -8.570  0.00  0.00     0.066 H 
ENDBRANCH  33  34
ENDBRANCH  31  33
ENDBRANCH   7  31
BRANCH   8  38
ATOM     38  C   LIG d   1       2.699  -1.813 -13.111  0.00  0.00    -0.005 C 
ATOM     39  H   LIG d   1       3.695  -2.020 -13.502  0.00  0.00     0.031 H 
ATOM     40  H   LIG d   1       2.175  -2.751 -12.932  0.00  0.00     0.031 H 
ATOM     41  H   LIG d   1       2.142  -1.218 -13.833  0.00  0.00     0.031 H 
ENDBRANCH   8  38
TORSDOF 8
ENDMDL
MODEL 3
REMARK VINA RESULT:      -6.0      1.855      3.777
REMARK  8 active torsions:
REMARK  status: ('A' for Active; 'I' for Inactive)
REMARK    1  A    between atoms: C_1  and  C_2 
REMARK    2  A    between atoms: C_7  and  C_8 
REMARK    3  A    between atoms: C_8  and  O_9 
REMARK    4  A    between atoms: O_9  and  C_10 
REMARK    5  A    between atoms: C_16  and  C_20 
REMARK    6  A    between atoms: C_17  and  C_19 
REMARK    7  A    between atoms: C_20  and  O_22 
REMARK    8  A    between atoms: O_22  and  C_23 
ROOT
ATOM      1  C   LIG d   1       4.318  -0.195  -7.291  0.00  0.00     0.122 A 
ATOM      2  C   LIG d   1       3.406   0.701  -7.838  0.00  0.00    -0.016 A 
ATOM      3  C   LIG d   1       2.462   0.274  -8.747  0.00  0.00    -0.015 A 
ATOM      4  C   LIG d   1       2.416  -1.061  -9.126  0.00  0.00     0.136 A 
ATOM      5  C   LIG d   1       3.339  -1.964  -8.579  0.00  0.00     0.038 A 
ATOM      6  C   LIG d   1       4.285  -1.528  -7.658  0.00  0.00    -0.008 A 
ATOM      7  C   LIG d   1       3.021  -3.271  -9.189  0.00  0.00     0.107 A 
ATOM      8  C   LIG d   1       1.971  -3.041 -10.025  0.00  0.00     0.117 A 
ATOM      9  O   LIG d   1       1.623  -1.751  -9.974  0.00  0.00    -0.459 OA
ATOM     10  H   LIG d   1       3.437   1.742  -7.548  0.00  0.00     0.066 H 
ATOM     11  H   LIG d   1       1.759   0.979  -9.166  0.00  0.00     0.066 H 
ATOM     12  H   LIG d   1       4.992  -2.226  -7.234  0.00  0.00     0.066 H 
ENDROOT
BRANCH   1  13
ATOM     13  O   LIG d   1       5.243   0.240  -6.396  0.00  0.00    -0.487 OA
BRANCH  13  14
ATOM     14  C   LIG d   1       5.804  -0.737  -5.515  0.00  0.00     0.115 C 
ATOM     15  H   LIG d   1       5.495  -1.732  -5.833  0.00  0.00     0.075 H 
ATOM     16  H   LIG d   1       6.891  -0.667  -5.541  0.00  0.00     0.075 H 
BRANCH  14  17
ATOM     17  C   LIG d   1       5.319  -0.485  -4.111  0.00  0.00    -0.007 A 
ATOM     18  C   LIG d   1       4.773  -1.518  -3.373  0.00  0.00    -0.044 A 
ATOM     19  C   LIG d   1       4.329  -1.288  -2.084  0.00  0.00    -0.059 A 
ATOM     20  C   LIG d   1       4.429  -0.024  -1.534  0.00  0.00    -0.061 A 
ATOM     21  H   LIG d   1       3.903  -2.095  -1.507  0.00  0.00     0.062 H 
ATOM     22  C   LIG d   1       4.975   1.010  -2.272  0.00  0.00    -0.061 A 
ATOM     23  H   LIG d   1       4.082   0.156  -0.527  0.00  0.00     0.062 H 
ATOM     24  C   LIG d   1       5.424   0.779  -3.559  0.00  0.00    -0.055 A 
ATOM     25  H   LIG d   1       5.054   1.998  -1.842  0.00  0.00     0.062 H 
ATOM     26  H   LIG d   1       5.855   1.585  -4.134  0.00  0.00     0.062 H 
BRANCH  18  27
ATOM     27  C   LIG d   1       4.664  -2.897  -3.972  0.00  0.00    -0.039 C 
ATOM     28  H   LIG d   1       4.461  -2.813  -5.040  0.00  0.00     0.028 H 
ATOM     29  H   LIG d   1       5.600  -3.434  -3.821  0.00  0.00     0.028 H 
ATOM     30  H   LIG d   1       3.851  -3.439  -3.489  0.00  0.00     0.028 H 
ENDBRANCH  18  27
ENDBRANCH  14  17
ENDBRANCH  13  14
ENDBRANCH   1  13
BRANCH   7  31
ATOM     31  C   LIG d   1       3.696  -4.552  -8.944  0.00  0.00     0.343 C 
ATOM     32  O   LIG d   1       4.654  -4.874  -9.620  0.00  0.00    -0.245 OA
BRANCH  31  33
ATOM     33  O   LIG d   1       3.255  -5.371  -7.968  0.00  0.00    -0.464 OA
BRANCH  33  34
ATOM     34  C   LIG d   1       3.965  -5.332  -6.702  0.00  0.00     0.082 C 
ATOM     35  H   LIG d   1       3.702  -4.420  -6.166  0.00  0.00     0.066 H 
ATOM     36  H   LIG d   1       3.688  -6.199  -6.103  0.00  0.00     0.066 H 
ATOM     37  H   LIG d   1       5.039  -5.348  -6.888  0.00  0.00     0.066 H 
ENDBRANCH  33  34
ENDBRANCH  31  33
ENDBRANCH   7  31
BRANCH   8  38
ATOM     38  C   LIG d   1       1.295  -4.088 -10.873  0.00  0.00    -0.005 C 
ATOM     39  H   LIG d   1       1.970  -4.930 -11.017  0.00  0.00     0.031 H 
ATOM     40  H   LIG d   1       0.388  -4.429 -10.375  0.00  0.00     0.031 H 
ATOM     41  H   LIG d   1       1.037  -3.660 -11.842  0.00  0.00     0.031 H 
ENDBRANCH   8  38
TORSDOF 8
ENDMDL
MODEL 4
REMARK VINA RESULT:      -6.0      2.311      4.321
REMARK  8 active torsions:
REMARK  status: ('A' for Active; 'I' for Inactive)
REMARK    1  A    between atoms: C_1  and  C_2 
REMARK    2  A    between atoms: C_7  and  C_8 
REMARK    3  A    between atoms: C_8  and  O_9 
REMARK    4  A    between atoms: O_9  and  C_10 
REMARK    5  A    between atoms: C_16  and  C_20 
REMARK    6  A    between atoms: C_17  and  C_19 
REMARK    7  A    between atoms: C_20  and  O_22 
REMARK    8  A    between atoms: O_22  and  C_23 
ROOT
ATOM      1  C   LIG d   1       2.766   0.231  -7.427  0.00  0.00     0.122 A 
ATOM      2  C   LIG d   1       2.895   1.578  -7.752  0.00  0.00    -0.016 A 
ATOM      3  C   LIG d   1       3.259   1.960  -9.025  0.00  0.00    -0.015 A 
ATOM      4  C   LIG d   1       3.502   0.999  -9.998  0.00  0.00     0.136 A 
ATOM      5  C   LIG d   1       3.378  -0.359  -9.669  0.00  0.00     0.038 A 
ATOM      6  C   LIG d   1       3.005  -0.738  -8.385  0.00  0.00    -0.008 A 
ATOM      7  C   LIG d   1       3.706  -1.095 -10.906  0.00  0.00     0.107 A 
ATOM      8  C   LIG d   1       3.994  -0.143 -11.837  0.00  0.00     0.117 A 
ATOM      9  O   LIG d   1       3.864   1.073 -11.296  0.00  0.00    -0.459 OA
ATOM     10  H   LIG d   1       2.708   2.330  -7.000  0.00  0.00     0.066 H 
ATOM     11  H   LIG d   1       3.356   3.009  -9.266  0.00  0.00     0.066 H 
ATOM     12  H   LIG d   1       2.906  -1.784  -8.134  0.00  0.00     0.066 H 
ENDROOT
BRANCH   1  13
ATOM     13  O   LIG d   1       2.407  -0.132  -6.168  0.00  0.00    -0.487 OA
BRANCH  13  14
ATOM     14  C   LIG d   1       2.851   0.707  -5.099  0.00  0.00     0.115 C 
ATOM     15  H   LIG d   1       3.619   1.388  -5.467  0.00  0.00     0.075 H 
ATOM     16  H   LIG d   1       2.009   1.282  -4.715  0.00  0.00     0.075 H 
BRANCH  14  17
ATOM     17  C   LIG d   1       3.422  -0.144  -3.995  0.00  0.00    -0.007 A 
ATOM     18  C   LIG d   1       3.803   0.437  -2.801  0.00  0.00    -0.044 A 
ATOM     19  C   LIG d   1       4.326  -0.345  -1.787  0.00  0.00    -0.059 A 
ATOM     20  C   LIG d   1       4.468  -1.708  -1.968  0.00  0.00    -0.061 A 
ATOM     21  H   LIG d   1       4.624   0.109  -0.854  0.00  0.00     0.062 H 
ATOM     22  C   LIG d   1       4.086  -2.290  -3.164  0.00  0.00    -0.061 A 
ATOM     23  H   LIG d   1       4.876  -2.319  -1.177  0.00  0.00     0.062 H 
ATOM     24  C   LIG d   1       3.558  -1.509  -4.175  0.00  0.00    -0.055 A 
ATOM     25  H   LIG d   1       4.197  -3.355  -3.306  0.00  0.00     0.062 H 
ATOM     26  H   LIG d   1       3.256  -1.964  -5.107  0.00  0.00     0.062 H 
BRANCH  18  27
ATOM     27  C   LIG d   1       3.649   1.922  -2.602  0.00  0.00    -0.039 C 
ATOM     28  H   LIG d   1       2.643   2.138  -2.242  0.00  0.00     0.028 H 
ATOM     29  H   LIG d   1       4.379   2.269  -1.871  0.00  0.00     0.028 H 
ATOM     30  H   LIG d   1       3.813   2.434  -3.550  0.00  0.00     0.028 H 
ENDBRANCH  18  27
ENDBRANCH  14  17
ENDBRANCH  13  14
ENDBRANCH   1  13
BRANCH   7  31
ATOM     31  C   LIG d   1       3.719  -2.551 -11.094  0.00  0.00     0.343 C 
ATOM     32  O   LIG d   1       4.749  -3.177 -10.930  0.00  0.00    -0.245 OA
BRANCH  31  33
ATOM     33  O   LIG d   1       2.590  -3.196 -11.449  0.00  0.00    -0.464 OA
BRANCH  33  34
ATOM     34  C   LIG d   1       1.788  -3.760 -10.378  0.00  0.00     0.082 C 
ATOM     35  H   LIG d   1       1.472  -4.767 -10.652  0.00  0.00     0.066 H 
ATOM     36  H   LIG d   1       2.380  -3.801  -9.464  0.00  0.00     0.066 H 
ATOM     37  H   LIG d   1       0.910  -3.135 -10.214  0.00  0.00     0.066 H 
ENDBRANCH  33  34
ENDBRANCH  31  33
ENDBRANCH   7  31
BRANCH   8  38
ATOM     38  C   LIG d   1       4.388  -0.419 -13.265  0.00  0.00    -0.005 C 
ATOM     39  H   LIG d   1       4.174  -1.459 -13.506  0.00  0.00     0.031 H 
ATOM     40  H   LIG d   1       3.824   0.233 -13.931  0.00  0.00     0.031 H 
ATOM     41  H   LIG d   1       5.454  -0.230 -13.390  0.00  0.00     0.031 H 
ENDBRANCH   8  38
TORSDOF 8
ENDMDL
MODEL 5
REMARK VINA RESULT:      -6.0      5.507      7.814
REMARK  8 active torsions:
REMARK  status: ('A' for Active; 'I' for Inactive)
REMARK    1  A    between atoms: C_1  and  C_2 
REMARK    2  A    between atoms: C_7  and  C_8 
REMARK    3  A    between atoms: C_8  and  O_9 
REMARK    4  A    between atoms: O_9  and  C_10 
REMARK    5  A    between atoms: C_16  and  C_20 
REMARK    6  A    between atoms: C_17  and  C_19 
REMARK    7  A    between atoms: C_20  and  O_22 
REMARK    8  A    between atoms: O_22  and  C_23 
ROOT
ATOM      1  C   LIG d   1       8.939   2.373  -4.292  0.00  0.00     0.122 A 
ATOM      2  C   LIG d   1       9.096   2.525  -5.666  0.00  0.00    -0.016 A 
ATOM      3  C   LIG d   1       9.507   3.729  -6.196  0.00  0.00    -0.015 A 
ATOM      4  C   LIG d   1       9.767   4.806  -5.357  0.00  0.00     0.136 A 
ATOM      5  C   LIG d   1       9.603   4.654  -3.973  0.00  0.00     0.038 A 
ATOM      6  C   LIG d   1       9.195   3.435  -3.443  0.00  0.00    -0.008 A 
ATOM      7  C   LIG d   1       9.950   5.966  -3.389  0.00  0.00     0.107 A 
ATOM      8  C   LIG d   1      10.276   6.764  -4.443  0.00  0.00     0.117 A 
ATOM      9  O   LIG d   1      10.172   6.074  -5.584  0.00  0.00    -0.459 OA
ATOM     10  H   LIG d   1       8.895   1.692  -6.324  0.00  0.00     0.066 H 
ATOM     11  H   LIG d   1       9.625   3.836  -7.264  0.00  0.00     0.066 H 
ATOM     12  H   LIG d   1       9.073   3.319  -2.377  0.00  0.00     0.066 H 
ENDROOT
BRANCH   1  13
ATOM     13  O   LIG d   1       8.534   1.180  -3.784  0.00  0.00    -0.487 OA
BRANCH  13  14
ATOM     14  C   LIG d   1       7.485   0.501  -4.478  0.00  0.00     0.115 C 
ATOM     15  H   LIG d   1       7.107   1.138  -5.277  0.00  0.00     0.075 H 
ATOM     16  H   LIG d   1       7.870  -0.426  -4.902  0.00  0.00     0.075 H 
BRANCH  14  17
ATOM     17  C   LIG d   1       6.368   0.186  -3.517  0.00  0.00    -0.007 A 
ATOM     18  C   LIG d   1       6.050  -1.128  -3.233  0.00  0.00    -0.044 A 
ATOM     19  C   LIG d   1       5.026  -1.417  -2.350  0.00  0.00    -0.059 A 
ATOM     20  C   LIG d   1       4.319  -0.391  -1.752  0.00  0.00    -0.061 A 
ATOM     21  H   LIG d   1       4.777  -2.444  -2.129  0.00  0.00     0.062 H 
ATOM     22  C   LIG d   1       4.637   0.925  -2.035  0.00  0.00    -0.061 A 
ATOM     23  H   LIG d   1       3.518  -0.616  -1.062  0.00  0.00     0.062 H 
ATOM     24  C   LIG d   1       5.664   1.213  -2.914  0.00  0.00    -0.055 A 
ATOM     25  H   LIG d   1       4.084   1.727  -1.568  0.00  0.00     0.062 H 
ATOM     26  H   LIG d   1       5.916   2.241  -3.132  0.00  0.00     0.062 H 
BRANCH  18  27
ATOM     27  C   LIG d   1       6.820  -2.247  -3.885  0.00  0.00    -0.039 C 
ATOM     28  H   LIG d   1       7.808  -2.320  -3.431  0.00  0.00     0.028 H 
ATOM     29  H   LIG d   1       6.286  -3.186  -3.744  0.00  0.00     0.028 H 
ATOM     30  H   LIG d   1       6.923  -2.044  -4.951  0.00  0.00     0.028 H 
ENDBRANCH  18  27
ENDBRANCH  14  17
ENDBRANCH  13  14
ENDBRANCH   1  13
BRANCH   7  31
ATOM     31  C   LIG d   1       9.945   6.333  -1.967  0.00  0.00     0.343 C 
ATOM     32  O   LIG d   1      10.816   5.919  -1.228  0.00  0.00    -0.245 OA
BRANCH  31  33
ATOM     33  O   LIG d   1       8.972   7.130  -1.480  0.00  0.00    -0.464 OA
BRANCH  33  34
ATOM     34  C   LIG d   1       9.387   8.386  -0.881  0.00  0.00     0.082 C 
ATOM     35  H   LIG d   1       8.643   8.704  -0.151  0.00  0.00     0.066 H 
ATOM     36  H   LIG d   1      10.349   8.251  -0.385  0.00  0.00     0.066 H 
ATOM     37  H   LIG d   1       9.483   9.145  -1.658  0.00  0.00     0.066 H 
ENDBRANCH  33  34
ENDBRANCH  31  33
ENDBRANCH   7  31
BRANCH   8  38
ATOM     38  C   LIG d   1      10.700   8.206  -4.339  0.00  0.00    -0.005 C 
ATOM     39  H   LIG d   1      10.086   8.712  -3.595  0.00  0.00     0.031 H 
ATOM     40  H   LIG d   1      11.748   8.256  -4.042  0.00  0.00     0.031 H 
ATOM     41  H   LIG d   1      10.574   8.693  -5.306  0.00  0.00     0.031 H 
ENDBRANCH   8  38
TORSDOF 8
ENDMDL
MODEL 6
REMARK VINA RESULT:      -5.7      5.468      7.567
REMARK  8 active torsions:
REMARK  status: ('A' for Active; 'I' for Inactive)
REMARK    1  A    between atoms: C_1  and  C_2 
REMARK    2  A    between atoms: C_7  and  C_8 
REMARK    3  A    between atoms: C_8  and  O_9 
REMARK    4  A    between atoms: O_9  and  C_10 
REMARK    5  A    between atoms: C_16  and  C_20 
REMARK    6  A    between atoms: C_17  and  C_19 
REMARK    7  A    between atoms: C_20  and  O_22 
REMARK    8  A    between atoms: O_22  and  C_23 
ROOT
ATOM      1  C   LIG d   1       8.591   2.652  -4.355  0.00  0.00     0.122 A 
ATOM      2  C   LIG d   1       9.504   2.214  -3.401  0.00  0.00    -0.016 A 
ATOM      3  C   LIG d   1      10.590   2.991  -3.062  0.00  0.00    -0.015 A 
ATOM      4  C   LIG d   1      10.783   4.223  -3.675  0.00  0.00     0.136 A 
ATOM      5  C   LIG d   1       9.866   4.661  -4.641  0.00  0.00     0.038 A 
ATOM      6  C   LIG d   1       8.769   3.876  -4.975  0.00  0.00    -0.008 A 
ATOM      7  C   LIG d   1      10.363   5.979  -5.087  0.00  0.00     0.107 A 
ATOM      8  C   LIG d   1      11.501   6.204  -4.374  0.00  0.00     0.117 A 
ATOM      9  O   LIG d   1      11.731   5.176  -3.549  0.00  0.00    -0.459 OA
ATOM     10  H   LIG d   1       9.359   1.257  -2.921  0.00  0.00     0.066 H 
ATOM     11  H   LIG d   1      11.292   2.642  -2.320  0.00  0.00     0.066 H 
ATOM     12  H   LIG d   1       8.061   4.217  -5.717  0.00  0.00     0.066 H 
ENDROOT
BRANCH   1  13
ATOM     13  O   LIG d   1       7.524   1.875  -4.680  0.00  0.00    -0.487 OA
BRANCH  13  14
ATOM     14  C   LIG d   1       7.580   0.500  -4.292  0.00  0.00     0.115 C 
ATOM     15  H   LIG d   1       7.560  -0.129  -5.182  0.00  0.00     0.075 H 
ATOM     16  H   LIG d   1       8.499   0.317  -3.736  0.00  0.00     0.075 H 
BRANCH  14  17
ATOM     17  C   LIG d   1       6.394   0.175  -3.422  0.00  0.00    -0.007 A 
ATOM     18  C   LIG d   1       6.042  -1.142  -3.196  0.00  0.00    -0.044 A 
ATOM     19  C   LIG d   1       4.954  -1.441  -2.397  0.00  0.00    -0.059 A 
ATOM     20  C   LIG d   1       4.218  -0.422  -1.823  0.00  0.00    -0.061 A 
ATOM     21  H   LIG d   1       4.680  -2.470  -2.221  0.00  0.00     0.062 H 
ATOM     22  C   LIG d   1       4.569   0.897  -2.048  0.00  0.00    -0.061 A 
ATOM     23  H   LIG d   1       3.368  -0.654  -1.199  0.00  0.00     0.062 H 
ATOM     24  C   LIG d   1       5.660   1.195  -2.843  0.00  0.00    -0.055 A 
ATOM     25  H   LIG d   1       3.994   1.694  -1.600  0.00  0.00     0.062 H 
ATOM     26  H   LIG d   1       5.938   2.224  -3.016  0.00  0.00     0.062 H 
BRANCH  18  27
ATOM     27  C   LIG d   1       6.845  -2.254  -3.822  0.00  0.00    -0.039 C 
ATOM     28  H   LIG d   1       7.129  -2.972  -3.053  0.00  0.00     0.028 H 
ATOM     29  H   LIG d   1       6.244  -2.753  -4.581  0.00  0.00     0.028 H 
ATOM     30  H   LIG d   1       7.742  -1.839  -4.282  0.00  0.00     0.028 H 
ENDBRANCH  18  27
ENDBRANCH  14  17
ENDBRANCH  13  14
ENDBRANCH   1  13
BRANCH   7  31
ATOM     31  C   LIG d   1       9.756   6.862  -6.090  0.00  0.00     0.343 C 
ATOM     32  O   LIG d   1       9.889   6.621  -7.274  0.00  0.00    -0.245 OA
BRANCH  31  33
ATOM     33  O   LIG d   1       9.050   7.942  -5.699  0.00  0.00    -0.464 OA
BRANCH  33  34
ATOM     34  C   LIG d   1       9.499   9.235  -6.183  0.00  0.00     0.082 C 
ATOM     35  H   LIG d   1       9.246  10.005  -5.455  0.00  0.00     0.066 H 
ATOM     36  H   LIG d   1      10.580   9.213  -6.328  0.00  0.00     0.066 H 
ATOM     37  H   LIG d   1       9.011   9.457  -7.133  0.00  0.00     0.066 H 
ENDBRANCH  33  34
ENDBRANCH  31  33
ENDBRANCH   7  31
BRANCH   8  38
ATOM     38  C   LIG d   1      12.366   7.433  -4.488  0.00  0.00    -0.005 C 
ATOM     39  H   LIG d   1      12.537   7.849  -3.497  0.00  0.00     0.031 H 
ATOM     40  H   LIG d   1      13.321   7.164  -4.940  0.00  0.00     0.031 H 
ATOM     41  H   LIG d   1      11.865   8.173  -5.112  0.00  0.00     0.031 H 
ENDBRANCH   8  38
TORSDOF 8
ENDMDL
MODEL 7
REMARK VINA RESULT:      -5.5      3.851      6.031
REMARK  8 active torsions:
REMARK  status: ('A' for Active; 'I' for Inactive)
REMARK    1  A    between atoms: C_1  and  C_2 
REMARK    2  A    between atoms: C_7  and  C_8 
REMARK    3  A    between atoms: C_8  and  O_9 
REMARK    4  A    between atoms: O_9  and  C_10 
REMARK    5  A    between atoms: C_16  and  C_20 
REMARK    6  A    between atoms: C_17  and  C_19 
REMARK    7  A    between atoms: C_20  and  O_22 
REMARK    8  A    between atoms: O_22  and  C_23 
ROOT
ATOM      1  C   LIG d   1       8.808   2.533  -4.294  0.00  0.00     0.122 A 
ATOM      2  C   LIG d   1       9.378   3.657  -3.704  0.00  0.00    -0.016 A 
ATOM      3  C   LIG d   1       9.884   4.676  -4.482  0.00  0.00    -0.015 A 
ATOM      4  C   LIG d   1       9.830   4.587  -5.867  0.00  0.00     0.136 A 
ATOM      5  C   LIG d   1       9.261   3.451  -6.461  0.00  0.00     0.038 A 
ATOM      6  C   LIG d   1       8.746   2.429  -5.672  0.00  0.00    -0.008 A 
ATOM      7  C   LIG d   1       9.369   3.673  -7.917  0.00  0.00     0.107 A 
ATOM      8  C   LIG d   1       9.979   4.882  -8.062  0.00  0.00     0.117 A 
ATOM      9  O   LIG d   1      10.236   5.407  -6.859  0.00  0.00    -0.459 OA
ATOM     10  H   LIG d   1       9.423   3.732  -2.627  0.00  0.00     0.066 H 
ATOM     11  H   LIG d   1      10.325   5.543  -4.013  0.00  0.00     0.066 H 
ATOM     12  H   LIG d   1       8.305   1.557  -6.131  0.00  0.00     0.066 H 
ENDROOT
BRANCH   1  13
ATOM     13  O   LIG d   1       8.312   1.536  -3.515  0.00  0.00    -0.487 OA
BRANCH  13  14
ATOM     14  C   LIG d   1       7.584   0.498  -4.175  0.00  0.00     0.115 C 
ATOM     15  H   LIG d   1       7.273   0.843  -5.161  0.00  0.00     0.075 H 
ATOM     16  H   LIG d   1       8.220  -0.381  -4.280  0.00  0.00     0.075 H 
BRANCH  14  17
ATOM     17  C   LIG d   1       6.367   0.142  -3.361  0.00  0.00    -0.007 A 
ATOM     18  C   LIG d   1       6.028  -1.184  -3.168  0.00  0.00    -0.044 A 
ATOM     19  C   LIG d   1       4.912  -1.510  -2.421  0.00  0.00    -0.059 A 
ATOM     20  C   LIG d   1       4.134  -0.511  -1.866  0.00  0.00    -0.061 A 
ATOM     21  H   LIG d   1       4.647  -2.546  -2.270  0.00  0.00     0.062 H 
ATOM     22  C   LIG d   1       4.473   0.816  -2.059  0.00  0.00    -0.061 A 
ATOM     23  H   LIG d   1       3.262  -0.766  -1.282  0.00  0.00     0.062 H 
ATOM     24  C   LIG d   1       5.592   1.142  -2.802  0.00  0.00    -0.055 A 
ATOM     25  H   LIG d   1       3.866   1.597  -1.626  0.00  0.00     0.062 H 
ATOM     26  H   LIG d   1       5.860   2.178  -2.949  0.00  0.00     0.062 H 
BRANCH  18  27
ATOM     27  C   LIG d   1       6.875  -2.274  -3.772  0.00  0.00    -0.039 C 
ATOM     28  H   LIG d   1       6.582  -2.427  -4.810  0.00  0.00     0.028 H 
ATOM     29  H   LIG d   1       7.925  -1.983  -3.729  0.00  0.00     0.028 H 
ATOM     30  H   LIG d   1       6.731  -3.198  -3.212  0.00  0.00     0.028 H 
ENDBRANCH  18  27
ENDBRANCH  14  17
ENDBRANCH  13  14
ENDBRANCH   1  13
BRANCH   7  31
ATOM     31  C   LIG d   1       8.914   2.776  -8.987  0.00  0.00     0.343 C 
ATOM     32  O   LIG d   1       9.687   1.981  -9.485  0.00  0.00    -0.245 OA
BRANCH  31  33
ATOM     33  O   LIG d   1       7.637   2.834  -9.418  0.00  0.00    -0.464 OA
BRANCH  33  34
ATOM     34  C   LIG d   1       6.691   1.923  -8.799  0.00  0.00     0.082 C 
ATOM     35  H   LIG d   1       6.219   2.411  -7.947  0.00  0.00     0.066 H 
ATOM     36  H   LIG d   1       5.928   1.643  -9.526  0.00  0.00     0.066 H 
ATOM     37  H   LIG d   1       7.216   1.028  -8.461  0.00  0.00     0.066 H 
ENDBRANCH  33  34
ENDBRANCH  31  33
ENDBRANCH   7  31
BRANCH   8  38
ATOM     38  C   LIG d   1      10.306   5.535  -9.380  0.00  0.00    -0.005 C 
ATOM     39  H   LIG d   1       9.739   5.052 -10.175  0.00  0.00     0.031 H 
ATOM     40  H   LIG d   1      10.044   6.592  -9.337  0.00  0.00     0.031 H 
ATOM     41  H   LIG d   1      11.372   5.434  -9.582  0.00  0.00     0.031 H 
ENDBRANCH   8  38
TORSDOF 8
ENDMDL
MODEL 8
REMARK VINA RESULT:      -5.5      4.398      6.641
REMARK  8 active torsions:
REMARK  status: ('A' for Active; 'I' for Inactive)
REMARK    1  A    between atoms: C_1  and  C_2 
REMARK    2  A    between atoms: C_7  and  C_8 
REMARK    3  A    between atoms: C_8  and  O_9 
REMARK    4  A    between atoms: O_9  and  C_10 
REMARK    5  A    between atoms: C_16  and  C_20 
REMARK    6  A    between atoms: C_17  and  C_19 
REMARK    7  A    between atoms: C_20  and  O_22 
REMARK    8  A    between atoms: O_22  and  C_23 
ROOT
ATOM      1  C   LIG d   1       8.499   1.337  -4.429  0.00  0.00     0.122 A 
ATOM      2  C   LIG d   1       8.965   0.145  -4.975  0.00  0.00    -0.016 A 
ATOM      3  C   LIG d   1       8.257  -1.026  -4.809  0.00  0.00    -0.015 A 
ATOM      4  C   LIG d   1       7.068  -1.024  -4.090  0.00  0.00     0.136 A 
ATOM      5  C   LIG d   1       6.602   0.176  -3.535  0.00  0.00     0.038 A 
ATOM      6  C   LIG d   1       7.317   1.355  -3.711  0.00  0.00    -0.008 A 
ATOM      7  C   LIG d   1       5.343  -0.172  -2.845  0.00  0.00     0.107 A 
ATOM      8  C   LIG d   1       5.174  -1.509  -3.038  0.00  0.00     0.117 A 
ATOM      9  O   LIG d   1       6.183  -1.992  -3.771  0.00  0.00    -0.459 OA
ATOM     10  H   LIG d   1       9.889   0.137  -5.534  0.00  0.00     0.066 H 
ATOM     11  H   LIG d   1       8.628  -1.945  -5.237  0.00  0.00     0.066 H 
ATOM     12  H   LIG d   1       6.954   2.280  -3.286  0.00  0.00     0.066 H 
ENDROOT
BRANCH   1  13
ATOM     13  O   LIG d   1       9.208   2.484  -4.600  0.00  0.00    -0.487 OA
BRANCH  13  14
ATOM     14  C   LIG d   1       9.727   3.108  -3.424  0.00  0.00     0.115 C 
ATOM     15  H   LIG d   1       9.076   2.887  -2.578  0.00  0.00     0.075 H 
ATOM     16  H   LIG d   1      10.728   2.728  -3.222  0.00  0.00     0.075 H 
BRANCH  14  17
ATOM     17  C   LIG d   1       9.789   4.599  -3.632  0.00  0.00    -0.007 A 
ATOM     18  C   LIG d   1      10.417   5.402  -2.698  0.00  0.00    -0.044 A 
ATOM     19  C   LIG d   1      10.474   6.770  -2.889  0.00  0.00    -0.059 A 
ATOM     20  C   LIG d   1       9.905   7.335  -4.014  0.00  0.00    -0.061 A 
ATOM     21  H   LIG d   1      10.965   7.397  -2.160  0.00  0.00     0.062 H 
ATOM     22  C   LIG d   1       9.277   6.533  -4.949  0.00  0.00    -0.061 A 
ATOM     23  H   LIG d   1       9.950   8.404  -4.164  0.00  0.00     0.062 H 
ATOM     24  C   LIG d   1       9.224   5.164  -4.760  0.00  0.00    -0.055 A 
ATOM     25  H   LIG d   1       8.832   6.974  -5.829  0.00  0.00     0.062 H 
ATOM     26  H   LIG d   1       8.738   4.536  -5.493  0.00  0.00     0.062 H 
BRANCH  18  27
ATOM     27  C   LIG d   1      11.038   4.786  -1.471  0.00  0.00    -0.039 C 
ATOM     28  H   LIG d   1      11.031   3.700  -1.567  0.00  0.00     0.028 H 
ATOM     29  H   LIG d   1      12.065   5.136  -1.370  0.00  0.00     0.028 H 
ATOM     30  H   LIG d   1      10.466   5.077  -0.590  0.00  0.00     0.028 H 
ENDBRANCH  18  27
ENDBRANCH  14  17
ENDBRANCH  13  14
ENDBRANCH   1  13
BRANCH   7  31
ATOM     31  C   LIG d   1       4.457   0.736  -2.105  0.00  0.00     0.343 C 
ATOM     32  O   LIG d   1       4.855   1.287  -1.097  0.00  0.00    -0.245 OA
BRANCH  31  33
ATOM     33  O   LIG d   1       3.202   0.960  -2.544  0.00  0.00    -0.464 OA
BRANCH  33  34
ATOM     34  C   LIG d   1       3.003   0.996  -3.982  0.00  0.00     0.082 C 
ATOM     35  H   LIG d   1       2.332   0.190  -4.277  0.00  0.00     0.066 H 
ATOM     36  H   LIG d   1       2.565   1.954  -4.263  0.00  0.00     0.066 H 
ATOM     37  H   LIG d   1       3.962   0.874  -4.485  0.00  0.00     0.066 H 
ENDBRANCH  33  34
ENDBRANCH  31  33
ENDBRANCH   7  31
BRANCH   8  38
ATOM     38  C   LIG d   1       4.018  -2.321  -2.514  0.00  0.00    -0.005 C 
ATOM     39  H   LIG d   1       4.383  -3.282  -2.153  0.00  0.00     0.031 H 
ATOM     40  H   LIG d   1       3.538  -1.784  -1.696  0.00  0.00     0.031 H 
ATOM     41  H   LIG d   1       3.296  -2.484  -3.314  0.00  0.00     0.031 H 
ENDBRANCH   8  38
TORSDOF 8
ENDMDL
MODEL 9
REMARK VINA RESULT:      -5.5      3.087      4.990
REMARK  8 active torsions:
REMARK  status: ('A' for Active; 'I' for Inactive)
REMARK    1  A    between atoms: C_1  and  C_2 
REMARK    2  A    between atoms: C_7  and  C_8 
REMARK    3  A    between atoms: C_8  and  O_9 
REMARK    4  A    between atoms: O_9  and  C_10 
REMARK    5  A    between atoms: C_16  and  C_20 
REMARK    6  A    between atoms: C_17  and  C_19 
REMARK    7  A    between atoms: C_20  and  O_22 
REMARK    8  A    between atoms: O_22  and  C_23 
ROOT
ATOM      1  C   LIG d   1       7.486  -2.731  -4.250  0.00  0.00     0.122 A 
ATOM      2  C   LIG d   1       8.608  -3.491  -3.936  0.00  0.00    -0.016 A 
ATOM      3  C   LIG d   1       8.697  -4.807  -4.335  0.00  0.00    -0.015 A 
ATOM      4  C   LIG d   1       7.661  -5.388  -5.056  0.00  0.00     0.136 A 
ATOM      5  C   LIG d   1       6.527  -4.623  -5.367  0.00  0.00     0.038 A 
ATOM      6  C   LIG d   1       6.445  -3.294  -4.967  0.00  0.00    -0.008 A 
ATOM      7  C   LIG d   1       5.635  -5.529  -6.118  0.00  0.00     0.107 A 
ATOM      8  C   LIG d   1       6.291  -6.721  -6.184  0.00  0.00     0.117 A 
ATOM      9  O   LIG d   1       7.473  -6.623  -5.568  0.00  0.00    -0.459 OA
ATOM     10  H   LIG d   1       9.417  -3.046  -3.375  0.00  0.00     0.066 H 
ATOM     11  H   LIG d   1       9.573  -5.388  -4.086  0.00  0.00     0.066 H 
ATOM     12  H   LIG d   1       5.573  -2.706  -5.211  0.00  0.00     0.066 H 
ENDROOT
BRANCH   1  13
ATOM     13  O   LIG d   1       7.411  -1.434  -3.849  0.00  0.00    -0.487 OA
BRANCH  13  14
ATOM     14  C   LIG d   1       6.645  -0.546  -4.666  0.00  0.00     0.115 C 
ATOM     15  H   LIG d   1       7.273   0.285  -4.987  0.00  0.00     0.075 H 
ATOM     16  H   LIG d   1       6.276  -1.083  -5.540  0.00  0.00     0.075 H 
BRANCH  14  17
ATOM     17  C   LIG d   1       5.477  -0.016  -3.874  0.00  0.00    -0.007 A 
ATOM     18  C   LIG d   1       4.207  -0.038  -4.417  0.00  0.00    -0.044 A 
ATOM     19  C   LIG d   1       3.136   0.448  -3.690  0.00  0.00    -0.059 A 
ATOM     20  C   LIG d   1       3.336   0.955  -2.420  0.00  0.00    -0.061 A 
ATOM     21  H   LIG d   1       2.143   0.431  -4.114  0.00  0.00     0.062 H 
ATOM     22  C   LIG d   1       4.607   0.977  -1.876  0.00  0.00    -0.061 A 
ATOM     23  H   LIG d   1       2.499   1.335  -1.851  0.00  0.00     0.062 H 
ATOM     24  C   LIG d   1       5.677   0.487  -2.601  0.00  0.00    -0.055 A 
ATOM     25  H   LIG d   1       4.764   1.373  -0.883  0.00  0.00     0.062 H 
ATOM     26  H   LIG d   1       6.670   0.499  -2.175  0.00  0.00     0.062 H 
BRANCH  18  27
ATOM     27  C   LIG d   1       3.988  -0.591  -5.801  0.00  0.00    -0.039 C 
ATOM     28  H   LIG d   1       2.955  -0.922  -5.901  0.00  0.00     0.028 H 
ATOM     29  H   LIG d   1       4.194   0.184  -6.539  0.00  0.00     0.028 H 
ATOM     30  H   LIG d   1       4.658  -1.435  -5.964  0.00  0.00     0.028 H 
ENDBRANCH  18  27
ENDBRANCH  14  17
ENDBRANCH  13  14
ENDBRANCH   1  13
BRANCH   7  31
ATOM     31  C   LIG d   1       4.315  -5.211  -6.677  0.00  0.00     0.343 C 
ATOM     32  O   LIG d   1       3.318  -5.331  -5.992  0.00  0.00    -0.245 OA
BRANCH  31  33
ATOM     33  O   LIG d   1       4.208  -4.786  -7.952  0.00  0.00    -0.464 OA
BRANCH  33  34
ATOM     34  C   LIG d   1       3.435  -5.614  -8.861  0.00  0.00     0.082 C 
ATOM     35  H   LIG d   1       4.078  -5.967  -9.667  0.00  0.00     0.066 H 
ATOM     36  H   LIG d   1       3.031  -6.469  -8.318  0.00  0.00     0.066 H 
ATOM     37  H   LIG d   1       2.616  -5.029  -9.279  0.00  0.00     0.066 H 
ENDBRANCH  33  34
ENDBRANCH  31  33
ENDBRANCH   7  31
BRANCH   8  38
ATOM     38  C   LIG d   1       5.767  -7.961  -6.861  0.00  0.00    -0.005 C 
ATOM     39  H   LIG d   1       6.378  -8.816  -6.574  0.00  0.00     0.031 H 
ATOM     40  H   LIG d   1       4.735  -8.133  -6.556  0.00  0.00     0.031 H 
ATOM     41  H   LIG d   1       5.809  -7.831  -7.942  0.00  0.00     0.031 H 
ENDBRANCH   8  38
TORSDOF 8
ENDMDL
MODEL 10
REMARK VINA RESULT:      -5.4      2.138      3.351
REMARK  8 active torsions:
REMARK  status: ('A' for Active; 'I' for Inactive)
REMARK    1  A    between atoms: C_1  and  C_2 
REMARK    2  A    between atoms: C_7  and  C_8 
REMARK    3  A    between atoms: C_8  and  O_9 
REMARK    4  A    between atoms: O_9  and  C_10 
REMARK    5  A    between atoms: C_16  and  C_20 
REMARK    6  A    between atoms: C_17  and  C_19 
REMARK    7  A    between atoms: C_20  and  O_22 
REMARK    8  A    between atoms: O_22  and  C_23 
ROOT
ATOM      1  C   LIG d   1       5.241  -3.047  -5.997  0.00  0.00     0.122 A 
ATOM      2  C   LIG d   1       5.167  -4.299  -5.393  0.00  0.00    -0.016 A 
ATOM      3  C   LIG d   1       4.496  -5.334  -6.006  0.00  0.00    -0.015 A 
ATOM      4  C   LIG d   1       3.884  -5.135  -7.237  0.00  0.00     0.136 A 
ATOM      5  C   LIG d   1       3.953  -3.872  -7.843  0.00  0.00     0.038 A 
ATOM      6  C   LIG d   1       4.637  -2.833  -7.223  0.00  0.00    -0.008 A 
ATOM      7  C   LIG d   1       3.207  -4.002  -9.111  0.00  0.00     0.107 A 
ATOM      8  C   LIG d   1       2.766  -5.290  -9.149  0.00  0.00     0.117 A 
ATOM      9  O   LIG d   1       3.174  -5.941  -8.055  0.00  0.00    -0.459 OA
ATOM     10  H   LIG d   1       5.640  -4.460  -4.436  0.00  0.00     0.066 H 
ATOM     11  H   LIG d   1       4.444  -6.301  -5.528  0.00  0.00     0.066 H 
ATOM     12  H   LIG d   1       4.693  -1.862  -7.693  0.00  0.00     0.066 H 
ENDROOT
BRANCH   1  13
ATOM     13  O   LIG d   1       5.906  -2.035  -5.381  0.00  0.00    -0.487 OA
BRANCH  13  14
ATOM     14  C   LIG d   1       5.971  -2.074  -3.954  0.00  0.00     0.115 C 
ATOM     15  H   LIG d   1       5.586  -3.030  -3.599  0.00  0.00     0.075 H 
ATOM     16  H   LIG d   1       7.006  -1.957  -3.634  0.00  0.00     0.075 H 
BRANCH  14  17
ATOM     17  C   LIG d   1       5.139  -0.955  -3.382  0.00  0.00    -0.007 A 
ATOM     18  C   LIG d   1       5.708   0.285  -3.160  0.00  0.00    -0.044 A 
ATOM     19  C   LIG d   1       4.944   1.312  -2.636  0.00  0.00    -0.059 A 
ATOM     20  C   LIG d   1       3.613   1.099  -2.335  0.00  0.00    -0.061 A 
ATOM     21  H   LIG d   1       5.389   2.280  -2.463  0.00  0.00     0.062 H 
ATOM     22  C   LIG d   1       3.043  -0.142  -2.557  0.00  0.00    -0.061 A 
ATOM     23  H   LIG d   1       3.016   1.901  -1.926  0.00  0.00     0.062 H 
ATOM     24  C   LIG d   1       3.805  -1.167  -3.085  0.00  0.00    -0.055 A 
ATOM     25  H   LIG d   1       2.002  -0.309  -2.321  0.00  0.00     0.062 H 
ATOM     26  H   LIG d   1       3.359  -2.135  -3.264  0.00  0.00     0.062 H 
BRANCH  18  27
ATOM     27  C   LIG d   1       7.160   0.518  -3.489  0.00  0.00    -0.039 C 
ATOM     28  H   LIG d   1       7.239   0.987  -4.469  0.00  0.00     0.028 H 
ATOM     29  H   LIG d   1       7.602   1.170  -2.736  0.00  0.00     0.028 H 
ATOM     30  H   LIG d   1       7.687  -0.436  -3.499  0.00  0.00     0.028 H 
ENDBRANCH  18  27
ENDBRANCH  14  17
ENDBRANCH  13  14
ENDBRANCH   1  13
BRANCH   7  31
ATOM     31  C   LIG d   1       2.987  -2.959 -10.121  0.00  0.00     0.343 C 
ATOM     32  O   LIG d   1       3.781  -2.814 -11.030  0.00  0.00    -0.245 OA
BRANCH  31  33
ATOM     33  O   LIG d   1       1.903  -2.161 -10.042  0.00  0.00    -0.464 OA
BRANCH  33  34
ATOM     34  C   LIG d   1       2.062  -0.901  -9.338  0.00  0.00     0.082 C 
ATOM     35  H   LIG d   1       1.643  -0.094  -9.938  0.00  0.00     0.066 H 
ATOM     36  H   LIG d   1       1.542  -0.951  -8.381  0.00  0.00     0.066 H 
ATOM     37  H   LIG d   1       3.122  -0.713  -9.165  0.00  0.00     0.066 H 
ENDBRANCH  33  34
ENDBRANCH  31  33
ENDBRANCH   7  31
BRANCH   8  38
ATOM     38  C   LIG d   1       1.951  -5.894 -10.264  0.00  0.00    -0.005 C 
ATOM     39  H   LIG d   1       2.464  -5.740 -11.213  0.00  0.00     0.031 H 
ATOM     40  H   LIG d   1       1.828  -6.962 -10.086  0.00  0.00     0.031 H 
ATOM     41  H   LIG d   1       0.973  -5.416 -10.298  0.00  0.00     0.031 H 
ENDBRANCH   8  38
TORSDOF 8
ENDMDL
