MODEL 1
REMARK VINA RESULT:      -6.0      0.000      0.000
REMARK  5 active torsions:
REMARK  status: ('A' for Active; 'I' for Inactive)
REMARK    1  A    between atoms: C_1  and  O_2 
REMARK    2  A    between atoms: O_2  and  C_3 
REMARK    3  A    between atoms: C_6  and  C_9 
REMARK       I    between atoms: C_9  and  N_11 
REMARK    4  A    between atoms: N_11  and  C_12 
REMARK    5  A    between atoms: C_23  and  N_48 
ROOT
ATOM      1  C   LIG d   1       3.349   0.127  -6.247  0.00  0.00     0.052 C 
ATOM      2  H   LIG d   1       3.557   1.115  -6.657  0.00  0.00     0.052 H 
ATOM      3  C   LIG d   1       2.324   0.211  -5.082  0.00  0.00    -0.016 C 
ATOM      4  C   LIG d   1       3.205   0.630  -3.882  0.00  0.00     0.017 C 
ATOM      5  N   LIG d   1       4.580   0.224  -4.198  0.00  0.00    -0.286 N 
ATOM      6  CA  LIG d   1       4.586  -0.444  -5.513  0.00  0.00     0.121 C 
ATOM      7  HA  LIG d   1       4.521  -1.526  -5.403  0.00  0.00     0.061 H 
ATOM      8  C   LIG d   1       5.842  -0.052  -6.249  0.00  0.00     0.239 C 
ATOM      9  O   LIG d   1       5.886  -0.078  -7.461  0.00  0.00    -0.274 OA
ATOM     10  N   LIG d   1       6.917   0.327  -5.527  0.00  0.00    -0.283 N 
ATOM     11  C   LIG d   1       8.134   0.969  -6.039  0.00  0.00     0.058 C 
ATOM     12  C   LIG d   1       9.033   1.271  -4.818  0.00  0.00    -0.006 C 
ATOM     13  H   LIG d   1       9.761   0.474  -4.667  0.00  0.00     0.087 H 
ATOM     14  C   LIG d   1       8.013   1.318  -3.646  0.00  0.00     0.019 C 
ATOM     15  CA  LIG d   1       7.031   0.198  -4.062  0.00  0.00     0.108 C 
ATOM     16  HA  LIG d   1       7.409  -0.787  -3.785  0.00  0.00     0.060 H 
ATOM     17  C   LIG d   1       5.679   0.450  -3.447  0.00  0.00     0.237 C 
ATOM     18  O   LIG d   1       5.579   0.845  -2.305  0.00  0.00    -0.274 OA
ATOM     19  H   LIG d   1       1.863  -0.760  -4.901  0.00  0.00     0.030 H 
ATOM     20  H   LIG d   1       1.566   0.967  -5.287  0.00  0.00     0.030 H 
ATOM     21  H   LIG d   1       2.867   0.125  -2.977  0.00  0.00     0.046 H 
ATOM     22  H   LIG d   1       3.158   1.711  -3.747  0.00  0.00     0.046 H 
ATOM     23  H   LIG d   1       8.651   0.294  -6.722  0.00  0.00     0.052 H 
ATOM     24  H   LIG d   1       7.879   1.897  -6.551  0.00  0.00     0.052 H 
ATOM     25  H   LIG d   1       7.511   2.284  -3.602  0.00  0.00     0.034 H 
ATOM     26  H   LIG d   1       8.496   1.086  -2.697  0.00  0.00     0.034 H 
ENDROOT
BRANCH   1  27
ATOM     27  N   LIG d   1       2.885  -0.789  -7.292  0.00  0.00    -0.306 N 
ATOM     28  C   LIG d   1       2.585  -0.316  -8.517  0.00  0.00     0.244 C 
ATOM     29  O   LIG d   1       2.698   0.870  -8.756  0.00  0.00    -0.270 OA
ATOM     30  H   LIG d   1       2.795  -1.736  -7.101  0.00  0.00     0.149 HD
BRANCH  28  31
ATOM     31  C   LIG d   1       2.118  -1.239  -9.570  0.00  0.00     0.037 A 
ATOM     32  C   LIG d   1       1.362  -0.755 -10.641  0.00  0.00    -0.046 A 
ATOM     33  C   LIG d   1       0.928  -1.620 -11.622  0.00  0.00    -0.019 A 
ATOM     34  H   LIG d   1       1.118   0.295 -10.699  0.00  0.00     0.063 H 
ATOM     35  C   LIG d   1       1.242  -2.971 -11.547  0.00  0.00     0.120 A 
ATOM     36  H   LIG d   1       0.344  -1.247 -12.449  0.00  0.00     0.065 H 
ATOM     37  C   LIG d   1       1.994  -3.457 -10.484  0.00  0.00    -0.019 A 
ATOM     38  C   LIG d   1       2.436  -2.598  -9.502  0.00  0.00    -0.046 A 
ATOM     39  H   LIG d   1       2.236  -4.508 -10.429  0.00  0.00     0.065 H 
ATOM     40  H   LIG d   1       3.024  -2.975  -8.678  0.00  0.00     0.063 H 
BRANCH  35  41
ATOM     41  O   LIG d   1       0.814  -3.820 -12.515  0.00  0.00    -0.495 OA
BRANCH  41  42
ATOM     42  C   LIG d   1      -0.584  -4.119 -12.546  0.00  0.00     0.079 C 
ATOM     43  H   LIG d   1      -1.084  -3.449 -13.246  0.00  0.00     0.066 H 
ATOM     44  H   LIG d   1      -0.727  -5.152 -12.865  0.00  0.00     0.066 H 
ATOM     45  H   LIG d   1      -1.005  -3.986 -11.550  0.00  0.00     0.066 H 
ENDBRANCH  41  42
ENDBRANCH  35  41
ENDBRANCH  28  31
ENDBRANCH   1  27
BRANCH  12  46
ATOM     46  N   LIG d   1       9.717   2.570  -4.954  0.00  0.00     0.222 N 
ATOM     47  H   LIG d   1       9.814   3.011  -4.040  0.00  0.00     0.200 HD
ATOM     48  H   LIG d   1      10.639   2.437  -5.367  0.00  0.00     0.200 HD
ATOM     49  H   LIG d   1       9.163   3.181  -5.564  0.00  0.00     0.200 HD
ENDBRANCH  12  46
TORSDOF 5
ENDMDL
MODEL 2
REMARK VINA RESULT:      -6.0      4.849     10.126
REMARK  5 active torsions:
REMARK  status: ('A' for Active; 'I' for Inactive)
REMARK    1  A    between atoms: C_1  and  O_2 
REMARK    2  A    between atoms: O_2  and  C_3 
REMARK    3  A    between atoms: C_6  and  C_9 
REMARK       I    between atoms: C_9  and  N_11 
REMARK    4  A    between atoms: N_11  and  C_12 
REMARK    5  A    between atoms: C_23  and  N_48 
ROOT
ATOM      1  C   LIG d   1       8.385   1.232  -4.358  0.00  0.00     0.052 C 
ATOM      2  H   LIG d   1       7.775   1.734  -5.109  0.00  0.00     0.052 H 
ATOM      3  C   LIG d   1       9.360   0.216  -5.018  0.00  0.00    -0.016 C 
ATOM      4  C   LIG d   1       8.458  -1.018  -5.251  0.00  0.00     0.017 C 
ATOM      5  N   LIG d   1       7.344  -0.921  -4.300  0.00  0.00    -0.286 N 
ATOM      6  CA  LIG d   1       7.527   0.291  -3.480  0.00  0.00     0.121 C 
ATOM      7  HA  LIG d   1       8.025   0.056  -2.539  0.00  0.00     0.061 H 
ATOM      8  C   LIG d   1       6.176   0.915  -3.231  0.00  0.00     0.239 C 
ATOM      9  O   LIG d   1       6.074   2.101  -2.996  0.00  0.00    -0.274 OA
ATOM     10  N   LIG d   1       5.085   0.123  -3.276  0.00  0.00    -0.283 N 
ATOM     11  C   LIG d   1       3.685   0.562  -3.307  0.00  0.00     0.058 C 
ATOM     12  C   LIG d   1       2.815  -0.711  -3.430  0.00  0.00    -0.006 C 
ATOM     13  H   LIG d   1       2.478  -1.045  -2.449  0.00  0.00     0.087 H 
ATOM     14  C   LIG d   1       3.800  -1.738  -4.055  0.00  0.00     0.019 C 
ATOM     15  CA  LIG d   1       5.121  -1.351  -3.350  0.00  0.00     0.108 C 
ATOM     16  HA  LIG d   1       5.186  -1.790  -2.354  0.00  0.00     0.060 H 
ATOM     17  C   LIG d   1       6.295  -1.764  -4.201  0.00  0.00     0.237 C 
ATOM     18  O   LIG d   1       6.296  -2.829  -4.781  0.00  0.00    -0.274 OA
ATOM     19  H   LIG d   1      10.180  -0.027  -4.343  0.00  0.00     0.030 H 
ATOM     20  H   LIG d   1       9.739   0.602  -5.964  0.00  0.00     0.030 H 
ATOM     21  H   LIG d   1       9.024  -1.932  -5.068  0.00  0.00     0.046 H 
ATOM     22  H   LIG d   1       8.077  -1.012  -6.272  0.00  0.00     0.046 H 
ATOM     23  H   LIG d   1       3.441   1.090  -2.385  0.00  0.00     0.052 H 
ATOM     24  H   LIG d   1       3.516   1.211  -4.166  0.00  0.00     0.052 H 
ATOM     25  H   LIG d   1       3.876  -1.602  -5.134  0.00  0.00     0.034 H 
ATOM     26  H   LIG d   1       3.509  -2.759  -3.810  0.00  0.00     0.034 H 
ENDROOT
BRANCH   1  27
ATOM     27  N   LIG d   1       9.112   2.203  -3.538  0.00  0.00    -0.306 N 
ATOM     28  C   LIG d   1       9.261   3.471  -3.968  0.00  0.00     0.244 C 
ATOM     29  O   LIG d   1       8.793   3.809  -5.038  0.00  0.00    -0.270 OA
ATOM     30  H   LIG d   1       9.486   1.933  -2.684  0.00  0.00     0.149 HD
BRANCH  28  31
ATOM     31  C   LIG d   1       9.994   4.449  -3.141  0.00  0.00     0.037 A 
ATOM     32  C   LIG d   1       9.672   5.808  -3.212  0.00  0.00    -0.046 A 
ATOM     33  C   LIG d   1      10.358   6.717  -2.438  0.00  0.00    -0.019 A 
ATOM     34  H   LIG d   1       8.886   6.143  -3.873  0.00  0.00     0.063 H 
ATOM     35  C   LIG d   1      11.369   6.287  -1.588  0.00  0.00     0.120 A 
ATOM     36  H   LIG d   1      10.109   7.767  -2.492  0.00  0.00     0.065 H 
ATOM     37  C   LIG d   1      11.693   4.937  -1.514  0.00  0.00    -0.019 A 
ATOM     38  C   LIG d   1      11.007   4.020  -2.281  0.00  0.00    -0.046 A 
ATOM     39  H   LIG d   1      12.479   4.606  -0.852  0.00  0.00     0.065 H 
ATOM     40  H   LIG d   1      11.257   2.971  -2.219  0.00  0.00     0.063 H 
BRANCH  35  41
ATOM     41  O   LIG d   1      12.042   7.186  -0.827  0.00  0.00    -0.495 OA
BRANCH  41  42
ATOM     42  C   LIG d   1      11.498   7.484   0.461  0.00  0.00     0.079 C 
ATOM     43  H   LIG d   1      10.569   6.930   0.600  0.00  0.00     0.066 H 
ATOM     44  H   LIG d   1      12.212   7.194   1.233  0.00  0.00     0.066 H 
ATOM     45  H   LIG d   1      11.299   8.552   0.533  0.00  0.00     0.066 H 
ENDBRANCH  41  42
ENDBRANCH  35  41
ENDBRANCH  28  31
ENDBRANCH   1  27
BRANCH  12  46
ATOM     46  N   LIG d   1       1.662  -0.498  -4.323  0.00  0.00     0.222 N 
ATOM     47  H   LIG d   1       0.911  -0.028  -3.820  0.00  0.00     0.200 HD
ATOM     48  H   LIG d   1       1.940   0.067  -5.124  0.00  0.00     0.200 HD
ATOM     49  H   LIG d   1       1.323  -1.407  -4.659  0.00  0.00     0.200 HD
ENDBRANCH  12  46
TORSDOF 5
ENDMDL
MODEL 3
REMARK VINA RESULT:      -5.6      4.210      4.937
REMARK  5 active torsions:
REMARK  status: ('A' for Active; 'I' for Inactive)
REMARK    1  A    between atoms: C_1  and  O_2 
REMARK    2  A    between atoms: O_2  and  C_3 
REMARK    3  A    between atoms: C_6  and  C_9 
REMARK       I    between atoms: C_9  and  N_11 
REMARK    4  A    between atoms: N_11  and  C_12 
REMARK    5  A    between atoms: C_23  and  N_48 
ROOT
ATOM      1  C   LIG d   1       4.587  -2.332  -4.710  0.00  0.00     0.052 C 
ATOM      2  H   LIG d   1       4.355  -1.816  -5.641  0.00  0.00     0.052 H 
ATOM      3  C   LIG d   1       3.543  -1.994  -3.609  0.00  0.00    -0.016 C 
ATOM      4  C   LIG d   1       4.032  -0.624  -3.085  0.00  0.00     0.017 C 
ATOM      5  N   LIG d   1       5.462  -0.529  -3.404  0.00  0.00    -0.286 N 
ATOM      6  CA  LIG d   1       5.882  -1.776  -4.071  0.00  0.00     0.121 C 
ATOM      7  HA  LIG d   1       6.309  -2.478  -3.356  0.00  0.00     0.061 H 
ATOM      8  C   LIG d   1       6.878  -1.435  -5.151  0.00  0.00     0.239 C 
ATOM      9  O   LIG d   1       7.030  -2.163  -6.109  0.00  0.00    -0.274 OA
ATOM     10  N   LIG d   1       7.597  -0.300  -5.025  0.00  0.00    -0.283 N 
ATOM     11  C   LIG d   1       8.425   0.331  -6.060  0.00  0.00     0.058 C 
ATOM     12  C   LIG d   1       8.982   1.641  -5.456  0.00  0.00    -0.006 C 
ATOM     13  H   LIG d   1       9.978   1.483  -5.042  0.00  0.00     0.087 H 
ATOM     14  C   LIG d   1       7.959   1.960  -4.330  0.00  0.00     0.019 C 
ATOM     15  CA  LIG d   1       7.635   0.539  -3.812  0.00  0.00     0.108 C 
ATOM     16  HA  LIG d   1       8.396   0.184  -3.116  0.00  0.00     0.060 H 
ATOM     17  C   LIG d   1       6.270   0.527  -3.172  0.00  0.00     0.237 C 
ATOM     18  O   LIG d   1       5.907   1.444  -2.467  0.00  0.00    -0.274 OA
ATOM     19  H   LIG d   1       3.563  -2.740  -2.815  0.00  0.00     0.030 H 
ATOM     20  H   LIG d   1       2.544  -1.910  -4.036  0.00  0.00     0.030 H 
ATOM     21  H   LIG d   1       3.888  -0.565  -2.005  0.00  0.00     0.046 H 
ATOM     22  H   LIG d   1       3.487   0.179  -3.580  0.00  0.00     0.046 H 
ATOM     23  H   LIG d   1       9.248  -0.331  -6.333  0.00  0.00     0.052 H 
ATOM     24  H   LIG d   1       7.818   0.556  -6.937  0.00  0.00     0.052 H 
ATOM     25  H   LIG d   1       7.070   2.443  -4.734  0.00  0.00     0.034 H 
ATOM     26  H   LIG d   1       8.414   2.569  -3.549  0.00  0.00     0.034 H 
ENDROOT
BRANCH   1  27
ATOM     27  N   LIG d   1       4.681  -3.778  -4.920  0.00  0.00    -0.306 N 
ATOM     28  C   LIG d   1       4.440  -4.298  -6.140  0.00  0.00     0.244 C 
ATOM     29  O   LIG d   1       4.144  -3.568  -7.065  0.00  0.00    -0.270 OA
ATOM     30  H   LIG d   1       4.917  -4.361  -4.182  0.00  0.00     0.149 HD
BRANCH  28  31
ATOM     31  C   LIG d   1       4.535  -5.756  -6.352  0.00  0.00     0.037 A 
ATOM     32  C   LIG d   1       4.956  -6.590  -5.312  0.00  0.00    -0.046 A 
ATOM     33  C   LIG d   1       5.043  -7.949  -5.514  0.00  0.00    -0.019 A 
ATOM     34  H   LIG d   1       5.213  -6.168  -4.352  0.00  0.00     0.063 H 
ATOM     35  C   LIG d   1       4.713  -8.492  -6.750  0.00  0.00     0.120 A 
ATOM     36  H   LIG d   1       5.368  -8.594  -4.711  0.00  0.00     0.065 H 
ATOM     37  C   LIG d   1       4.293  -7.667  -7.787  0.00  0.00    -0.019 A 
ATOM     38  C   LIG d   1       4.199  -6.307  -7.591  0.00  0.00    -0.046 A 
ATOM     39  H   LIG d   1       4.037  -8.093  -8.745  0.00  0.00     0.065 H 
ATOM     40  H   LIG d   1       3.869  -5.667  -8.396  0.00  0.00     0.063 H 
BRANCH  35  41
ATOM     41  O   LIG d   1       4.799  -9.833  -6.945  0.00  0.00    -0.495 OA
BRANCH  41  42
ATOM     42  C   LIG d   1       4.434 -10.673  -5.848  0.00  0.00     0.079 C 
ATOM     43  H   LIG d   1       5.152 -10.546  -5.038  0.00  0.00     0.066 H 
ATOM     44  H   LIG d   1       3.438 -10.400  -5.497  0.00  0.00     0.066 H 
ATOM     45  H   LIG d   1       4.431 -11.713  -6.173  0.00  0.00     0.066 H 
ENDBRANCH  41  42
ENDBRANCH  35  41
ENDBRANCH  28  31
ENDBRANCH   1  27
BRANCH  12  46
ATOM     46  N   LIG d   1       9.007   2.731  -6.449  0.00  0.00     0.222 N 
ATOM     47  H   LIG d   1       9.720   3.415  -6.199  0.00  0.00     0.200 HD
ATOM     48  H   LIG d   1       9.206   2.356  -7.374  0.00  0.00     0.200 HD
ATOM     49  H   LIG d   1       8.091   3.193  -6.465  0.00  0.00     0.200 HD
ENDBRANCH  12  46
TORSDOF 5
ENDMDL
MODEL 4
REMARK VINA RESULT:      -5.6      4.762      8.336
REMARK  5 active torsions:
REMARK  status: ('A' for Active; 'I' for Inactive)
REMARK    1  A    between atoms: C_1  and  O_2 
REMARK    2  A    between atoms: O_2  and  C_3 
REMARK    3  A    between atoms: C_6  and  C_9 
REMARK       I    between atoms: C_9  and  N_11 
REMARK    4  A    between atoms: N_11  and  C_12 
REMARK    5  A    between atoms: C_23  and  N_48 
ROOT
ATOM      1  C   LIG d   1       6.880   0.773  -3.873  0.00  0.00     0.052 C 
ATOM      2  H   LIG d   1       7.702   0.242  -3.391  0.00  0.00     0.052 H 
ATOM      3  C   LIG d   1       5.767   1.128  -2.847  0.00  0.00    -0.016 C 
ATOM      4  C   LIG d   1       4.975  -0.195  -2.734  0.00  0.00     0.017 C 
ATOM      5  N   LIG d   1       5.226  -0.952  -3.967  0.00  0.00    -0.286 N 
ATOM      6  CA  LIG d   1       6.108  -0.155  -4.840  0.00  0.00     0.121 C 
ATOM      7  HA  LIG d   1       5.528   0.416  -5.565  0.00  0.00     0.061 H 
ATOM      8  C   LIG d   1       7.071  -1.085  -5.534  0.00  0.00     0.239 C 
ATOM      9  O   LIG d   1       8.146  -0.685  -5.928  0.00  0.00    -0.274 OA
ATOM     10  N   LIG d   1       6.708  -2.373  -5.707  0.00  0.00    -0.283 N 
ATOM     11  C   LIG d   1       7.576  -3.479  -6.127  0.00  0.00     0.058 C 
ATOM     12  C   LIG d   1       6.715  -4.763  -6.105  0.00  0.00    -0.006 C 
ATOM     13  H   LIG d   1       6.308  -4.974  -7.094  0.00  0.00     0.087 H 
ATOM     14  C   LIG d   1       5.580  -4.396  -5.108  0.00  0.00     0.019 C 
ATOM     15  CA  LIG d   1       5.355  -2.905  -5.450  0.00  0.00     0.108 C 
ATOM     16  HA  LIG d   1       4.717  -2.788  -6.327  0.00  0.00     0.060 H 
ATOM     17  C   LIG d   1       4.771  -2.189  -4.258  0.00  0.00     0.237 C 
ATOM     18  O   LIG d   1       3.914  -2.712  -3.579  0.00  0.00    -0.274 OA
ATOM     19  H   LIG d   1       5.132   1.927  -3.228  0.00  0.00     0.030 H 
ATOM     20  H   LIG d   1       6.200   1.402  -1.886  0.00  0.00     0.030 H 
ATOM     21  H   LIG d   1       3.910   0.017  -2.639  0.00  0.00     0.046 H 
ATOM     22  H   LIG d   1       5.323  -0.764  -1.871  0.00  0.00     0.046 H 
ATOM     23  H   LIG d   1       7.945  -3.298  -7.137  0.00  0.00     0.052 H 
ATOM     24  H   LIG d   1       8.412  -3.581  -5.435  0.00  0.00     0.052 H 
ATOM     25  H   LIG d   1       5.910  -4.517  -4.076  0.00  0.00     0.034 H 
ATOM     26  H   LIG d   1       4.683  -4.983  -5.302  0.00  0.00     0.034 H 
ENDROOT
BRANCH   1  27
ATOM     27  N   LIG d   1       7.362   1.972  -4.563  0.00  0.00    -0.306 N 
ATOM     28  C   LIG d   1       8.607   2.430  -4.327  0.00  0.00     0.244 C 
ATOM     29  O   LIG d   1       9.331   1.850  -3.542  0.00  0.00    -0.270 OA
ATOM     30  H   LIG d   1       6.785   2.435  -5.190  0.00  0.00     0.149 HD
BRANCH  28  31
ATOM     31  C   LIG d   1       9.093   3.638  -5.023  0.00  0.00     0.037 A 
ATOM     32  C   LIG d   1       9.138   4.863  -4.352  0.00  0.00    -0.046 A 
ATOM     33  C   LIG d   1       9.592   5.987  -5.004  0.00  0.00    -0.019 A 
ATOM     34  H   LIG d   1       8.818   4.927  -3.322  0.00  0.00     0.063 H 
ATOM     35  C   LIG d   1      10.005   5.905  -6.329  0.00  0.00     0.120 A 
ATOM     36  H   LIG d   1       9.628   6.934  -4.486  0.00  0.00     0.065 H 
ATOM     37  C   LIG d   1       9.962   4.689  -7.000  0.00  0.00    -0.019 A 
ATOM     38  C   LIG d   1       9.514   3.558  -6.353  0.00  0.00    -0.046 A 
ATOM     39  H   LIG d   1      10.283   4.629  -8.029  0.00  0.00     0.065 H 
ATOM     40  H   LIG d   1       9.485   2.614  -6.874  0.00  0.00     0.063 H 
BRANCH  35  41
ATOM     41  O   LIG d   1      10.453   7.015  -6.968  0.00  0.00    -0.495 OA
BRANCH  41  42
ATOM     42  C   LIG d   1       9.615   8.172  -6.924  0.00  0.00     0.079 C 
ATOM     43  H   LIG d   1       9.890   8.788  -6.067  0.00  0.00     0.066 H 
ATOM     44  H   LIG d   1       9.743   8.749  -7.841  0.00  0.00     0.066 H 
ATOM     45  H   LIG d   1       8.574   7.864  -6.832  0.00  0.00     0.066 H 
ENDBRANCH  41  42
ENDBRANCH  35  41
ENDBRANCH  28  31
ENDBRANCH   1  27
BRANCH  12  46
ATOM     46  N   LIG d   1       7.478  -5.922  -5.608  0.00  0.00     0.222 N 
ATOM     47  H   LIG d   1       7.540  -6.637  -6.332  0.00  0.00     0.200 HD
ATOM     48  H   LIG d   1       8.415  -5.632  -5.335  0.00  0.00     0.200 HD
ATOM     49  H   LIG d   1       6.998  -6.316  -4.790  0.00  0.00     0.200 HD
ENDBRANCH  12  46
TORSDOF 5
ENDMDL
MODEL 5
REMARK VINA RESULT:      -5.6      4.577     10.890
REMARK  5 active torsions:
REMARK  status: ('A' for Active; 'I' for Inactive)
REMARK    1  A    between atoms: C_1  and  O_2 
REMARK    2  A    between atoms: O_2  and  C_3 
REMARK    3  A    between atoms: C_6  and  C_9 
REMARK       I    between atoms: C_9  and  N_11 
REMARK    4  A    between atoms: N_11  and  C_12 
REMARK    5  A    between atoms: C_23  and  N_48 
ROOT
ATOM      1  C   LIG d   1       9.178   2.983  -4.887  0.00  0.00     0.052 C 
ATOM      2  H   LIG d   1       8.247   3.464  -5.185  0.00  0.00     0.052 H 
ATOM      3  C   LIG d   1      10.233   3.054  -6.027  0.00  0.00    -0.016 C 
ATOM      4  C   LIG d   1       9.813   1.888  -6.952  0.00  0.00     0.017 C 
ATOM      5  N   LIG d   1       9.046   0.944  -6.131  0.00  0.00    -0.286 N 
ATOM      6  CA  LIG d   1       8.995   1.453  -4.748  0.00  0.00     0.121 C 
ATOM      7  HA  LIG d   1       9.782   1.010  -4.138  0.00  0.00     0.061 H 
ATOM      8  C   LIG d   1       7.634   1.152  -4.171  0.00  0.00     0.239 C 
ATOM      9  O   LIG d   1       7.178   1.825  -3.271  0.00  0.00    -0.274 OA
ATOM     10  N   LIG d   1       6.936   0.115  -4.680  0.00  0.00    -0.283 N 
ATOM     11  C   LIG d   1       5.521  -0.192  -4.438  0.00  0.00     0.058 C 
ATOM     12  C   LIG d   1       5.174  -1.428  -5.298  0.00  0.00    -0.006 C 
ATOM     13  H   LIG d   1       5.263  -2.344  -4.714  0.00  0.00     0.087 H 
ATOM     14  C   LIG d   1       6.251  -1.380  -6.417  0.00  0.00     0.019 C 
ATOM     15  CA  LIG d   1       7.481  -0.880  -5.624  0.00  0.00     0.108 C 
ATOM     16  HA  LIG d   1       7.972  -1.695  -5.091  0.00  0.00     0.060 H 
ATOM     17  C   LIG d   1       8.443  -0.187  -6.555  0.00  0.00     0.237 C 
ATOM     18  O   LIG d   1       8.671  -0.636  -7.659  0.00  0.00    -0.274 OA
ATOM     19  H   LIG d   1      11.236   2.893  -5.635  0.00  0.00     0.030 H 
ATOM     20  H   LIG d   1      10.171   4.006  -6.553  0.00  0.00     0.030 H 
ATOM     21  H   LIG d   1      10.698   1.396  -7.356  0.00  0.00     0.046 H 
ATOM     22  H   LIG d   1       9.191   2.265  -7.764  0.00  0.00     0.046 H 
ATOM     23  H   LIG d   1       5.366  -0.419  -3.383  0.00  0.00     0.052 H 
ATOM     24  H   LIG d   1       4.901   0.654  -4.735  0.00  0.00     0.052 H 
ATOM     25  H   LIG d   1       5.974  -0.672  -7.199  0.00  0.00     0.034 H 
ATOM     26  H   LIG d   1       6.429  -2.371  -6.834  0.00  0.00     0.034 H 
ENDROOT
BRANCH   1  27
ATOM     27  N   LIG d   1       9.699   3.568  -3.650  0.00  0.00    -0.306 N 
ATOM     28  C   LIG d   1       9.661   4.902  -3.467  0.00  0.00     0.244 C 
ATOM     29  O   LIG d   1       9.195   5.621  -4.329  0.00  0.00    -0.270 OA
ATOM     30  H   LIG d   1      10.071   2.994  -2.962  0.00  0.00     0.149 HD
BRANCH  28  31
ATOM     31  C   LIG d   1      10.187   5.491  -2.220  0.00  0.00     0.037 A 
ATOM     32  C   LIG d   1      11.160   4.814  -1.481  0.00  0.00    -0.046 A 
ATOM     33  C   LIG d   1      11.648   5.368  -0.318  0.00  0.00    -0.019 A 
ATOM     34  H   LIG d   1      11.530   3.858  -1.821  0.00  0.00     0.063 H 
ATOM     35  C   LIG d   1      11.173   6.598   0.121  0.00  0.00     0.120 A 
ATOM     36  H   LIG d   1      12.401   4.845   0.254  0.00  0.00     0.065 H 
ATOM     37  C   LIG d   1      10.205   7.275  -0.611  0.00  0.00    -0.019 A 
ATOM     38  C   LIG d   1       9.716   6.730  -1.778  0.00  0.00    -0.046 A 
ATOM     39  H   LIG d   1       9.838   8.230  -0.267  0.00  0.00     0.065 H 
ATOM     40  H   LIG d   1       8.967   7.259  -2.348  0.00  0.00     0.063 H 
BRANCH  35  41
ATOM     41  O   LIG d   1      11.657   7.140   1.267  0.00  0.00    -0.495 OA
BRANCH  41  42
ATOM     42  C   LIG d   1      11.538   8.556   1.416  0.00  0.00     0.079 C 
ATOM     43  H   LIG d   1      11.285   9.003   0.454  0.00  0.00     0.066 H 
ATOM     44  H   LIG d   1      10.752   8.781   2.139  0.00  0.00     0.066 H 
ATOM     45  H   LIG d   1      12.483   8.965   1.770  0.00  0.00     0.066 H 
ENDBRANCH  41  42
ENDBRANCH  35  41
ENDBRANCH  28  31
ENDBRANCH   1  27
BRANCH  12  46
ATOM     46  N   LIG d   1       3.824  -1.324  -5.882  0.00  0.00     0.222 N 
ATOM     47  H   LIG d   1       3.675  -0.386  -6.252  0.00  0.00     0.200 HD
ATOM     48  H   LIG d   1       3.714  -2.005  -6.631  0.00  0.00     0.200 HD
ATOM     49  H   LIG d   1       3.126  -1.512  -5.154  0.00  0.00     0.200 HD
ENDBRANCH  12  46
TORSDOF 5
ENDMDL
MODEL 6
REMARK VINA RESULT:      -5.6      7.931     13.417
REMARK  5 active torsions:
REMARK  status: ('A' for Active; 'I' for Inactive)
REMARK    1  A    between atoms: C_1  and  O_2 
REMARK    2  A    between atoms: O_2  and  C_3 
REMARK    3  A    between atoms: C_6  and  C_9 
REMARK       I    between atoms: C_9  and  N_11 
REMARK    4  A    between atoms: N_11  and  C_12 
REMARK    5  A    between atoms: C_23  and  N_48 
ROOT
ATOM      1  C   LIG d   1       9.784   7.332  -3.501  0.00  0.00     0.052 C 
ATOM      2  H   LIG d   1       8.819   6.937  -3.182  0.00  0.00     0.052 H 
ATOM      3  C   LIG d   1       9.635   8.210  -4.774  0.00  0.00    -0.016 C 
ATOM      4  C   LIG d   1       9.582   7.160  -5.908  0.00  0.00     0.017 C 
ATOM      5  N   LIG d   1      10.232   5.946  -5.398  0.00  0.00    -0.286 N 
ATOM      6  CA  LIG d   1      10.703   6.203  -4.024  0.00  0.00     0.121 C 
ATOM      7  HA  LIG d   1      11.750   6.506  -4.019  0.00  0.00     0.061 H 
ATOM      8  C   LIG d   1      10.500   4.956  -3.201  0.00  0.00     0.239 C 
ATOM      9  O   LIG d   1      10.372   5.020  -1.997  0.00  0.00    -0.274 OA
ATOM     10  N   LIG d   1      10.464   3.766  -3.837  0.00  0.00    -0.283 N 
ATOM     11  C   LIG d   1      10.040   2.481  -3.269  0.00  0.00     0.058 C 
ATOM     12  C   LIG d   1      10.107   1.439  -4.408  0.00  0.00    -0.006 C 
ATOM     13  H   LIG d   1      11.057   0.904  -4.388  0.00  0.00     0.087 H 
ATOM     14  C   LIG d   1       9.996   2.319  -5.684  0.00  0.00     0.019 C 
ATOM     15  CA  LIG d   1      10.810   3.564  -5.258  0.00  0.00     0.108 C 
ATOM     16  HA  LIG d   1      11.882   3.401  -5.379  0.00  0.00     0.060 H 
ATOM     17  C   LIG d   1      10.354   4.767  -6.043  0.00  0.00     0.237 C 
ATOM     18  O   LIG d   1      10.104   4.677  -7.226  0.00  0.00    -0.274 OA
ATOM     19  H   LIG d   1      10.498   8.865  -4.895  0.00  0.00     0.030 H 
ATOM     20  H   LIG d   1       8.712   8.789  -4.740  0.00  0.00     0.030 H 
ATOM     21  H   LIG d   1      10.118   7.529  -6.782  0.00  0.00     0.046 H 
ATOM     22  H   LIG d   1       8.545   6.945  -6.167  0.00  0.00     0.046 H 
ATOM     23  H   LIG d   1      10.714   2.192  -2.461  0.00  0.00     0.052 H 
ATOM     24  H   LIG d   1       9.019   2.558  -2.895  0.00  0.00     0.052 H 
ATOM     25  H   LIG d   1       8.959   2.581  -5.891  0.00  0.00     0.034 H 
ATOM     26  H   LIG d   1      10.454   1.826  -6.542  0.00  0.00     0.034 H 
ENDROOT
BRANCH   1  27
ATOM     27  N   LIG d   1      10.428   8.079  -2.418  0.00  0.00    -0.306 N 
ATOM     28  C   LIG d   1       9.794   8.240  -1.240  0.00  0.00     0.244 C 
ATOM     29  O   LIG d   1       8.686   7.767  -1.076  0.00  0.00    -0.270 OA
ATOM     30  H   LIG d   1      11.312   8.457  -2.549  0.00  0.00     0.149 HD
BRANCH  28  31
ATOM     31  C   LIG d   1      10.443   8.993  -0.149  0.00  0.00     0.037 A 
ATOM     32  C   LIG d   1      10.277  10.378  -0.057  0.00  0.00    -0.046 A 
ATOM     33  C   LIG d   1      10.885  11.076   0.963  0.00  0.00    -0.019 A 
ATOM     34  H   LIG d   1       9.673  10.899  -0.785  0.00  0.00     0.063 H 
ATOM     35  C   LIG d   1      11.662  10.406   1.899  0.00  0.00     0.120 A 
ATOM     36  H   LIG d   1      10.756  12.145   1.035  0.00  0.00     0.065 H 
ATOM     37  C   LIG d   1      11.830   9.028   1.812  0.00  0.00    -0.019 A 
ATOM     38  C   LIG d   1      11.221   8.322   0.798  0.00  0.00    -0.046 A 
ATOM     39  H   LIG d   1      12.435   8.511   2.541  0.00  0.00     0.065 H 
ATOM     40  H   LIG d   1      11.349   7.252   0.733  0.00  0.00     0.063 H 
BRANCH  35  41
ATOM     41  O   LIG d   1      12.258  11.097   2.903  0.00  0.00    -0.495 OA
BRANCH  41  42
ATOM     42  C   LIG d   1      12.617  10.362   4.075  0.00  0.00     0.079 C 
ATOM     43  H   LIG d   1      13.551   9.829   3.898  0.00  0.00     0.066 H 
ATOM     44  H   LIG d   1      12.744  11.050   4.911  0.00  0.00     0.066 H 
ATOM     45  H   LIG d   1      11.829   9.647   4.310  0.00  0.00     0.066 H 
ENDBRANCH  41  42
ENDBRANCH  35  41
ENDBRANCH  28  31
ENDBRANCH   1  27
BRANCH  12  46
ATOM     46  N   LIG d   1       8.983   0.488  -4.344  0.00  0.00     0.222 N 
ATOM     47  H   LIG d   1       9.334  -0.468  -4.317  0.00  0.00     0.200 HD
ATOM     48  H   LIG d   1       8.422   0.666  -3.513  0.00  0.00     0.200 HD
ATOM     49  H   LIG d   1       8.394   0.605  -5.176  0.00  0.00     0.200 HD
ENDBRANCH  12  46
TORSDOF 5
ENDMDL
MODEL 7
REMARK VINA RESULT:      -5.5      5.332      7.592
REMARK  5 active torsions:
REMARK  status: ('A' for Active; 'I' for Inactive)
REMARK    1  A    between atoms: C_1  and  O_2 
REMARK    2  A    between atoms: O_2  and  C_3 
REMARK    3  A    between atoms: C_6  and  C_9 
REMARK       I    between atoms: C_9  and  N_11 
REMARK    4  A    between atoms: N_11  and  C_12 
REMARK    5  A    between atoms: C_23  and  N_48 
ROOT
ATOM      1  C   LIG d   1       4.420  -3.121  -5.718  0.00  0.00     0.052 C 
ATOM      2  H   LIG d   1       3.382  -3.455  -5.698  0.00  0.00     0.052 H 
ATOM      3  C   LIG d   1       4.698  -2.094  -4.585  0.00  0.00    -0.016 C 
ATOM      4  C   LIG d   1       4.160  -0.774  -5.183  0.00  0.00     0.017 C 
ATOM      5  N   LIG d   1       4.167  -0.929  -6.642  0.00  0.00    -0.286 N 
ATOM      6  CA  LIG d   1       4.704  -2.263  -6.973  0.00  0.00     0.121 C 
ATOM      7  HA  LIG d   1       5.772  -2.213  -7.189  0.00  0.00     0.061 H 
ATOM      8  C   LIG d   1       3.942  -2.813  -8.152  0.00  0.00     0.239 C 
ATOM      9  O   LIG d   1       3.860  -4.009  -8.336  0.00  0.00    -0.274 OA
ATOM     10  N   LIG d   1       3.354  -1.942  -8.999  0.00  0.00    -0.283 N 
ATOM     11  C   LIG d   1       2.379  -2.263 -10.048  0.00  0.00     0.058 C 
ATOM     12  C   LIG d   1       1.950  -0.925 -10.692  0.00  0.00    -0.006 C 
ATOM     13  H   LIG d   1       2.540  -0.719 -11.585  0.00  0.00     0.087 H 
ATOM     14  C   LIG d   1       2.263   0.108  -9.573  0.00  0.00     0.019 C 
ATOM     15  CA  LIG d   1       3.565  -0.482  -8.980  0.00  0.00     0.108 C 
ATOM     16  HA  LIG d   1       4.436  -0.205  -9.575  0.00  0.00     0.060 H 
ATOM     17  C   LIG d   1       3.724  -0.034  -7.550  0.00  0.00     0.237 C 
ATOM     18  O   LIG d   1       3.460   1.103  -7.222  0.00  0.00    -0.274 OA
ATOM     19  H   LIG d   1       5.767  -2.020  -4.385  0.00  0.00     0.030 H 
ATOM     20  H   LIG d   1       4.153  -2.360  -3.680  0.00  0.00     0.030 H 
ATOM     21  H   LIG d   1       4.806   0.056  -4.894  0.00  0.00     0.046 H 
ATOM     22  H   LIG d   1       3.143  -0.595  -4.833  0.00  0.00     0.046 H 
ATOM     23  H   LIG d   1       2.839  -2.905 -10.799  0.00  0.00     0.052 H 
ATOM     24  H   LIG d   1       1.512  -2.759  -9.611  0.00  0.00     0.052 H 
ATOM     25  H   LIG d   1       1.468   0.133  -8.828  0.00  0.00     0.034 H 
ATOM     26  H   LIG d   1       2.437   1.099  -9.992  0.00  0.00     0.034 H 
ENDROOT
BRANCH   1  27
ATOM     27  N   LIG d   1       5.339  -4.259  -5.636  0.00  0.00    -0.306 N 
ATOM     28  C   LIG d   1       4.853  -5.513  -5.555  0.00  0.00     0.244 C 
ATOM     29  O   LIG d   1       3.652  -5.701  -5.548  0.00  0.00    -0.270 OA
ATOM     30  H   LIG d   1       6.297  -4.109  -5.641  0.00  0.00     0.149 HD
BRANCH  28  31
ATOM     31  C   LIG d   1       5.780  -6.659  -5.472  0.00  0.00     0.037 A 
ATOM     32  C   LIG d   1       5.284  -7.945  -5.243  0.00  0.00    -0.046 A 
ATOM     33  C   LIG d   1       6.152  -9.012  -5.168  0.00  0.00    -0.019 A 
ATOM     34  H   LIG d   1       4.222  -8.103  -5.126  0.00  0.00     0.063 H 
ATOM     35  C   LIG d   1       7.519  -8.811  -5.319  0.00  0.00     0.120 A 
ATOM     36  H   LIG d   1       5.770 -10.007  -4.991  0.00  0.00     0.065 H 
ATOM     37  C   LIG d   1       8.016  -7.533  -5.547  0.00  0.00    -0.019 A 
ATOM     38  C   LIG d   1       7.154  -6.461  -5.629  0.00  0.00    -0.046 A 
ATOM     39  H   LIG d   1       9.078  -7.380  -5.664  0.00  0.00     0.065 H 
ATOM     40  H   LIG d   1       7.541  -5.470  -5.810  0.00  0.00     0.063 H 
BRANCH  35  41
ATOM     41  O   LIG d   1       8.371  -9.864  -5.244  0.00  0.00    -0.495 OA
BRANCH  41  42
ATOM     42  C   LIG d   1       7.814 -11.165  -5.446  0.00  0.00     0.079 C 
ATOM     43  H   LIG d   1       6.758 -11.154  -5.176  0.00  0.00     0.066 H 
ATOM     44  H   LIG d   1       7.919 -11.446  -6.495  0.00  0.00     0.066 H 
ATOM     45  H   LIG d   1       8.341 -11.886  -4.823  0.00  0.00     0.066 H 
ENDBRANCH  41  42
ENDBRANCH  35  41
ENDBRANCH  28  31
ENDBRANCH   1  27
BRANCH  12  46
ATOM     46  N   LIG d   1       0.511  -0.910 -11.013  0.00  0.00     0.222 N 
ATOM     47  H   LIG d   1       0.355  -1.310 -11.937  0.00  0.00     0.200 HD
ATOM     48  H   LIG d   1      -0.007  -1.446 -10.319  0.00  0.00     0.200 HD
ATOM     49  H   LIG d   1       0.174   0.059 -11.006  0.00  0.00     0.200 HD
ENDBRANCH  12  46
TORSDOF 5
ENDMDL
MODEL 8
REMARK VINA RESULT:      -5.3      6.022      8.705
REMARK  5 active torsions:
REMARK  status: ('A' for Active; 'I' for Inactive)
REMARK    1  A    between atoms: C_1  and  O_2 
REMARK    2  A    between atoms: O_2  and  C_3 
REMARK    3  A    between atoms: C_6  and  C_9 
REMARK       I    between atoms: C_9  and  N_11 
REMARK    4  A    between atoms: N_11  and  C_12 
REMARK    5  A    between atoms: C_23  and  N_48 
ROOT
ATOM      1  C   LIG d   1       9.696   4.109  -5.258  0.00  0.00     0.052 C 
ATOM      2  H   LIG d   1      10.677   3.780  -4.915  0.00  0.00     0.052 H 
ATOM      3  C   LIG d   1       9.707   4.401  -6.784  0.00  0.00    -0.016 C 
ATOM      4  C   LIG d   1      10.316   5.820  -6.856  0.00  0.00     0.017 C 
ATOM      5  N   LIG d   1      10.087   6.451  -5.550  0.00  0.00    -0.286 N 
ATOM      6  CA  LIG d   1       9.348   5.506  -4.691  0.00  0.00     0.121 C 
ATOM      7  HA  LIG d   1       8.276   5.698  -4.731  0.00  0.00     0.061 H 
ATOM      8  C   LIG d   1       9.865   5.629  -3.280  0.00  0.00     0.239 C 
ATOM      9  O   LIG d   1       9.772   4.703  -2.502  0.00  0.00    -0.274 OA
ATOM     10  N   LIG d   1      10.433   6.794  -2.904  0.00  0.00    -0.283 N 
ATOM     11  C   LIG d   1      11.206   7.036  -1.679  0.00  0.00     0.058 C 
ATOM     12  C   LIG d   1      11.703   8.499  -1.741  0.00  0.00    -0.006 C 
ATOM     13  H   LIG d   1      11.025   9.161  -1.203  0.00  0.00     0.087 H 
ATOM     14  C   LIG d   1      11.679   8.803  -3.265  0.00  0.00     0.019 C 
ATOM     15  CA  LIG d   1      10.410   8.035  -3.702  0.00  0.00     0.108 C 
ATOM     16  HA  LIG d   1       9.505   8.610  -3.501  0.00  0.00     0.060 H 
ATOM     17  C   LIG d   1      10.507   7.674  -5.162  0.00  0.00     0.237 C 
ATOM     18  O   LIG d   1      10.953   8.462  -5.968  0.00  0.00    -0.274 OA
ATOM     19  H   LIG d   1       8.694   4.395  -7.186  0.00  0.00     0.030 H 
ATOM     20  H   LIG d   1      10.336   3.683  -7.311  0.00  0.00     0.030 H 
ATOM     21  H   LIG d   1       9.824   6.397  -7.639  0.00  0.00     0.046 H 
ATOM     22  H   LIG d   1      11.386   5.755  -7.055  0.00  0.00     0.046 H 
ATOM     23  H   LIG d   1      10.570   6.897  -0.805  0.00  0.00     0.052 H 
ATOM     24  H   LIG d   1      12.057   6.356  -1.635  0.00  0.00     0.052 H 
ATOM     25  H   LIG d   1      12.566   8.408  -3.759  0.00  0.00     0.034 H 
ATOM     26  H   LIG d   1      11.573   9.873  -3.449  0.00  0.00     0.034 H 
ENDROOT
BRANCH   1  27
ATOM     27  N   LIG d   1       8.663   3.129  -4.916  0.00  0.00    -0.306 N 
ATOM     28  C   LIG d   1       9.016   1.905  -4.476  0.00  0.00     0.244 C 
ATOM     29  O   LIG d   1      10.190   1.614  -4.363  0.00  0.00    -0.270 OA
ATOM     30  H   LIG d   1       7.726   3.361  -5.006  0.00  0.00     0.149 HD
BRANCH  28  31
ATOM     31  C   LIG d   1       7.975   0.917  -4.131  0.00  0.00     0.037 A 
ATOM     32  C   LIG d   1       6.826   1.319  -3.444  0.00  0.00    -0.046 A 
ATOM     33  C   LIG d   1       5.857   0.394  -3.125  0.00  0.00    -0.019 A 
ATOM     34  H   LIG d   1       6.699   2.354  -3.165  0.00  0.00     0.063 H 
ATOM     35  C   LIG d   1       6.020  -0.938  -3.485  0.00  0.00     0.120 A 
ATOM     36  H   LIG d   1       4.969   0.704  -2.595  0.00  0.00     0.065 H 
ATOM     37  C   LIG d   1       7.161  -1.343  -4.168  0.00  0.00    -0.019 A 
ATOM     38  C   LIG d   1       8.133  -0.423  -4.496  0.00  0.00    -0.046 A 
ATOM     39  H   LIG d   1       7.285  -2.379  -4.446  0.00  0.00     0.065 H 
ATOM     40  H   LIG d   1       9.016  -0.738  -5.030  0.00  0.00     0.063 H 
BRANCH  35  41
ATOM     41  O   LIG d   1       5.063  -1.847  -3.169  0.00  0.00    -0.495 OA
BRANCH  41  42
ATOM     42  C   LIG d   1       4.277  -1.584  -2.005  0.00  0.00     0.079 C 
ATOM     43  H   LIG d   1       4.135  -2.509  -1.445  0.00  0.00     0.066 H 
ATOM     44  H   LIG d   1       4.789  -0.854  -1.378  0.00  0.00     0.066 H 
ATOM     45  H   LIG d   1       3.307  -1.187  -2.304  0.00  0.00     0.066 H 
ENDBRANCH  41  42
ENDBRANCH  35  41
ENDBRANCH  28  31
ENDBRANCH   1  27
BRANCH  12  46
ATOM     46  N   LIG d   1      13.074   8.631  -1.215  0.00  0.00     0.222 N 
ATOM     47  H   LIG d   1      13.465   7.709  -1.023  0.00  0.00     0.200 HD
ATOM     48  H   LIG d   1      13.662   9.115  -1.891  0.00  0.00     0.200 HD
ATOM     49  H   LIG d   1      13.050   9.172  -0.344  0.00  0.00     0.200 HD
ENDBRANCH  12  46
TORSDOF 5
ENDMDL
MODEL 9
REMARK VINA RESULT:      -5.2      3.274      9.029
REMARK  5 active torsions:
REMARK  status: ('A' for Active; 'I' for Inactive)
REMARK    1  A    between atoms: C_1  and  O_2 
REMARK    2  A    between atoms: O_2  and  C_3 
REMARK    3  A    between atoms: C_6  and  C_9 
REMARK       I    between atoms: C_9  and  N_11 
REMARK    4  A    between atoms: N_11  and  C_12 
REMARK    5  A    between atoms: C_23  and  N_48 
ROOT
ATOM      1  C   LIG d   1       7.460  -0.422  -4.633  0.00  0.00     0.052 C 
ATOM      2  H   LIG d   1       8.182  -0.805  -5.354  0.00  0.00     0.052 H 
ATOM      3  C   LIG d   1       7.312  -1.388  -3.424  0.00  0.00    -0.016 C 
ATOM      4  C   LIG d   1       6.345  -2.466  -3.965  0.00  0.00     0.017 C 
ATOM      5  N   LIG d   1       5.592  -1.852  -5.066  0.00  0.00    -0.286 N 
ATOM      6  CA  LIG d   1       6.026  -0.450  -5.211  0.00  0.00     0.121 C 
ATOM      7  HA  LIG d   1       5.362   0.224  -4.668  0.00  0.00     0.061 H 
ATOM      8  C   LIG d   1       6.059  -0.104  -6.679  0.00  0.00     0.239 C 
ATOM      9  O   LIG d   1       6.781   0.779  -7.092  0.00  0.00    -0.274 OA
ATOM     10  N   LIG d   1       5.267  -0.799  -7.521  0.00  0.00    -0.283 N 
ATOM     11  C   LIG d   1       5.327  -0.791  -8.987  0.00  0.00     0.058 C 
ATOM     12  C   LIG d   1       4.269  -1.801  -9.488  0.00  0.00    -0.006 C 
ATOM     13  H   LIG d   1       3.333  -1.295  -9.725  0.00  0.00     0.087 H 
ATOM     14  C   LIG d   1       4.093  -2.745  -8.266  0.00  0.00     0.019 C 
ATOM     15  CA  LIG d   1       4.214  -1.742  -7.095  0.00  0.00     0.108 C 
ATOM     16  HA  LIG d   1       3.273  -1.221  -6.916  0.00  0.00     0.060 H 
ATOM     17  C   LIG d   1       4.679  -2.459  -5.854  0.00  0.00     0.237 C 
ATOM     18  O   LIG d   1       4.244  -3.555  -5.570  0.00  0.00    -0.274 OA
ATOM     19  H   LIG d   1       6.876  -0.872  -2.569  0.00  0.00     0.030 H 
ATOM     20  H   LIG d   1       8.274  -1.829  -3.161  0.00  0.00     0.030 H 
ATOM     21  H   LIG d   1       5.661  -2.782  -3.177  0.00  0.00     0.046 H 
ATOM     22  H   LIG d   1       6.912  -3.321  -4.334  0.00  0.00     0.046 H 
ATOM     23  H   LIG d   1       5.094   0.206  -9.363  0.00  0.00     0.052 H 
ATOM     24  H   LIG d   1       6.318  -1.096  -9.322  0.00  0.00     0.052 H 
ATOM     25  H   LIG d   1       4.887  -3.491  -8.229  0.00  0.00     0.034 H 
ATOM     26  H   LIG d   1       3.112  -3.220  -8.276  0.00  0.00     0.034 H 
ENDROOT
BRANCH   1  27
ATOM     27  N   LIG d   1       7.825   0.925  -4.189  0.00  0.00    -0.306 N 
ATOM     28  C   LIG d   1       9.037   1.429  -4.495  0.00  0.00     0.244 C 
ATOM     29  O   LIG d   1       9.827   0.767  -5.138  0.00  0.00    -0.270 OA
ATOM     30  H   LIG d   1       7.194   1.454  -3.676  0.00  0.00     0.149 HD
BRANCH  28  31
ATOM     31  C   LIG d   1       9.404   2.787  -4.048  0.00  0.00     0.037 A 
ATOM     32  C   LIG d   1      10.114   2.965  -2.858  0.00  0.00    -0.046 A 
ATOM     33  C   LIG d   1      10.456   4.234  -2.445  0.00  0.00    -0.019 A 
ATOM     34  H   LIG d   1      10.394   2.109  -2.263  0.00  0.00     0.063 H 
ATOM     35  C   LIG d   1      10.096   5.336  -3.210  0.00  0.00     0.120 A 
ATOM     36  H   LIG d   1      11.005   4.372  -1.525  0.00  0.00     0.065 H 
ATOM     37  C   LIG d   1       9.390   5.164  -4.395  0.00  0.00    -0.019 A 
ATOM     38  C   LIG d   1       9.049   3.898  -4.818  0.00  0.00    -0.046 A 
ATOM     39  H   LIG d   1       9.111   6.023  -4.987  0.00  0.00     0.065 H 
ATOM     40  H   LIG d   1       8.504   3.765  -5.740  0.00  0.00     0.063 H 
BRANCH  35  41
ATOM     41  O   LIG d   1      10.435   6.585  -2.800  0.00  0.00    -0.495 OA
BRANCH  41  42
ATOM     42  C   LIG d   1       9.570   7.214  -1.852  0.00  0.00     0.079 C 
ATOM     43  H   LIG d   1       8.532   7.028  -2.128  0.00  0.00     0.066 H 
ATOM     44  H   LIG d   1       9.761   6.806  -0.859  0.00  0.00     0.066 H 
ATOM     45  H   LIG d   1       9.758   8.287  -1.846  0.00  0.00     0.066 H 
ENDBRANCH  41  42
ENDBRANCH  35  41
ENDBRANCH  28  31
ENDBRANCH   1  27
BRANCH  12  46
ATOM     46  N   LIG d   1       4.750  -2.560 -10.656  0.00  0.00     0.222 N 
ATOM     47  H   LIG d   1       5.761  -2.465 -10.743  0.00  0.00     0.200 HD
ATOM     48  H   LIG d   1       4.509  -3.545 -10.556  0.00  0.00     0.200 HD
ATOM     49  H   LIG d   1       4.305  -2.193 -11.505  0.00  0.00     0.200 HD
ENDBRANCH  12  46
TORSDOF 5
ENDMDL
