MODEL 1
REMARK VINA RESULT:      -5.2      0.000      0.000
REMARK  8 active torsions:
REMARK  status: ('A' for Active; 'I' for Inactive)
REMARK    1  A    between atoms: C_1  and  C_2 
REMARK    2  A    between atoms: C_2  and  C_3 
REMARK       I    between atoms: C_3  and  N_5 
REMARK    3  A    between atoms: C_7  and  C_21 
REMARK       I    between atoms: N_9  and  C_17 
REMARK    4  A    between atoms: C_11  and  C_15 
REMARK    5  A    between atoms: C_15  and  C_16 
REMARK    6  A    between atoms: C_17  and  C_19 
REMARK    7  A    between atoms: C_19  and  C_20 
REMARK    8  A    between atoms: C_21  and  C_22 
ROOT
ATOM      1  C   LIG d   1       6.181  -0.224  -6.565  0.00  0.00     0.215 C 
ATOM      2  O   LIG d   1       6.536   0.889  -6.242  0.00  0.00    -0.276 OA
ATOM      3  N   LIG d   1       5.332  -0.916  -5.778  0.00  0.00    -0.299 N 
ATOM      4  C   LIG d   1       4.979  -2.301  -6.113  0.00  0.00     0.029 C 
ATOM      5  C   LIG d   1       5.326  -3.198  -4.908  0.00  0.00     0.061 C 
ATOM      6  C   LIG d   1       6.847  -3.159  -4.693  0.00  0.00     0.029 C 
ATOM      7  N   LIG d   1       7.237  -1.790  -4.331  0.00  0.00    -0.299 N 
ATOM      8  C   LIG d   1       6.615  -1.142  -3.169  0.00  0.00     0.029 C 
ATOM      9  C   LIG d   1       5.091  -1.148  -3.360  0.00  0.00     0.061 C 
ATOM     10  C   LIG d   1       4.752  -0.286  -4.586  0.00  0.00     0.029 C 
ATOM     11  C   LIG d   1       4.678  -2.576  -3.680  0.00  0.00     0.151 C 
ATOM     12  O   LIG d   1       3.883  -3.182  -3.001  0.00  0.00    -0.296 OA
ATOM     13  C   LIG d   1       8.160  -1.133  -5.060  0.00  0.00     0.215 C 
ATOM     14  O   LIG d   1       8.689  -1.680  -6.005  0.00  0.00    -0.276 OA
ATOM     15  H   LIG d   1       3.912  -2.366  -6.325  0.00  0.00     0.048 H 
ATOM     16  H   LIG d   1       5.547  -2.624  -6.986  0.00  0.00     0.048 H 
ATOM     17  H   LIG d   1       7.120  -3.842  -3.888  0.00  0.00     0.048 H 
ATOM     18  H   LIG d   1       7.354  -3.455  -5.611  0.00  0.00     0.048 H 
ATOM     19  H   LIG d   1       6.970  -0.114  -3.091  0.00  0.00     0.048 H 
ATOM     20  H   LIG d   1       6.872  -1.690  -2.264  0.00  0.00     0.048 H 
ATOM     21  H   LIG d   1       5.171   0.712  -4.458  0.00  0.00     0.048 H 
ATOM     22  H   LIG d   1       3.669  -0.219  -4.698  0.00  0.00     0.048 H 
ENDROOT
BRANCH   1  23
ATOM     23  C   LIG d   1       6.692  -0.837  -7.843  0.00  0.00     0.021 C 
ATOM     24  H   LIG d   1       7.400  -1.632  -7.607  0.00  0.00     0.036 H 
ATOM     25  H   LIG d   1       5.857  -1.250  -8.408  0.00  0.00     0.036 H 
BRANCH  23  26
ATOM     26  C   LIG d   1       7.392   0.237  -8.679  0.00  0.00    -0.057 C 
ATOM     27  H   LIG d   1       6.928   1.205  -8.487  0.00  0.00     0.023 H 
ATOM     28  H   LIG d   1       8.446   0.280  -8.408  0.00  0.00     0.023 H 
ATOM     29  H   LIG d   1       7.298  -0.007  -9.737  0.00  0.00     0.023 H 
ENDBRANCH  23  26
ENDBRANCH   1  23
BRANCH   9  30
ATOM     30  C   LIG d   1       4.365  -0.635  -2.114  0.00  0.00    -0.041 C 
ATOM     31  H   LIG d   1       3.291  -0.770  -2.238  0.00  0.00     0.027 H 
ATOM     32  H   LIG d   1       4.703  -1.195  -1.241  0.00  0.00     0.027 H 
BRANCH  30  33
ATOM     33  C   LIG d   1       4.674   0.850  -1.919  0.00  0.00    -0.064 C 
ATOM     34  H   LIG d   1       5.449   0.963  -1.159  0.00  0.00     0.023 H 
ATOM     35  H   LIG d   1       5.024   1.275  -2.860  0.00  0.00     0.023 H 
ATOM     36  H   LIG d   1       3.772   1.371  -1.598  0.00  0.00     0.023 H 
ENDBRANCH  30  33
ENDBRANCH   9  30
BRANCH   5  37
ATOM     37  C   LIG d   1       4.825  -4.625  -5.128  0.00  0.00    -0.041 C 
ATOM     38  H   LIG d   1       5.668  -5.316  -5.096  0.00  0.00     0.027 H 
ATOM     39  H   LIG d   1       4.113  -4.886  -4.345  0.00  0.00     0.027 H 
BRANCH  37  40
ATOM     40  C   LIG d   1       4.139  -4.721  -6.493  0.00  0.00    -0.064 C 
ATOM     41  H   LIG d   1       4.629  -5.488  -7.093  0.00  0.00     0.023 H 
ATOM     42  H   LIG d   1       3.090  -4.984  -6.354  0.00  0.00     0.023 H 
ATOM     43  H   LIG d   1       4.209  -3.760  -7.003  0.00  0.00     0.023 H 
ENDBRANCH  37  40
ENDBRANCH   5  37
BRANCH  13  44
ATOM     44  C   LIG d   1       8.535   0.282  -4.702  0.00  0.00     0.021 C 
ATOM     45  H   LIG d   1       7.804   0.971  -5.127  0.00  0.00     0.036 H 
ATOM     46  H   LIG d   1       8.549   0.391  -3.618  0.00  0.00     0.036 H 
BRANCH  44  47
ATOM     47  C   LIG d   1       9.922   0.600  -5.265  0.00  0.00    -0.057 C 
ATOM     48  H   LIG d   1      10.095   0.007  -6.163  0.00  0.00     0.023 H 
ATOM     49  H   LIG d   1       9.980   1.659  -5.512  0.00  0.00     0.023 H 
ATOM     50  H   LIG d   1      10.680   0.359  -4.519  0.00  0.00     0.023 H 
ENDBRANCH  44  47
ENDBRANCH  13  44
TORSDOF 8
ENDMDL
MODEL 2
REMARK VINA RESULT:      -5.0      0.127      3.894
REMARK  8 active torsions:
REMARK  status: ('A' for Active; 'I' for Inactive)
REMARK    1  A    between atoms: C_1  and  C_2 
REMARK    2  A    between atoms: C_2  and  C_3 
REMARK       I    between atoms: C_3  and  N_5 
REMARK    3  A    between atoms: C_7  and  C_21 
REMARK       I    between atoms: N_9  and  C_17 
REMARK    4  A    between atoms: C_11  and  C_15 
REMARK    5  A    between atoms: C_15  and  C_16 
REMARK    6  A    between atoms: C_17  and  C_19 
REMARK    7  A    between atoms: C_19  and  C_20 
REMARK    8  A    between atoms: C_21  and  C_22 
ROOT
ATOM      1  C   LIG d   1       8.169  -1.098  -5.018  0.00  0.00     0.215 C 
ATOM      2  O   LIG d   1       8.666  -1.624  -5.990  0.00  0.00    -0.276 OA
ATOM      3  N   LIG d   1       7.236  -1.755  -4.299  0.00  0.00    -0.299 N 
ATOM      4  C   LIG d   1       6.558  -1.085  -3.183  0.00  0.00     0.029 C 
ATOM      5  C   LIG d   1       5.038  -1.139  -3.433  0.00  0.00     0.061 C 
ATOM      6  C   LIG d   1       4.723  -0.331  -4.702  0.00  0.00     0.029 C 
ATOM      7  N   LIG d   1       5.366  -0.987  -5.848  0.00  0.00    -0.299 N 
ATOM      8  C   LIG d   1       5.067  -2.394  -6.141  0.00  0.00     0.029 C 
ATOM      9  C   LIG d   1       5.387  -3.234  -4.895  0.00  0.00     0.061 C 
ATOM     10  C   LIG d   1       6.898  -3.145  -4.625  0.00  0.00     0.029 C 
ATOM     11  C   LIG d   1       4.677  -2.589  -3.716  0.00  0.00     0.151 C 
ATOM     12  O   LIG d   1       3.873  -3.191  -3.044  0.00  0.00    -0.296 OA
ATOM     13  C   LIG d   1       6.224  -0.299  -6.627  0.00  0.00     0.215 C 
ATOM     14  O   LIG d   1       6.451   0.869  -6.397  0.00  0.00    -0.276 OA
ATOM     15  H   LIG d   1       6.796  -1.596  -2.250  0.00  0.00     0.048 H 
ATOM     16  H   LIG d   1       6.884  -0.046  -3.126  0.00  0.00     0.048 H 
ATOM     17  H   LIG d   1       3.644  -0.299  -4.856  0.00  0.00     0.048 H 
ATOM     18  H   LIG d   1       5.107   0.683  -4.595  0.00  0.00     0.048 H 
ATOM     19  H   LIG d   1       5.679  -2.731  -6.977  0.00  0.00     0.048 H 
ATOM     20  H   LIG d   1       4.012  -2.499  -6.391  0.00  0.00     0.048 H 
ATOM     21  H   LIG d   1       7.446  -3.457  -5.514  0.00  0.00     0.048 H 
ATOM     22  H   LIG d   1       7.158  -3.792  -3.787  0.00  0.00     0.048 H 
ENDROOT
BRANCH   1  23
ATOM     23  C   LIG d   1       8.588   0.292  -4.615  0.00  0.00     0.021 C 
ATOM     24  H   LIG d   1       7.790   0.996  -4.852  0.00  0.00     0.036 H 
ATOM     25  H   LIG d   1       8.789   0.316  -3.545  0.00  0.00     0.036 H 
BRANCH  23  26
ATOM     26  C   LIG d   1       9.855   0.683  -5.380  0.00  0.00    -0.057 C 
ATOM     27  H   LIG d   1       9.800   0.294  -6.396  0.00  0.00     0.023 H 
ATOM     28  H   LIG d   1       9.940   1.769  -5.412  0.00  0.00     0.023 H 
ATOM     29  H   LIG d   1      10.727   0.265  -4.877  0.00  0.00     0.023 H 
ENDBRANCH  23  26
ENDBRANCH   1  23
BRANCH   9  30
ATOM     30  C   LIG d   1       4.948  -4.690  -5.069  0.00  0.00    -0.041 C 
ATOM     31  H   LIG d   1       5.827  -5.332  -5.116  0.00  0.00     0.027 H 
ATOM     32  H   LIG d   1       4.327  -4.985  -4.223  0.00  0.00     0.027 H 
BRANCH  30  33
ATOM     33  C   LIG d   1       4.145  -4.829  -6.364  0.00  0.00    -0.064 C 
ATOM     34  H   LIG d   1       4.113  -3.866  -6.876  0.00  0.00     0.023 H 
ATOM     35  H   LIG d   1       4.621  -5.568  -7.009  0.00  0.00     0.023 H 
ATOM     36  H   LIG d   1       3.130  -5.149  -6.130  0.00  0.00     0.023 H 
ENDBRANCH  30  33
ENDBRANCH   9  30
BRANCH   5  37
ATOM     37  C   LIG d   1       4.267  -0.609  -2.223  0.00  0.00    -0.041 C 
ATOM     38  H   LIG d   1       3.199  -0.613  -2.441  0.00  0.00     0.027 H 
ATOM     39  H   LIG d   1       4.464  -1.245  -1.360  0.00  0.00     0.027 H 
BRANCH  37  40
ATOM     40  C   LIG d   1       4.719   0.821  -1.917  0.00  0.00    -0.064 C 
ATOM     41  H   LIG d   1       5.403   1.161  -2.694  0.00  0.00     0.023 H 
ATOM     42  H   LIG d   1       3.849   1.478  -1.886  0.00  0.00     0.023 H 
ATOM     43  H   LIG d   1       5.225   0.843  -0.952  0.00  0.00     0.023 H 
ENDBRANCH  37  40
ENDBRANCH   5  37
BRANCH  13  44
ATOM     44  C   LIG d   1       6.905  -0.985  -7.785  0.00  0.00     0.021 C 
ATOM     45  H   LIG d   1       7.765  -1.547  -7.421  0.00  0.00     0.036 H 
ATOM     46  H   LIG d   1       6.203  -1.666  -8.267  0.00  0.00     0.036 H 
BRANCH  44  47
ATOM     47  C   LIG d   1       7.371   0.065  -8.795  0.00  0.00    -0.057 C 
ATOM     48  H   LIG d   1       8.438  -0.056  -8.979  0.00  0.00     0.023 H 
ATOM     49  H   LIG d   1       6.824  -0.062  -9.729  0.00  0.00     0.023 H 
ATOM     50  H   LIG d   1       7.181   1.062  -8.396  0.00  0.00     0.023 H 
ENDBRANCH  44  47
ENDBRANCH  13  44
TORSDOF 8
ENDMDL
MODEL 3
REMARK VINA RESULT:      -4.8      1.776      3.033
REMARK  8 active torsions:
REMARK  status: ('A' for Active; 'I' for Inactive)
REMARK    1  A    between atoms: C_1  and  C_2 
REMARK    2  A    between atoms: C_2  and  C_3 
REMARK       I    between atoms: C_3  and  N_5 
REMARK    3  A    between atoms: C_7  and  C_21 
REMARK       I    between atoms: N_9  and  C_17 
REMARK    4  A    between atoms: C_11  and  C_15 
REMARK    5  A    between atoms: C_15  and  C_16 
REMARK    6  A    between atoms: C_17  and  C_19 
REMARK    7  A    between atoms: C_19  and  C_20 
REMARK    8  A    between atoms: C_21  and  C_22 
ROOT
ATOM      1  C   LIG d   1       7.625  -0.730  -5.531  0.00  0.00     0.215 C 
ATOM      2  O   LIG d   1       8.342  -1.073  -4.616  0.00  0.00    -0.276 OA
ATOM      3  N   LIG d   1       6.393  -0.244  -5.276  0.00  0.00    -0.299 N 
ATOM      4  C   LIG d   1       5.483   0.077  -6.382  0.00  0.00     0.029 C 
ATOM      5  C   LIG d   1       4.176  -0.718  -6.184  0.00  0.00     0.061 C 
ATOM      6  C   LIG d   1       4.497  -2.217  -6.284  0.00  0.00     0.029 C 
ATOM      7  N   LIG d   1       5.389  -2.583  -5.176  0.00  0.00    -0.299 N 
ATOM      8  C   LIG d   1       4.974  -2.316  -3.793  0.00  0.00     0.029 C 
ATOM      9  C   LIG d   1       4.661  -0.818  -3.653  0.00  0.00     0.061 C 
ATOM     10  C   LIG d   1       5.957  -0.028  -3.891  0.00  0.00     0.029 C 
ATOM     11  C   LIG d   1       3.694  -0.450  -4.767  0.00  0.00     0.151 C 
ATOM     12  O   LIG d   1       2.607   0.027  -4.541  0.00  0.00    -0.296 OA
ATOM     13  C   LIG d   1       6.580  -3.160  -5.427  0.00  0.00     0.215 C 
ATOM     14  O   LIG d   1       6.910  -3.400  -6.569  0.00  0.00    -0.276 OA
ATOM     15  H   LIG d   1       5.267   1.145  -6.381  0.00  0.00     0.048 H 
ATOM     16  H   LIG d   1       5.944  -0.205  -7.329  0.00  0.00     0.048 H 
ATOM     17  H   LIG d   1       3.574  -2.794  -6.217  0.00  0.00     0.048 H 
ATOM     18  H   LIG d   1       4.988  -2.424  -7.235  0.00  0.00     0.048 H 
ATOM     19  H   LIG d   1       5.780  -2.587  -3.111  0.00  0.00     0.048 H 
ATOM     20  H   LIG d   1       4.083  -2.899  -3.559  0.00  0.00     0.048 H 
ATOM     21  H   LIG d   1       6.729  -0.378  -3.205  0.00  0.00     0.048 H 
ATOM     22  H   LIG d   1       5.773   1.034  -3.727  0.00  0.00     0.048 H 
ENDROOT
BRANCH   1  23
ATOM     23  C   LIG d   1       8.106  -0.852  -6.953  0.00  0.00     0.021 C 
ATOM     24  H   LIG d   1       7.567  -1.658  -7.452  0.00  0.00     0.036 H 
ATOM     25  H   LIG d   1       7.927   0.085  -7.479  0.00  0.00     0.036 H 
BRANCH  23  26
ATOM     26  C   LIG d   1       9.605  -1.162  -6.959  0.00  0.00    -0.057 C 
ATOM     27  H   LIG d   1       9.789  -2.050  -7.562  0.00  0.00     0.023 H 
ATOM     28  H   LIG d   1      10.149  -0.318  -7.381  0.00  0.00     0.023 H 
ATOM     29  H   LIG d   1       9.943  -1.339  -5.938  0.00  0.00     0.023 H 
ENDBRANCH  23  26
ENDBRANCH   1  23
BRANCH   9  30
ATOM     30  C   LIG d   1       4.066  -0.493  -2.281  0.00  0.00    -0.041 C 
ATOM     31  H   LIG d   1       2.981  -0.434  -2.361  0.00  0.00     0.027 H 
ATOM     32  H   LIG d   1       4.337  -1.276  -1.573  0.00  0.00     0.027 H 
BRANCH  30  33
ATOM     33  C   LIG d   1       4.614   0.849  -1.793  0.00  0.00    -0.064 C 
ATOM     34  H   LIG d   1       5.489   0.677  -1.165  0.00  0.00     0.023 H 
ATOM     35  H   LIG d   1       4.898   1.460  -2.651  0.00  0.00     0.023 H 
ATOM     36  H   LIG d   1       3.848   1.367  -1.215  0.00  0.00     0.023 H 
ENDBRANCH  30  33
ENDBRANCH   9  30
BRANCH   5  37
ATOM     37  C   LIG d   1       3.123  -0.298  -7.210  0.00  0.00    -0.041 C 
ATOM     38  H   LIG d   1       2.837  -1.161  -7.811  0.00  0.00     0.027 H 
ATOM     39  H   LIG d   1       2.245   0.090  -6.692  0.00  0.00     0.027 H 
BRANCH  37  40
ATOM     40  C   LIG d   1       3.700   0.788  -8.120  0.00  0.00    -0.064 C 
ATOM     41  H   LIG d   1       3.522   1.767  -7.675  0.00  0.00     0.023 H 
ATOM     42  H   LIG d   1       4.773   0.632  -8.236  0.00  0.00     0.023 H 
ATOM     43  H   LIG d   1       3.218   0.738  -9.096  0.00  0.00     0.023 H 
ENDBRANCH  37  40
ENDBRANCH   5  37
BRANCH  13  44
ATOM     44  C   LIG d   1       7.505  -3.506  -4.288  0.00  0.00     0.021 C 
ATOM     45  H   LIG d   1       8.102  -2.633  -4.026  0.00  0.00     0.036 H 
ATOM     46  H   LIG d   1       6.916  -3.816  -3.424  0.00  0.00     0.036 H 
BRANCH  44  47
ATOM     47  C   LIG d   1       8.429  -4.649  -4.711  0.00  0.00    -0.057 C 
ATOM     48  H   LIG d   1       8.222  -4.920  -5.746  0.00  0.00     0.023 H 
ATOM     49  H   LIG d   1       9.467  -4.331  -4.618  0.00  0.00     0.023 H 
ATOM     50  H   LIG d   1       8.256  -5.513  -4.068  0.00  0.00     0.023 H 
ENDBRANCH  44  47
ENDBRANCH  13  44
TORSDOF 8
ENDMDL
MODEL 4
REMARK VINA RESULT:      -4.8      1.717      3.690
REMARK  8 active torsions:
REMARK  status: ('A' for Active; 'I' for Inactive)
REMARK    1  A    between atoms: C_1  and  C_2 
REMARK    2  A    between atoms: C_2  and  C_3 
REMARK       I    between atoms: C_3  and  N_5 
REMARK    3  A    between atoms: C_7  and  C_21 
REMARK       I    between atoms: N_9  and  C_17 
REMARK    4  A    between atoms: C_11  and  C_15 
REMARK    5  A    between atoms: C_15  and  C_16 
REMARK    6  A    between atoms: C_17  and  C_19 
REMARK    7  A    between atoms: C_19  and  C_20 
REMARK    8  A    between atoms: C_21  and  C_22 
ROOT
ATOM      1  C   LIG d   1       5.619  -1.736  -6.665  0.00  0.00     0.215 C 
ATOM      2  O   LIG d   1       6.653  -2.019  -7.230  0.00  0.00    -0.276 OA
ATOM      3  N   LIG d   1       5.578  -0.688  -5.817  0.00  0.00    -0.299 N 
ATOM      4  C   LIG d   1       4.357  -0.405  -5.053  0.00  0.00     0.029 C 
ATOM      5  C   LIG d   1       4.713  -0.388  -3.553  0.00  0.00     0.061 C 
ATOM      6  C   LIG d   1       5.183  -1.794  -3.148  0.00  0.00     0.029 C 
ATOM      7  N   LIG d   1       6.420  -2.105  -3.875  0.00  0.00    -0.299 N 
ATOM      8  C   LIG d   1       7.576  -1.208  -3.757  0.00  0.00     0.029 C 
ATOM      9  C   LIG d   1       7.145   0.207  -4.173  0.00  0.00     0.061 C 
ATOM     10  C   LIG d   1       6.752   0.178  -5.658  0.00  0.00     0.029 C 
ATOM     11  C   LIG d   1       5.895   0.553  -3.379  0.00  0.00     0.151 C 
ATOM     12  O   LIG d   1       5.843   1.518  -2.653  0.00  0.00    -0.296 OA
ATOM     13  C   LIG d   1       6.493  -3.208  -4.645  0.00  0.00     0.215 C 
ATOM     14  O   LIG d   1       5.544  -3.960  -4.722  0.00  0.00    -0.276 OA
ATOM     15  H   LIG d   1       3.959   0.567  -5.347  0.00  0.00     0.048 H 
ATOM     16  H   LIG d   1       3.615  -1.180  -5.246  0.00  0.00     0.048 H 
ATOM     17  H   LIG d   1       5.372  -1.820  -2.074  0.00  0.00     0.048 H 
ATOM     18  H   LIG d   1       4.413  -2.523  -3.401  0.00  0.00     0.048 H 
ATOM     19  H   LIG d   1       8.375  -1.555  -4.412  0.00  0.00     0.048 H 
ATOM     20  H   LIG d   1       7.925  -1.195  -2.725  0.00  0.00     0.048 H 
ATOM     21  H   LIG d   1       7.581  -0.216  -6.247  0.00  0.00     0.048 H 
ATOM     22  H   LIG d   1       6.511   1.187  -5.992  0.00  0.00     0.048 H 
ENDROOT
BRANCH   1  23
ATOM     23  C   LIG d   1       4.380  -2.560  -6.903  0.00  0.00     0.021 C 
ATOM     24  H   LIG d   1       4.169  -3.165  -6.021  0.00  0.00     0.036 H 
ATOM     25  H   LIG d   1       3.537  -1.899  -7.101  0.00  0.00     0.036 H 
BRANCH  23  26
ATOM     26  C   LIG d   1       4.603  -3.478  -8.108  0.00  0.00    -0.057 C 
ATOM     27  H   LIG d   1       5.672  -3.626  -8.258  0.00  0.00     0.023 H 
ATOM     28  H   LIG d   1       4.125  -4.439  -7.926  0.00  0.00     0.023 H 
ATOM     29  H   LIG d   1       4.172  -3.020  -8.998  0.00  0.00     0.023 H 
ENDBRANCH  23  26
ENDBRANCH   1  23
BRANCH   9  30
ATOM     30  C   LIG d   1       8.255   1.231  -3.920  0.00  0.00    -0.041 C 
ATOM     31  H   LIG d   1       8.035   1.786  -3.009  0.00  0.00     0.027 H 
ATOM     32  H   LIG d   1       9.208   0.713  -3.810  0.00  0.00     0.027 H 
BRANCH  30  33
ATOM     33  C   LIG d   1       8.333   2.199  -5.102  0.00  0.00    -0.064 C 
ATOM     34  H   LIG d   1       7.762   3.099  -4.873  0.00  0.00     0.023 H 
ATOM     35  H   LIG d   1       9.375   2.466  -5.284  0.00  0.00     0.023 H 
ATOM     36  H   LIG d   1       7.919   1.722  -5.991  0.00  0.00     0.023 H 
ENDBRANCH  30  33
ENDBRANCH   9  30
BRANCH   5  37
ATOM     37  C   LIG d   1       3.520   0.071  -2.715  0.00  0.00    -0.041 C 
ATOM     38  H   LIG d   1       3.737  -0.083  -1.658  0.00  0.00     0.027 H 
ATOM     39  H   LIG d   1       3.333   1.129  -2.897  0.00  0.00     0.027 H 
BRANCH  37  40
ATOM     40  C   LIG d   1       2.281  -0.740  -3.103  0.00  0.00    -0.064 C 
ATOM     41  H   LIG d   1       2.527  -1.802  -3.102  0.00  0.00     0.023 H 
ATOM     42  H   LIG d   1       1.483  -0.551  -2.384  0.00  0.00     0.023 H 
ATOM     43  H   LIG d   1       1.951  -0.444  -4.099  0.00  0.00     0.023 H 
ENDBRANCH  37  40
ENDBRANCH   5  37
BRANCH  13  44
ATOM     44  C   LIG d   1       7.755  -3.508  -5.413  0.00  0.00     0.021 C 
ATOM     45  H   LIG d   1       7.650  -3.153  -6.439  0.00  0.00     0.036 H 
ATOM     46  H   LIG d   1       8.597  -3.004  -4.939  0.00  0.00     0.036 H 
BRANCH  44  47
ATOM     47  C   LIG d   1       8.002  -5.018  -5.418  0.00  0.00    -0.057 C 
ATOM     48  H   LIG d   1       7.058  -5.542  -5.273  0.00  0.00     0.023 H 
ATOM     49  H   LIG d   1       8.439  -5.311  -6.372  0.00  0.00     0.023 H 
ATOM     50  H   LIG d   1       8.688  -5.276  -4.610  0.00  0.00     0.023 H 
ENDBRANCH  44  47
ENDBRANCH  13  44
TORSDOF 8
ENDMDL
MODEL 5
REMARK VINA RESULT:      -4.8      1.762      3.874
REMARK  8 active torsions:
REMARK  status: ('A' for Active; 'I' for Inactive)
REMARK    1  A    between atoms: C_1  and  C_2 
REMARK    2  A    between atoms: C_2  and  C_3 
REMARK       I    between atoms: C_3  and  N_5 
REMARK    3  A    between atoms: C_7  and  C_21 
REMARK       I    between atoms: N_9  and  C_17 
REMARK    4  A    between atoms: C_11  and  C_15 
REMARK    5  A    between atoms: C_15  and  C_16 
REMARK    6  A    between atoms: C_17  and  C_19 
REMARK    7  A    between atoms: C_19  and  C_20 
REMARK    8  A    between atoms: C_21  and  C_22 
ROOT
ATOM      1  C   LIG d   1       6.717  -3.104  -5.382  0.00  0.00     0.215 C 
ATOM      2  O   LIG d   1       7.101  -3.262  -6.520  0.00  0.00    -0.276 OA
ATOM      3  N   LIG d   1       5.502  -2.566  -5.148  0.00  0.00    -0.299 N 
ATOM      4  C   LIG d   1       5.075  -2.280  -3.773  0.00  0.00     0.029 C 
ATOM      5  C   LIG d   1       4.706  -0.786  -3.678  0.00  0.00     0.061 C 
ATOM      6  C   LIG d   1       5.971   0.047  -3.940  0.00  0.00     0.029 C 
ATOM      7  N   LIG d   1       6.416  -0.195  -5.319  0.00  0.00    -0.299 N 
ATOM      8  C   LIG d   1       5.493   0.052  -6.433  0.00  0.00     0.029 C 
ATOM      9  C   LIG d   1       4.221  -0.781  -6.211  0.00  0.00     0.061 C 
ATOM     10  C   LIG d   1       4.599  -2.269  -6.266  0.00  0.00     0.029 C 
ATOM     11  C   LIG d   1       3.726  -0.489  -4.804  0.00  0.00     0.151 C 
ATOM     12  O   LIG d   1       2.622  -0.049  -4.591  0.00  0.00    -0.296 OA
ATOM     13  C   LIG d   1       7.666  -0.639  -5.558  0.00  0.00     0.215 C 
ATOM     14  O   LIG d   1       8.433  -0.820  -4.637  0.00  0.00    -0.276 OA
ATOM     15  H   LIG d   1       4.206  -2.889  -3.525  0.00  0.00     0.048 H 
ATOM     16  H   LIG d   1       5.889  -2.501  -3.082  0.00  0.00     0.048 H 
ATOM     17  H   LIG d   1       5.745   1.105  -3.808  0.00  0.00     0.048 H 
ATOM     18  H   LIG d   1       6.754  -0.250  -3.243  0.00  0.00     0.048 H 
ATOM     19  H   LIG d   1       5.965  -0.243  -7.370  0.00  0.00     0.048 H 
ATOM     20  H   LIG d   1       5.236   1.110  -6.468  0.00  0.00     0.048 H 
ATOM     21  H   LIG d   1       5.102  -2.483  -7.210  0.00  0.00     0.048 H 
ATOM     22  H   LIG d   1       3.700  -2.879  -6.182  0.00  0.00     0.048 H 
ENDROOT
BRANCH   1  23
ATOM     23  C   LIG d   1       7.598  -3.504  -4.226  0.00  0.00     0.021 C 
ATOM     24  H   LIG d   1       8.011  -2.610  -3.758  0.00  0.00     0.036 H 
ATOM     25  H   LIG d   1       7.010  -4.059  -3.496  0.00  0.00     0.036 H 
BRANCH  23  26
ATOM     26  C   LIG d   1       8.739  -4.386  -4.738  0.00  0.00    -0.057 C 
ATOM     27  H   LIG d   1       8.543  -4.669  -5.772  0.00  0.00     0.023 H 
ATOM     28  H   LIG d   1       9.677  -3.834  -4.685  0.00  0.00     0.023 H 
ATOM     29  H   LIG d   1       8.809  -5.283  -4.124  0.00  0.00     0.023 H 
ENDBRANCH  23  26
ENDBRANCH   1  23
BRANCH   9  30
ATOM     30  C   LIG d   1       3.144  -0.452  -7.249  0.00  0.00    -0.041 C 
ATOM     31  H   LIG d   1       3.064  -1.272  -7.961  0.00  0.00     0.027 H 
ATOM     32  H   LIG d   1       2.187  -0.311  -6.746  0.00  0.00     0.027 H 
BRANCH  30  33
ATOM     33  C   LIG d   1       3.525   0.831  -7.989  0.00  0.00    -0.064 C 
ATOM     34  H   LIG d   1       2.659   1.491  -8.042  0.00  0.00     0.023 H 
ATOM     35  H   LIG d   1       4.332   1.334  -7.454  0.00  0.00     0.023 H 
ATOM     36  H   LIG d   1       3.856   0.585  -8.998  0.00  0.00     0.023 H 
ENDBRANCH  30  33
ENDBRANCH   9  30
BRANCH   5  37
ATOM     37  C   LIG d   1       4.090  -0.461  -2.317  0.00  0.00    -0.041 C 
ATOM     38  H   LIG d   1       3.007  -0.399  -2.413  0.00  0.00     0.027 H 
ATOM     39  H   LIG d   1       4.347  -1.247  -1.605  0.00  0.00     0.027 H 
BRANCH  37  40
ATOM     40  C   LIG d   1       4.636   0.878  -1.816  0.00  0.00    -0.064 C 
ATOM     41  H   LIG d   1       5.725   0.860  -1.845  0.00  0.00     0.023 H 
ATOM     42  H   LIG d   1       4.269   1.681  -2.455  0.00  0.00     0.023 H 
ATOM     43  H   LIG d   1       4.301   1.046  -0.792  0.00  0.00     0.023 H 
ENDBRANCH  37  40
ENDBRANCH   5  37
BRANCH  13  44
ATOM     44  C   LIG d   1       8.108  -0.914  -6.973  0.00  0.00     0.021 C 
ATOM     45  H   LIG d   1       7.728  -1.885  -7.291  0.00  0.00     0.036 H 
ATOM     46  H   LIG d   1       7.720  -0.137  -7.632  0.00  0.00     0.036 H 
BRANCH  44  47
ATOM     47  C   LIG d   1       9.637  -0.919  -7.036  0.00  0.00    -0.057 C 
ATOM     48  H   LIG d   1      10.034  -1.508  -6.209  0.00  0.00     0.023 H 
ATOM     49  H   LIG d   1       9.960  -1.354  -7.981  0.00  0.00     0.023 H 
ATOM     50  H   LIG d   1      10.006   0.105  -6.963  0.00  0.00     0.023 H 
ENDBRANCH  44  47
ENDBRANCH  13  44
TORSDOF 8
ENDMDL
MODEL 6
REMARK VINA RESULT:      -4.7      1.554      4.472
REMARK  8 active torsions:
REMARK  status: ('A' for Active; 'I' for Inactive)
REMARK    1  A    between atoms: C_1  and  C_2 
REMARK    2  A    between atoms: C_2  and  C_3 
REMARK       I    between atoms: C_3  and  N_5 
REMARK    3  A    between atoms: C_7  and  C_21 
REMARK       I    between atoms: N_9  and  C_17 
REMARK    4  A    between atoms: C_11  and  C_15 
REMARK    5  A    between atoms: C_15  and  C_16 
REMARK    6  A    between atoms: C_17  and  C_19 
REMARK    7  A    between atoms: C_19  and  C_20 
REMARK    8  A    between atoms: C_21  and  C_22 
ROOT
ATOM      1  C   LIG d   1       4.239  -1.328  -5.120  0.00  0.00     0.215 C 
ATOM      2  O   LIG d   1       3.784  -1.794  -4.098  0.00  0.00    -0.276 OA
ATOM      3  N   LIG d   1       5.308  -1.905  -5.707  0.00  0.00    -0.299 N 
ATOM      4  C   LIG d   1       5.925  -1.286  -6.886  0.00  0.00     0.029 C 
ATOM      5  C   LIG d   1       7.416  -1.039  -6.584  0.00  0.00     0.061 C 
ATOM      6  C   LIG d   1       7.519  -0.022  -5.436  0.00  0.00     0.029 C 
ATOM      7  N   LIG d   1       6.933  -0.616  -4.227  0.00  0.00    -0.299 N 
ATOM      8  C   LIG d   1       7.447  -1.896  -3.725  0.00  0.00     0.029 C 
ATOM      9  C   LIG d   1       7.343  -2.942  -4.845  0.00  0.00     0.061 C 
ATOM     10  C   LIG d   1       5.857  -3.156  -5.171  0.00  0.00     0.029 C 
ATOM     11  C   LIG d   1       8.000  -2.351  -6.082  0.00  0.00     0.151 C 
ATOM     12  O   LIG d   1       8.929  -2.890  -6.634  0.00  0.00    -0.296 OA
ATOM     13  C   LIG d   1       5.928   0.011  -3.584  0.00  0.00     0.215 C 
ATOM     14  O   LIG d   1       5.521   1.080  -3.988  0.00  0.00    -0.276 OA
ATOM     15  H   LIG d   1       5.829  -1.954  -7.742  0.00  0.00     0.048 H 
ATOM     16  H   LIG d   1       5.432  -0.338  -7.103  0.00  0.00     0.048 H 
ATOM     17  H   LIG d   1       8.566   0.219  -5.254  0.00  0.00     0.048 H 
ATOM     18  H   LIG d   1       6.976   0.885  -5.701  0.00  0.00     0.048 H 
ATOM     19  H   LIG d   1       6.855  -2.216  -2.867  0.00  0.00     0.048 H 
ATOM     20  H   LIG d   1       8.490  -1.779  -3.429  0.00  0.00     0.048 H 
ATOM     21  H   LIG d   1       5.320  -3.434  -4.264  0.00  0.00     0.048 H 
ATOM     22  H   LIG d   1       5.756  -3.947  -5.915  0.00  0.00     0.048 H 
ENDROOT
BRANCH   1  23
ATOM     23  C   LIG d   1       3.615  -0.101  -5.733  0.00  0.00     0.021 C 
ATOM     24  H   LIG d   1       4.338   0.715  -5.730  0.00  0.00     0.036 H 
ATOM     25  H   LIG d   1       3.316  -0.319  -6.758  0.00  0.00     0.036 H 
BRANCH  23  26
ATOM     26  C   LIG d   1       2.384   0.305  -4.918  0.00  0.00    -0.057 C 
ATOM     27  H   LIG d   1       2.173  -0.463  -4.174  0.00  0.00     0.023 H 
ATOM     28  H   LIG d   1       2.576   1.253  -4.417  0.00  0.00     0.023 H 
ATOM     29  H   LIG d   1       1.527   0.412  -5.583  0.00  0.00     0.023 H 
ENDBRANCH  23  26
ENDBRANCH   1  23
BRANCH   9  30
ATOM     30  C   LIG d   1       8.011  -4.260  -4.448  0.00  0.00    -0.041 C 
ATOM     31  H   LIG d   1       7.253  -4.961  -4.100  0.00  0.00     0.027 H 
ATOM     32  H   LIG d   1       8.527  -4.681  -5.312  0.00  0.00     0.027 H 
BRANCH  30  33
ATOM     33  C   LIG d   1       9.021  -4.003  -3.328  0.00  0.00    -0.064 C 
ATOM     34  H   LIG d   1       8.496  -3.648  -2.440  0.00  0.00     0.023 H 
ATOM     35  H   LIG d   1       9.547  -4.929  -3.093  0.00  0.00     0.023 H 
ATOM     36  H   LIG d   1       9.739  -3.249  -3.650  0.00  0.00     0.023 H 
ENDBRANCH  30  33
ENDBRANCH   9  30
BRANCH   5  37
ATOM     37  C   LIG d   1       8.153  -0.553  -7.833  0.00  0.00    -0.041 C 
ATOM     38  H   LIG d   1       8.818  -1.339  -8.190  0.00  0.00     0.027 H 
ATOM     39  H   LIG d   1       7.428  -0.310  -8.610  0.00  0.00     0.027 H 
BRANCH  37  40
ATOM     40  C   LIG d   1       8.972   0.693  -7.491  0.00  0.00    -0.064 C 
ATOM     41  H   LIG d   1       9.328   1.157  -8.410  0.00  0.00     0.023 H 
ATOM     42  H   LIG d   1       8.346   1.401  -6.946  0.00  0.00     0.023 H 
ATOM     43  H   LIG d   1       9.823   0.410  -6.872  0.00  0.00     0.023 H 
ENDBRANCH  37  40
ENDBRANCH   5  37
BRANCH  13  44
ATOM     44  C   LIG d   1       5.310  -0.617  -2.361  0.00  0.00     0.021 C 
ATOM     45  H   LIG d   1       4.648  -1.428  -2.663  0.00  0.00     0.036 H 
ATOM     46  H   LIG d   1       6.097  -1.010  -1.717  0.00  0.00     0.036 H 
BRANCH  44  47
ATOM     47  C   LIG d   1       4.507   0.438  -1.597  0.00  0.00    -0.057 C 
ATOM     48  H   LIG d   1       4.393   1.328  -2.216  0.00  0.00     0.023 H 
ATOM     49  H   LIG d   1       3.524   0.039  -1.350  0.00  0.00     0.023 H 
ATOM     50  H   LIG d   1       5.033   0.700  -0.679  0.00  0.00     0.023 H 
ENDBRANCH  44  47
ENDBRANCH  13  44
TORSDOF 8
ENDMDL
MODEL 7
REMARK VINA RESULT:      -4.6      2.016      4.409
REMARK  8 active torsions:
REMARK  status: ('A' for Active; 'I' for Inactive)
REMARK    1  A    between atoms: C_1  and  C_2 
REMARK    2  A    between atoms: C_2  and  C_3 
REMARK       I    between atoms: C_3  and  N_5 
REMARK    3  A    between atoms: C_7  and  C_21 
REMARK       I    between atoms: N_9  and  C_17 
REMARK    4  A    between atoms: C_11  and  C_15 
REMARK    5  A    between atoms: C_15  and  C_16 
REMARK    6  A    between atoms: C_17  and  C_19 
REMARK    7  A    between atoms: C_19  and  C_20 
REMARK    8  A    between atoms: C_21  and  C_22 
ROOT
ATOM      1  C   LIG d   1       5.248  -0.740  -3.873  0.00  0.00     0.215 C 
ATOM      2  O   LIG d   1       6.090  -1.445  -3.359  0.00  0.00    -0.276 OA
ATOM      3  N   LIG d   1       4.509  -1.210  -4.898  0.00  0.00    -0.299 N 
ATOM      4  C   LIG d   1       3.561  -0.328  -5.590  0.00  0.00     0.029 C 
ATOM      5  C   LIG d   1       3.912  -0.317  -7.091  0.00  0.00     0.061 C 
ATOM      6  C   LIG d   1       5.310   0.300  -7.260  0.00  0.00     0.029 C 
ATOM      7  N   LIG d   1       6.292  -0.570  -6.601  0.00  0.00    -0.299 N 
ATOM      8  C   LIG d   1       6.387  -1.982  -6.991  0.00  0.00     0.029 C 
ATOM      9  C   LIG d   1       5.008  -2.635  -6.817  0.00  0.00     0.061 C 
ATOM     10  C   LIG d   1       4.643  -2.608  -5.324  0.00  0.00     0.029 C 
ATOM     11  C   LIG d   1       3.997  -1.765  -7.547  0.00  0.00     0.151 C 
ATOM     12  O   LIG d   1       3.303  -2.198  -8.436  0.00  0.00    -0.296 OA
ATOM     13  C   LIG d   1       7.100  -0.074  -5.643  0.00  0.00     0.215 C 
ATOM     14  O   LIG d   1       7.035   1.098  -5.340  0.00  0.00    -0.276 OA
ATOM     15  H   LIG d   1       2.546  -0.701  -5.452  0.00  0.00     0.048 H 
ATOM     16  H   LIG d   1       3.640   0.682  -5.187  0.00  0.00     0.048 H 
ATOM     17  H   LIG d   1       5.547   0.381  -8.321  0.00  0.00     0.048 H 
ATOM     18  H   LIG d   1       5.330   1.290  -6.805  0.00  0.00     0.048 H 
ATOM     19  H   LIG d   1       7.115  -2.488  -6.356  0.00  0.00     0.048 H 
ATOM     20  H   LIG d   1       6.696  -2.053  -8.033  0.00  0.00     0.048 H 
ATOM     21  H   LIG d   1       5.431  -3.093  -4.747  0.00  0.00     0.048 H 
ATOM     22  H   LIG d   1       3.699  -3.131  -5.169  0.00  0.00     0.048 H 
ENDROOT
BRANCH   1  23
ATOM     23  C   LIG d   1       5.032   0.664  -3.371  0.00  0.00     0.021 C 
ATOM     24  H   LIG d   1       5.956   1.235  -3.477  0.00  0.00     0.036 H 
ATOM     25  H   LIG d   1       4.243   1.140  -3.952  0.00  0.00     0.036 H 
BRANCH  23  26
ATOM     26  C   LIG d   1       4.626   0.621  -1.896  0.00  0.00    -0.057 C 
ATOM     27  H   LIG d   1       5.261  -0.087  -1.365  0.00  0.00     0.023 H 
ATOM     28  H   LIG d   1       4.742   1.612  -1.458  0.00  0.00     0.023 H 
ATOM     29  H   LIG d   1       3.585   0.307  -1.815  0.00  0.00     0.023 H 
ENDBRANCH  23  26
ENDBRANCH   1  23
BRANCH   9  30
ATOM     30  C   LIG d   1       4.990  -4.067  -7.358  0.00  0.00    -0.041 C 
ATOM     31  H   LIG d   1       4.525  -4.076  -8.344  0.00  0.00     0.027 H 
ATOM     32  H   LIG d   1       6.012  -4.439  -7.434  0.00  0.00     0.027 H 
BRANCH  30  33
ATOM     33  C   LIG d   1       4.191  -4.961  -6.409  0.00  0.00    -0.064 C 
ATOM     34  H   LIG d   1       3.236  -5.218  -6.869  0.00  0.00     0.023 H 
ATOM     35  H   LIG d   1       4.755  -5.873  -6.207  0.00  0.00     0.023 H 
ATOM     36  H   LIG d   1       4.012  -4.430  -5.473  0.00  0.00     0.023 H 
ENDBRANCH  30  33
ENDBRANCH   9  30
BRANCH   5  37
ATOM     37  C   LIG d   1       2.858   0.449  -7.891  0.00  0.00    -0.041 C 
ATOM     38  H   LIG d   1       2.377  -0.227  -8.598  0.00  0.00     0.027 H 
ATOM     39  H   LIG d   1       2.110   0.856  -7.211  0.00  0.00     0.027 H 
BRANCH  37  40
ATOM     40  C   LIG d   1       3.528   1.593  -8.655  0.00  0.00    -0.064 C 
ATOM     41  H   LIG d   1       3.986   2.283  -7.947  0.00  0.00     0.023 H 
ATOM     42  H   LIG d   1       4.296   1.188  -9.315  0.00  0.00     0.023 H 
ATOM     43  H   LIG d   1       2.781   2.121  -9.248  0.00  0.00     0.023 H 
ENDBRANCH  37  40
ENDBRANCH   5  37
BRANCH  13  44
ATOM     44  C   LIG d   1       8.086  -0.979  -4.948  0.00  0.00     0.021 C 
ATOM     45  H   LIG d   1       7.968  -0.884  -3.869  0.00  0.00     0.036 H 
ATOM     46  H   LIG d   1       7.903  -2.012  -5.245  0.00  0.00     0.036 H 
BRANCH  44  47
ATOM     47  C   LIG d   1       9.509  -0.580  -5.344  0.00  0.00    -0.057 C 
ATOM     48  H   LIG d   1      10.042  -1.454  -5.718  0.00  0.00     0.023 H 
ATOM     49  H   LIG d   1       9.470   0.183  -6.121  0.00  0.00     0.023 H 
ATOM     50  H   LIG d   1      10.030  -0.183  -4.472  0.00  0.00     0.023 H 
ENDBRANCH  44  47
ENDBRANCH  13  44
TORSDOF 8
ENDMDL
MODEL 8
REMARK VINA RESULT:      -4.6      2.245      3.981
REMARK  8 active torsions:
REMARK  status: ('A' for Active; 'I' for Inactive)
REMARK    1  A    between atoms: C_1  and  C_2 
REMARK    2  A    between atoms: C_2  and  C_3 
REMARK       I    between atoms: C_3  and  N_5 
REMARK    3  A    between atoms: C_7  and  C_21 
REMARK       I    between atoms: N_9  and  C_17 
REMARK    4  A    between atoms: C_11  and  C_15 
REMARK    5  A    between atoms: C_15  and  C_16 
REMARK    6  A    between atoms: C_17  and  C_19 
REMARK    7  A    between atoms: C_19  and  C_20 
REMARK    8  A    between atoms: C_21  and  C_22 
ROOT
ATOM      1  C   LIG d   1       4.520  -0.116  -7.321  0.00  0.00     0.215 C 
ATOM      2  O   LIG d   1       5.197   0.116  -8.299  0.00  0.00    -0.276 OA
ATOM      3  N   LIG d   1       5.109  -0.315  -6.124  0.00  0.00    -0.299 N 
ATOM      4  C   LIG d   1       4.302  -0.696  -4.958  0.00  0.00     0.029 C 
ATOM      5  C   LIG d   1       4.863  -2.015  -4.388  0.00  0.00     0.061 C 
ATOM      6  C   LIG d   1       4.683  -3.118  -5.443  0.00  0.00     0.029 C 
ATOM      7  N   LIG d   1       5.497  -2.783  -6.618  0.00  0.00    -0.299 N 
ATOM      8  C   LIG d   1       6.940  -2.560  -6.461  0.00  0.00     0.029 C 
ATOM      9  C   LIG d   1       7.156  -1.448  -5.424  0.00  0.00     0.061 C 
ATOM     10  C   LIG d   1       6.560  -0.144  -5.979  0.00  0.00     0.029 C 
ATOM     11  C   LIG d   1       6.358  -1.821  -4.185  0.00  0.00     0.151 C 
ATOM     12  O   LIG d   1       6.879  -1.955  -3.103  0.00  0.00    -0.296 OA
ATOM     13  C   LIG d   1       4.923  -2.682  -7.833  0.00  0.00     0.215 C 
ATOM     14  O   LIG d   1       3.735  -2.890  -7.963  0.00  0.00    -0.276 OA
ATOM     15  H   LIG d   1       4.360   0.086  -4.201  0.00  0.00     0.048 H 
ATOM     16  H   LIG d   1       3.265  -0.839  -5.262  0.00  0.00     0.048 H 
ATOM     17  H   LIG d   1       5.009  -4.073  -5.031  0.00  0.00     0.048 H 
ATOM     18  H   LIG d   1       3.633  -3.183  -5.728  0.00  0.00     0.048 H 
ATOM     19  H   LIG d   1       7.368  -2.258  -7.417  0.00  0.00     0.048 H 
ATOM     20  H   LIG d   1       7.416  -3.477  -6.118  0.00  0.00     0.048 H 
ATOM     21  H   LIG d   1       7.002   0.074  -6.951  0.00  0.00     0.048 H 
ATOM     22  H   LIG d   1       6.765   0.674  -5.289  0.00  0.00     0.048 H 
ENDROOT
BRANCH   1  23
ATOM     23  C   LIG d   1       3.020  -0.190  -7.442  0.00  0.00     0.021 C 
ATOM     24  H   LIG d   1       2.702  -1.232  -7.401  0.00  0.00     0.036 H 
ATOM     25  H   LIG d   1       2.561   0.363  -6.623  0.00  0.00     0.036 H 
BRANCH  23  26
ATOM     26  C   LIG d   1       2.587   0.423  -8.776  0.00  0.00    -0.057 C 
ATOM     27  H   LIG d   1       1.749  -0.145  -9.181  0.00  0.00     0.023 H 
ATOM     28  H   LIG d   1       2.282   1.457  -8.619  0.00  0.00     0.023 H 
ATOM     29  H   LIG d   1       3.420   0.392  -9.478  0.00  0.00     0.023 H 
ENDBRANCH  23  26
ENDBRANCH   1  23
BRANCH   9  30
ATOM     30  C   LIG d   1       8.638  -1.272  -5.088  0.00  0.00    -0.041 C 
ATOM     31  H   LIG d   1       8.808  -1.540  -4.045  0.00  0.00     0.027 H 
ATOM     32  H   LIG d   1       9.236  -1.917  -5.732  0.00  0.00     0.027 H 
BRANCH  30  33
ATOM     33  C   LIG d   1       9.042   0.187  -5.311  0.00  0.00    -0.064 C 
ATOM     34  H   LIG d   1      10.089   0.320  -5.038  0.00  0.00     0.023 H 
ATOM     35  H   LIG d   1       8.904   0.445  -6.361  0.00  0.00     0.023 H 
ATOM     36  H   LIG d   1       8.420   0.835  -4.693  0.00  0.00     0.023 H 
ENDBRANCH  30  33
ENDBRANCH   9  30
BRANCH   5  37
ATOM     37  C   LIG d   1       4.173  -2.376  -3.072  0.00  0.00    -0.041 C 
ATOM     38  H   LIG d   1       3.654  -3.328  -3.183  0.00  0.00     0.027 H 
ATOM     39  H   LIG d   1       4.919  -2.459  -2.281  0.00  0.00     0.027 H 
BRANCH  37  40
ATOM     40  C   LIG d   1       3.164  -1.285  -2.708  0.00  0.00    -0.064 C 
ATOM     41  H   LIG d   1       2.693  -1.529  -1.756  0.00  0.00     0.023 H 
ATOM     42  H   LIG d   1       3.680  -0.327  -2.622  0.00  0.00     0.023 H 
ATOM     43  H   LIG d   1       2.403  -1.219  -3.485  0.00  0.00     0.023 H 
ENDBRANCH  37  40
ENDBRANCH   5  37
BRANCH  13  44
ATOM     44  C   LIG d   1       5.758  -2.309  -9.031  0.00  0.00     0.021 C 
ATOM     45  H   LIG d   1       5.910  -1.230  -9.047  0.00  0.00     0.036 H 
ATOM     46  H   LIG d   1       6.723  -2.812  -8.972  0.00  0.00     0.036 H 
BRANCH  44  47
ATOM     47  C   LIG d   1       5.036  -2.741 -10.309  0.00  0.00    -0.057 C 
ATOM     48  H   LIG d   1       4.039  -2.302 -10.331  0.00  0.00     0.023 H 
ATOM     49  H   LIG d   1       5.601  -2.405 -11.178  0.00  0.00     0.023 H 
ATOM     50  H   LIG d   1       4.953  -3.829 -10.329  0.00  0.00     0.023 H 
ENDBRANCH  44  47
ENDBRANCH  13  44
TORSDOF 8
ENDMDL
MODEL 9
REMARK VINA RESULT:      -4.5      2.250      4.032
REMARK  8 active torsions:
REMARK  status: ('A' for Active; 'I' for Inactive)
REMARK    1  A    between atoms: C_1  and  C_2 
REMARK    2  A    between atoms: C_2  and  C_3 
REMARK       I    between atoms: C_3  and  N_5 
REMARK    3  A    between atoms: C_7  and  C_21 
REMARK       I    between atoms: N_9  and  C_17 
REMARK    4  A    between atoms: C_11  and  C_15 
REMARK    5  A    between atoms: C_15  and  C_16 
REMARK    6  A    between atoms: C_17  and  C_19 
REMARK    7  A    between atoms: C_19  and  C_20 
REMARK    8  A    between atoms: C_21  and  C_22 
ROOT
ATOM      1  C   LIG d   1       4.942  -2.720  -7.866  0.00  0.00     0.215 C 
ATOM      2  O   LIG d   1       3.739  -2.809  -7.986  0.00  0.00    -0.276 OA
ATOM      3  N   LIG d   1       5.508  -2.811  -6.645  0.00  0.00    -0.299 N 
ATOM      4  C   LIG d   1       6.951  -2.602  -6.484  0.00  0.00     0.029 C 
ATOM      5  C   LIG d   1       7.168  -1.473  -5.455  0.00  0.00     0.061 C 
ATOM      6  C   LIG d   1       6.584  -0.173  -6.029  0.00  0.00     0.029 C 
ATOM      7  N   LIG d   1       5.133  -0.335  -6.182  0.00  0.00    -0.299 N 
ATOM      8  C   LIG d   1       4.317  -0.704  -5.018  0.00  0.00     0.029 C 
ATOM      9  C   LIG d   1       4.864  -2.013  -4.430  0.00  0.00     0.061 C 
ATOM     10  C   LIG d   1       4.683  -3.127  -5.473  0.00  0.00     0.029 C 
ATOM     11  C   LIG d   1       6.358  -1.828  -4.217  0.00  0.00     0.151 C 
ATOM     12  O   LIG d   1       6.872  -1.954  -3.131  0.00  0.00    -0.296 OA
ATOM     13  C   LIG d   1       4.554  -0.146  -7.384  0.00  0.00     0.215 C 
ATOM     14  O   LIG d   1       5.227   0.182  -8.338  0.00  0.00    -0.276 OA
ATOM     15  H   LIG d   1       7.417  -3.520  -6.125  0.00  0.00     0.048 H 
ATOM     16  H   LIG d   1       7.390  -2.316  -7.440  0.00  0.00     0.048 H 
ATOM     17  H   LIG d   1       6.790   0.652  -5.346  0.00  0.00     0.048 H 
ATOM     18  H   LIG d   1       7.036   0.035  -6.999  0.00  0.00     0.048 H 
ATOM     19  H   LIG d   1       3.282  -0.846  -5.329  0.00  0.00     0.048 H 
ATOM     20  H   LIG d   1       4.372   0.085  -4.269  0.00  0.00     0.048 H 
ATOM     21  H   LIG d   1       3.635  -3.185  -5.766  0.00  0.00     0.048 H 
ATOM     22  H   LIG d   1       5.000  -4.080  -5.049  0.00  0.00     0.048 H 
ENDROOT
BRANCH   1  23
ATOM     23  C   LIG d   1       5.806  -2.499  -9.081  0.00  0.00     0.021 C 
ATOM     24  H   LIG d   1       6.194  -1.480  -9.071  0.00  0.00     0.036 H 
ATOM     25  H   LIG d   1       6.635  -3.204  -9.070  0.00  0.00     0.036 H 
BRANCH  23  26
ATOM     26  C   LIG d   1       4.970  -2.713 -10.346  0.00  0.00    -0.057 C 
ATOM     27  H   LIG d   1       4.377  -1.821 -10.544  0.00  0.00     0.023 H 
ATOM     28  H   LIG d   1       5.631  -2.905 -11.190  0.00  0.00     0.023 H 
ATOM     29  H   LIG d   1       4.306  -3.565 -10.202  0.00  0.00     0.023 H 
ENDBRANCH  23  26
ENDBRANCH   1  23
BRANCH   9  30
ATOM     30  C   LIG d   1       4.166  -2.375  -3.116  0.00  0.00    -0.041 C 
ATOM     31  H   LIG d   1       3.640  -3.322  -3.234  0.00  0.00     0.027 H 
ATOM     32  H   LIG d   1       4.909  -2.468  -2.324  0.00  0.00     0.027 H 
BRANCH  30  33
ATOM     33  C   LIG d   1       3.166  -1.277  -2.752  0.00  0.00    -0.064 C 
ATOM     34  H   LIG d   1       2.915  -1.351  -1.693  0.00  0.00     0.023 H 
ATOM     35  H   LIG d   1       3.608  -0.301  -2.953  0.00  0.00     0.023 H 
ATOM     36  H   LIG d   1       2.261  -1.396  -3.348  0.00  0.00     0.023 H 
ENDBRANCH  30  33
ENDBRANCH   9  30
BRANCH   5  37
ATOM     37  C   LIG d   1       8.651  -1.323  -5.115  0.00  0.00    -0.041 C 
ATOM     38  H   LIG d   1       8.837  -1.719  -4.117  0.00  0.00     0.027 H 
ATOM     39  H   LIG d   1       9.248  -1.876  -5.841  0.00  0.00     0.027 H 
BRANCH  37  40
ATOM     40  C   LIG d   1       9.038   0.157  -5.158  0.00  0.00    -0.064 C 
ATOM     41  H   LIG d   1       9.043   0.560  -4.146  0.00  0.00     0.023 H 
ATOM     42  H   LIG d   1      10.031   0.260  -5.595  0.00  0.00     0.023 H 
ATOM     43  H   LIG d   1       8.316   0.703  -5.765  0.00  0.00     0.023 H 
ENDBRANCH  37  40
ENDBRANCH   5  37
BRANCH  13  44
ATOM     44  C   LIG d   1       3.068  -0.343  -7.543  0.00  0.00     0.021 C 
ATOM     45  H   LIG d   1       2.854  -1.402  -7.685  0.00  0.00     0.036 H 
ATOM     46  H   LIG d   1       2.556   0.015  -6.649  0.00  0.00     0.036 H 
BRANCH  44  47
ATOM     47  C   LIG d   1       2.577   0.445  -8.759  0.00  0.00    -0.057 C 
ATOM     48  H   LIG d   1       3.377   0.512  -9.496  0.00  0.00     0.023 H 
ATOM     49  H   LIG d   1       1.718  -0.062  -9.198  0.00  0.00     0.023 H 
ATOM     50  H   LIG d   1       2.285   1.449  -8.448  0.00  0.00     0.023 H 
ENDBRANCH  44  47
ENDBRANCH  13  44
TORSDOF 8
ENDMDL
MODEL 10
REMARK VINA RESULT:      -4.5      1.766      3.639
REMARK  8 active torsions:
REMARK  status: ('A' for Active; 'I' for Inactive)
REMARK    1  A    between atoms: C_1  and  C_2 
REMARK    2  A    between atoms: C_2  and  C_3 
REMARK       I    between atoms: C_3  and  N_5 
REMARK    3  A    between atoms: C_7  and  C_21 
REMARK       I    between atoms: N_9  and  C_17 
REMARK    4  A    between atoms: C_11  and  C_15 
REMARK    5  A    between atoms: C_15  and  C_16 
REMARK    6  A    between atoms: C_17  and  C_19 
REMARK    7  A    between atoms: C_19  and  C_20 
REMARK    8  A    between atoms: C_21  and  C_22 
ROOT
ATOM      1  C   LIG d   1       5.759  -0.506  -3.359  0.00  0.00     0.215 C 
ATOM      2  O   LIG d   1       6.644   0.268  -3.062  0.00  0.00    -0.276 OA
ATOM      3  N   LIG d   1       6.036  -1.816  -3.523  0.00  0.00    -0.299 N 
ATOM      4  C   LIG d   1       4.991  -2.738  -3.981  0.00  0.00     0.029 C 
ATOM      5  C   LIG d   1       5.490  -3.446  -5.257  0.00  0.00     0.061 C 
ATOM      6  C   LIG d   1       5.676  -2.391  -6.359  0.00  0.00     0.029 C 
ATOM      7  N   LIG d   1       6.735  -1.461  -5.946  0.00  0.00    -0.299 N 
ATOM      8  C   LIG d   1       8.066  -1.980  -5.610  0.00  0.00     0.029 C 
ATOM      9  C   LIG d   1       7.919  -3.027  -4.496  0.00  0.00     0.061 C 
ATOM     10  C   LIG d   1       7.382  -2.326  -3.238  0.00  0.00     0.029 C 
ATOM     11  C   LIG d   1       6.862  -4.024  -4.946  0.00  0.00     0.151 C 
ATOM     12  O   LIG d   1       7.097  -5.204  -5.050  0.00  0.00    -0.296 OA
ATOM     13  C   LIG d   1       6.485  -0.138  -5.878  0.00  0.00     0.215 C 
ATOM     14  O   LIG d   1       5.391   0.290  -6.179  0.00  0.00    -0.276 OA
ATOM     15  H   LIG d   1       4.789  -3.477  -3.206  0.00  0.00     0.048 H 
ATOM     16  H   LIG d   1       4.081  -2.180  -4.203  0.00  0.00     0.048 H 
ATOM     17  H   LIG d   1       5.962  -2.882  -7.289  0.00  0.00     0.048 H 
ATOM     18  H   LIG d   1       4.743  -1.846  -6.504  0.00  0.00     0.048 H 
ATOM     19  H   LIG d   1       8.700  -1.163  -5.264  0.00  0.00     0.048 H 
ATOM     20  H   LIG d   1       8.511  -2.443  -6.490  0.00  0.00     0.048 H 
ATOM     21  H   LIG d   1       8.040  -1.498  -2.974  0.00  0.00     0.048 H 
ATOM     22  H   LIG d   1       7.337  -3.038  -2.414  0.00  0.00     0.048 H 
ENDROOT
BRANCH   1  23
ATOM     23  C   LIG d   1       4.351  -0.004  -3.551  0.00  0.00     0.021 C 
ATOM     24  H   LIG d   1       4.313   0.646  -4.426  0.00  0.00     0.036 H 
ATOM     25  H   LIG d   1       3.681  -0.850  -3.696  0.00  0.00     0.036 H 
BRANCH  23  26
ATOM     26  C   LIG d   1       3.918   0.783  -2.312  0.00  0.00    -0.057 C 
ATOM     27  H   LIG d   1       3.140   1.495  -2.588  0.00  0.00     0.023 H 
ATOM     28  H   LIG d   1       3.531   0.096  -1.561  0.00  0.00     0.023 H 
ATOM     29  H   LIG d   1       4.774   1.321  -1.906  0.00  0.00     0.023 H 
ENDBRANCH  23  26
ENDBRANCH   1  23
BRANCH   9  30
ATOM     30  C   LIG d   1       9.246  -3.731  -4.205  0.00  0.00    -0.041 C 
ATOM     31  H   LIG d   1       9.267  -4.693  -4.717  0.00  0.00     0.027 H 
ATOM     32  H   LIG d   1      10.071  -3.112  -4.561  0.00  0.00     0.027 H 
BRANCH  30  33
ATOM     33  C   LIG d   1       9.387  -3.952  -2.698  0.00  0.00    -0.064 C 
ATOM     34  H   LIG d   1       9.367  -5.021  -2.484  0.00  0.00     0.023 H 
ATOM     35  H   LIG d   1      10.333  -3.531  -2.356  0.00  0.00     0.023 H 
ATOM     36  H   LIG d   1       8.562  -3.462  -2.180  0.00  0.00     0.023 H 
ENDBRANCH  30  33
ENDBRANCH   9  30
BRANCH   5  37
ATOM     37  C   LIG d   1       4.517  -4.544  -5.687  0.00  0.00    -0.041 C 
ATOM     38  H   LIG d   1       4.973  -5.520  -5.519  0.00  0.00     0.027 H 
ATOM     39  H   LIG d   1       3.600  -4.467  -5.103  0.00  0.00     0.027 H 
BRANCH  37  40
ATOM     40  C   LIG d   1       4.190  -4.383  -7.173  0.00  0.00    -0.064 C 
ATOM     41  H   LIG d   1       3.850  -5.338  -7.575  0.00  0.00     0.023 H 
ATOM     42  H   LIG d   1       3.404  -3.638  -7.293  0.00  0.00     0.023 H 
ATOM     43  H   LIG d   1       5.083  -4.060  -7.709  0.00  0.00     0.023 H 
ENDBRANCH  37  40
ENDBRANCH   5  37
BRANCH  13  44
ATOM     44  C   LIG d   1       7.566   0.809  -5.425  0.00  0.00     0.021 C 
ATOM     45  H   LIG d   1       7.172   1.470  -4.653  0.00  0.00     0.036 H 
ATOM     46  H   LIG d   1       8.404   0.239  -5.024  0.00  0.00     0.036 H 
BRANCH  44  47
ATOM     47  C   LIG d   1       8.043   1.644  -6.616  0.00  0.00    -0.057 C 
ATOM     48  H   LIG d   1       9.117   1.511  -6.748  0.00  0.00     0.023 H 
ATOM     49  H   LIG d   1       7.523   1.320  -7.518  0.00  0.00     0.023 H 
ATOM     50  H   LIG d   1       7.828   2.697  -6.431  0.00  0.00     0.023 H 
ENDBRANCH  44  47
ENDBRANCH  13  44
TORSDOF 8
ENDMDL
