MODEL 1
REMARK VINA RESULT:      -6.6      0.000      0.000
REMARK  12 active torsions:
REMARK  status: ('A' for Active; 'I' for Inactive)
REMARK    1  A    between atoms: C_1  and  O_2 
REMARK    2  A    between atoms: O_2  and  C_3 
REMARK    3  A    between atoms: C_6  and  S_9 
REMARK    4  A    between atoms: S_9  and  O_12 
REMARK    5  A    between atoms: O_12  and  C_13 
REMARK    6  A    between atoms: C_21  and  C_22 
REMARK    7  A    between atoms: C_25  and  O_32 
REMARK    8  A    between atoms: C_26  and  O_30 
REMARK    9  A    between atoms: C_27  and  O_28 
REMARK   10  A    between atoms: O_28  and  C_29 
REMARK   11  A    between atoms: O_30  and  C_31 
REMARK   12  A    between atoms: O_32  and  C_33 
ROOT
ATOM      1  C   LIG d   1       3.366  -3.979  -9.857  0.00  0.00     0.160 A 
ATOM      2  C   LIG d   1       3.110  -5.303  -9.513  0.00  0.00    -0.016 A 
ATOM      3  C   LIG d   1       3.369  -5.747  -8.247  0.00  0.00    -0.044 A 
ATOM      4  C   LIG d   1       3.890  -4.869  -7.296  0.00  0.00     0.068 A 
ATOM      5  C   LIG d   1       4.153  -3.530  -7.631  0.00  0.00     0.143 A 
ATOM      6  C   LIG d   1       3.884  -3.096  -8.924  0.00  0.00     0.026 A 
ATOM      7  O   LIG d   1       4.650  -2.882  -6.555  0.00  0.00    -0.451 OA
ATOM      8  C   LIG d   1       4.751  -3.697  -5.479  0.00  0.00     0.176 A 
ATOM      9  C   LIG d   1       5.213  -3.349  -4.249  0.00  0.00    -0.005 C 
ATOM     10  C   LIG d   1       4.271  -5.025  -5.880  0.00  0.00     0.232 A 
ATOM     11  O   LIG d   1       4.203  -6.032  -5.196  0.00  0.00    -0.283 OA
ATOM     12  H   LIG d   1       2.706  -5.983 -10.250  0.00  0.00     0.066 H 
ATOM     13  H   LIG d   1       3.173  -6.776  -7.984  0.00  0.00     0.063 H 
ATOM     14  H   LIG d   1       4.080  -2.071  -9.200  0.00  0.00     0.069 H 
ATOM     15  H   LIG d   1       5.142  -4.047  -3.428  0.00  0.00     0.066 H 
ENDROOT
BRANCH   9  16
ATOM     16  C   LIG d   1       5.805  -2.026  -4.036  0.00  0.00     0.024 A 
ATOM     17  C   LIG d   1       5.206  -1.118  -3.146  0.00  0.00     0.172 A 
ATOM     18  C   LIG d   1       5.779   0.129  -2.948  0.00  0.00     0.204 A 
ATOM     19  C   LIG d   1       6.935   0.482  -3.637  0.00  0.00     0.165 A 
ATOM     20  C   LIG d   1       7.525  -0.415  -4.523  0.00  0.00    -0.015 A 
ATOM     21  C   LIG d   1       6.970  -1.657  -4.724  0.00  0.00    -0.047 A 
ATOM     22  H   LIG d   1       8.422  -0.134  -5.053  0.00  0.00     0.066 H 
ATOM     23  H   LIG d   1       7.433  -2.349  -5.412  0.00  0.00     0.063 H 
BRANCH  17  24
ATOM     24  O   LIG d   1       4.074  -1.462  -2.479  0.00  0.00    -0.491 OA
BRANCH  24  25
ATOM     25  C   LIG d   1       2.829  -1.167  -3.117  0.00  0.00     0.079 C 
ATOM     26  H   LIG d   1       2.385  -0.286  -2.655  0.00  0.00     0.066 H 
ATOM     27  H   LIG d   1       3.001  -0.975  -4.176  0.00  0.00     0.066 H 
ATOM     28  H   LIG d   1       2.155  -2.016  -3.007  0.00  0.00     0.066 H 
ENDBRANCH  24  25
ENDBRANCH  17  24
BRANCH  18  29
ATOM     29  O   LIG d   1       5.207   1.011  -2.083  0.00  0.00    -0.488 OA
BRANCH  29  30
ATOM     30  C   LIG d   1       4.134   1.810  -2.586  0.00  0.00     0.079 C 
ATOM     31  H   LIG d   1       3.184   1.319  -2.370  0.00  0.00     0.066 H 
ATOM     32  H   LIG d   1       4.155   2.789  -2.107  0.00  0.00     0.066 H 
ATOM     33  H   LIG d   1       4.244   1.930  -3.664  0.00  0.00     0.066 H 
ENDBRANCH  29  30
ENDBRANCH  18  29
BRANCH  19  34
ATOM     34  O   LIG d   1       7.489   1.706  -3.446  0.00  0.00    -0.491 OA
BRANCH  34  35
ATOM     35  C   LIG d   1       8.850   1.872  -3.847  0.00  0.00     0.079 C 
ATOM     36  H   LIG d   1       9.221   0.938  -4.269  0.00  0.00     0.066 H 
ATOM     37  H   LIG d   1       8.914   2.661  -4.596  0.00  0.00     0.066 H 
ATOM     38  H   LIG d   1       9.454   2.144  -2.980  0.00  0.00     0.066 H 
ENDBRANCH  34  35
ENDBRANCH  19  34
ENDBRANCH   9  16
BRANCH   1  39
ATOM     39  O   LIG d   1       3.106  -3.548 -11.118  0.00  0.00    -0.342 OA
BRANCH  39  40
ATOM     40  S   LIG d   1       1.933  -2.584 -11.214  0.00  0.00     0.151 S 
ATOM     41  O   LIG d   1       1.618  -2.463 -12.594  0.00  0.00    -0.131 OA
ATOM     42  O   LIG d   1       0.979  -3.007 -10.248  0.00  0.00    -0.131 OA
BRANCH  40  43
ATOM     43  C   LIG d   1       2.512  -1.004 -10.690  0.00  0.00     0.128 A 
ATOM     44  C   LIG d   1       1.958  -0.401  -9.575  0.00  0.00    -0.030 A 
ATOM     45  C   LIG d   1       2.410   0.836  -9.161  0.00  0.00    -0.018 A 
ATOM     46  H   LIG d   1       1.172  -0.900  -9.028  0.00  0.00     0.064 H 
ATOM     47  C   LIG d   1       3.419   1.476  -9.866  0.00  0.00     0.120 A 
ATOM     48  H   LIG d   1       1.978   1.306  -8.291  0.00  0.00     0.066 H 
ATOM     49  C   LIG d   1       3.972   0.870 -10.984  0.00  0.00    -0.018 A 
ATOM     50  C   LIG d   1       3.522  -0.372 -11.390  0.00  0.00    -0.030 A 
ATOM     51  H   LIG d   1       4.759   1.365 -11.535  0.00  0.00     0.066 H 
ATOM     52  H   LIG d   1       3.956  -0.846 -12.258  0.00  0.00     0.064 H 
BRANCH  47  53
ATOM     53  O   LIG d   1       3.866   2.694  -9.461  0.00  0.00    -0.495 OA
BRANCH  53  54
ATOM     54  C   LIG d   1       5.262   2.813  -9.180  0.00  0.00     0.079 C 
ATOM     55  H   LIG d   1       5.809   2.955 -10.112  0.00  0.00     0.066 H 
ATOM     56  H   LIG d   1       5.430   3.668  -8.527  0.00  0.00     0.066 H 
ATOM     57  H   LIG d   1       5.613   1.905  -8.689  0.00  0.00     0.066 H 
ENDBRANCH  53  54
ENDBRANCH  47  53
ENDBRANCH  40  43
ENDBRANCH  39  40
ENDBRANCH   1  39
TORSDOF 12
ENDMDL
MODEL 2
REMARK VINA RESULT:      -6.5      4.112      7.752
REMARK  12 active torsions:
REMARK  status: ('A' for Active; 'I' for Inactive)
REMARK    1  A    between atoms: C_1  and  O_2 
REMARK    2  A    between atoms: O_2  and  C_3 
REMARK    3  A    between atoms: C_6  and  S_9 
REMARK    4  A    between atoms: S_9  and  O_12 
REMARK    5  A    between atoms: O_12  and  C_13 
REMARK    6  A    between atoms: C_21  and  C_22 
REMARK    7  A    between atoms: C_25  and  O_32 
REMARK    8  A    between atoms: C_26  and  O_30 
REMARK    9  A    between atoms: C_27  and  O_28 
REMARK   10  A    between atoms: O_28  and  C_29 
REMARK   11  A    between atoms: O_30  and  C_31 
REMARK   12  A    between atoms: O_32  and  C_33 
ROOT
ATOM      1  C   LIG d   1       6.698   0.051  -4.680  0.00  0.00     0.160 A 
ATOM      2  C   LIG d   1       6.961   0.091  -6.046  0.00  0.00    -0.016 A 
ATOM      3  C   LIG d   1       7.833   1.012  -6.552  0.00  0.00    -0.044 A 
ATOM      4  C   LIG d   1       8.464   1.915  -5.695  0.00  0.00     0.068 A 
ATOM      5  C   LIG d   1       8.207   1.885  -4.314  0.00  0.00     0.143 A 
ATOM      6  C   LIG d   1       7.316   0.941  -3.817  0.00  0.00     0.026 A 
ATOM      7  O   LIG d   1       8.928   2.847  -3.698  0.00  0.00    -0.451 OA
ATOM      8  C   LIG d   1       9.679   3.553  -4.575  0.00  0.00     0.176 A 
ATOM      9  C   LIG d   1      10.512   4.584  -4.271  0.00  0.00    -0.005 C 
ATOM     10  C   LIG d   1       9.433   3.004  -5.914  0.00  0.00     0.232 A 
ATOM     11  O   LIG d   1       9.922   3.367  -6.970  0.00  0.00    -0.283 OA
ATOM     12  H   LIG d   1       6.472  -0.609  -6.709  0.00  0.00     0.066 H 
ATOM     13  H   LIG d   1       8.033   1.043  -7.612  0.00  0.00     0.063 H 
ATOM     14  H   LIG d   1       7.106   0.903  -2.759  0.00  0.00     0.069 H 
ATOM     15  H   LIG d   1      11.153   5.003  -5.032  0.00  0.00     0.066 H 
ENDROOT
BRANCH   9  16
ATOM     16  C   LIG d   1      10.539   5.127  -2.910  0.00  0.00     0.024 A 
ATOM     17  C   LIG d   1       9.808   6.287  -2.598  0.00  0.00     0.172 A 
ATOM     18  C   LIG d   1       9.836   6.788  -1.305  0.00  0.00     0.204 A 
ATOM     19  C   LIG d   1      10.594   6.152  -0.328  0.00  0.00     0.165 A 
ATOM     20  C   LIG d   1      11.321   5.008  -0.638  0.00  0.00    -0.015 A 
ATOM     21  C   LIG d   1      11.298   4.496  -1.915  0.00  0.00    -0.047 A 
ATOM     22  H   LIG d   1      11.906   4.519   0.127  0.00  0.00     0.066 H 
ATOM     23  H   LIG d   1      11.865   3.607  -2.150  0.00  0.00     0.063 H 
BRANCH  17  24
ATOM     24  O   LIG d   1       9.074   6.909  -3.556  0.00  0.00    -0.491 OA
BRANCH  24  25
ATOM     25  C   LIG d   1       9.762   7.835  -4.401  0.00  0.00     0.079 C 
ATOM     26  H   LIG d   1       9.083   8.637  -4.689  0.00  0.00     0.066 H 
ATOM     27  H   LIG d   1      10.613   8.252  -3.865  0.00  0.00     0.066 H 
ATOM     28  H   LIG d   1      10.113   7.318  -5.294  0.00  0.00     0.066 H 
ENDBRANCH  24  25
ENDBRANCH  17  24
BRANCH  18  29
ATOM     29  O   LIG d   1       9.126   7.908  -0.995  0.00  0.00    -0.488 OA
BRANCH  29  30
ATOM     30  C   LIG d   1       9.838   9.147  -0.988  0.00  0.00     0.079 C 
ATOM     31  H   LIG d   1      10.146   9.394  -2.005  0.00  0.00     0.066 H 
ATOM     32  H   LIG d   1       9.192   9.935  -0.602  0.00  0.00     0.066 H 
ATOM     33  H   LIG d   1      10.720   9.056  -0.354  0.00  0.00     0.066 H 
ENDBRANCH  29  30
ENDBRANCH  18  29
BRANCH  19  34
ATOM     34  O   LIG d   1      10.624   6.650   0.935  0.00  0.00    -0.491 OA
BRANCH  34  35
ATOM     35  C   LIG d   1      10.978   5.744   1.982  0.00  0.00     0.079 C 
ATOM     36  H   LIG d   1      11.840   5.153   1.674  0.00  0.00     0.066 H 
ATOM     37  H   LIG d   1      11.225   6.308   2.882  0.00  0.00     0.066 H 
ATOM     38  H   LIG d   1      10.137   5.081   2.188  0.00  0.00     0.066 H 
ENDBRANCH  34  35
ENDBRANCH  19  34
ENDBRANCH   9  16
BRANCH   1  39
ATOM     39  O   LIG d   1       5.828  -0.867  -4.187  0.00  0.00    -0.342 OA
BRANCH  39  40
ATOM     40  S   LIG d   1       4.365  -0.479  -4.340  0.00  0.00     0.151 S 
ATOM     41  O   LIG d   1       3.619  -1.380  -3.534  0.00  0.00    -0.131 OA
ATOM     42  O   LIG d   1       4.299   0.931  -4.168  0.00  0.00    -0.131 OA
BRANCH  40  43
ATOM     43  C   LIG d   1       3.910  -0.803  -6.011  0.00  0.00     0.128 A 
ATOM     44  C   LIG d   1       3.120   0.100  -6.699  0.00  0.00    -0.030 A 
ATOM     45  C   LIG d   1       2.762  -0.151  -8.009  0.00  0.00    -0.018 A 
ATOM     46  H   LIG d   1       2.783   1.002  -6.210  0.00  0.00     0.064 H 
ATOM     47  C   LIG d   1       3.195  -1.311  -8.635  0.00  0.00     0.120 A 
ATOM     48  H   LIG d   1       2.146   0.555  -8.545  0.00  0.00     0.066 H 
ATOM     49  C   LIG d   1       3.987  -2.215  -7.943  0.00  0.00    -0.018 A 
ATOM     50  C   LIG d   1       4.348  -1.956  -6.635  0.00  0.00    -0.030 A 
ATOM     51  H   LIG d   1       4.326  -3.119  -8.428  0.00  0.00     0.066 H 
ATOM     52  H   LIG d   1       4.968  -2.659  -6.097  0.00  0.00     0.064 H 
BRANCH  47  53
ATOM     53  O   LIG d   1       2.846  -1.560  -9.924  0.00  0.00    -0.495 OA
BRANCH  53  54
ATOM     54  C   LIG d   1       1.561  -2.145 -10.147  0.00  0.00     0.079 C 
ATOM     55  H   LIG d   1       1.422  -2.318 -11.214  0.00  0.00     0.066 H 
ATOM     56  H   LIG d   1       1.496  -3.093  -9.614  0.00  0.00     0.066 H 
ATOM     57  H   LIG d   1       0.786  -1.470  -9.784  0.00  0.00     0.066 H 
ENDBRANCH  53  54
ENDBRANCH  47  53
ENDBRANCH  40  43
ENDBRANCH  39  40
ENDBRANCH   1  39
TORSDOF 12
ENDMDL
MODEL 3
REMARK VINA RESULT:      -6.2      4.172      7.951
REMARK  12 active torsions:
REMARK  status: ('A' for Active; 'I' for Inactive)
REMARK    1  A    between atoms: C_1  and  O_2 
REMARK    2  A    between atoms: O_2  and  C_3 
REMARK    3  A    between atoms: C_6  and  S_9 
REMARK    4  A    between atoms: S_9  and  O_12 
REMARK    5  A    between atoms: O_12  and  C_13 
REMARK    6  A    between atoms: C_21  and  C_22 
REMARK    7  A    between atoms: C_25  and  O_32 
REMARK    8  A    between atoms: C_26  and  O_30 
REMARK    9  A    between atoms: C_27  and  O_28 
REMARK   10  A    between atoms: O_28  and  C_29 
REMARK   11  A    between atoms: O_30  and  C_31 
REMARK   12  A    between atoms: O_32  and  C_33 
ROOT
ATOM      1  C   LIG d   1       6.907   0.126  -4.967  0.00  0.00     0.160 A 
ATOM      2  C   LIG d   1       7.087   0.170  -6.346  0.00  0.00    -0.016 A 
ATOM      3  C   LIG d   1       7.837   1.162  -6.910  0.00  0.00    -0.044 A 
ATOM      4  C   LIG d   1       8.425   2.135  -6.100  0.00  0.00     0.068 A 
ATOM      5  C   LIG d   1       8.250   2.101  -4.707  0.00  0.00     0.143 A 
ATOM      6  C   LIG d   1       7.483   1.085  -4.150  0.00  0.00     0.026 A 
ATOM      7  O   LIG d   1       8.908   3.137  -4.142  0.00  0.00    -0.451 OA
ATOM      8  C   LIG d   1       9.538   3.899  -5.068  0.00  0.00     0.176 A 
ATOM      9  C   LIG d   1      10.283   5.009  -4.822  0.00  0.00    -0.005 C 
ATOM     10  C   LIG d   1       9.271   3.308  -6.386  0.00  0.00     0.232 A 
ATOM     11  O   LIG d   1       9.662   3.700  -7.471  0.00  0.00    -0.283 OA
ATOM     12  H   LIG d   1       6.631  -0.584  -6.973  0.00  0.00     0.066 H 
ATOM     13  H   LIG d   1       7.972   1.196  -7.981  0.00  0.00     0.063 H 
ATOM     14  H   LIG d   1       7.338   1.043  -3.081  0.00  0.00     0.069 H 
ATOM     15  H   LIG d   1      10.837   5.475  -5.624  0.00  0.00     0.066 H 
ENDROOT
BRANCH   9  16
ATOM     16  C   LIG d   1      10.334   5.573  -3.471  0.00  0.00     0.024 A 
ATOM     17  C   LIG d   1      11.336   5.166  -2.573  0.00  0.00     0.172 A 
ATOM     18  C   LIG d   1      11.378   5.711  -1.299  0.00  0.00     0.204 A 
ATOM     19  C   LIG d   1      10.425   6.646  -0.910  0.00  0.00     0.165 A 
ATOM     20  C   LIG d   1       9.429   7.044  -1.796  0.00  0.00    -0.015 A 
ATOM     21  C   LIG d   1       9.380   6.516  -3.065  0.00  0.00    -0.047 A 
ATOM     22  H   LIG d   1       8.693   7.771  -1.487  0.00  0.00     0.066 H 
ATOM     23  H   LIG d   1       8.604   6.829  -3.749  0.00  0.00     0.063 H 
BRANCH  17  24
ATOM     24  O   LIG d   1      12.262   4.249  -2.954  0.00  0.00    -0.491 OA
BRANCH  24  25
ATOM     25  C   LIG d   1      13.411   4.737  -3.651  0.00  0.00     0.079 C 
ATOM     26  H   LIG d   1      13.648   5.741  -3.301  0.00  0.00     0.066 H 
ATOM     27  H   LIG d   1      14.256   4.077  -3.463  0.00  0.00     0.066 H 
ATOM     28  H   LIG d   1      13.202   4.765  -4.721  0.00  0.00     0.066 H 
ENDBRANCH  24  25
ENDBRANCH  17  24
BRANCH  18  29
ATOM     29  O   LIG d   1      12.350   5.326  -0.427  0.00  0.00    -0.488 OA
BRANCH  29  30
ATOM     30  C   LIG d   1      13.541   6.115  -0.391  0.00  0.00     0.079 C 
ATOM     31  H   LIG d   1      13.275   7.170  -0.305  0.00  0.00     0.066 H 
ATOM     32  H   LIG d   1      14.146   5.822   0.466  0.00  0.00     0.066 H 
ATOM     33  H   LIG d   1      14.108   5.958  -1.308  0.00  0.00     0.066 H 
ENDBRANCH  29  30
ENDBRANCH  18  29
BRANCH  19  34
ATOM     34  O   LIG d   1      10.466   7.173   0.342  0.00  0.00    -0.491 OA
BRANCH  34  35
ATOM     35  C   LIG d   1      10.824   8.551   0.454  0.00  0.00     0.079 C 
ATOM     36  H   LIG d   1      11.790   8.636   0.953  0.00  0.00     0.066 H 
ATOM     37  H   LIG d   1      10.888   8.992  -0.541  0.00  0.00     0.066 H 
ATOM     38  H   LIG d   1      10.067   9.077   1.036  0.00  0.00     0.066 H 
ENDBRANCH  34  35
ENDBRANCH  19  34
ENDBRANCH   9  16
BRANCH   1  39
ATOM     39  O   LIG d   1       6.159  -0.864  -4.416  0.00  0.00    -0.342 OA
BRANCH  39  40
ATOM     40  S   LIG d   1       4.664  -0.577  -4.405  0.00  0.00     0.151 S 
ATOM     41  O   LIG d   1       4.066  -1.567  -3.579  0.00  0.00    -0.131 OA
ATOM     42  O   LIG d   1       4.519   0.815  -4.152  0.00  0.00    -0.131 OA
BRANCH  40  43
ATOM     43  C   LIG d   1       4.067  -0.856  -6.039  0.00  0.00     0.128 A 
ATOM     44  C   LIG d   1       4.459  -1.986  -6.733  0.00  0.00    -0.030 A 
ATOM     45  C   LIG d   1       3.992  -2.207  -8.014  0.00  0.00    -0.018 A 
ATOM     46  H   LIG d   1       5.130  -2.696  -6.273  0.00  0.00     0.064 H 
ATOM     47  C   LIG d   1       3.131  -1.295  -8.605  0.00  0.00     0.120 A 
ATOM     48  H   LIG d   1       4.298  -3.090  -8.556  0.00  0.00     0.066 H 
ATOM     49  C   LIG d   1       2.740  -0.162  -7.907  0.00  0.00    -0.018 A 
ATOM     50  C   LIG d   1       3.204   0.052  -6.623  0.00  0.00    -0.030 A 
ATOM     51  H   LIG d   1       2.068   0.551  -8.364  0.00  0.00     0.066 H 
ATOM     52  H   LIG d   1       2.896   0.932  -6.077  0.00  0.00     0.064 H 
BRANCH  47  53
ATOM     53  O   LIG d   1       2.669  -1.510  -9.865  0.00  0.00    -0.495 OA
BRANCH  53  54
ATOM     54  C   LIG d   1       1.397  -0.951 -10.195  0.00  0.00     0.079 C 
ATOM     55  H   LIG d   1       1.177  -1.142 -11.245  0.00  0.00     0.066 H 
ATOM     56  H   LIG d   1       0.627  -1.408  -9.574  0.00  0.00     0.066 H 
ATOM     57  H   LIG d   1       1.415   0.126 -10.019  0.00  0.00     0.066 H 
ENDBRANCH  53  54
ENDBRANCH  47  53
ENDBRANCH  40  43
ENDBRANCH  39  40
ENDBRANCH   1  39
TORSDOF 12
ENDMDL
MODEL 4
REMARK VINA RESULT:      -6.1      4.889      8.383
REMARK  12 active torsions:
REMARK  status: ('A' for Active; 'I' for Inactive)
REMARK    1  A    between atoms: C_1  and  O_2 
REMARK    2  A    between atoms: O_2  and  C_3 
REMARK    3  A    between atoms: C_6  and  S_9 
REMARK    4  A    between atoms: S_9  and  O_12 
REMARK    5  A    between atoms: O_12  and  C_13 
REMARK    6  A    between atoms: C_21  and  C_22 
REMARK    7  A    between atoms: C_25  and  O_32 
REMARK    8  A    between atoms: C_26  and  O_30 
REMARK    9  A    between atoms: C_27  and  O_28 
REMARK   10  A    between atoms: O_28  and  C_29 
REMARK   11  A    between atoms: O_30  and  C_31 
REMARK   12  A    between atoms: O_32  and  C_33 
ROOT
ATOM      1  C   LIG d   1       9.991   3.786  -8.080  0.00  0.00     0.160 A 
ATOM      2  C   LIG d   1      10.522   4.680  -7.155  0.00  0.00    -0.016 A 
ATOM      3  C   LIG d   1      10.281   4.512  -5.821  0.00  0.00    -0.044 A 
ATOM      4  C   LIG d   1       9.501   3.441  -5.384  0.00  0.00     0.068 A 
ATOM      5  C   LIG d   1       8.959   2.532  -6.309  0.00  0.00     0.143 A 
ATOM      6  C   LIG d   1       9.214   2.718  -7.662  0.00  0.00     0.026 A 
ATOM      7  O   LIG d   1       8.247   1.589  -5.654  0.00  0.00    -0.451 OA
ATOM      8  C   LIG d   1       8.259   1.789  -4.315  0.00  0.00     0.176 A 
ATOM      9  C   LIG d   1       7.640   1.017  -3.382  0.00  0.00    -0.005 C 
ATOM     10  C   LIG d   1       9.064   2.988  -4.051  0.00  0.00     0.232 A 
ATOM     11  O   LIG d   1       9.314   3.496  -2.972  0.00  0.00    -0.283 OA
ATOM     12  H   LIG d   1      11.126   5.510  -7.493  0.00  0.00     0.066 H 
ATOM     13  H   LIG d   1      10.691   5.210  -5.105  0.00  0.00     0.063 H 
ATOM     14  H   LIG d   1       8.806   2.030  -8.387  0.00  0.00     0.069 H 
ATOM     15  H   LIG d   1       7.810   1.199  -2.331  0.00  0.00     0.066 H 
ENDROOT
BRANCH   9  16
ATOM     16  C   LIG d   1       6.742  -0.061  -3.803  0.00  0.00     0.024 A 
ATOM     17  C   LIG d   1       5.349   0.125  -3.764  0.00  0.00     0.172 A 
ATOM     18  C   LIG d   1       4.508  -0.900  -4.170  0.00  0.00     0.204 A 
ATOM     19  C   LIG d   1       5.043  -2.110  -4.603  0.00  0.00     0.165 A 
ATOM     20  C   LIG d   1       6.421  -2.296  -4.636  0.00  0.00    -0.015 A 
ATOM     21  C   LIG d   1       7.267  -1.285  -4.242  0.00  0.00    -0.047 A 
ATOM     22  H   LIG d   1       6.828  -3.237  -4.974  0.00  0.00     0.066 H 
ATOM     23  H   LIG d   1       8.336  -1.435  -4.270  0.00  0.00     0.063 H 
BRANCH  17  24
ATOM     24  O   LIG d   1       4.829   1.304  -3.336  0.00  0.00    -0.491 OA
BRANCH  24  25
ATOM     25  C   LIG d   1       4.335   1.347  -1.995  0.00  0.00     0.079 C 
ATOM     26  H   LIG d   1       4.080   0.338  -1.671  0.00  0.00     0.066 H 
ATOM     27  H   LIG d   1       5.101   1.758  -1.339  0.00  0.00     0.066 H 
ATOM     28  H   LIG d   1       3.446   1.977  -1.956  0.00  0.00     0.066 H 
ENDBRANCH  24  25
ENDBRANCH  17  24
BRANCH  18  29
ATOM     29  O   LIG d   1       3.158  -0.725  -4.141  0.00  0.00    -0.488 OA
BRANCH  29  30
ATOM     30  C   LIG d   1       2.586   0.086  -5.169  0.00  0.00     0.079 C 
ATOM     31  H   LIG d   1       2.654  -0.437  -6.123  0.00  0.00     0.066 H 
ATOM     32  H   LIG d   1       1.540   0.283  -4.936  0.00  0.00     0.066 H 
ATOM     33  H   LIG d   1       3.128   1.029  -5.232  0.00  0.00     0.066 H 
ENDBRANCH  29  30
ENDBRANCH  18  29
BRANCH  19  34
ATOM     34  O   LIG d   1       4.216  -3.113  -4.994  0.00  0.00    -0.491 OA
BRANCH  34  35
ATOM     35  C   LIG d   1       4.548  -3.793  -6.205  0.00  0.00     0.079 C 
ATOM     36  H   LIG d   1       4.109  -4.791  -6.195  0.00  0.00     0.066 H 
ATOM     37  H   LIG d   1       4.158  -3.232  -7.055  0.00  0.00     0.066 H 
ATOM     38  H   LIG d   1       5.633  -3.874  -6.291  0.00  0.00     0.066 H 
ENDBRANCH  34  35
ENDBRANCH  19  34
ENDBRANCH   9  16
BRANCH   1  39
ATOM     39  O   LIG d   1      10.235   3.962  -9.404  0.00  0.00    -0.342 OA
BRANCH  39  40
ATOM     40  S   LIG d   1       9.274   4.923 -10.089  0.00  0.00     0.151 S 
ATOM     41  O   LIG d   1       9.540   4.840 -11.482  0.00  0.00    -0.131 OA
ATOM     42  O   LIG d   1       7.986   4.667  -9.543  0.00  0.00    -0.131 OA
BRANCH  40  43
ATOM     43  C   LIG d   1       9.718   6.552  -9.586  0.00  0.00     0.128 A 
ATOM     44  C   LIG d   1      10.929   7.090  -9.983  0.00  0.00    -0.030 A 
ATOM     45  C   LIG d   1      11.280   8.367  -9.591  0.00  0.00    -0.018 A 
ATOM     46  H   LIG d   1      11.600   6.511 -10.600  0.00  0.00     0.064 H 
ATOM     47  C   LIG d   1      10.418   9.110  -8.798  0.00  0.00     0.120 A 
ATOM     48  H   LIG d   1      12.225   8.787  -9.901  0.00  0.00     0.066 H 
ATOM     49  C   LIG d   1       9.204   8.567  -8.401  0.00  0.00    -0.018 A 
ATOM     50  C   LIG d   1       8.854   7.292  -8.801  0.00  0.00    -0.030 A 
ATOM     51  H   LIG d   1       8.530   9.143  -7.784  0.00  0.00     0.066 H 
ATOM     52  H   LIG d   1       7.907   6.871  -8.496  0.00  0.00     0.064 H 
BRANCH  47  53
ATOM     53  O   LIG d   1      10.760  10.367  -8.411  0.00  0.00    -0.495 OA
BRANCH  53  54
ATOM     54  C   LIG d   1      10.157  10.865  -7.215  0.00  0.00     0.079 C 
ATOM     55  H   LIG d   1      10.020  10.046  -6.509  0.00  0.00     0.066 H 
ATOM     56  H   LIG d   1      10.801  11.623  -6.772  0.00  0.00     0.066 H 
ATOM     57  H   LIG d   1       9.187  11.305  -7.453  0.00  0.00     0.066 H 
ENDBRANCH  53  54
ENDBRANCH  47  53
ENDBRANCH  40  43
ENDBRANCH  39  40
ENDBRANCH   1  39
TORSDOF 12
ENDMDL
MODEL 5
REMARK VINA RESULT:      -6.0      6.284     11.706
REMARK  12 active torsions:
REMARK  status: ('A' for Active; 'I' for Inactive)
REMARK    1  A    between atoms: C_1  and  O_2 
REMARK    2  A    between atoms: O_2  and  C_3 
REMARK    3  A    between atoms: C_6  and  S_9 
REMARK    4  A    between atoms: S_9  and  O_12 
REMARK    5  A    between atoms: O_12  and  C_13 
REMARK    6  A    between atoms: C_21  and  C_22 
REMARK    7  A    between atoms: C_25  and  O_32 
REMARK    8  A    between atoms: C_26  and  O_30 
REMARK    9  A    between atoms: C_27  and  O_28 
REMARK   10  A    between atoms: O_28  and  C_29 
REMARK   11  A    between atoms: O_30  and  C_31 
REMARK   12  A    between atoms: O_32  and  C_33 
ROOT
ATOM      1  C   LIG d   1      10.734   5.822  -2.656  0.00  0.00     0.160 A 
ATOM      2  C   LIG d   1      12.003   5.292  -2.871  0.00  0.00    -0.016 A 
ATOM      3  C   LIG d   1      12.145   4.014  -3.331  0.00  0.00    -0.044 A 
ATOM      4  C   LIG d   1      11.014   3.237  -3.588  0.00  0.00     0.068 A 
ATOM      5  C   LIG d   1       9.728   3.761  -3.375  0.00  0.00     0.143 A 
ATOM      6  C   LIG d   1       9.603   5.064  -2.905  0.00  0.00     0.026 A 
ATOM      7  O   LIG d   1       8.801   2.830  -3.690  0.00  0.00    -0.451 OA
ATOM      8  C   LIG d   1       9.370   1.677  -4.114  0.00  0.00     0.176 A 
ATOM      9  C   LIG d   1       8.711   0.554  -4.504  0.00  0.00    -0.005 C 
ATOM     10  C   LIG d   1      10.826   1.860  -4.078  0.00  0.00     0.232 A 
ATOM     11  O   LIG d   1      11.687   1.053  -4.384  0.00  0.00    -0.283 OA
ATOM     12  H   LIG d   1      12.879   5.893  -2.672  0.00  0.00     0.066 H 
ATOM     13  H   LIG d   1      13.131   3.603  -3.494  0.00  0.00     0.063 H 
ATOM     14  H   LIG d   1       8.622   5.483  -2.736  0.00  0.00     0.069 H 
ATOM     15  H   LIG d   1       9.260  -0.271  -4.935  0.00  0.00     0.066 H 
ENDROOT
BRANCH   9  16
ATOM     16  C   LIG d   1       7.258   0.462  -4.340  0.00  0.00     0.024 A 
ATOM     17  C   LIG d   1       6.477  -0.184  -5.314  0.00  0.00     0.172 A 
ATOM     18  C   LIG d   1       5.103  -0.270  -5.146  0.00  0.00     0.204 A 
ATOM     19  C   LIG d   1       4.503   0.291  -4.023  0.00  0.00     0.165 A 
ATOM     20  C   LIG d   1       5.275   0.935  -3.062  0.00  0.00    -0.015 A 
ATOM     21  C   LIG d   1       6.640   1.022  -3.214  0.00  0.00    -0.047 A 
ATOM     22  H   LIG d   1       4.802   1.367  -2.193  0.00  0.00     0.066 H 
ATOM     23  H   LIG d   1       7.235   1.523  -2.464  0.00  0.00     0.063 H 
BRANCH  17  24
ATOM     24  O   LIG d   1       7.065  -0.725  -6.412  0.00  0.00    -0.491 OA
BRANCH  24  25
ATOM     25  C   LIG d   1       7.399  -2.114  -6.351  0.00  0.00     0.079 C 
ATOM     26  H   LIG d   1       8.434  -2.224  -6.029  0.00  0.00     0.066 H 
ATOM     27  H   LIG d   1       6.742  -2.614  -5.641  0.00  0.00     0.066 H 
ATOM     28  H   LIG d   1       7.276  -2.560  -7.338  0.00  0.00     0.066 H 
ENDBRANCH  24  25
ENDBRANCH  17  24
BRANCH  18  29
ATOM     29  O   LIG d   1       4.341  -0.899  -6.082  0.00  0.00    -0.488 OA
BRANCH  29  30
ATOM     30  C   LIG d   1       3.778  -0.085  -7.113  0.00  0.00     0.079 C 
ATOM     31  H   LIG d   1       4.562   0.525  -7.563  0.00  0.00     0.066 H 
ATOM     32  H   LIG d   1       3.331  -0.723  -7.876  0.00  0.00     0.066 H 
ATOM     33  H   LIG d   1       3.013   0.563  -6.687  0.00  0.00     0.066 H 
ENDBRANCH  29  30
ENDBRANCH  18  29
BRANCH  19  34
ATOM     34  O   LIG d   1       3.157   0.210  -3.865  0.00  0.00    -0.491 OA
BRANCH  34  35
ATOM     35  C   LIG d   1       2.664  -0.835  -3.024  0.00  0.00     0.079 C 
ATOM     36  H   LIG d   1       3.123  -0.755  -2.038  0.00  0.00     0.066 H 
ATOM     37  H   LIG d   1       1.582  -0.746  -2.930  0.00  0.00     0.066 H 
ATOM     38  H   LIG d   1       2.912  -1.802  -3.463  0.00  0.00     0.066 H 
ENDBRANCH  34  35
ENDBRANCH  19  34
ENDBRANCH   9  16
BRANCH   1  39
ATOM     39  O   LIG d   1      10.604   7.093  -2.198  0.00  0.00    -0.342 OA
BRANCH  39  40
ATOM     40  S   LIG d   1       9.864   7.200  -0.872  0.00  0.00     0.151 S 
ATOM     41  O   LIG d   1       8.496   7.424  -1.187  0.00  0.00    -0.131 OA
ATOM     42  O   LIG d   1      10.293   6.102  -0.077  0.00  0.00    -0.131 OA
BRANCH  40  43
ATOM     43  C   LIG d   1      10.441   8.658  -0.069  0.00  0.00     0.128 A 
ATOM     44  C   LIG d   1       9.911   9.889  -0.408  0.00  0.00    -0.030 A 
ATOM     45  C   LIG d   1      10.361  11.034   0.220  0.00  0.00    -0.018 A 
ATOM     46  H   LIG d   1       9.143   9.955  -1.166  0.00  0.00     0.064 H 
ATOM     47  C   LIG d   1      11.347  10.948   1.192  0.00  0.00     0.120 A 
ATOM     48  H   LIG d   1       9.946  11.995  -0.045  0.00  0.00     0.066 H 
ATOM     49  C   LIG d   1      11.878   9.712   1.530  0.00  0.00    -0.018 A 
ATOM     50  C   LIG d   1      11.419   8.569   0.904  0.00  0.00    -0.030 A 
ATOM     51  H   LIG d   1      12.645   9.642   2.287  0.00  0.00     0.066 H 
ATOM     52  H   LIG d   1      11.829   7.606   1.170  0.00  0.00     0.064 H 
BRANCH  47  53
ATOM     53  O   LIG d   1      11.792  12.072   1.812  0.00  0.00    -0.495 OA
BRANCH  53  54
ATOM     54  C   LIG d   1      11.748  13.288   1.063  0.00  0.00     0.079 C 
ATOM     55  H   LIG d   1      10.727  13.669   1.048  0.00  0.00     0.066 H 
ATOM     56  H   LIG d   1      12.403  14.025   1.527  0.00  0.00     0.066 H 
ATOM     57  H   LIG d   1      12.080  13.098   0.042  0.00  0.00     0.066 H 
ENDBRANCH  53  54
ENDBRANCH  47  53
ENDBRANCH  40  43
ENDBRANCH  39  40
ENDBRANCH   1  39
TORSDOF 12
ENDMDL
MODEL 6
REMARK VINA RESULT:      -5.9      1.432      2.614
REMARK  12 active torsions:
REMARK  status: ('A' for Active; 'I' for Inactive)
REMARK    1  A    between atoms: C_1  and  O_2 
REMARK    2  A    between atoms: O_2  and  C_3 
REMARK    3  A    between atoms: C_6  and  S_9 
REMARK    4  A    between atoms: S_9  and  O_12 
REMARK    5  A    between atoms: O_12  and  C_13 
REMARK    6  A    between atoms: C_21  and  C_22 
REMARK    7  A    between atoms: C_25  and  O_32 
REMARK    8  A    between atoms: C_26  and  O_30 
REMARK    9  A    between atoms: C_27  and  O_28 
REMARK   10  A    between atoms: O_28  and  C_29 
REMARK   11  A    between atoms: O_30  and  C_31 
REMARK   12  A    between atoms: O_32  and  C_33 
ROOT
ATOM      1  C   LIG d   1       3.378  -4.822  -9.378  0.00  0.00     0.160 A 
ATOM      2  C   LIG d   1       4.254  -5.886  -9.575  0.00  0.00    -0.016 A 
ATOM      3  C   LIG d   1       5.307  -6.075  -8.726  0.00  0.00    -0.044 A 
ATOM      4  C   LIG d   1       5.504  -5.199  -7.657  0.00  0.00     0.068 A 
ATOM      5  C   LIG d   1       4.627  -4.122  -7.449  0.00  0.00     0.143 A 
ATOM      6  C   LIG d   1       3.561  -3.944  -8.323  0.00  0.00     0.026 A 
ATOM      7  O   LIG d   1       5.020  -3.422  -6.362  0.00  0.00    -0.451 OA
ATOM      8  C   LIG d   1       6.130  -3.951  -5.796  0.00  0.00     0.176 A 
ATOM      9  C   LIG d   1       6.771  -3.481  -4.694  0.00  0.00    -0.005 C 
ATOM     10  C   LIG d   1       6.516  -5.126  -6.588  0.00  0.00     0.232 A 
ATOM     11  O   LIG d   1       7.460  -5.874  -6.401  0.00  0.00    -0.283 OA
ATOM     12  H   LIG d   1       4.100  -6.563 -10.403  0.00  0.00     0.066 H 
ATOM     13  H   LIG d   1       5.987  -6.898  -8.883  0.00  0.00     0.063 H 
ATOM     14  H   LIG d   1       2.877  -3.122  -8.178  0.00  0.00     0.069 H 
ATOM     15  H   LIG d   1       7.581  -4.046  -4.258  0.00  0.00     0.066 H 
ENDROOT
BRANCH   9  16
ATOM     16  C   LIG d   1       6.364  -2.206  -4.097  0.00  0.00     0.024 A 
ATOM     17  C   LIG d   1       6.895  -0.998  -4.582  0.00  0.00     0.172 A 
ATOM     18  C   LIG d   1       6.498   0.204  -4.014  0.00  0.00     0.204 A 
ATOM     19  C   LIG d   1       5.587   0.209  -2.962  0.00  0.00     0.165 A 
ATOM     20  C   LIG d   1       5.066  -0.987  -2.479  0.00  0.00    -0.015 A 
ATOM     21  C   LIG d   1       5.447  -2.185  -3.037  0.00  0.00    -0.047 A 
ATOM     22  H   LIG d   1       4.359  -0.974  -1.663  0.00  0.00     0.066 H 
ATOM     23  H   LIG d   1       5.039  -3.111  -2.658  0.00  0.00     0.063 H 
BRANCH  17  24
ATOM     24  O   LIG d   1       7.788  -1.006  -5.605  0.00  0.00    -0.491 OA
BRANCH  24  25
ATOM     25  C   LIG d   1       9.162  -1.208  -5.264  0.00  0.00     0.079 C 
ATOM     26  H   LIG d   1       9.336  -2.267  -5.070  0.00  0.00     0.066 H 
ATOM     27  H   LIG d   1       9.792  -0.881  -6.091  0.00  0.00     0.066 H 
ATOM     28  H   LIG d   1       9.404  -0.630  -4.372  0.00  0.00     0.066 H 
ENDBRANCH  24  25
ENDBRANCH  17  24
BRANCH  18  29
ATOM     29  O   LIG d   1       7.003   1.377  -4.482  0.00  0.00    -0.488 OA
BRANCH  29  30
ATOM     30  C   LIG d   1       8.151   1.903  -3.812  0.00  0.00     0.079 C 
ATOM     31  H   LIG d   1       8.084   2.991  -3.776  0.00  0.00     0.066 H 
ATOM     32  H   LIG d   1       8.192   1.507  -2.797  0.00  0.00     0.066 H 
ATOM     33  H   LIG d   1       9.052   1.612  -4.352  0.00  0.00     0.066 H 
ENDBRANCH  29  30
ENDBRANCH  18  29
BRANCH  19  34
ATOM     34  O   LIG d   1       5.205   1.387  -2.405  0.00  0.00    -0.491 OA
BRANCH  34  35
ATOM     35  C   LIG d   1       3.802   1.643  -2.327  0.00  0.00     0.079 C 
ATOM     36  H   LIG d   1       3.607   2.681  -2.597  0.00  0.00     0.066 H 
ATOM     37  H   LIG d   1       3.274   0.983  -3.016  0.00  0.00     0.066 H 
ATOM     38  H   LIG d   1       3.454   1.460  -1.310  0.00  0.00     0.066 H 
ENDBRANCH  34  35
ENDBRANCH  19  34
ENDBRANCH   9  16
BRANCH   1  39
ATOM     39  O   LIG d   1       2.335  -4.642 -10.228  0.00  0.00    -0.342 OA
BRANCH  39  40
ATOM     40  S   LIG d   1       2.627  -3.683 -11.373  0.00  0.00     0.151 S 
ATOM     41  O   LIG d   1       3.945  -3.971 -11.818  0.00  0.00    -0.131 OA
ATOM     42  O   LIG d   1       1.502  -3.733 -12.241  0.00  0.00    -0.131 OA
BRANCH  40  43
ATOM     43  C   LIG d   1       2.667  -2.057 -10.695  0.00  0.00     0.128 A 
ATOM     44  C   LIG d   1       3.814  -1.293 -10.803  0.00  0.00    -0.030 A 
ATOM     45  C   LIG d   1       3.849  -0.018 -10.274  0.00  0.00    -0.018 A 
ATOM     46  H   LIG d   1       4.684  -1.694 -11.303  0.00  0.00     0.064 H 
ATOM     47  C   LIG d   1       2.732   0.496  -9.631  0.00  0.00     0.120 A 
ATOM     48  H   LIG d   1       4.745   0.579 -10.359  0.00  0.00     0.066 H 
ATOM     49  C   LIG d   1       1.583  -0.273  -9.523  0.00  0.00    -0.018 A 
ATOM     50  C   LIG d   1       1.551  -1.545 -10.061  0.00  0.00    -0.030 A 
ATOM     51  H   LIG d   1       0.711   0.124  -9.024  0.00  0.00     0.066 H 
ATOM     52  H   LIG d   1       0.654  -2.143  -9.981  0.00  0.00     0.064 H 
BRANCH  47  53
ATOM     53  O   LIG d   1       2.763   1.750  -9.109  0.00  0.00    -0.495 OA
BRANCH  53  54
ATOM     54  C   LIG d   1       3.890   2.563  -9.439  0.00  0.00     0.079 C 
ATOM     55  H   LIG d   1       4.353   2.189 -10.352  0.00  0.00     0.066 H 
ATOM     56  H   LIG d   1       3.564   3.592  -9.593  0.00  0.00     0.066 H 
ATOM     57  H   LIG d   1       4.614   2.529  -8.624  0.00  0.00     0.066 H 
ENDBRANCH  53  54
ENDBRANCH  47  53
ENDBRANCH  40  43
ENDBRANCH  39  40
ENDBRANCH   1  39
TORSDOF 12
ENDMDL
MODEL 7
REMARK VINA RESULT:      -5.8      4.890      8.637
REMARK  12 active torsions:
REMARK  status: ('A' for Active; 'I' for Inactive)
REMARK    1  A    between atoms: C_1  and  O_2 
REMARK    2  A    between atoms: O_2  and  C_3 
REMARK    3  A    between atoms: C_6  and  S_9 
REMARK    4  A    between atoms: S_9  and  O_12 
REMARK    5  A    between atoms: O_12  and  C_13 
REMARK    6  A    between atoms: C_21  and  C_22 
REMARK    7  A    between atoms: C_25  and  O_32 
REMARK    8  A    between atoms: C_26  and  O_30 
REMARK    9  A    between atoms: C_27  and  O_28 
REMARK   10  A    between atoms: O_28  and  C_29 
REMARK   11  A    between atoms: O_30  and  C_31 
REMARK   12  A    between atoms: O_32  and  C_33 
ROOT
ATOM      1  C   LIG d   1       6.500  -8.158  -5.691  0.00  0.00     0.160 A 
ATOM      2  C   LIG d   1       7.769  -8.317  -5.141  0.00  0.00    -0.016 A 
ATOM      3  C   LIG d   1       8.468  -7.230  -4.698  0.00  0.00    -0.044 A 
ATOM      4  C   LIG d   1       7.906  -5.956  -4.797  0.00  0.00     0.068 A 
ATOM      5  C   LIG d   1       6.627  -5.783  -5.350  0.00  0.00     0.143 A 
ATOM      6  C   LIG d   1       5.931  -6.900  -5.796  0.00  0.00     0.026 A 
ATOM      7  O   LIG d   1       6.301  -4.472  -5.339  0.00  0.00    -0.451 OA
ATOM      8  C   LIG d   1       7.288  -3.713  -4.807  0.00  0.00     0.176 A 
ATOM      9  C   LIG d   1       7.267  -2.362  -4.654  0.00  0.00    -0.005 C 
ATOM     10  C   LIG d   1       8.383  -4.612  -4.423  0.00  0.00     0.232 A 
ATOM     11  O   LIG d   1       9.447  -4.314  -3.910  0.00  0.00    -0.283 OA
ATOM     12  H   LIG d   1       8.204  -9.304  -5.065  0.00  0.00     0.066 H 
ATOM     13  H   LIG d   1       9.453  -7.355  -4.276  0.00  0.00     0.063 H 
ATOM     14  H   LIG d   1       4.946  -6.787  -6.224  0.00  0.00     0.069 H 
ATOM     15  H   LIG d   1       8.059  -1.868  -4.110  0.00  0.00     0.066 H 
ENDROOT
BRANCH   9  16
ATOM     16  C   LIG d   1       6.171  -1.576  -5.226  0.00  0.00     0.024 A 
ATOM     17  C   LIG d   1       5.114  -1.139  -4.409  0.00  0.00     0.172 A 
ATOM     18  C   LIG d   1       4.085  -0.390  -4.960  0.00  0.00     0.204 A 
ATOM     19  C   LIG d   1       4.095  -0.086  -6.318  0.00  0.00     0.165 A 
ATOM     20  C   LIG d   1       5.138  -0.524  -7.127  0.00  0.00    -0.015 A 
ATOM     21  C   LIG d   1       6.168  -1.262  -6.592  0.00  0.00    -0.047 A 
ATOM     22  H   LIG d   1       5.139  -0.283  -8.180  0.00  0.00     0.066 H 
ATOM     23  H   LIG d   1       6.976  -1.599  -7.226  0.00  0.00     0.063 H 
BRANCH  17  24
ATOM     24  O   LIG d   1       5.104  -1.442  -3.086  0.00  0.00    -0.491 OA
BRANCH  24  25
ATOM     25  C   LIG d   1       4.111  -2.370  -2.640  0.00  0.00     0.079 C 
ATOM     26  H   LIG d   1       3.843  -3.035  -3.460  0.00  0.00     0.066 H 
ATOM     27  H   LIG d   1       4.507  -2.954  -1.811  0.00  0.00     0.066 H 
ATOM     28  H   LIG d   1       3.227  -1.824  -2.310  0.00  0.00     0.066 H 
ENDBRANCH  24  25
ENDBRANCH  17  24
BRANCH  18  29
ATOM     29  O   LIG d   1       3.061   0.041  -4.174  0.00  0.00    -0.488 OA
BRANCH  29  30
ATOM     30  C   LIG d   1       3.284   1.230  -3.413  0.00  0.00     0.079 C 
ATOM     31  H   LIG d   1       3.909   1.916  -3.987  0.00  0.00     0.066 H 
ATOM     32  H   LIG d   1       2.328   1.706  -3.194  0.00  0.00     0.066 H 
ATOM     33  H   LIG d   1       3.786   0.976  -2.480  0.00  0.00     0.066 H 
ENDBRANCH  29  30
ENDBRANCH  18  29
BRANCH  19  34
ATOM     34  O   LIG d   1       3.082   0.641  -6.855  0.00  0.00    -0.491 OA
BRANCH  34  35
ATOM     35  C   LIG d   1       2.754   0.386  -8.221  0.00  0.00     0.079 C 
ATOM     36  H   LIG d   1       3.643   0.042  -8.751  0.00  0.00     0.066 H 
ATOM     37  H   LIG d   1       1.981  -0.382  -8.272  0.00  0.00     0.066 H 
ATOM     38  H   LIG d   1       2.386   1.302  -8.685  0.00  0.00     0.066 H 
ENDBRANCH  34  35
ENDBRANCH  19  34
ENDBRANCH   9  16
BRANCH   1  39
ATOM     39  O   LIG d   1       5.815  -9.245  -6.128  0.00  0.00    -0.342 OA
BRANCH  39  40
ATOM     40  S   LIG d   1       4.776  -9.761  -5.143  0.00  0.00     0.151 S 
ATOM     41  O   LIG d   1       4.162  -8.618  -4.564  0.00  0.00    -0.131 OA
ATOM     42  O   LIG d   1       4.032 -10.763  -5.826  0.00  0.00    -0.131 OA
BRANCH  40  43
ATOM     43  C   LIG d   1       5.646 -10.577  -3.847  0.00  0.00     0.128 A 
ATOM     44  C   LIG d   1       5.449 -10.191  -2.534  0.00  0.00    -0.030 A 
ATOM     45  C   LIG d   1       6.130 -10.829  -1.515  0.00  0.00    -0.018 A 
ATOM     46  H   LIG d   1       4.762  -9.389  -2.305  0.00  0.00     0.064 H 
ATOM     47  C   LIG d   1       7.012 -11.858  -1.810  0.00  0.00     0.120 A 
ATOM     48  H   LIG d   1       5.975 -10.527  -0.490  0.00  0.00     0.066 H 
ATOM     49  C   LIG d   1       7.209 -12.243  -3.128  0.00  0.00    -0.018 A 
ATOM     50  C   LIG d   1       6.520 -11.606  -4.143  0.00  0.00    -0.030 A 
ATOM     51  H   LIG d   1       7.895 -13.044  -3.361  0.00  0.00     0.066 H 
ATOM     52  H   LIG d   1       6.670 -11.909  -5.169  0.00  0.00     0.064 H 
BRANCH  47  53
ATOM     53  O   LIG d   1       7.683 -12.488  -0.810  0.00  0.00    -0.495 OA
BRANCH  53  54
ATOM     54  C   LIG d   1       8.814 -11.811  -0.260  0.00  0.00     0.079 C 
ATOM     55  H   LIG d   1       8.798 -11.901   0.826  0.00  0.00     0.066 H 
ATOM     56  H   LIG d   1       9.729 -12.258  -0.647  0.00  0.00     0.066 H 
ATOM     57  H   LIG d   1       8.778 -10.757  -0.537  0.00  0.00     0.066 H 
ENDBRANCH  53  54
ENDBRANCH  47  53
ENDBRANCH  40  43
ENDBRANCH  39  40
ENDBRANCH   1  39
TORSDOF 12
ENDMDL
MODEL 8
REMARK VINA RESULT:      -5.7      3.728      6.932
REMARK  12 active torsions:
REMARK  status: ('A' for Active; 'I' for Inactive)
REMARK    1  A    between atoms: C_1  and  O_2 
REMARK    2  A    between atoms: O_2  and  C_3 
REMARK    3  A    between atoms: C_6  and  S_9 
REMARK    4  A    between atoms: S_9  and  O_12 
REMARK    5  A    between atoms: O_12  and  C_13 
REMARK    6  A    between atoms: C_21  and  C_22 
REMARK    7  A    between atoms: C_25  and  O_32 
REMARK    8  A    between atoms: C_26  and  O_30 
REMARK    9  A    between atoms: C_27  and  O_28 
REMARK   10  A    between atoms: O_28  and  C_29 
REMARK   11  A    between atoms: O_30  and  C_31 
REMARK   12  A    between atoms: O_32  and  C_33 
ROOT
ATOM      1  C   LIG d   1       0.460  -3.416 -11.676  0.00  0.00     0.160 A 
ATOM      2  C   LIG d   1       0.886  -2.692 -12.787  0.00  0.00    -0.016 A 
ATOM      3  C   LIG d   1       1.755  -1.649 -12.635  0.00  0.00    -0.044 A 
ATOM      4  C   LIG d   1       2.218  -1.309 -11.363  0.00  0.00     0.068 A 
ATOM      5  C   LIG d   1       1.795  -2.032 -10.235  0.00  0.00     0.143 A 
ATOM      6  C   LIG d   1       0.910  -3.089 -10.408  0.00  0.00     0.026 A 
ATOM      7  O   LIG d   1       2.373  -1.520  -9.126  0.00  0.00    -0.451 OA
ATOM      8  C   LIG d   1       3.181  -0.473  -9.417  0.00  0.00     0.176 A 
ATOM      9  C   LIG d   1       3.904   0.254  -8.525  0.00  0.00    -0.005 C 
ATOM     10  C   LIG d   1       3.137  -0.267 -10.870  0.00  0.00     0.232 A 
ATOM     11  O   LIG d   1       3.728   0.576 -11.522  0.00  0.00    -0.283 OA
ATOM     12  H   LIG d   1       0.527  -2.956 -13.772  0.00  0.00     0.066 H 
ATOM     13  H   LIG d   1       2.082  -1.087 -13.498  0.00  0.00     0.063 H 
ATOM     14  H   LIG d   1       0.574  -3.656  -9.552  0.00  0.00     0.069 H 
ATOM     15  H   LIG d   1       4.607   0.995  -8.876  0.00  0.00     0.066 H 
ENDROOT
BRANCH   9  16
ATOM     16  C   LIG d   1       3.729   0.034  -7.087  0.00  0.00     0.024 A 
ATOM     17  C   LIG d   1       4.612  -0.808  -6.388  0.00  0.00     0.172 A 
ATOM     18  C   LIG d   1       4.440  -1.004  -5.027  0.00  0.00     0.204 A 
ATOM     19  C   LIG d   1       3.391  -0.379  -4.360  0.00  0.00     0.165 A 
ATOM     20  C   LIG d   1       2.514   0.449  -5.052  0.00  0.00    -0.015 A 
ATOM     21  C   LIG d   1       2.676   0.658  -6.402  0.00  0.00    -0.047 A 
ATOM     22  H   LIG d   1       1.703   0.931  -4.527  0.00  0.00     0.066 H 
ATOM     23  H   LIG d   1       1.992   1.302  -6.934  0.00  0.00     0.063 H 
BRANCH  17  24
ATOM     24  O   LIG d   1       5.631  -1.421  -7.043  0.00  0.00    -0.491 OA
BRANCH  24  25
ATOM     25  C   LIG d   1       6.902  -0.767  -7.022  0.00  0.00     0.079 C 
ATOM     26  H   LIG d   1       7.643  -1.428  -6.572  0.00  0.00     0.066 H 
ATOM     27  H   LIG d   1       7.202  -0.525  -8.041  0.00  0.00     0.066 H 
ATOM     28  H   LIG d   1       6.829   0.150  -6.437  0.00  0.00     0.066 H 
ENDBRANCH  24  25
ENDBRANCH  17  24
BRANCH  18  29
ATOM     29  O   LIG d   1       5.295  -1.814  -4.343  0.00  0.00    -0.488 OA
BRANCH  29  30
ATOM     30  C   LIG d   1       4.994  -3.211  -4.328  0.00  0.00     0.079 C 
ATOM     31  H   LIG d   1       4.531  -3.472  -3.376  0.00  0.00     0.066 H 
ATOM     32  H   LIG d   1       4.307  -3.443  -5.142  0.00  0.00     0.066 H 
ATOM     33  H   LIG d   1       5.913  -3.782  -4.454  0.00  0.00     0.066 H 
ENDBRANCH  29  30
ENDBRANCH  18  29
BRANCH  19  34
ATOM     34  O   LIG d   1       3.223  -0.580  -3.027  0.00  0.00    -0.491 OA
BRANCH  34  35
ATOM     35  C   LIG d   1       3.808   0.382  -2.148  0.00  0.00     0.079 C 
ATOM     36  H   LIG d   1       4.807   0.053  -1.861  0.00  0.00     0.066 H 
ATOM     37  H   LIG d   1       3.873   1.345  -2.655  0.00  0.00     0.066 H 
ATOM     38  H   LIG d   1       3.188   0.483  -1.256  0.00  0.00     0.066 H 
ENDBRANCH  34  35
ENDBRANCH  19  34
ENDBRANCH   9  16
BRANCH   1  39
ATOM     39  O   LIG d   1      -0.404  -4.450 -11.837  0.00  0.00    -0.342 OA
BRANCH  39  40
ATOM     40  S   LIG d   1       0.266  -5.769 -12.191  0.00  0.00     0.151 S 
ATOM     41  O   LIG d   1       0.180  -5.904 -13.602  0.00  0.00    -0.131 OA
ATOM     42  O   LIG d   1       1.508  -5.792 -11.497  0.00  0.00    -0.131 OA
BRANCH  40  43
ATOM     43  C   LIG d   1      -0.719  -7.057 -11.500  0.00  0.00     0.128 A 
ATOM     44  C   LIG d   1      -1.924  -6.754 -10.893  0.00  0.00    -0.030 A 
ATOM     45  C   LIG d   1      -2.698  -7.760 -10.351  0.00  0.00    -0.018 A 
ATOM     46  H   LIG d   1      -2.259  -5.728 -10.843  0.00  0.00     0.064 H 
ATOM     47  C   LIG d   1      -2.266  -9.077 -10.415  0.00  0.00     0.120 A 
ATOM     48  H   LIG d   1      -3.639  -7.523  -9.878  0.00  0.00     0.066 H 
ATOM     49  C   LIG d   1      -1.057  -9.378 -11.024  0.00  0.00    -0.018 A 
ATOM     50  C   LIG d   1      -0.289  -8.368 -11.571  0.00  0.00    -0.030 A 
ATOM     51  H   LIG d   1      -0.718 -10.403 -11.076  0.00  0.00     0.066 H 
ATOM     52  H   LIG d   1       0.651  -8.604 -12.049  0.00  0.00     0.064 H 
BRANCH  47  53
ATOM     53  O   LIG d   1      -3.026 -10.070  -9.884  0.00  0.00    -0.495 OA
BRANCH  53  54
ATOM     54  C   LIG d   1      -2.730 -11.406 -10.295  0.00  0.00     0.079 C 
ATOM     55  H   LIG d   1      -1.835 -11.404 -10.918  0.00  0.00     0.066 H 
ATOM     56  H   LIG d   1      -2.559 -12.028  -9.417  0.00  0.00     0.066 H 
ATOM     57  H   LIG d   1      -3.569 -11.805 -10.867  0.00  0.00     0.066 H 
ENDBRANCH  53  54
ENDBRANCH  47  53
ENDBRANCH  40  43
ENDBRANCH  39  40
ENDBRANCH   1  39
TORSDOF 12
ENDMDL
MODEL 9
REMARK VINA RESULT:      -5.7      4.354      8.702
REMARK  12 active torsions:
REMARK  status: ('A' for Active; 'I' for Inactive)
REMARK    1  A    between atoms: C_1  and  O_2 
REMARK    2  A    between atoms: O_2  and  C_3 
REMARK    3  A    between atoms: C_6  and  S_9 
REMARK    4  A    between atoms: S_9  and  O_12 
REMARK    5  A    between atoms: O_12  and  C_13 
REMARK    6  A    between atoms: C_21  and  C_22 
REMARK    7  A    between atoms: C_25  and  O_32 
REMARK    8  A    between atoms: C_26  and  O_30 
REMARK    9  A    between atoms: C_27  and  O_28 
REMARK   10  A    between atoms: O_28  and  C_29 
REMARK   11  A    between atoms: O_30  and  C_31 
REMARK   12  A    between atoms: O_32  and  C_33 
ROOT
ATOM      1  C   LIG d   1       7.092   0.076  -5.575  0.00  0.00     0.160 A 
ATOM      2  C   LIG d   1       7.367   0.233  -6.931  0.00  0.00    -0.016 A 
ATOM      3  C   LIG d   1       8.170   1.254  -7.355  0.00  0.00    -0.044 A 
ATOM      4  C   LIG d   1       8.717   2.141  -6.426  0.00  0.00     0.068 A 
ATOM      5  C   LIG d   1       8.446   1.992  -5.056  0.00  0.00     0.143 A 
ATOM      6  C   LIG d   1       7.627   0.949  -4.642  0.00  0.00     0.026 A 
ATOM      7  O   LIG d   1       9.080   2.962  -4.361  0.00  0.00    -0.451 OA
ATOM      8  C   LIG d   1       9.784   3.786  -5.173  0.00  0.00     0.176 A 
ATOM      9  C   LIG d   1      10.528   4.854  -4.783  0.00  0.00    -0.005 C 
ATOM     10  C   LIG d   1       9.599   3.315  -6.552  0.00  0.00     0.232 A 
ATOM     11  O   LIG d   1      10.069   3.790  -7.571  0.00  0.00    -0.283 OA
ATOM     12  H   LIG d   1       6.944  -0.454  -7.650  0.00  0.00     0.066 H 
ATOM     13  H   LIG d   1       8.379   1.376  -8.408  0.00  0.00     0.063 H 
ATOM     14  H   LIG d   1       7.408   0.819  -3.593  0.00  0.00     0.069 H 
ATOM     15  H   LIG d   1      11.143   5.375  -5.502  0.00  0.00     0.066 H 
ENDROOT
BRANCH   9  16
ATOM     16  C   LIG d   1      10.495   5.300  -3.387  0.00  0.00     0.024 A 
ATOM     17  C   LIG d   1       9.804   6.473  -3.037  0.00  0.00     0.172 A 
ATOM     18  C   LIG d   1       9.775   6.882  -1.712  0.00  0.00     0.204 A 
ATOM     19  C   LIG d   1      10.436   6.139  -0.739  0.00  0.00     0.165 A 
ATOM     20  C   LIG d   1      11.124   4.981  -1.087  0.00  0.00    -0.015 A 
ATOM     21  C   LIG d   1      11.156   4.561  -2.396  0.00  0.00    -0.047 A 
ATOM     22  H   LIG d   1      11.634   4.409  -0.326  0.00  0.00     0.066 H 
ATOM     23  H   LIG d   1      11.692   3.661  -2.661  0.00  0.00     0.063 H 
BRANCH  17  24
ATOM     24  O   LIG d   1       9.165   7.199  -3.989  0.00  0.00    -0.491 OA
BRANCH  24  25
ATOM     25  C   LIG d   1       9.933   8.193  -4.672  0.00  0.00     0.079 C 
ATOM     26  H   LIG d   1      10.298   8.926  -3.953  0.00  0.00     0.066 H 
ATOM     27  H   LIG d   1      10.778   7.719  -5.170  0.00  0.00     0.066 H 
ATOM     28  H   LIG d   1       9.307   8.690  -5.412  0.00  0.00     0.066 H 
ENDBRANCH  24  25
ENDBRANCH  17  24
BRANCH  18  29
ATOM     29  O   LIG d   1       9.103   8.013  -1.364  0.00  0.00    -0.488 OA
BRANCH  29  30
ATOM     30  C   LIG d   1       9.879   9.201  -1.190  0.00  0.00     0.079 C 
ATOM     31  H   LIG d   1       9.887   9.477  -0.134  0.00  0.00     0.066 H 
ATOM     32  H   LIG d   1      10.901   9.020  -1.525  0.00  0.00     0.066 H 
ATOM     33  H   LIG d   1       9.442  10.010  -1.774  0.00  0.00     0.066 H 
ENDBRANCH  29  30
ENDBRANCH  18  29
BRANCH  19  34
ATOM     34  O   LIG d   1      10.410   6.546   0.556  0.00  0.00    -0.491 OA
BRANCH  34  35
ATOM     35  C   LIG d   1      11.104   5.735   1.505  0.00  0.00     0.079 C 
ATOM     36  H   LIG d   1      10.533   4.826   1.693  0.00  0.00     0.066 H 
ATOM     37  H   LIG d   1      12.086   5.473   1.109  0.00  0.00     0.066 H 
ATOM     38  H   LIG d   1      11.225   6.288   2.437  0.00  0.00     0.066 H 
ENDBRANCH  34  35
ENDBRANCH  19  34
ENDBRANCH   9  16
BRANCH   1  39
ATOM     39  O   LIG d   1       6.293  -0.941  -5.164  0.00  0.00    -0.342 OA
BRANCH  39  40
ATOM     40  S   LIG d   1       7.018  -2.017  -4.370  0.00  0.00     0.151 S 
ATOM     41  O   LIG d   1       8.380  -1.972  -4.773  0.00  0.00    -0.131 OA
ATOM     42  O   LIG d   1       6.619  -1.860  -3.014  0.00  0.00    -0.131 OA
BRANCH  40  43
ATOM     43  C   LIG d   1       6.386  -3.574  -4.903  0.00  0.00     0.128 A 
ATOM     44  C   LIG d   1       5.020  -3.784  -4.951  0.00  0.00    -0.030 A 
ATOM     45  C   LIG d   1       4.521  -5.002  -5.368  0.00  0.00    -0.018 A 
ATOM     46  H   LIG d   1       4.343  -2.993  -4.661  0.00  0.00     0.064 H 
ATOM     47  C   LIG d   1       5.392  -6.017  -5.738  0.00  0.00     0.120 A 
ATOM     48  H   LIG d   1       3.455  -5.165  -5.406  0.00  0.00     0.066 H 
ATOM     49  C   LIG d   1       6.762  -5.803  -5.689  0.00  0.00    -0.018 A 
ATOM     50  C   LIG d   1       7.256  -4.580  -5.277  0.00  0.00    -0.030 A 
ATOM     51  H   LIG d   1       7.443  -6.591  -5.977  0.00  0.00     0.066 H 
ATOM     52  H   LIG d   1       8.323  -4.413  -5.243  0.00  0.00     0.064 H 
BRANCH  47  53
ATOM     53  O   LIG d   1       4.905  -7.216  -6.150  0.00  0.00    -0.495 OA
BRANCH  53  54
ATOM     54  C   LIG d   1       4.986  -8.302  -5.225  0.00  0.00     0.079 C 
ATOM     55  H   LIG d   1       5.980  -8.325  -4.778  0.00  0.00     0.066 H 
ATOM     56  H   LIG d   1       4.240  -8.170  -4.442  0.00  0.00     0.066 H 
ATOM     57  H   LIG d   1       4.802  -9.241  -5.749  0.00  0.00     0.066 H 
ENDBRANCH  53  54
ENDBRANCH  47  53
ENDBRANCH  40  43
ENDBRANCH  39  40
ENDBRANCH   1  39
TORSDOF 12
ENDMDL
