MODEL 1
REMARK VINA RESULT:      -7.1      0.000      0.000
REMARK  7 active torsions:
REMARK  status: ('A' for Active; 'I' for Inactive)
REMARK    1  A    between atoms: C_1  and  C_2 
REMARK    2  A    between atoms: C_13  and  O_15 
REMARK    3  A    between atoms: O_15  and  C_16 
REMARK    4  A    between atoms: C_16  and  C_18 
REMARK    5  A    between atoms: C_18  and  C_19 
REMARK    6  A    between atoms: C_19  and  C_20 
REMARK    7  A    between atoms: C_34  and  C_35 
ROOT
ATOM      1  C   LIG d   1       6.960  -1.349  -8.361  0.00  0.00     0.008 C 
ATOM      2  C   LIG d   1       5.608  -2.006  -8.081  0.00  0.00    -0.044 C 
ATOM      3  C   LIG d   1       5.435  -2.227  -6.579  0.00  0.00    -0.049 C 
ATOM      4  C   LIG d   1       5.378  -0.872  -5.897  0.00  0.00    -0.029 C 
ATOM      5  H   LIG d   1       4.552  -0.315  -6.336  0.00  0.00     0.031 H 
ATOM      6  C   LIG d   1       6.662  -0.108  -6.121  0.00  0.00    -0.034 C 
ATOM      7  H   LIG d   1       6.440   0.929  -5.868  0.00  0.00     0.031 H 
ATOM      8  C   LIG d   1       7.160  -0.086  -7.530  0.00  0.00    -0.029 C 
ATOM      9  H   LIG d   1       8.233   0.099  -7.481  0.00  0.00     0.031 H 
ATOM     10  C   LIG d   1       6.547   1.048  -8.375  0.00  0.00    -0.046 C 
ATOM     11  C   LIG d   1       7.019   0.666  -9.805  0.00  0.00    -0.015 C 
ATOM     12  C   LIG d   1       6.937  -0.875  -9.836  0.00  0.00     0.109 C 
ATOM     13  H   LIG d   1       7.794  -1.283 -10.373  0.00  0.00     0.074 H 
ATOM     14  C   LIG d   1       7.742  -0.548  -5.140  0.00  0.00    -0.046 C 
ATOM     15  C   LIG d   1       7.376  -0.033  -3.738  0.00  0.00    -0.030 C 
ATOM     16  C   LIG d   1       5.867  -0.093  -3.584  0.00  0.00    -0.060 C 
ATOM     17  C   LIG d   1       5.338   0.712  -2.678  0.00  0.00    -0.019 C 
ATOM     18  C   LIG d   1       3.896   0.641  -2.413  0.00  0.00     0.156 C 
ATOM     19  O   LIG d   1       3.276   1.580  -1.959  0.00  0.00    -0.293 OA
ATOM     20  C   LIG d   1       3.231  -0.683  -2.742  0.00  0.00     0.011 C 
ATOM     21  C   LIG d   1       3.596  -1.028  -4.183  0.00  0.00    -0.037 C 
ATOM     22  C   LIG d   1       5.098  -1.080  -4.404  0.00  0.00    -0.007 C 
ATOM     23  H   LIG d   1       4.809  -1.360  -8.446  0.00  0.00     0.027 H 
ATOM     24  H   LIG d   1       5.558  -2.966  -8.595  0.00  0.00     0.027 H 
ATOM     25  H   LIG d   1       4.511  -2.775  -6.392  0.00  0.00     0.027 H 
ATOM     26  H   LIG d   1       6.283  -2.790  -6.189  0.00  0.00     0.027 H 
ATOM     27  H   LIG d   1       6.949   2.017  -8.078  0.00  0.00     0.027 H 
ATOM     28  H   LIG d   1       5.459   1.041  -8.308  0.00  0.00     0.027 H 
ATOM     29  H   LIG d   1       8.044   0.997  -9.968  0.00  0.00     0.030 H 
ATOM     30  H   LIG d   1       6.356   1.098 -10.555  0.00  0.00     0.030 H 
ATOM     31  H   LIG d   1       7.812  -1.636  -5.141  0.00  0.00     0.027 H 
ATOM     32  H   LIG d   1       8.699  -0.121  -5.436  0.00  0.00     0.027 H 
ATOM     33  H   LIG d   1       7.717   0.992  -3.596  0.00  0.00     0.031 H 
ATOM     34  H   LIG d   1       7.844  -0.682  -2.999  0.00  0.00     0.031 H 
ATOM     35  H   LIG d   1       5.956   1.420  -2.146  0.00  0.00     0.065 H 
ATOM     36  H   LIG d   1       2.240  -0.592  -2.639  0.00  0.00     0.035 H 
ATOM     37  H   LIG d   1       3.597  -1.459  -2.070  0.00  0.00     0.035 H 
ATOM     38  H   LIG d   1       3.167  -0.277  -4.846  0.00  0.00     0.028 H 
ATOM     39  H   LIG d   1       3.170  -2.000  -4.432  0.00  0.00     0.028 H 
ENDROOT
BRANCH  12  40
ATOM     40  O   LIG d   1       5.703  -1.295 -10.475  0.00  0.00    -0.461 OA
BRANCH  40  41
ATOM     41  C   LIG d   1       5.516  -0.915 -11.748  0.00  0.00     0.308 C 
ATOM     42  O   LIG d   1       6.274  -1.293 -12.610  0.00  0.00    -0.251 OA
BRANCH  41  43
ATOM     43  C   LIG d   1       4.361  -0.015 -12.104  0.00  0.00     0.049 C 
ATOM     44  H   LIG d   1       4.584   1.005 -11.789  0.00  0.00     0.038 H 
ATOM     45  H   LIG d   1       4.202  -0.036 -13.182  0.00  0.00     0.038 H 
BRANCH  43  46
ATOM     46  C   LIG d   1       3.097  -0.502 -11.392  0.00  0.00    -0.018 C 
ATOM     47  H   LIG d   1       2.222  -0.251 -11.994  0.00  0.00     0.032 H 
ATOM     48  H   LIG d   1       3.147  -1.582 -11.258  0.00  0.00     0.032 H 
BRANCH  46  49
ATOM     49  C   LIG d   1       2.988   0.168 -10.047  0.00  0.00    -0.047 A 
ATOM     50  C   LIG d   1       3.269   1.516  -9.920  0.00  0.00    -0.059 A 
ATOM     51  C   LIG d   1       3.168   2.130  -8.686  0.00  0.00    -0.061 A 
ATOM     52  H   LIG d   1       3.565   2.090 -10.786  0.00  0.00     0.062 H 
ATOM     53  C   LIG d   1       2.787   1.396  -7.578  0.00  0.00    -0.062 A 
ATOM     54  H   LIG d   1       3.387   3.183  -8.587  0.00  0.00     0.062 H 
ATOM     55  C   LIG d   1       2.508   0.049  -7.704  0.00  0.00    -0.061 A 
ATOM     56  H   LIG d   1       2.709   1.876  -6.613  0.00  0.00     0.062 H 
ATOM     57  C   LIG d   1       2.603  -0.565  -8.939  0.00  0.00    -0.059 A 
ATOM     58  H   LIG d   1       2.210  -0.525  -6.839  0.00  0.00     0.062 H 
ATOM     59  H   LIG d   1       2.380  -1.617  -9.039  0.00  0.00     0.062 H 
ENDBRANCH  46  49
ENDBRANCH  43  46
ENDBRANCH  41  43
ENDBRANCH  40  41
ENDBRANCH  12  40
BRANCH   1  60
ATOM     60  C   LIG d   1       8.097  -2.348  -8.136  0.00  0.00    -0.056 C 
ATOM     61  H   LIG d   1       7.694  -3.272  -7.725  0.00  0.00     0.024 H 
ATOM     62  H   LIG d   1       8.589  -2.557  -9.087  0.00  0.00     0.024 H 
ATOM     63  H   LIG d   1       8.820  -1.924  -7.439  0.00  0.00     0.024 H 
ENDBRANCH   1  60
BRANCH  22  64
ATOM     64  C   LIG d   1       5.581  -2.482  -4.027  0.00  0.00    -0.056 C 
ATOM     65  H   LIG d   1       6.142  -2.909  -4.858  0.00  0.00     0.024 H 
ATOM     66  H   LIG d   1       6.224  -2.421  -3.149  0.00  0.00     0.024 H 
ATOM     67  H   LIG d   1       4.722  -3.115  -3.806  0.00  0.00     0.024 H 
ENDBRANCH  22  64
TORSDOF 7
ENDMDL
MODEL 2
REMARK VINA RESULT:      -6.5      3.503      6.285
REMARK  7 active torsions:
REMARK  status: ('A' for Active; 'I' for Inactive)
REMARK    1  A    between atoms: C_1  and  C_2 
REMARK    2  A    between atoms: C_13  and  O_15 
REMARK    3  A    between atoms: O_15  and  C_16 
REMARK    4  A    between atoms: C_16  and  C_18 
REMARK    5  A    between atoms: C_18  and  C_19 
REMARK    6  A    between atoms: C_19  and  C_20 
REMARK    7  A    between atoms: C_34  and  C_35 
ROOT
ATOM      1  C   LIG d   1       5.669  -2.900  -5.697  0.00  0.00     0.008 C 
ATOM      2  C   LIG d   1       6.460  -1.896  -4.857  0.00  0.00    -0.044 C 
ATOM      3  C   LIG d   1       7.548  -2.619  -4.065  0.00  0.00    -0.049 C 
ATOM      4  C   LIG d   1       8.548  -3.206  -5.045  0.00  0.00    -0.029 C 
ATOM      5  H   LIG d   1       8.941  -2.387  -5.647  0.00  0.00     0.031 H 
ATOM      6  C   LIG d   1       7.876  -4.208  -5.956  0.00  0.00    -0.034 C 
ATOM      7  H   LIG d   1       8.560  -4.356  -6.791  0.00  0.00     0.031 H 
ATOM      8  C   LIG d   1       6.584  -3.763  -6.560  0.00  0.00    -0.029 C 
ATOM      9  H   LIG d   1       6.028  -4.665  -6.813  0.00  0.00     0.031 H 
ATOM     10  C   LIG d   1       6.766  -2.966  -7.867  0.00  0.00    -0.046 C 
ATOM     11  C   LIG d   1       5.331  -2.421  -8.106  0.00  0.00    -0.015 C 
ATOM     12  C   LIG d   1       4.810  -2.082  -6.693  0.00  0.00     0.109 C 
ATOM     13  H   LIG d   1       3.761  -2.367  -6.604  0.00  0.00     0.074 H 
ATOM     14  C   LIG d   1       7.753  -5.568  -5.279  0.00  0.00    -0.046 C 
ATOM     15  C   LIG d   1       9.150  -6.202  -5.183  0.00  0.00    -0.030 C 
ATOM     16  C   LIG d   1      10.160  -5.098  -4.926  0.00  0.00    -0.060 C 
ATOM     17  C   LIG d   1      11.410  -5.357  -5.271  0.00  0.00    -0.019 C 
ATOM     18  C   LIG d   1      12.455  -4.370  -4.967  0.00  0.00     0.156 C 
ATOM     19  O   LIG d   1      13.489  -4.310  -5.599  0.00  0.00    -0.293 OA
ATOM     20  C   LIG d   1      12.157  -3.431  -3.812  0.00  0.00     0.011 C 
ATOM     21  C   LIG d   1      10.793  -2.802  -4.079  0.00  0.00    -0.037 C 
ATOM     22  C   LIG d   1       9.700  -3.842  -4.258  0.00  0.00    -0.007 C 
ATOM     23  H   LIG d   1       6.921  -1.159  -5.514  0.00  0.00     0.027 H 
ATOM     24  H   LIG d   1       5.785  -1.392  -4.166  0.00  0.00     0.027 H 
ATOM     25  H   LIG d   1       8.050  -1.914  -3.402  0.00  0.00     0.027 H 
ATOM     26  H   LIG d   1       7.105  -3.424  -3.479  0.00  0.00     0.027 H 
ATOM     27  H   LIG d   1       7.075  -3.620  -8.682  0.00  0.00     0.027 H 
ATOM     28  H   LIG d   1       7.476  -2.150  -7.732  0.00  0.00     0.027 H 
ATOM     29  H   LIG d   1       4.706  -3.184  -8.570  0.00  0.00     0.030 H 
ATOM     30  H   LIG d   1       5.361  -1.525  -8.726  0.00  0.00     0.030 H 
ATOM     31  H   LIG d   1       7.322  -5.442  -4.286  0.00  0.00     0.027 H 
ATOM     32  H   LIG d   1       7.110  -6.215  -5.875  0.00  0.00     0.027 H 
ATOM     33  H   LIG d   1       9.407  -6.725  -6.104  0.00  0.00     0.031 H 
ATOM     34  H   LIG d   1       9.155  -6.903  -4.349  0.00  0.00     0.031 H 
ATOM     35  H   LIG d   1      11.661  -6.277  -5.777  0.00  0.00     0.065 H 
ATOM     36  H   LIG d   1      12.868  -2.730  -3.762  0.00  0.00     0.035 H 
ATOM     37  H   LIG d   1      12.131  -3.990  -2.877  0.00  0.00     0.035 H 
ATOM     38  H   LIG d   1      10.854  -2.195  -4.982  0.00  0.00     0.028 H 
ATOM     39  H   LIG d   1      10.532  -2.157  -3.240  0.00  0.00     0.028 H 
ENDROOT
BRANCH  12  40
ATOM     40  O   LIG d   1       4.963  -0.662  -6.433  0.00  0.00    -0.461 OA
BRANCH  40  41
ATOM     41  C   LIG d   1       3.932   0.132  -6.759  0.00  0.00     0.308 C 
ATOM     42  O   LIG d   1       4.084   1.022  -7.562  0.00  0.00    -0.251 OA
BRANCH  41  43
ATOM     43  C   LIG d   1       2.583  -0.085  -6.123  0.00  0.00     0.049 C 
ATOM     44  H   LIG d   1       1.800   0.110  -6.856  0.00  0.00     0.038 H 
ATOM     45  H   LIG d   1       2.506  -1.115  -5.775  0.00  0.00     0.038 H 
BRANCH  43  46
ATOM     46  C   LIG d   1       2.419   0.867  -4.937  0.00  0.00    -0.018 C 
ATOM     47  H   LIG d   1       2.817   1.848  -5.201  0.00  0.00     0.032 H 
ATOM     48  H   LIG d   1       1.362   0.960  -4.688  0.00  0.00     0.032 H 
BRANCH  46  49
ATOM     49  C   LIG d   1       3.169   0.325  -3.748  0.00  0.00    -0.047 A 
ATOM     50  C   LIG d   1       3.048  -1.008  -3.402  0.00  0.00    -0.059 A 
ATOM     51  C   LIG d   1       3.736  -1.506  -2.312  0.00  0.00    -0.061 A 
ATOM     52  H   LIG d   1       2.415  -1.662  -3.985  0.00  0.00     0.062 H 
ATOM     53  C   LIG d   1       4.547  -0.669  -1.567  0.00  0.00    -0.062 A 
ATOM     54  H   LIG d   1       3.642  -2.547  -2.042  0.00  0.00     0.062 H 
ATOM     55  C   LIG d   1       4.668   0.663  -1.912  0.00  0.00    -0.061 A 
ATOM     56  H   LIG d   1       5.085  -1.058  -0.715  0.00  0.00     0.062 H 
ATOM     57  C   LIG d   1       3.984   1.160  -3.006  0.00  0.00    -0.059 A 
ATOM     58  H   LIG d   1       5.301   1.316  -1.330  0.00  0.00     0.062 H 
ATOM     59  H   LIG d   1       4.082   2.200  -3.278  0.00  0.00     0.062 H 
ENDBRANCH  46  49
ENDBRANCH  43  46
ENDBRANCH  41  43
ENDBRANCH  40  41
ENDBRANCH  12  40
BRANCH   1  60
ATOM     60  C   LIG d   1       4.777  -3.762  -4.800  0.00  0.00    -0.056 C 
ATOM     61  H   LIG d   1       5.303  -3.989  -3.874  0.00  0.00     0.024 H 
ATOM     62  H   LIG d   1       3.859  -3.219  -4.574  0.00  0.00     0.024 H 
ATOM     63  H   LIG d   1       4.532  -4.690  -5.317  0.00  0.00     0.024 H 
ENDBRANCH   1  60
BRANCH  22  64
ATOM     64  C   LIG d   1       9.171  -4.213  -2.871  0.00  0.00    -0.056 C 
ATOM     65  H   LIG d   1       8.753  -5.219  -2.898  0.00  0.00     0.024 H 
ATOM     66  H   LIG d   1       9.987  -4.178  -2.150  0.00  0.00     0.024 H 
ATOM     67  H   LIG d   1       8.396  -3.505  -2.577  0.00  0.00     0.024 H 
ENDBRANCH  22  64
TORSDOF 7
ENDMDL
MODEL 3
REMARK VINA RESULT:      -6.4      3.873      6.219
REMARK  7 active torsions:
REMARK  status: ('A' for Active; 'I' for Inactive)
REMARK    1  A    between atoms: C_1  and  C_2 
REMARK    2  A    between atoms: C_13  and  O_15 
REMARK    3  A    between atoms: O_15  and  C_16 
REMARK    4  A    between atoms: C_16  and  C_18 
REMARK    5  A    between atoms: C_18  and  C_19 
REMARK    6  A    between atoms: C_19  and  C_20 
REMARK    7  A    between atoms: C_34  and  C_35 
ROOT
ATOM      1  C   LIG d   1       6.123  -2.501  -6.894  0.00  0.00     0.008 C 
ATOM      2  C   LIG d   1       4.940  -3.467  -6.971  0.00  0.00    -0.044 C 
ATOM      3  C   LIG d   1       5.445  -4.902  -7.120  0.00  0.00    -0.049 C 
ATOM      4  C   LIG d   1       6.197  -5.281  -5.857  0.00  0.00    -0.029 C 
ATOM      5  H   LIG d   1       5.514  -5.161  -5.017  0.00  0.00     0.031 H 
ATOM      6  C   LIG d   1       7.389  -4.374  -5.655  0.00  0.00    -0.034 C 
ATOM      7  H   LIG d   1       7.692  -4.508  -4.616  0.00  0.00     0.031 H 
ATOM      8  C   LIG d   1       7.122  -2.914  -5.818  0.00  0.00    -0.029 C 
ATOM      9  H   LIG d   1       8.074  -2.446  -6.069  0.00  0.00     0.031 H 
ATOM     10  C   LIG d   1       6.617  -2.240  -4.527  0.00  0.00    -0.046 C 
ATOM     11  C   LIG d   1       6.178  -0.844  -5.051  0.00  0.00    -0.015 C 
ATOM     12  C   LIG d   1       5.562  -1.132  -6.436  0.00  0.00     0.109 C 
ATOM     13  H   LIG d   1       5.852  -0.354  -7.142  0.00  0.00     0.074 H 
ATOM     14  C   LIG d   1       8.577  -4.835  -6.492  0.00  0.00    -0.046 C 
ATOM     15  C   LIG d   1       9.134  -6.135  -5.887  0.00  0.00    -0.030 C 
ATOM     16  C   LIG d   1       7.972  -6.951  -5.352  0.00  0.00    -0.060 C 
ATOM     17  C   LIG d   1       8.260  -7.835  -4.413  0.00  0.00    -0.019 C 
ATOM     18  C   LIG d   1       7.201  -8.722  -3.915  0.00  0.00     0.156 C 
ATOM     19  O   LIG d   1       7.246  -9.225  -2.812  0.00  0.00    -0.293 OA
ATOM     20  C   LIG d   1       6.047  -8.968  -4.869  0.00  0.00     0.011 C 
ATOM     21  C   LIG d   1       5.530  -7.604  -5.317  0.00  0.00    -0.037 C 
ATOM     22  C   LIG d   1       6.616  -6.752  -5.951  0.00  0.00    -0.007 C 
ATOM     23  H   LIG d   1       4.346  -3.385  -6.061  0.00  0.00     0.027 H 
ATOM     24  H   LIG d   1       4.320  -3.212  -7.831  0.00  0.00     0.027 H 
ATOM     25  H   LIG d   1       4.600  -5.576  -7.264  0.00  0.00     0.027 H 
ATOM     26  H   LIG d   1       6.119  -4.969  -7.973  0.00  0.00     0.027 H 
ATOM     27  H   LIG d   1       7.420  -2.146  -3.796  0.00  0.00     0.027 H 
ATOM     28  H   LIG d   1       5.770  -2.783  -4.108  0.00  0.00     0.027 H 
ATOM     29  H   LIG d   1       7.041  -0.185  -5.147  0.00  0.00     0.030 H 
ATOM     30  H   LIG d   1       5.435  -0.403  -4.387  0.00  0.00     0.030 H 
ATOM     31  H   LIG d   1       8.255  -5.000  -7.520  0.00  0.00     0.027 H 
ATOM     32  H   LIG d   1       9.355  -4.073  -6.472  0.00  0.00     0.027 H 
ATOM     33  H   LIG d   1       9.833  -5.922  -5.078  0.00  0.00     0.031 H 
ATOM     34  H   LIG d   1       9.640  -6.693  -6.673  0.00  0.00     0.031 H 
ATOM     35  H   LIG d   1       9.259  -7.900  -4.008  0.00  0.00     0.065 H 
ATOM     36  H   LIG d   1       5.330  -9.483  -4.399  0.00  0.00     0.035 H 
ATOM     37  H   LIG d   1       6.394  -9.535  -5.733  0.00  0.00     0.035 H 
ATOM     38  H   LIG d   1       5.127  -7.077  -4.452  0.00  0.00     0.028 H 
ATOM     39  H   LIG d   1       4.729  -7.751  -6.042  0.00  0.00     0.028 H 
ENDROOT
BRANCH  12  40
ATOM     40  O   LIG d   1       4.115  -1.196  -6.334  0.00  0.00    -0.461 OA
BRANCH  40  41
ATOM     41  C   LIG d   1       3.424  -0.145  -6.801  0.00  0.00     0.308 C 
ATOM     42  O   LIG d   1       3.298   0.015  -7.993  0.00  0.00    -0.251 OA
BRANCH  41  43
ATOM     43  C   LIG d   1       2.806   0.838  -5.841  0.00  0.00     0.049 C 
ATOM     44  H   LIG d   1       3.590   1.445  -5.387  0.00  0.00     0.038 H 
ATOM     45  H   LIG d   1       2.113   1.485  -6.379  0.00  0.00     0.038 H 
BRANCH  43  46
ATOM     46  C   LIG d   1       2.052   0.079  -4.748  0.00  0.00    -0.018 C 
ATOM     47  H   LIG d   1       1.191   0.667  -4.426  0.00  0.00     0.032 H 
ATOM     48  H   LIG d   1       1.713  -0.880  -5.138  0.00  0.00     0.032 H 
BRANCH  46  49
ATOM     49  C   LIG d   1       2.968  -0.152  -3.574  0.00  0.00    -0.047 A 
ATOM     50  C   LIG d   1       3.598   0.918  -2.966  0.00  0.00    -0.059 A 
ATOM     51  C   LIG d   1       4.438   0.706  -1.888  0.00  0.00    -0.061 A 
ATOM     52  H   LIG d   1       3.433   1.921  -3.332  0.00  0.00     0.062 H 
ATOM     53  C   LIG d   1       4.647  -0.578  -1.419  0.00  0.00    -0.062 A 
ATOM     54  H   LIG d   1       4.929   1.542  -1.414  0.00  0.00     0.062 H 
ATOM     55  C   LIG d   1       4.019  -1.647  -2.027  0.00  0.00    -0.061 A 
ATOM     56  H   LIG d   1       5.304  -0.744  -0.577  0.00  0.00     0.062 H 
ATOM     57  C   LIG d   1       3.175  -1.435  -3.101  0.00  0.00    -0.059 A 
ATOM     58  H   LIG d   1       4.183  -2.650  -1.660  0.00  0.00     0.062 H 
ATOM     59  H   LIG d   1       2.679  -2.271  -3.573  0.00  0.00     0.062 H 
ENDBRANCH  46  49
ENDBRANCH  43  46
ENDBRANCH  41  43
ENDBRANCH  40  41
ENDBRANCH  12  40
BRANCH   1  60
ATOM     60  C   LIG d   1       6.800  -2.374  -8.261  0.00  0.00    -0.056 C 
ATOM     61  H   LIG d   1       7.227  -1.378  -8.363  0.00  0.00     0.024 H 
ATOM     62  H   LIG d   1       7.591  -3.120  -8.344  0.00  0.00     0.024 H 
ATOM     63  H   LIG d   1       6.063  -2.537  -9.048  0.00  0.00     0.024 H 
ENDBRANCH   1  60
BRANCH  22  64
ATOM     64  C   LIG d   1       6.698  -7.122  -7.434  0.00  0.00    -0.056 C 
ATOM     65  H   LIG d   1       5.746  -7.540  -7.759  0.00  0.00     0.024 H 
ATOM     66  H   LIG d   1       6.921  -6.229  -8.019  0.00  0.00     0.024 H 
ATOM     67  H   LIG d   1       7.487  -7.858  -7.582  0.00  0.00     0.024 H 
ENDBRANCH  22  64
TORSDOF 7
ENDMDL
MODEL 4
REMARK VINA RESULT:      -6.3      2.511      6.059
REMARK  7 active torsions:
REMARK  status: ('A' for Active; 'I' for Inactive)
REMARK    1  A    between atoms: C_1  and  C_2 
REMARK    2  A    between atoms: C_13  and  O_15 
REMARK    3  A    between atoms: O_15  and  C_16 
REMARK    4  A    between atoms: C_16  and  C_18 
REMARK    5  A    between atoms: C_18  and  C_19 
REMARK    6  A    between atoms: C_19  and  C_20 
REMARK    7  A    between atoms: C_34  and  C_35 
ROOT
ATOM      1  C   LIG d   1       6.060  -1.230  -4.038  0.00  0.00     0.008 C 
ATOM      2  C   LIG d   1       5.771  -0.659  -5.427  0.00  0.00    -0.044 C 
ATOM      3  C   LIG d   1       6.090  -1.701  -6.498  0.00  0.00    -0.049 C 
ATOM      4  C   LIG d   1       5.135  -2.869  -6.333  0.00  0.00    -0.029 C 
ATOM      5  H   LIG d   1       4.120  -2.481  -6.413  0.00  0.00     0.031 H 
ATOM      6  C   LIG d   1       5.309  -3.512  -4.976  0.00  0.00    -0.034 C 
ATOM      7  H   LIG d   1       4.422  -4.125  -4.820  0.00  0.00     0.031 H 
ATOM      8  C   LIG d   1       5.361  -2.568  -3.819  0.00  0.00    -0.029 C 
ATOM      9  H   LIG d   1       5.894  -3.081  -3.018  0.00  0.00     0.031 H 
ATOM     10  C   LIG d   1       3.968  -2.203  -3.268  0.00  0.00    -0.046 C 
ATOM     11  C   LIG d   1       4.309  -1.042  -2.293  0.00  0.00    -0.015 C 
ATOM     12  C   LIG d   1       5.431  -0.260  -3.007  0.00  0.00     0.109 C 
ATOM     13  H   LIG d   1       6.183   0.057  -2.284  0.00  0.00     0.074 H 
ATOM     14  C   LIG d   1       6.485  -4.482  -4.975  0.00  0.00    -0.046 C 
ATOM     15  C   LIG d   1       6.104  -5.722  -5.802  0.00  0.00    -0.030 C 
ATOM     16  C   LIG d   1       5.238  -5.274  -6.966  0.00  0.00    -0.060 C 
ATOM     17  C   LIG d   1       4.450  -6.192  -7.496  0.00  0.00    -0.019 C 
ATOM     18  C   LIG d   1       3.653  -5.853  -8.683  0.00  0.00     0.156 C 
ATOM     19  O   LIG d   1       2.628  -6.438  -8.961  0.00  0.00    -0.293 OA
ATOM     20  C   LIG d   1       4.196  -4.723  -9.538  0.00  0.00     0.011 C 
ATOM     21  C   LIG d   1       4.441  -3.532  -8.615  0.00  0.00    -0.037 C 
ATOM     22  C   LIG d   1       5.375  -3.871  -7.467  0.00  0.00    -0.007 C 
ATOM     23  H   LIG d   1       4.719  -0.383  -5.492  0.00  0.00     0.027 H 
ATOM     24  H   LIG d   1       6.387   0.226  -5.589  0.00  0.00     0.027 H 
ATOM     25  H   LIG d   1       5.967  -1.259  -7.487  0.00  0.00     0.027 H 
ATOM     26  H   LIG d   1       7.114  -2.054  -6.376  0.00  0.00     0.027 H 
ATOM     27  H   LIG d   1       3.528  -3.045  -2.733  0.00  0.00     0.027 H 
ATOM     28  H   LIG d   1       3.309  -1.862  -4.066  0.00  0.00     0.027 H 
ATOM     29  H   LIG d   1       4.665  -1.436  -1.341  0.00  0.00     0.030 H 
ATOM     30  H   LIG d   1       3.438  -0.405  -2.139  0.00  0.00     0.030 H 
ATOM     31  H   LIG d   1       7.360  -3.993  -5.402  0.00  0.00     0.027 H 
ATOM     32  H   LIG d   1       6.702  -4.790  -3.953  0.00  0.00     0.027 H 
ATOM     33  H   LIG d   1       5.556  -6.443  -5.196  0.00  0.00     0.031 H 
ATOM     34  H   LIG d   1       7.017  -6.178  -6.180  0.00  0.00     0.031 H 
ATOM     35  H   LIG d   1       4.383  -7.177  -7.060  0.00  0.00     0.065 H 
ATOM     36  H   LIG d   1       3.530  -4.492 -10.247  0.00  0.00     0.035 H 
ATOM     37  H   LIG d   1       5.133  -5.028 -10.006  0.00  0.00     0.035 H 
ATOM     38  H   LIG d   1       3.486  -3.200  -8.208  0.00  0.00     0.028 H 
ATOM     39  H   LIG d   1       4.877  -2.719  -9.197  0.00  0.00     0.028 H 
ENDROOT
BRANCH  12  40
ATOM     40  O   LIG d   1       4.877   0.897  -3.687  0.00  0.00    -0.461 OA
BRANCH  40  41
ATOM     41  C   LIG d   1       3.628   1.258  -3.357  0.00  0.00     0.308 C 
ATOM     42  O   LIG d   1       3.333   1.423  -2.196  0.00  0.00    -0.251 OA
BRANCH  41  43
ATOM     43  C   LIG d   1       2.591   1.455  -4.432  0.00  0.00     0.049 C 
ATOM     44  H   LIG d   1       1.627   1.676  -3.971  0.00  0.00     0.038 H 
ATOM     45  H   LIG d   1       2.886   2.286  -5.073  0.00  0.00     0.038 H 
BRANCH  43  46
ATOM     46  C   LIG d   1       2.474   0.181  -5.269  0.00  0.00    -0.018 C 
ATOM     47  H   LIG d   1       3.250  -0.524  -4.968  0.00  0.00     0.032 H 
ATOM     48  H   LIG d   1       1.494  -0.270  -5.112  0.00  0.00     0.032 H 
BRANCH  46  49
ATOM     49  C   LIG d   1       2.644   0.520  -6.727  0.00  0.00    -0.047 A 
ATOM     50  C   LIG d   1       2.740  -0.491  -7.666  0.00  0.00    -0.059 A 
ATOM     51  C   LIG d   1       2.895  -0.180  -9.004  0.00  0.00    -0.061 A 
ATOM     52  H   LIG d   1       2.692  -1.525  -7.354  0.00  0.00     0.062 H 
ATOM     53  C   LIG d   1       2.954   1.142  -9.403  0.00  0.00    -0.062 A 
ATOM     54  H   LIG d   1       2.969  -0.970  -9.737  0.00  0.00     0.062 H 
ATOM     55  C   LIG d   1       2.859   2.152  -8.465  0.00  0.00    -0.061 A 
ATOM     56  H   LIG d   1       3.076   1.385 -10.449  0.00  0.00     0.062 H 
ATOM     57  C   LIG d   1       2.699   1.842  -7.128  0.00  0.00    -0.059 A 
ATOM     58  H   LIG d   1       2.906   3.185  -8.778  0.00  0.00     0.062 H 
ATOM     59  H   LIG d   1       2.619   2.631  -6.396  0.00  0.00     0.062 H 
ENDBRANCH  46  49
ENDBRANCH  43  46
ENDBRANCH  41  43
ENDBRANCH  40  41
ENDBRANCH  12  40
BRANCH   1  60
ATOM     60  C   LIG d   1       7.569  -1.349  -3.812  0.00  0.00    -0.056 C 
ATOM     61  H   LIG d   1       8.073  -1.461  -4.771  0.00  0.00     0.024 H 
ATOM     62  H   LIG d   1       7.933  -0.450  -3.313  0.00  0.00     0.024 H 
ATOM     63  H   LIG d   1       7.776  -2.219  -3.188  0.00  0.00     0.024 H 
ENDBRANCH   1  60
BRANCH  22  64
ATOM     64  C   LIG d   1       6.812  -3.685  -7.959  0.00  0.00    -0.056 C 
ATOM     65  H   LIG d   1       7.241  -4.657  -8.204  0.00  0.00     0.024 H 
ATOM     66  H   LIG d   1       6.814  -3.054  -8.847  0.00  0.00     0.024 H 
ATOM     67  H   LIG d   1       7.406  -3.213  -7.177  0.00  0.00     0.024 H 
ENDBRANCH  22  64
TORSDOF 7
ENDMDL
MODEL 5
REMARK VINA RESULT:      -6.3      5.565      7.659
REMARK  7 active torsions:
REMARK  status: ('A' for Active; 'I' for Inactive)
REMARK    1  A    between atoms: C_1  and  C_2 
REMARK    2  A    between atoms: C_13  and  O_15 
REMARK    3  A    between atoms: O_15  and  C_16 
REMARK    4  A    between atoms: C_16  and  C_18 
REMARK    5  A    between atoms: C_18  and  C_19 
REMARK    6  A    between atoms: C_19  and  C_20 
REMARK    7  A    between atoms: C_34  and  C_35 
ROOT
ATOM      1  C   LIG d   1       9.876   2.552  -5.231  0.00  0.00     0.008 C 
ATOM      2  C   LIG d   1       8.893   2.879  -4.106  0.00  0.00    -0.044 C 
ATOM      3  C   LIG d   1       9.568   3.766  -3.062  0.00  0.00    -0.049 C 
ATOM      4  C   LIG d   1       9.905   5.098  -3.707  0.00  0.00    -0.029 C 
ATOM      5  H   LIG d   1       8.977   5.527  -4.085  0.00  0.00     0.031 H 
ATOM      6  C   LIG d   1      10.863   4.905  -4.860  0.00  0.00    -0.034 C 
ATOM      7  H   LIG d   1      10.824   5.828  -5.438  0.00  0.00     0.031 H 
ATOM      8  C   LIG d   1      10.509   3.811  -5.814  0.00  0.00    -0.029 C 
ATOM      9  H   LIG d   1      11.435   3.507  -6.302  0.00  0.00     0.031 H 
ATOM     10  C   LIG d   1       9.543   4.263  -6.927  0.00  0.00    -0.046 C 
ATOM     11  C   LIG d   1       9.152   2.907  -7.576  0.00  0.00    -0.015 C 
ATOM     12  C   LIG d   1       9.054   1.928  -6.387  0.00  0.00     0.109 C 
ATOM     13  H   LIG d   1       9.473   0.961  -6.664  0.00  0.00     0.074 H 
ATOM     14  C   LIG d   1      12.300   4.789  -4.365  0.00  0.00    -0.046 C 
ATOM     15  C   LIG d   1      12.766   6.169  -3.871  0.00  0.00    -0.030 C 
ATOM     16  C   LIG d   1      11.586   6.866  -3.217  0.00  0.00    -0.060 C 
ATOM     17  C   LIG d   1      11.646   8.185  -3.157  0.00  0.00    -0.019 C 
ATOM     18  C   LIG d   1      10.584   8.919  -2.457  0.00  0.00     0.156 C 
ATOM     19  O   LIG d   1      10.321  10.075  -2.714  0.00  0.00    -0.293 OA
ATOM     20  C   LIG d   1       9.836   8.137  -1.393  0.00  0.00     0.011 C 
ATOM     21  C   LIG d   1       9.350   6.842  -2.039  0.00  0.00    -0.037 C 
ATOM     22  C   LIG d   1      10.486   6.033  -2.641  0.00  0.00    -0.007 C 
ATOM     23  H   LIG d   1       8.030   3.400  -4.521  0.00  0.00     0.027 H 
ATOM     24  H   LIG d   1       8.562   1.953  -3.635  0.00  0.00     0.027 H 
ATOM     25  H   LIG d   1       8.893   3.922  -2.220  0.00  0.00     0.027 H 
ATOM     26  H   LIG d   1      10.486   3.293  -2.715  0.00  0.00     0.027 H 
ATOM     27  H   LIG d   1      10.050   4.907  -7.646  0.00  0.00     0.027 H 
ATOM     28  H   LIG d   1       8.669   4.761  -6.507  0.00  0.00     0.027 H 
ATOM     29  H   LIG d   1       9.924   2.582  -8.274  0.00  0.00     0.030 H 
ATOM     30  H   LIG d   1       8.191   2.988  -8.083  0.00  0.00     0.030 H 
ATOM     31  H   LIG d   1      12.349   4.058  -3.559  0.00  0.00     0.027 H 
ATOM     32  H   LIG d   1      12.943   4.471  -5.185  0.00  0.00     0.027 H 
ATOM     33  H   LIG d   1      13.137   6.776  -4.696  0.00  0.00     0.031 H 
ATOM     34  H   LIG d   1      13.557   6.024  -3.136  0.00  0.00     0.031 H 
ATOM     35  H   LIG d   1      12.460   8.720  -3.623  0.00  0.00     0.065 H 
ATOM     36  H   LIG d   1       9.064   8.680  -1.062  0.00  0.00     0.035 H 
ATOM     37  H   LIG d   1      10.503   7.909  -0.562  0.00  0.00     0.035 H 
ATOM     38  H   LIG d   1       8.635   7.086  -2.824  0.00  0.00     0.028 H 
ATOM     39  H   LIG d   1       8.849   6.238  -1.282  0.00  0.00     0.028 H 
ENDROOT
BRANCH  12  40
ATOM     40  O   LIG d   1       7.668   1.771  -5.983  0.00  0.00    -0.461 OA
BRANCH  40  41
ATOM     41  C   LIG d   1       7.034   0.665  -6.399  0.00  0.00     0.308 C 
ATOM     42  O   LIG d   1       6.307   0.711  -7.364  0.00  0.00    -0.251 OA
BRANCH  41  43
ATOM     43  C   LIG d   1       7.226  -0.636  -5.664  0.00  0.00     0.049 C 
ATOM     44  H   LIG d   1       6.309  -1.224  -5.720  0.00  0.00     0.038 H 
ATOM     45  H   LIG d   1       8.044  -1.194  -6.120  0.00  0.00     0.038 H 
BRANCH  43  46
ATOM     46  C   LIG d   1       7.558  -0.350  -4.199  0.00  0.00    -0.018 C 
ATOM     47  H   LIG d   1       8.181  -1.154  -3.804  0.00  0.00     0.032 H 
ATOM     48  H   LIG d   1       8.094   0.595  -4.124  0.00  0.00     0.032 H 
BRANCH  46  49
ATOM     49  C   LIG d   1       6.282  -0.267  -3.401  0.00  0.00    -0.047 A 
ATOM     50  C   LIG d   1       5.602  -1.422  -3.061  0.00  0.00    -0.059 A 
ATOM     51  C   LIG d   1       4.432  -1.347  -2.329  0.00  0.00    -0.061 A 
ATOM     52  H   LIG d   1       5.987  -2.385  -3.366  0.00  0.00     0.062 H 
ATOM     53  C   LIG d   1       3.941  -0.115  -1.937  0.00  0.00    -0.062 A 
ATOM     54  H   LIG d   1       3.902  -2.248  -2.063  0.00  0.00     0.062 H 
ATOM     55  C   LIG d   1       4.620   1.040  -2.278  0.00  0.00    -0.061 A 
ATOM     56  H   LIG d   1       3.027  -0.055  -1.365  0.00  0.00     0.062 H 
ATOM     57  C   LIG d   1       5.793   0.964  -3.005  0.00  0.00    -0.059 A 
ATOM     58  H   LIG d   1       4.236   2.002  -1.972  0.00  0.00     0.062 H 
ATOM     59  H   LIG d   1       6.326   1.866  -3.267  0.00  0.00     0.062 H 
ENDBRANCH  46  49
ENDBRANCH  43  46
ENDBRANCH  41  43
ENDBRANCH  40  41
ENDBRANCH  12  40
BRANCH   1  60
ATOM     60  C   LIG d   1      10.943   1.570  -4.740  0.00  0.00    -0.056 C 
ATOM     61  H   LIG d   1      11.334   1.006  -5.585  0.00  0.00     0.024 H 
ATOM     62  H   LIG d   1      11.754   2.124  -4.266  0.00  0.00     0.024 H 
ATOM     63  H   LIG d   1      10.501   0.884  -4.018  0.00  0.00     0.024 H 
ENDBRANCH   1  60
BRANCH  22  64
ATOM     64  C   LIG d   1      11.085   5.165  -1.532  0.00  0.00    -0.056 C 
ATOM     65  H   LIG d   1      11.374   4.198  -1.944  0.00  0.00     0.024 H 
ATOM     66  H   LIG d   1      11.963   5.659  -1.117  0.00  0.00     0.024 H 
ATOM     67  H   LIG d   1      10.345   5.019  -0.746  0.00  0.00     0.024 H 
ENDBRANCH  22  64
TORSDOF 7
ENDMDL
MODEL 6
REMARK VINA RESULT:      -6.3      2.318      6.851
REMARK  7 active torsions:
REMARK  status: ('A' for Active; 'I' for Inactive)
REMARK    1  A    between atoms: C_1  and  C_2 
REMARK    2  A    between atoms: C_13  and  O_15 
REMARK    3  A    between atoms: O_15  and  C_16 
REMARK    4  A    between atoms: C_16  and  C_18 
REMARK    5  A    between atoms: C_18  and  C_19 
REMARK    6  A    between atoms: C_19  and  C_20 
REMARK    7  A    between atoms: C_34  and  C_35 
ROOT
ATOM      1  C   LIG d   1       5.980  -1.261  -7.432  0.00  0.00     0.008 C 
ATOM      2  C   LIG d   1       4.648  -1.945  -7.121  0.00  0.00    -0.044 C 
ATOM      3  C   LIG d   1       3.549  -1.385  -8.022  0.00  0.00    -0.049 C 
ATOM      4  C   LIG d   1       3.870  -1.755  -9.459  0.00  0.00    -0.029 C 
ATOM      5  H   LIG d   1       3.944  -2.840  -9.513  0.00  0.00     0.031 H 
ATOM      6  C   LIG d   1       5.189  -1.150  -9.884  0.00  0.00    -0.034 C 
ATOM      7  H   LIG d   1       5.484  -1.685 -10.787  0.00  0.00     0.031 H 
ATOM      8  C   LIG d   1       6.316  -1.324  -8.919  0.00  0.00    -0.029 C 
ATOM      9  H   LIG d   1       7.029  -0.525  -9.120  0.00  0.00     0.031 H 
ATOM     10  C   LIG d   1       7.072  -2.655  -9.100  0.00  0.00    -0.046 C 
ATOM     11  C   LIG d   1       7.973  -2.681  -7.834  0.00  0.00    -0.015 C 
ATOM     12  C   LIG d   1       7.088  -2.079  -6.722  0.00  0.00     0.109 C 
ATOM     13  H   LIG d   1       7.683  -1.427  -6.083  0.00  0.00     0.074 H 
ATOM     14  C   LIG d   1       5.015   0.304 -10.305  0.00  0.00    -0.046 C 
ATOM     15  C   LIG d   1       4.268   0.345 -11.648  0.00  0.00    -0.030 C 
ATOM     16  C   LIG d   1       3.248  -0.779 -11.663  0.00  0.00    -0.060 C 
ATOM     17  C   LIG d   1       2.853  -1.195 -12.853  0.00  0.00    -0.019 C 
ATOM     18  C   LIG d   1       1.801  -2.216 -12.943  0.00  0.00     0.156 C 
ATOM     19  O   LIG d   1       1.690  -2.947 -13.905  0.00  0.00    -0.293 OA
ATOM     20  C   LIG d   1       0.863  -2.299 -11.753  0.00  0.00     0.011 C 
ATOM     21  C   LIG d   1       1.727  -2.431 -10.501  0.00  0.00    -0.037 C 
ATOM     22  C   LIG d   1       2.720  -1.290 -10.360  0.00  0.00    -0.007 C 
ATOM     23  H   LIG d   1       4.744  -3.018  -7.291  0.00  0.00     0.027 H 
ATOM     24  H   LIG d   1       4.385  -1.768  -6.078  0.00  0.00     0.027 H 
ATOM     25  H   LIG d   1       2.587  -1.810  -7.736  0.00  0.00     0.027 H 
ATOM     26  H   LIG d   1       3.515  -0.300  -7.930  0.00  0.00     0.027 H 
ATOM     27  H   LIG d   1       7.676  -2.641 -10.008  0.00  0.00     0.027 H 
ATOM     28  H   LIG d   1       6.383  -3.499  -9.105  0.00  0.00     0.027 H 
ATOM     29  H   LIG d   1       8.862  -2.068  -7.987  0.00  0.00     0.030 H 
ATOM     30  H   LIG d   1       8.255  -3.704  -7.586  0.00  0.00     0.030 H 
ATOM     31  H   LIG d   1       4.454   0.840  -9.539  0.00  0.00     0.027 H 
ATOM     32  H   LIG d   1       5.994   0.767 -10.429  0.00  0.00     0.027 H 
ATOM     33  H   LIG d   1       4.957   0.224 -12.483  0.00  0.00     0.031 H 
ATOM     34  H   LIG d   1       3.757   1.303 -11.730  0.00  0.00     0.031 H 
ATOM     35  H   LIG d   1       3.303  -0.798 -13.751  0.00  0.00     0.065 H 
ATOM     36  H   LIG d   1       0.264  -3.093 -11.856  0.00  0.00     0.035 H 
ATOM     37  H   LIG d   1       0.259  -1.393 -11.693  0.00  0.00     0.035 H 
ATOM     38  H   LIG d   1       2.275  -3.372 -10.548  0.00  0.00     0.028 H 
ATOM     39  H   LIG d   1       1.079  -2.444  -9.625  0.00  0.00     0.028 H 
ENDROOT
BRANCH  12  40
ATOM     40  O   LIG d   1       6.492  -3.141  -5.931  0.00  0.00    -0.461 OA
BRANCH  40  41
ATOM     41  C   LIG d   1       6.972  -3.319  -4.691  0.00  0.00     0.308 C 
ATOM     42  O   LIG d   1       7.775  -4.195  -4.473  0.00  0.00    -0.251 OA
BRANCH  41  43
ATOM     43  C   LIG d   1       6.509  -2.427  -3.568  0.00  0.00     0.049 C 
ATOM     44  H   LIG d   1       6.926  -2.782  -2.625  0.00  0.00     0.038 H 
ATOM     45  H   LIG d   1       6.845  -1.406  -3.752  0.00  0.00     0.038 H 
BRANCH  43  46
ATOM     46  C   LIG d   1       4.981  -2.454  -3.491  0.00  0.00    -0.018 C 
ATOM     47  H   LIG d   1       4.575  -2.786  -4.448  0.00  0.00     0.032 H 
ATOM     48  H   LIG d   1       4.669  -3.143  -2.706  0.00  0.00     0.032 H 
BRANCH  46  49
ATOM     49  C   LIG d   1       4.468  -1.072  -3.181  0.00  0.00    -0.047 A 
ATOM     50  C   LIG d   1       3.600  -0.444  -4.054  0.00  0.00    -0.059 A 
ATOM     51  C   LIG d   1       3.129   0.824  -3.770  0.00  0.00    -0.061 A 
ATOM     52  H   LIG d   1       3.288  -0.945  -4.960  0.00  0.00     0.062 H 
ATOM     53  C   LIG d   1       3.526   1.464  -2.610  0.00  0.00    -0.062 A 
ATOM     54  H   LIG d   1       2.451   1.314  -4.452  0.00  0.00     0.062 H 
ATOM     55  C   LIG d   1       4.395   0.837  -1.737  0.00  0.00    -0.061 A 
ATOM     56  H   LIG d   1       3.158   2.455  -2.388  0.00  0.00     0.062 H 
ATOM     57  C   LIG d   1       4.862  -0.433  -2.019  0.00  0.00    -0.059 A 
ATOM     58  H   LIG d   1       4.705   1.337  -0.832  0.00  0.00     0.062 H 
ATOM     59  H   LIG d   1       5.536  -0.925  -1.335  0.00  0.00     0.062 H 
ENDBRANCH  46  49
ENDBRANCH  43  46
ENDBRANCH  41  43
ENDBRANCH  40  41
ENDBRANCH  12  40
BRANCH   1  60
ATOM     60  C   LIG d   1       5.971   0.183  -6.926  0.00  0.00    -0.056 C 
ATOM     61  H   LIG d   1       6.888   0.379  -6.372  0.00  0.00     0.024 H 
ATOM     62  H   LIG d   1       5.906   0.864  -7.774  0.00  0.00     0.024 H 
ATOM     63  H   LIG d   1       5.112   0.333  -6.273  0.00  0.00     0.024 H 
ENDBRANCH   1  60
BRANCH  22  64
ATOM     64  C   LIG d   1       2.010  -0.133  -9.654  0.00  0.00    -0.056 C 
ATOM     65  H   LIG d   1       2.351   0.813 -10.073  0.00  0.00     0.024 H 
ATOM     66  H   LIG d   1       0.934  -0.226  -9.795  0.00  0.00     0.024 H 
ATOM     67  H   LIG d   1       2.240  -0.162  -8.589  0.00  0.00     0.024 H 
ENDBRANCH  22  64
TORSDOF 7
ENDMDL
MODEL 7
REMARK VINA RESULT:      -6.3      4.434      6.834
REMARK  7 active torsions:
REMARK  status: ('A' for Active; 'I' for Inactive)
REMARK    1  A    between atoms: C_1  and  C_2 
REMARK    2  A    between atoms: C_13  and  O_15 
REMARK    3  A    between atoms: O_15  and  C_16 
REMARK    4  A    between atoms: C_16  and  C_18 
REMARK    5  A    between atoms: C_18  and  C_19 
REMARK    6  A    between atoms: C_19  and  C_20 
REMARK    7  A    between atoms: C_34  and  C_35 
ROOT
ATOM      1  C   LIG d   1       9.705   0.932  -6.047  0.00  0.00     0.008 C 
ATOM      2  C   LIG d   1      10.378   0.772  -4.683  0.00  0.00    -0.044 C 
ATOM      3  C   LIG d   1      11.056   2.080  -4.278  0.00  0.00    -0.049 C 
ATOM      4  C   LIG d   1       9.985   3.137  -4.081  0.00  0.00    -0.029 C 
ATOM      5  H   LIG d   1       9.293   2.771  -3.323  0.00  0.00     0.031 H 
ATOM      6  C   LIG d   1       9.226   3.372  -5.366  0.00  0.00    -0.034 C 
ATOM      7  H   LIG d   1       8.316   3.901  -5.083  0.00  0.00     0.031 H 
ATOM      8  C   LIG d   1       8.775   2.141  -6.082  0.00  0.00    -0.029 C 
ATOM      9  H   LIG d   1       8.646   2.415  -7.129  0.00  0.00     0.031 H 
ATOM     10  C   LIG d   1       7.415   1.611  -5.586  0.00  0.00    -0.046 C 
ATOM     11  C   LIG d   1       7.340   0.228  -6.289  0.00  0.00    -0.015 C 
ATOM     12  C   LIG d   1       8.789  -0.301  -6.249  0.00  0.00     0.109 C 
ATOM     13  H   LIG d   1       9.031  -0.797  -7.189  0.00  0.00     0.074 H 
ATOM     14  C   LIG d   1       9.984   4.323  -6.285  0.00  0.00    -0.046 C 
ATOM     15  C   LIG d   1       9.928   5.739  -5.689  0.00  0.00    -0.030 C 
ATOM     16  C   LIG d   1       9.989   5.624  -4.176  0.00  0.00    -0.060 C 
ATOM     17  C   LIG d   1       9.497   6.641  -3.491  0.00  0.00    -0.019 C 
ATOM     18  C   LIG d   1       9.606   6.639  -2.027  0.00  0.00     0.156 C 
ATOM     19  O   LIG d   1       8.840   7.261  -1.321  0.00  0.00    -0.293 OA
ATOM     20  C   LIG d   1      10.738   5.807  -1.454  0.00  0.00     0.011 C 
ATOM     21  C   LIG d   1      10.621   4.408  -2.053  0.00  0.00    -0.037 C 
ATOM     22  C   LIG d   1      10.645   4.423  -3.571  0.00  0.00    -0.007 C 
ATOM     23  H   LIG d   1       9.627   0.508  -3.938  0.00  0.00     0.027 H 
ATOM     24  H   LIG d   1      11.124  -0.020  -4.738  0.00  0.00     0.027 H 
ATOM     25  H   LIG d   1      11.608   1.935  -3.349  0.00  0.00     0.027 H 
ATOM     26  H   LIG d   1      11.737   2.401  -5.065  0.00  0.00     0.027 H 
ATOM     27  H   LIG d   1       6.602   2.259  -5.913  0.00  0.00     0.027 H 
ATOM     28  H   LIG d   1       7.412   1.499  -4.502  0.00  0.00     0.027 H 
ATOM     29  H   LIG d   1       7.004   0.342  -7.319  0.00  0.00     0.030 H 
ATOM     30  H   LIG d   1       6.674  -0.442  -5.744  0.00  0.00     0.030 H 
ATOM     31  H   LIG d   1      11.018   3.989  -6.380  0.00  0.00     0.027 H 
ATOM     32  H   LIG d   1       9.514   4.333  -7.268  0.00  0.00     0.027 H 
ATOM     33  H   LIG d   1       9.010   6.250  -5.979  0.00  0.00     0.031 H 
ATOM     34  H   LIG d   1      10.790   6.300  -6.048  0.00  0.00     0.031 H 
ATOM     35  H   LIG d   1       9.011   7.462  -3.999  0.00  0.00     0.065 H 
ATOM     36  H   LIG d   1      10.657   5.774  -0.458  0.00  0.00     0.035 H 
ATOM     37  H   LIG d   1      11.697   6.248  -1.726  0.00  0.00     0.035 H 
ATOM     38  H   LIG d   1       9.687   3.957  -1.718  0.00  0.00     0.028 H 
ATOM     39  H   LIG d   1      11.453   3.800  -1.694  0.00  0.00     0.028 H 
ENDROOT
BRANCH  12  40
ATOM     40  O   LIG d   1       8.951  -1.228  -5.143  0.00  0.00    -0.461 OA
BRANCH  40  41
ATOM     41  C   LIG d   1       8.227  -2.357  -5.184  0.00  0.00     0.308 C 
ATOM     42  O   LIG d   1       8.414  -3.164  -6.064  0.00  0.00    -0.251 OA
BRANCH  41  43
ATOM     43  C   LIG d   1       7.181  -2.620  -4.132  0.00  0.00     0.049 C 
ATOM     44  H   LIG d   1       6.205  -2.723  -4.608  0.00  0.00     0.038 H 
ATOM     45  H   LIG d   1       7.423  -3.539  -3.599  0.00  0.00     0.038 H 
BRANCH  43  46
ATOM     46  C   LIG d   1       7.143  -1.452  -3.145  0.00  0.00    -0.018 C 
ATOM     47  H   LIG d   1       7.563  -1.771  -2.190  0.00  0.00     0.032 H 
ATOM     48  H   LIG d   1       7.729  -0.623  -3.540  0.00  0.00     0.032 H 
BRANCH  46  49
ATOM     49  C   LIG d   1       5.717  -1.009  -2.944  0.00  0.00    -0.047 A 
ATOM     50  C   LIG d   1       5.439   0.311  -2.642  0.00  0.00    -0.059 A 
ATOM     51  C   LIG d   1       4.131   0.718  -2.458  0.00  0.00    -0.061 A 
ATOM     52  H   LIG d   1       6.245   1.026  -2.550  0.00  0.00     0.062 H 
ATOM     53  C   LIG d   1       3.101  -0.196  -2.576  0.00  0.00    -0.062 A 
ATOM     54  H   LIG d   1       3.914   1.749  -2.222  0.00  0.00     0.062 H 
ATOM     55  C   LIG d   1       3.378  -1.515  -2.878  0.00  0.00    -0.061 A 
ATOM     56  H   LIG d   1       2.078   0.122  -2.432  0.00  0.00     0.062 H 
ATOM     57  C   LIG d   1       4.686  -1.921  -3.067  0.00  0.00    -0.059 A 
ATOM     58  H   LIG d   1       2.573  -2.229  -2.971  0.00  0.00     0.062 H 
ATOM     59  H   LIG d   1       4.903  -2.952  -3.308  0.00  0.00     0.062 H 
ENDBRANCH  46  49
ENDBRANCH  43  46
ENDBRANCH  41  43
ENDBRANCH  40  41
ENDBRANCH  12  40
BRANCH   1  60
ATOM     60  C   LIG d   1      10.756   1.007  -7.156  0.00  0.00    -0.056 C 
ATOM     61  H   LIG d   1      11.202   2.000  -7.167  0.00  0.00     0.024 H 
ATOM     62  H   LIG d   1      11.531   0.262  -6.973  0.00  0.00     0.024 H 
ATOM     63  H   LIG d   1      10.284   0.810  -8.118  0.00  0.00     0.024 H 
ENDBRANCH   1  60
BRANCH  22  64
ATOM     64  C   LIG d   1      12.107   4.409  -4.020  0.00  0.00    -0.056 C 
ATOM     65  H   LIG d   1      12.178   4.780  -5.042  0.00  0.00     0.024 H 
ATOM     66  H   LIG d   1      12.696   5.047  -3.362  0.00  0.00     0.024 H 
ATOM     67  H   LIG d   1      12.491   3.390  -3.976  0.00  0.00     0.024 H 
ENDBRANCH  22  64
TORSDOF 7
ENDMDL
MODEL 8
REMARK VINA RESULT:      -6.2      2.183      7.663
REMARK  7 active torsions:
REMARK  status: ('A' for Active; 'I' for Inactive)
REMARK    1  A    between atoms: C_1  and  C_2 
REMARK    2  A    between atoms: C_13  and  O_15 
REMARK    3  A    between atoms: O_15  and  C_16 
REMARK    4  A    between atoms: C_16  and  C_18 
REMARK    5  A    between atoms: C_18  and  C_19 
REMARK    6  A    between atoms: C_19  and  C_20 
REMARK    7  A    between atoms: C_34  and  C_35 
ROOT
ATOM      1  C   LIG d   1       3.499   0.431  -8.092  0.00  0.00     0.008 C 
ATOM      2  C   LIG d   1       2.221  -0.409  -8.105  0.00  0.00    -0.044 C 
ATOM      3  C   LIG d   1       1.843  -0.764  -9.541  0.00  0.00    -0.049 C 
ATOM      4  C   LIG d   1       2.924  -1.662 -10.115  0.00  0.00    -0.029 C 
ATOM      5  H   LIG d   1       3.003  -2.538  -9.473  0.00  0.00     0.031 H 
ATOM      6  C   LIG d   1       4.256  -0.946 -10.136  0.00  0.00    -0.034 C 
ATOM      7  H   LIG d   1       5.009  -1.722 -10.273  0.00  0.00     0.031 H 
ATOM      8  C   LIG d   1       4.625  -0.239  -8.873  0.00  0.00    -0.029 C 
ATOM      9  H   LIG d   1       5.334   0.543  -9.146  0.00  0.00     0.031 H 
ATOM     10  C   LIG d   1       5.332  -1.149  -7.850  0.00  0.00    -0.046 C 
ATOM     11  C   LIG d   1       5.345  -0.249  -6.583  0.00  0.00    -0.015 C 
ATOM     12  C   LIG d   1       3.991   0.488  -6.623  0.00  0.00     0.109 C 
ATOM     13  H   LIG d   1       4.120   1.525  -6.312  0.00  0.00     0.074 H 
ATOM     14  C   LIG d   1       4.372  -0.039 -11.355  0.00  0.00    -0.046 C 
ATOM     15  C   LIG d   1       4.530  -0.914 -12.610  0.00  0.00    -0.030 C 
ATOM     16  C   LIG d   1       3.689  -2.165 -12.430  0.00  0.00    -0.060 C 
ATOM     17  C   LIG d   1       4.042  -3.216 -13.149  0.00  0.00    -0.019 C 
ATOM     18  C   LIG d   1       3.219  -4.431 -13.094  0.00  0.00     0.156 C 
ATOM     19  O   LIG d   1       3.670  -5.529 -13.345  0.00  0.00    -0.293 OA
ATOM     20  C   LIG d   1       1.767  -4.224 -12.703  0.00  0.00     0.011 C 
ATOM     21  C   LIG d   1       1.757  -3.428 -11.400  0.00  0.00    -0.037 C 
ATOM     22  C   LIG d   1       2.503  -2.111 -11.519  0.00  0.00    -0.007 C 
ATOM     23  H   LIG d   1       2.384  -1.324  -7.536  0.00  0.00     0.027 H 
ATOM     24  H   LIG d   1       1.410   0.160  -7.648  0.00  0.00     0.027 H 
ATOM     25  H   LIG d   1       0.885  -1.285  -9.551  0.00  0.00     0.027 H 
ATOM     26  H   LIG d   1       1.775   0.144 -10.140  0.00  0.00     0.027 H 
ATOM     27  H   LIG d   1       6.347  -1.383  -8.172  0.00  0.00     0.027 H 
ATOM     28  H   LIG d   1       4.760  -2.060  -7.675  0.00  0.00     0.027 H 
ATOM     29  H   LIG d   1       6.169   0.463  -6.631  0.00  0.00     0.030 H 
ATOM     30  H   LIG d   1       5.422  -0.858  -5.682  0.00  0.00     0.030 H 
ATOM     31  H   LIG d   1       3.480   0.583 -11.432  0.00  0.00     0.027 H 
ATOM     32  H   LIG d   1       5.251   0.597 -11.253  0.00  0.00     0.027 H 
ATOM     33  H   LIG d   1       5.572  -1.193 -12.764  0.00  0.00     0.031 H 
ATOM     34  H   LIG d   1       4.169  -0.352 -13.470  0.00  0.00     0.031 H 
ATOM     35  H   LIG d   1       4.930  -3.188 -13.763  0.00  0.00     0.065 H 
ATOM     36  H   LIG d   1       1.325  -5.112 -12.580  0.00  0.00     0.035 H 
ATOM     37  H   LIG d   1       1.249  -3.665 -13.482  0.00  0.00     0.035 H 
ATOM     38  H   LIG d   1       2.221  -4.028 -10.617  0.00  0.00     0.028 H 
ATOM     39  H   LIG d   1       0.723  -3.224 -11.120  0.00  0.00     0.028 H 
ENDROOT
BRANCH  12  40
ATOM     40  O   LIG d   1       3.036  -0.176  -5.753  0.00  0.00    -0.461 OA
BRANCH  40  41
ATOM     41  C   LIG d   1       2.985   0.237  -4.477  0.00  0.00     0.308 C 
ATOM     42  O   LIG d   1       3.213   1.392  -4.206  0.00  0.00    -0.251 OA
BRANCH  41  43
ATOM     43  C   LIG d   1       2.646  -0.741  -3.382  0.00  0.00     0.049 C 
ATOM     44  H   LIG d   1       1.809  -0.355  -2.798  0.00  0.00     0.038 H 
ATOM     45  H   LIG d   1       2.371  -1.699  -3.822  0.00  0.00     0.038 H 
BRANCH  43  46
ATOM     46  C   LIG d   1       3.860  -0.927  -2.470  0.00  0.00    -0.018 C 
ATOM     47  H   LIG d   1       4.261   0.049  -2.196  0.00  0.00     0.032 H 
ATOM     48  H   LIG d   1       3.560  -1.462  -1.569  0.00  0.00     0.032 H 
BRANCH  46  49
ATOM     49  C   LIG d   1       4.917  -1.718  -3.195  0.00  0.00    -0.047 A 
ATOM     50  C   LIG d   1       4.561  -2.822  -3.949  0.00  0.00    -0.059 A 
ATOM     51  C   LIG d   1       5.531  -3.548  -4.615  0.00  0.00    -0.061 A 
ATOM     52  H   LIG d   1       3.523  -3.116  -4.019  0.00  0.00     0.062 H 
ATOM     53  C   LIG d   1       6.858  -3.170  -4.527  0.00  0.00    -0.062 A 
ATOM     54  H   LIG d   1       5.252  -4.409  -5.203  0.00  0.00     0.062 H 
ATOM     55  C   LIG d   1       7.214  -2.068  -3.773  0.00  0.00    -0.061 A 
ATOM     56  H   LIG d   1       7.616  -3.737  -5.046  0.00  0.00     0.062 H 
ATOM     57  C   LIG d   1       6.244  -1.339  -3.111  0.00  0.00    -0.059 A 
ATOM     58  H   LIG d   1       8.251  -1.773  -3.704  0.00  0.00     0.062 H 
ATOM     59  H   LIG d   1       6.522  -0.475  -2.526  0.00  0.00     0.062 H 
ENDBRANCH  46  49
ENDBRANCH  43  46
ENDBRANCH  41  43
ENDBRANCH  40  41
ENDBRANCH  12  40
BRANCH   1  60
ATOM     60  C   LIG d   1       3.219   1.840  -8.619  0.00  0.00    -0.056 C 
ATOM     61  H   LIG d   1       3.446   1.882  -9.683  0.00  0.00     0.024 H 
ATOM     62  H   LIG d   1       2.168   2.084  -8.462  0.00  0.00     0.024 H 
ATOM     63  H   LIG d   1       3.841   2.558  -8.085  0.00  0.00     0.024 H 
ENDBRANCH   1  60
BRANCH  22  64
ATOM     64  C   LIG d   1       1.531  -1.068 -12.073  0.00  0.00    -0.056 C 
ATOM     65  H   LIG d   1       0.723  -0.909 -11.360  0.00  0.00     0.024 H 
ATOM     66  H   LIG d   1       2.060  -0.129 -12.236  0.00  0.00     0.024 H 
ATOM     67  H   LIG d   1       1.119  -1.421 -13.018  0.00  0.00     0.024 H 
ENDBRANCH  22  64
TORSDOF 7
ENDMDL
MODEL 9
REMARK VINA RESULT:      -6.1      6.588      8.648
REMARK  7 active torsions:
REMARK  status: ('A' for Active; 'I' for Inactive)
REMARK    1  A    between atoms: C_1  and  C_2 
REMARK    2  A    between atoms: C_13  and  O_15 
REMARK    3  A    between atoms: O_15  and  C_16 
REMARK    4  A    between atoms: C_16  and  C_18 
REMARK    5  A    between atoms: C_18  and  C_19 
REMARK    6  A    between atoms: C_19  and  C_20 
REMARK    7  A    between atoms: C_34  and  C_35 
ROOT
ATOM      1  C   LIG d   1      10.633   3.938  -4.632  0.00  0.00     0.008 C 
ATOM      2  C   LIG d   1       9.572   4.048  -3.537  0.00  0.00    -0.044 C 
ATOM      3  C   LIG d   1      10.068   4.960  -2.416  0.00  0.00    -0.049 C 
ATOM      4  C   LIG d   1      10.225   6.363  -2.972  0.00  0.00    -0.029 C 
ATOM      5  H   LIG d   1       9.259   6.673  -3.368  0.00  0.00     0.031 H 
ATOM      6  C   LIG d   1      11.243   6.384  -4.090  0.00  0.00    -0.034 C 
ATOM      7  H   LIG d   1      11.088   7.324  -4.618  0.00  0.00     0.031 H 
ATOM      8  C   LIG d   1      11.092   5.309  -5.117  0.00  0.00    -0.029 C 
ATOM      9  H   LIG d   1      12.070   5.175  -5.579  0.00  0.00     0.031 H 
ATOM     10  C   LIG d   1      10.110   5.681  -6.246  0.00  0.00    -0.046 C 
ATOM     11  C   LIG d   1       9.950   4.324  -6.984  0.00  0.00    -0.015 C 
ATOM     12  C   LIG d   1       9.956   3.271  -5.856  0.00  0.00     0.109 C 
ATOM     13  H   LIG d   1      10.525   2.394  -6.166  0.00  0.00     0.074 H 
ATOM     14  C   LIG d   1      12.662   6.451  -3.538  0.00  0.00    -0.046 C 
ATOM     15  C   LIG d   1      12.898   7.852  -2.948  0.00  0.00    -0.030 C 
ATOM     16  C   LIG d   1      11.605   8.327  -2.312  0.00  0.00    -0.060 C 
ATOM     17  C   LIG d   1      11.465   9.634  -2.177  0.00  0.00    -0.019 C 
ATOM     18  C   LIG d   1      10.280  10.160  -1.487  0.00  0.00     0.156 C 
ATOM     19  O   LIG d   1       9.857  11.279  -1.692  0.00  0.00    -0.293 OA
ATOM     20  C   LIG d   1       9.619   9.214  -0.502  0.00  0.00     0.011 C 
ATOM     21  C   LIG d   1       9.356   7.903  -1.238  0.00  0.00    -0.037 C 
ATOM     22  C   LIG d   1      10.621   7.308  -1.831  0.00  0.00    -0.007 C 
ATOM     23  H   LIG d   1       8.656   4.461  -3.961  0.00  0.00     0.027 H 
ATOM     24  H   LIG d   1       9.366   3.057  -3.132  0.00  0.00     0.027 H 
ATOM     25  H   LIG d   1       9.347   4.964  -1.599  0.00  0.00     0.027 H 
ATOM     26  H   LIG d   1      11.034   4.607  -2.055  0.00  0.00     0.027 H 
ATOM     27  H   LIG d   1      10.541   6.435  -6.905  0.00  0.00     0.027 H 
ATOM     28  H   LIG d   1       9.157   6.019  -5.840  0.00  0.00     0.027 H 
ATOM     29  H   LIG d   1      10.787   4.159  -7.664  0.00  0.00     0.030 H 
ATOM     30  H   LIG d   1       9.006   4.293  -7.529  0.00  0.00     0.030 H 
ATOM     31  H   LIG d   1      12.791   5.687  -2.771  0.00  0.00     0.027 H 
ATOM     32  H   LIG d   1      13.375   6.281  -4.344  0.00  0.00     0.027 H 
ATOM     33  H   LIG d   1      13.205   8.556  -3.722  0.00  0.00     0.031 H 
ATOM     34  H   LIG d   1      13.675   7.780  -2.188  0.00  0.00     0.031 H 
ATOM     35  H   LIG d   1      12.206  10.310  -2.576  0.00  0.00     0.065 H 
ATOM     36  H   LIG d   1       8.763   9.616  -0.177  0.00  0.00     0.035 H 
ATOM     37  H   LIG d   1      10.282   9.037   0.345  0.00  0.00     0.035 H 
ATOM     38  H   LIG d   1       8.641   8.086  -2.040  0.00  0.00     0.028 H 
ATOM     39  H   LIG d   1       8.924   7.187  -0.539  0.00  0.00     0.028 H 
ENDROOT
BRANCH  12  40
ATOM     40  O   LIG d   1       8.595   2.888  -5.524  0.00  0.00    -0.461 OA
BRANCH  40  41
ATOM     41  C   LIG d   1       8.184   1.681  -5.940  0.00  0.00     0.308 C 
ATOM     42  O   LIG d   1       8.083   1.450  -7.122  0.00  0.00    -0.251 OA
BRANCH  41  43
ATOM     43  C   LIG d   1       7.845   0.612  -4.934  0.00  0.00     0.049 C 
ATOM     44  H   LIG d   1       7.077  -0.045  -5.345  0.00  0.00     0.038 H 
ATOM     45  H   LIG d   1       8.738   0.029  -4.708  0.00  0.00     0.038 H 
BRANCH  43  46
ATOM     46  C   LIG d   1       7.324   1.264  -3.652  0.00  0.00    -0.018 C 
ATOM     47  H   LIG d   1       8.127   1.311  -2.916  0.00  0.00     0.032 H 
ATOM     48  H   LIG d   1       6.974   2.272  -3.873  0.00  0.00     0.032 H 
BRANCH  46  49
ATOM     49  C   LIG d   1       6.184   0.447  -3.100  0.00  0.00    -0.047 A 
ATOM     50  C   LIG d   1       5.128   1.073  -2.465  0.00  0.00    -0.059 A 
ATOM     51  C   LIG d   1       4.082   0.324  -1.958  0.00  0.00    -0.061 A 
ATOM     52  H   LIG d   1       5.118   2.149  -2.366  0.00  0.00     0.062 H 
ATOM     53  C   LIG d   1       4.094  -1.053  -2.087  0.00  0.00    -0.062 A 
ATOM     54  H   LIG d   1       3.257   0.813  -1.463  0.00  0.00     0.062 H 
ATOM     55  C   LIG d   1       5.150  -1.679  -2.720  0.00  0.00    -0.061 A 
ATOM     56  H   LIG d   1       3.277  -1.638  -1.691  0.00  0.00     0.062 H 
ATOM     57  C   LIG d   1       6.193  -0.929  -3.232  0.00  0.00    -0.059 A 
ATOM     58  H   LIG d   1       5.159  -2.754  -2.821  0.00  0.00     0.062 H 
ATOM     59  H   LIG d   1       7.016  -1.419  -3.731  0.00  0.00     0.062 H 
ENDBRANCH  46  49
ENDBRANCH  43  46
ENDBRANCH  41  43
ENDBRANCH  40  41
ENDBRANCH  12  40
BRANCH   1  60
ATOM     60  C   LIG d   1      11.816   3.096  -4.148  0.00  0.00    -0.056 C 
ATOM     61  H   LIG d   1      11.807   3.047  -3.061  0.00  0.00     0.024 H 
ATOM     62  H   LIG d   1      11.736   2.089  -4.558  0.00  0.00     0.024 H 
ATOM     63  H   LIG d   1      12.747   3.551  -4.485  0.00  0.00     0.024 H 
ENDBRANCH   1  60
BRANCH  22  64
ATOM     64  C   LIG d   1      11.302   6.472  -0.746  0.00  0.00    -0.056 C 
ATOM     65  H   LIG d   1      10.624   6.349   0.098  0.00  0.00     0.024 H 
ATOM     66  H   LIG d   1      11.559   5.492  -1.150  0.00  0.00     0.024 H 
ATOM     67  H   LIG d   1      12.209   6.977  -0.414  0.00  0.00     0.024 H 
ENDBRANCH  22  64
TORSDOF 7
ENDMDL
