MODEL 1
REMARK VINA RESULT:      -5.1      0.000      0.000
REMARK  3 active torsions:
REMARK  status: ('A' for Active; 'I' for Inactive)
REMARK    1  A    between atoms: C_1  and  N_2 
REMARK    2  A    between atoms: N_2  and  C_14 
REMARK    3  A    between atoms: C_11  and  O_13 
ROOT
ATOM      1  N   LIG d   1       3.884  -0.533  -4.357  0.00  0.00     0.243 N 
ATOM      2  C   LIG d   1       4.116  -1.920  -3.964  0.00  0.00    -0.017 C 
ATOM      3  H   LIG d   1       3.379  -2.536  -4.511  0.00  0.00     0.085 H 
ATOM      4  C   LIG d   1       3.877  -2.142  -2.479  0.00  0.00    -0.009 C 
ATOM      5  C   LIG d   1       4.629  -1.157  -1.599  0.00  0.00    -0.043 C 
ATOM      6  C   LIG d   1       4.596   0.266  -2.134  0.00  0.00    -0.009 C 
ATOM      7  C   LIG d   1       4.813   0.333  -3.639  0.00  0.00    -0.017 C 
ATOM      8  H   LIG d   1       4.601   1.370  -3.955  0.00  0.00     0.085 H 
ATOM      9  C   LIG d   1       6.257   0.033  -3.997  0.00  0.00     0.017 C 
ATOM     10  C   LIG d   1       6.622  -1.437  -4.020  0.00  0.00     0.065 C 
ATOM     11  C   LIG d   1       5.499  -2.389  -4.384  0.00  0.00     0.017 C 
ATOM     12  H   LIG d   1       2.807  -2.096  -2.257  0.00  0.00     0.032 H 
ATOM     13  H   LIG d   1       4.205  -3.163  -2.224  0.00  0.00     0.032 H 
ATOM     14  H   LIG d   1       5.656  -1.485  -1.442  0.00  0.00     0.027 H 
ATOM     15  H   LIG d   1       4.153  -1.158  -0.600  0.00  0.00     0.027 H 
ATOM     16  H   LIG d   1       5.399   0.842  -1.644  0.00  0.00     0.032 H 
ATOM     17  H   LIG d   1       3.656   0.748  -1.861  0.00  0.00     0.032 H 
ATOM     18  H   LIG d   1       6.497   0.488  -4.968  0.00  0.00     0.035 H 
ATOM     19  H   LIG d   1       6.907   0.543  -3.263  0.00  0.00     0.035 H 
ATOM     20  H   LIG d   1       7.412  -1.561  -4.801  0.00  0.00     0.060 H 
ATOM     21  H   LIG d   1       5.693  -3.361  -3.893  0.00  0.00     0.035 H 
ATOM     22  H   LIG d   1       5.515  -2.591  -5.461  0.00  0.00     0.035 H 
ENDROOT
BRANCH   1  23
ATOM     23  C   LIG d   1       4.081  -0.383  -5.806  0.00  0.00    -0.041 C 
ATOM     24  H   LIG d   1       5.138  -0.215  -6.014  0.00  0.00     0.078 H 
ATOM     25  H   LIG d   1       3.749  -1.288  -6.314  0.00  0.00     0.078 H 
ATOM     26  H   LIG d   1       3.501   0.468  -6.166  0.00  0.00     0.078 H 
ENDBRANCH   1  23
BRANCH   1  27
ATOM     27  C   LIG d   1       2.498  -0.150  -4.052  0.00  0.00    -0.041 C 
ATOM     28  H   LIG d   1       2.472   0.887  -3.718  0.00  0.00     0.078 H 
ATOM     29  H   LIG d   1       1.886  -0.258  -4.947  0.00  0.00     0.078 H 
ATOM     30  H   LIG d   1       2.107  -0.794  -3.265  0.00  0.00     0.078 H 
ENDBRANCH   1  27
BRANCH  10  31
ATOM     31  O   LIG d   1       7.241  -1.829  -2.791  0.00  0.00    -0.391 OA
ATOM     32  H   LIG d   1       6.617  -1.981  -2.068  0.00  0.00     0.210 HD
ENDBRANCH  10  31
TORSDOF 3
ENDMDL
MODEL 2
REMARK VINA RESULT:      -5.1      1.606      2.526
REMARK  3 active torsions:
REMARK  status: ('A' for Active; 'I' for Inactive)
REMARK    1  A    between atoms: C_1  and  N_2 
REMARK    2  A    between atoms: N_2  and  C_14 
REMARK    3  A    between atoms: C_11  and  O_13 
ROOT
ATOM      1  N   LIG d   1       5.496   0.005  -3.660  0.00  0.00     0.243 N 
ATOM      2  C   LIG d   1       4.319  -0.082  -4.520  0.00  0.00    -0.017 C 
ATOM      3  H   LIG d   1       4.202   0.904  -5.005  0.00  0.00     0.085 H 
ATOM      4  C   LIG d   1       3.050  -0.351  -3.728  0.00  0.00    -0.009 C 
ATOM      5  C   LIG d   1       3.171  -1.540  -2.790  0.00  0.00    -0.043 C 
ATOM      6  C   LIG d   1       4.505  -1.591  -2.061  0.00  0.00    -0.009 C 
ATOM      7  C   LIG d   1       5.683  -1.266  -2.969  0.00  0.00    -0.017 C 
ATOM      8  H   LIG d   1       6.574  -1.157  -2.324  0.00  0.00     0.085 H 
ATOM      9  C   LIG d   1       5.956  -2.401  -3.938  0.00  0.00     0.017 C 
ATOM     10  C   LIG d   1       5.048  -2.446  -5.149  0.00  0.00     0.065 C 
ATOM     11  C   LIG d   1       4.517  -1.108  -5.624  0.00  0.00     0.017 C 
ATOM     12  H   LIG d   1       2.762   0.541  -3.163  0.00  0.00     0.032 H 
ATOM     13  H   LIG d   1       2.232  -0.547  -4.440  0.00  0.00     0.032 H 
ATOM     14  H   LIG d   1       2.988  -2.472  -3.322  0.00  0.00     0.027 H 
ATOM     15  H   LIG d   1       2.370  -1.461  -2.031  0.00  0.00     0.027 H 
ATOM     16  H   LIG d   1       4.648  -2.610  -1.664  0.00  0.00     0.032 H 
ATOM     17  H   LIG d   1       4.489  -0.920  -1.201  0.00  0.00     0.032 H 
ATOM     18  H   LIG d   1       7.005  -2.362  -4.264  0.00  0.00     0.035 H 
ATOM     19  H   LIG d   1       5.854  -3.355  -3.388  0.00  0.00     0.035 H 
ATOM     20  H   LIG d   1       5.653  -2.867  -5.990  0.00  0.00     0.060 H 
ATOM     21  H   LIG d   1       3.540  -1.274  -6.114  0.00  0.00     0.035 H 
ATOM     22  H   LIG d   1       5.173  -0.700  -6.402  0.00  0.00     0.035 H 
ENDROOT
BRANCH   1  23
ATOM     23  C   LIG d   1       6.686   0.313  -4.468  0.00  0.00    -0.041 C 
ATOM     24  H   LIG d   1       6.383   0.540  -5.490  0.00  0.00     0.078 H 
ATOM     25  H   LIG d   1       7.201   1.174  -4.043  0.00  0.00     0.078 H 
ATOM     26  H   LIG d   1       7.357  -0.546  -4.471  0.00  0.00     0.078 H 
ENDBRANCH   1  23
BRANCH   1  27
ATOM     27  C   LIG d   1       5.325   1.091  -2.685  0.00  0.00    -0.041 C 
ATOM     28  H   LIG d   1       6.291   1.341  -2.245  0.00  0.00     0.078 H 
ATOM     29  H   LIG d   1       4.917   1.969  -3.185  0.00  0.00     0.078 H 
ATOM     30  H   LIG d   1       4.642   0.770  -1.899  0.00  0.00     0.078 H 
ENDBRANCH   1  27
BRANCH  10  31
ATOM     31  O   LIG d   1       3.979  -3.376  -4.951  0.00  0.00    -0.391 OA
ATOM     32  H   LIG d   1       4.071  -3.917  -4.156  0.00  0.00     0.210 HD
ENDBRANCH  10  31
TORSDOF 3
ENDMDL
MODEL 3
REMARK VINA RESULT:      -4.8      1.800      3.070
REMARK  3 active torsions:
REMARK  status: ('A' for Active; 'I' for Inactive)
REMARK    1  A    between atoms: C_1  and  N_2 
REMARK    2  A    between atoms: N_2  and  C_14 
REMARK    3  A    between atoms: C_11  and  O_13 
ROOT
ATOM      1  N   LIG d   1       5.095  -1.616  -3.527  0.00  0.00     0.243 N 
ATOM      2  C   LIG d   1       4.136  -1.162  -2.524  0.00  0.00    -0.017 C 
ATOM      3  H   LIG d   1       4.068  -1.959  -1.761  0.00  0.00     0.085 H 
ATOM      4  C   LIG d   1       2.745  -0.973  -3.106  0.00  0.00    -0.009 C 
ATOM      5  C   LIG d   1       2.731  -0.106  -4.353  0.00  0.00    -0.043 C 
ATOM      6  C   LIG d   1       3.879  -0.409  -5.303  0.00  0.00    -0.009 C 
ATOM      7  C   LIG d   1       5.202  -0.610  -4.579  0.00  0.00    -0.017 C 
ATOM      8  H   LIG d   1       5.927  -0.993  -5.321  0.00  0.00     0.085 H 
ATOM      9  C   LIG d   1       5.742   0.706  -4.050  0.00  0.00     0.017 C 
ATOM     10  C   LIG d   1       5.118   1.183  -2.755  0.00  0.00     0.065 C 
ATOM     11  C   LIG d   1       4.624   0.095  -1.822  0.00  0.00     0.017 C 
ATOM     12  H   LIG d   1       2.291  -1.945  -3.324  0.00  0.00     0.032 H 
ATOM     13  H   LIG d   1       2.110  -0.497  -2.340  0.00  0.00     0.032 H 
ATOM     14  H   LIG d   1       2.720   0.951  -4.089  0.00  0.00     0.027 H 
ATOM     15  H   LIG d   1       1.783  -0.295  -4.892  0.00  0.00     0.027 H 
ATOM     16  H   LIG d   1       3.992   0.440  -5.998  0.00  0.00     0.032 H 
ATOM     17  H   LIG d   1       3.641  -1.282  -5.913  0.00  0.00     0.032 H 
ATOM     18  H   LIG d   1       6.832   0.635  -3.930  0.00  0.00     0.035 H 
ATOM     19  H   LIG d   1       5.580   1.479  -4.823  0.00  0.00     0.035 H 
ATOM     20  H   LIG d   1       5.911   1.743  -2.202  0.00  0.00     0.060 H 
ATOM     21  H   LIG d   1       3.785   0.500  -1.227  0.00  0.00     0.035 H 
ATOM     22  H   LIG d   1       5.406  -0.160  -1.098  0.00  0.00     0.035 H 
ENDROOT
BRANCH   1  23
ATOM     23  C   LIG d   1       6.410  -1.828  -2.904  0.00  0.00    -0.041 C 
ATOM     24  H   LIG d   1       6.858  -2.738  -3.303  0.00  0.00     0.078 H 
ATOM     25  H   LIG d   1       7.057  -0.979  -3.122  0.00  0.00     0.078 H 
ATOM     26  H   LIG d   1       6.290  -1.926  -1.825  0.00  0.00     0.078 H 
ENDBRANCH   1  23
BRANCH   1  27
ATOM     27  C   LIG d   1       4.657  -2.898  -4.096  0.00  0.00    -0.041 C 
ATOM     28  H   LIG d   1       4.483  -2.781  -5.166  0.00  0.00     0.078 H 
ATOM     29  H   LIG d   1       5.429  -3.650  -3.934  0.00  0.00     0.078 H 
ATOM     30  H   LIG d   1       3.734  -3.215  -3.611  0.00  0.00     0.078 H 
ENDBRANCH   1  27
BRANCH  10  31
ATOM     31  O   LIG d   1       4.086   2.141  -3.008  0.00  0.00    -0.391 OA
ATOM     32  H   LIG d   1       3.251   1.948  -2.561  0.00  0.00     0.210 HD
ENDBRANCH  10  31
TORSDOF 3
ENDMDL
MODEL 4
REMARK VINA RESULT:      -4.4      1.807      3.336
REMARK  3 active torsions:
REMARK  status: ('A' for Active; 'I' for Inactive)
REMARK    1  A    between atoms: C_1  and  N_2 
REMARK    2  A    between atoms: N_2  and  C_14 
REMARK    3  A    between atoms: C_11  and  O_13 
ROOT
ATOM      1  N   LIG d   1       4.613  -1.698  -3.298  0.00  0.00     0.243 N 
ATOM      2  C   LIG d   1       3.924  -0.985  -4.370  0.00  0.00    -0.017 C 
ATOM      3  H   LIG d   1       3.315  -1.731  -4.912  0.00  0.00     0.085 H 
ATOM      4  C   LIG d   1       4.895  -0.380  -5.370  0.00  0.00    -0.009 C 
ATOM      5  C   LIG d   1       5.978   0.462  -4.718  0.00  0.00    -0.043 C 
ATOM      6  C   LIG d   1       6.540  -0.166  -3.452  0.00  0.00    -0.009 C 
ATOM      7  C   LIG d   1       5.459  -0.763  -2.564  0.00  0.00    -0.017 C 
ATOM      8  H   LIG d   1       5.968  -1.341  -1.770  0.00  0.00     0.085 H 
ATOM      9  C   LIG d   1       4.644   0.324  -1.887  0.00  0.00     0.017 C 
ATOM     10  C   LIG d   1       3.572   0.956  -2.750  0.00  0.00     0.065 C 
ATOM     11  C   LIG d   1       2.970   0.060  -3.814  0.00  0.00     0.017 C 
ATOM     12  H   LIG d   1       5.352  -1.167  -5.978  0.00  0.00     0.032 H 
ATOM     13  H   LIG d   1       4.324   0.259  -6.065  0.00  0.00     0.032 H 
ATOM     14  H   LIG d   1       5.618   1.470  -4.519  0.00  0.00     0.027 H 
ATOM     15  H   LIG d   1       6.809   0.573  -5.442  0.00  0.00     0.027 H 
ATOM     16  H   LIG d   1       7.065   0.616  -2.877  0.00  0.00     0.032 H 
ATOM     17  H   LIG d   1       7.287  -0.921  -3.706  0.00  0.00     0.032 H 
ATOM     18  H   LIG d   1       4.192  -0.074  -0.968  0.00  0.00     0.035 H 
ATOM     19  H   LIG d   1       5.339   1.117  -1.554  0.00  0.00     0.035 H 
ATOM     20  H   LIG d   1       2.737   1.245  -2.066  0.00  0.00     0.060 H 
ATOM     21  H   LIG d   1       2.633   0.694  -4.654  0.00  0.00     0.035 H 
ATOM     22  H   LIG d   1       2.067  -0.426  -3.427  0.00  0.00     0.035 H 
ENDROOT
BRANCH   1  23
ATOM     23  C   LIG d   1       3.631  -2.304  -2.387  0.00  0.00    -0.041 C 
ATOM     24  H   LIG d   1       2.872  -1.565  -2.127  0.00  0.00     0.078 H 
ATOM     25  H   LIG d   1       3.157  -3.155  -2.876  0.00  0.00     0.078 H 
ATOM     26  H   LIG d   1       4.134  -2.641  -1.480  0.00  0.00     0.078 H 
ENDBRANCH   1  23
BRANCH   1  27
ATOM     27  C   LIG d   1       5.429  -2.784  -3.861  0.00  0.00    -0.041 C 
ATOM     28  H   LIG d   1       5.274  -2.834  -4.939  0.00  0.00     0.078 H 
ATOM     29  H   LIG d   1       6.481  -2.593  -3.654  0.00  0.00     0.078 H 
ATOM     30  H   LIG d   1       5.136  -3.731  -3.408  0.00  0.00     0.078 H 
ENDBRANCH   1  27
BRANCH  10  31
ATOM     31  O   LIG d   1       4.034   2.183  -3.321  0.00  0.00    -0.391 OA
ATOM     32  H   LIG d   1       4.992   2.220  -3.451  0.00  0.00     0.210 HD
ENDBRANCH  10  31
TORSDOF 3
ENDMDL
MODEL 5
REMARK VINA RESULT:      -4.3      1.030      2.033
REMARK  3 active torsions:
REMARK  status: ('A' for Active; 'I' for Inactive)
REMARK    1  A    between atoms: C_1  and  N_2 
REMARK    2  A    between atoms: N_2  and  C_14 
REMARK    3  A    between atoms: C_11  and  O_13 
ROOT
ATOM      1  N   LIG d   1       3.421   0.005  -3.723  0.00  0.00     0.243 N 
ATOM      2  C   LIG d   1       4.367  -0.420  -4.750  0.00  0.00    -0.017 C 
ATOM      3  H   LIG d   1       4.006  -0.006  -5.710  0.00  0.00     0.085 H 
ATOM      4  C   LIG d   1       4.411  -1.932  -4.898  0.00  0.00    -0.009 C 
ATOM      5  C   LIG d   1       4.626  -2.655  -3.580  0.00  0.00    -0.043 C 
ATOM      6  C   LIG d   1       3.818  -2.062  -2.435  0.00  0.00    -0.009 C 
ATOM      7  C   LIG d   1       3.834  -0.540  -2.434  0.00  0.00    -0.017 C 
ATOM      8  H   LIG d   1       3.091  -0.206  -1.687  0.00  0.00     0.085 H 
ATOM      9  C   LIG d   1       5.187  -0.007  -2.002  0.00  0.00     0.017 C 
ATOM     10  C   LIG d   1       6.252  -0.007  -3.079  0.00  0.00     0.065 C 
ATOM     11  C   LIG d   1       5.751   0.158  -4.500  0.00  0.00     0.017 C 
ATOM     12  H   LIG d   1       3.494  -2.292  -5.375  0.00  0.00     0.032 H 
ATOM     13  H   LIG d   1       5.239  -2.190  -5.579  0.00  0.00     0.032 H 
ATOM     14  H   LIG d   1       5.684  -2.690  -3.325  0.00  0.00     0.027 H 
ATOM     15  H   LIG d   1       4.310  -3.708  -3.711  0.00  0.00     0.027 H 
ATOM     16  H   LIG d   1       4.251  -2.412  -1.483  0.00  0.00     0.032 H 
ATOM     17  H   LIG d   1       2.793  -2.434  -2.467  0.00  0.00     0.032 H 
ATOM     18  H   LIG d   1       5.071   1.008  -1.598  0.00  0.00     0.035 H 
ATOM     19  H   LIG d   1       5.545  -0.623  -1.156  0.00  0.00     0.035 H 
ATOM     20  H   LIG d   1       6.919   0.866  -2.872  0.00  0.00     0.060 H 
ATOM     21  H   LIG d   1       6.459  -0.348  -5.181  0.00  0.00     0.035 H 
ATOM     22  H   LIG d   1       5.771   1.217  -4.783  0.00  0.00     0.035 H 
ENDROOT
BRANCH   1  23
ATOM     23  C   LIG d   1       3.381   1.473  -3.654  0.00  0.00    -0.041 C 
ATOM     24  H   LIG d   1       4.390   1.870  -3.768  0.00  0.00     0.078 H 
ATOM     25  H   LIG d   1       2.747   1.858  -4.452  0.00  0.00     0.078 H 
ATOM     26  H   LIG d   1       2.977   1.782  -2.689  0.00  0.00     0.078 H 
ENDBRANCH   1  23
BRANCH   1  27
ATOM     27  C   LIG d   1       2.069  -0.463  -4.061  0.00  0.00    -0.041 C 
ATOM     28  H   LIG d   1       2.118  -1.495  -4.409  0.00  0.00     0.078 H 
ATOM     29  H   LIG d   1       1.434  -0.408  -3.177  0.00  0.00     0.078 H 
ATOM     30  H   LIG d   1       1.653   0.166  -4.847  0.00  0.00     0.078 H 
ENDBRANCH   1  27
BRANCH  10  31
ATOM     31  O   LIG d   1       7.092  -1.159  -2.968  0.00  0.00    -0.391 OA
ATOM     32  H   LIG d   1       7.948  -0.983  -2.554  0.00  0.00     0.210 HD
ENDBRANCH  10  31
TORSDOF 3
ENDMDL
MODEL 6
REMARK VINA RESULT:      -4.3      1.536      3.139
REMARK  3 active torsions:
REMARK  status: ('A' for Active; 'I' for Inactive)
REMARK    1  A    between atoms: C_1  and  N_2 
REMARK    2  A    between atoms: N_2  and  C_14 
REMARK    3  A    between atoms: C_11  and  O_13 
ROOT
ATOM      1  N   LIG d   1       4.306   0.543  -2.904  0.00  0.00     0.243 N 
ATOM      2  C   LIG d   1       5.335  -0.073  -3.737  0.00  0.00    -0.017 C 
ATOM      3  H   LIG d   1       6.273   0.481  -3.550  0.00  0.00     0.085 H 
ATOM      4  C   LIG d   1       5.022   0.053  -5.219  0.00  0.00    -0.009 C 
ATOM      5  C   LIG d   1       3.625  -0.424  -5.578  0.00  0.00    -0.043 C 
ATOM      6  C   LIG d   1       2.569   0.014  -4.574  0.00  0.00    -0.009 C 
ATOM      7  C   LIG d   1       3.033  -0.133  -3.133  0.00  0.00    -0.017 C 
ATOM      8  H   LIG d   1       2.282   0.366  -2.494  0.00  0.00     0.085 H 
ATOM      9  C   LIG d   1       3.087  -1.593  -2.721  0.00  0.00     0.017 C 
ATOM     10  C   LIG d   1       4.316  -2.347  -3.182  0.00  0.00     0.065 C 
ATOM     11  C   LIG d   1       5.577  -1.519  -3.337  0.00  0.00     0.017 C 
ATOM     12  H   LIG d   1       5.157   1.088  -5.547  0.00  0.00     0.032 H 
ATOM     13  H   LIG d   1       5.754  -0.551  -5.780  0.00  0.00     0.032 H 
ATOM     14  H   LIG d   1       3.607  -1.506  -5.707  0.00  0.00     0.027 H 
ATOM     15  H   LIG d   1       3.359   0.004  -6.563  0.00  0.00     0.027 H 
ATOM     16  H   LIG d   1       1.673  -0.613  -4.713  0.00  0.00     0.032 H 
ATOM     17  H   LIG d   1       2.265   1.043  -4.775  0.00  0.00     0.032 H 
ATOM     18  H   LIG d   1       2.994  -1.670  -1.629  0.00  0.00     0.035 H 
ATOM     19  H   LIG d   1       2.192  -2.098  -3.129  0.00  0.00     0.035 H 
ATOM     20  H   LIG d   1       4.533  -3.117  -2.403  0.00  0.00     0.060 H 
ATOM     21  H   LIG d   1       6.208  -1.987  -4.115  0.00  0.00     0.035 H 
ATOM     22  H   LIG d   1       6.166  -1.559  -2.413  0.00  0.00     0.035 H 
ENDROOT
BRANCH   1  23
ATOM     23  C   LIG d   1       4.679   0.437  -1.486  0.00  0.00    -0.041 C 
ATOM     24  H   LIG d   1       4.111   1.163  -0.904  0.00  0.00     0.078 H 
ATOM     25  H   LIG d   1       4.460  -0.568  -1.126  0.00  0.00     0.078 H 
ATOM     26  H   LIG d   1       5.745   0.638  -1.373  0.00  0.00     0.078 H 
ENDBRANCH   1  23
BRANCH   1  27
ATOM     27  C   LIG d   1       4.186   1.972  -3.228  0.00  0.00    -0.041 C 
ATOM     28  H   LIG d   1       5.042   2.282  -3.828  0.00  0.00     0.078 H 
ATOM     29  H   LIG d   1       3.268   2.141  -3.791  0.00  0.00     0.078 H 
ATOM     30  H   LIG d   1       4.159   2.553  -2.307  0.00  0.00     0.078 H 
ENDBRANCH   1  27
BRANCH  10  31
ATOM     31  O   LIG d   1       4.044  -3.084  -4.377  0.00  0.00    -0.391 OA
ATOM     32  H   LIG d   1       3.186  -2.884  -4.776  0.00  0.00     0.210 HD
ENDBRANCH  10  31
TORSDOF 3
ENDMDL
MODEL 7
REMARK VINA RESULT:      -4.2      1.712      3.032
REMARK  3 active torsions:
REMARK  status: ('A' for Active; 'I' for Inactive)
REMARK    1  A    between atoms: C_1  and  N_2 
REMARK    2  A    between atoms: N_2  and  C_14 
REMARK    3  A    between atoms: C_11  and  O_13 
ROOT
ATOM      1  N   LIG d   1       6.104  -0.609  -3.744  0.00  0.00     0.243 N 
ATOM      2  C   LIG d   1       5.121  -1.203  -4.645  0.00  0.00    -0.017 C 
ATOM      3  H   LIG d   1       5.678  -1.590  -5.518  0.00  0.00     0.085 H 
ATOM      4  C   LIG d   1       4.125  -0.178  -5.162  0.00  0.00    -0.009 C 
ATOM      5  C   LIG d   1       3.478   0.637  -4.056  0.00  0.00    -0.043 C 
ATOM      6  C   LIG d   1       4.460   1.061  -2.974  0.00  0.00    -0.009 C 
ATOM      7  C   LIG d   1       5.418  -0.054  -2.582  0.00  0.00    -0.017 C 
ATOM      8  H   LIG d   1       6.192   0.393  -1.931  0.00  0.00     0.085 H 
ATOM      9  C   LIG d   1       4.708  -1.128  -1.778  0.00  0.00     0.017 C 
ATOM     10  C   LIG d   1       3.906  -2.119  -2.596  0.00  0.00     0.065 C 
ATOM     11  C   LIG d   1       4.420  -2.386  -3.996  0.00  0.00     0.017 C 
ATOM     12  H   LIG d   1       4.610   0.490  -5.881  0.00  0.00     0.032 H 
ATOM     13  H   LIG d   1       3.334  -0.711  -5.715  0.00  0.00     0.032 H 
ATOM     14  H   LIG d   1       2.636   0.099  -3.621  0.00  0.00     0.027 H 
ATOM     15  H   LIG d   1       3.052   1.553  -4.509  0.00  0.00     0.027 H 
ATOM     16  H   LIG d   1       3.888   1.355  -2.078  0.00  0.00     0.032 H 
ATOM     17  H   LIG d   1       5.013   1.946  -3.296  0.00  0.00     0.032 H 
ATOM     18  H   LIG d   1       5.439  -1.666  -1.158  0.00  0.00     0.035 H 
ATOM     19  H   LIG d   1       4.027  -0.629  -1.065  0.00  0.00     0.035 H 
ATOM     20  H   LIG d   1       3.945  -3.093  -2.049  0.00  0.00     0.060 H 
ATOM     21  H   LIG d   1       3.562  -2.665  -4.635  0.00  0.00     0.035 H 
ATOM     22  H   LIG d   1       5.084  -3.258  -3.991  0.00  0.00     0.035 H 
ENDROOT
BRANCH   1  23
ATOM     23  C   LIG d   1       7.070  -1.630  -3.312  0.00  0.00    -0.041 C 
ATOM     24  H   LIG d   1       6.559  -2.586  -3.189  0.00  0.00     0.078 H 
ATOM     25  H   LIG d   1       7.853  -1.732  -4.063  0.00  0.00     0.078 H 
ATOM     26  H   LIG d   1       7.515  -1.332  -2.362  0.00  0.00     0.078 H 
ENDBRANCH   1  23
BRANCH   1  27
ATOM     27  C   LIG d   1       6.852   0.446  -4.442  0.00  0.00    -0.041 C 
ATOM     28  H   LIG d   1       6.857   1.351  -3.835  0.00  0.00     0.078 H 
ATOM     29  H   LIG d   1       7.877   0.116  -4.608  0.00  0.00     0.078 H 
ATOM     30  H   LIG d   1       6.378   0.655  -5.401  0.00  0.00     0.078 H 
ENDBRANCH   1  27
BRANCH  10  31
ATOM     31  O   LIG d   1       2.523  -1.756  -2.623  0.00  0.00    -0.391 OA
ATOM     32  H   LIG d   1       2.326  -0.998  -3.190  0.00  0.00     0.210 HD
ENDBRANCH  10  31
TORSDOF 3
ENDMDL
MODEL 8
REMARK VINA RESULT:      -3.8      1.441      2.501
REMARK  3 active torsions:
REMARK  status: ('A' for Active; 'I' for Inactive)
REMARK    1  A    between atoms: C_1  and  N_2 
REMARK    2  A    between atoms: N_2  and  C_14 
REMARK    3  A    between atoms: C_11  and  O_13 
ROOT
ATOM      1  N   LIG d   1       4.292  -0.737  -3.050  0.00  0.00     0.243 N 
ATOM      2  C   LIG d   1       5.022  -2.001  -3.054  0.00  0.00    -0.017 C 
ATOM      3  H   LIG d   1       4.690  -2.567  -2.164  0.00  0.00     0.085 H 
ATOM      4  C   LIG d   1       6.523  -1.796  -2.927  0.00  0.00    -0.009 C 
ATOM      5  C   LIG d   1       7.078  -0.804  -3.934  0.00  0.00    -0.043 C 
ATOM      6  C   LIG d   1       6.193   0.419  -4.117  0.00  0.00    -0.009 C 
ATOM      7  C   LIG d   1       4.714   0.066  -4.192  0.00  0.00    -0.017 C 
ATOM      8  H   LIG d   1       4.148   1.015  -4.149  0.00  0.00     0.085 H 
ATOM      9  C   LIG d   1       4.378  -0.606  -5.511  0.00  0.00     0.017 C 
ATOM     10  C   LIG d   1       4.723  -2.079  -5.588  0.00  0.00     0.065 C 
ATOM     11  C   LIG d   1       4.674  -2.836  -4.276  0.00  0.00     0.017 C 
ATOM     12  H   LIG d   1       6.776  -1.476  -1.911  0.00  0.00     0.032 H 
ATOM     13  H   LIG d   1       7.020  -2.768  -3.080  0.00  0.00     0.032 H 
ATOM     14  H   LIG d   1       7.267  -1.289  -4.891  0.00  0.00     0.027 H 
ATOM     15  H   LIG d   1       8.065  -0.460  -3.568  0.00  0.00     0.027 H 
ATOM     16  H   LIG d   1       6.476   0.918  -5.059  0.00  0.00     0.032 H 
ATOM     17  H   LIG d   1       6.374   1.138  -3.316  0.00  0.00     0.032 H 
ATOM     18  H   LIG d   1       3.312  -0.464  -5.735  0.00  0.00     0.035 H 
ATOM     19  H   LIG d   1       4.922  -0.077  -6.315  0.00  0.00     0.035 H 
ATOM     20  H   LIG d   1       3.965  -2.552  -6.259  0.00  0.00     0.060 H 
ATOM     21  H   LIG d   1       5.391  -3.676  -4.330  0.00  0.00     0.035 H 
ATOM     22  H   LIG d   1       3.687  -3.296  -4.146  0.00  0.00     0.035 H 
ENDROOT
BRANCH   1  23
ATOM     23  C   LIG d   1       2.846  -0.992  -3.126  0.00  0.00    -0.041 C 
ATOM     24  H   LIG d   1       2.390  -0.293  -3.827  0.00  0.00     0.078 H 
ATOM     25  H   LIG d   1       2.675  -2.013  -3.469  0.00  0.00     0.078 H 
ATOM     26  H   LIG d   1       2.400  -0.861  -2.140  0.00  0.00     0.078 H 
ENDBRANCH   1  23
BRANCH   1  27
ATOM     27  C   LIG d   1       4.552  -0.011  -1.798  0.00  0.00    -0.041 C 
ATOM     28  H   LIG d   1       5.162  -0.630  -1.139  0.00  0.00     0.078 H 
ATOM     29  H   LIG d   1       5.080   0.916  -2.017  0.00  0.00     0.078 H 
ATOM     30  H   LIG d   1       3.606   0.217  -1.307  0.00  0.00     0.078 H 
ENDBRANCH   1  27
BRANCH  10  31
ATOM     31  O   LIG d   1       5.980  -2.275  -6.241  0.00  0.00    -0.391 OA
ATOM     32  H   LIG d   1       6.011  -3.059  -6.806  0.00  0.00     0.210 HD
ENDBRANCH  10  31
TORSDOF 3
ENDMDL
MODEL 9
REMARK VINA RESULT:      -3.7      4.501      6.028
REMARK  3 active torsions:
REMARK  status: ('A' for Active; 'I' for Inactive)
REMARK    1  A    between atoms: C_1  and  N_2 
REMARK    2  A    between atoms: N_2  and  C_14 
REMARK    3  A    between atoms: C_11  and  O_13 
ROOT
ATOM      1  N   LIG d   1       4.507   0.117 -10.213  0.00  0.00     0.243 N 
ATOM      2  C   LIG d   1       3.371  -0.391  -9.449  0.00  0.00    -0.017 C 
ATOM      3  H   LIG d   1       2.887  -1.166 -10.072  0.00  0.00     0.085 H 
ATOM      4  C   LIG d   1       2.334   0.687  -9.180  0.00  0.00    -0.009 C 
ATOM      5  C   LIG d   1       2.925   1.946  -8.569  0.00  0.00    -0.043 C 
ATOM      6  C   LIG d   1       4.246   2.353  -9.204  0.00  0.00    -0.009 C 
ATOM      7  C   LIG d   1       5.170   1.169  -9.448  0.00  0.00    -0.017 C 
ATOM      8  H   LIG d   1       6.015   1.532 -10.061  0.00  0.00     0.085 H 
ATOM      9  C   LIG d   1       5.743   0.644  -8.145  0.00  0.00     0.017 C 
ATOM     10  C   LIG d   1       4.818  -0.255  -7.351  0.00  0.00     0.065 C 
ATOM     11  C   LIG d   1       3.826  -1.063  -8.164  0.00  0.00     0.017 C 
ATOM     12  H   LIG d   1       1.801   0.937 -10.103  0.00  0.00     0.032 H 
ATOM     13  H   LIG d   1       1.582   0.279  -8.485  0.00  0.00     0.032 H 
ATOM     14  H   LIG d   1       3.034   1.839  -7.491  0.00  0.00     0.027 H 
ATOM     15  H   LIG d   1       2.204   2.772  -8.721  0.00  0.00     0.027 H 
ATOM     16  H   LIG d   1       4.759   3.055  -8.524  0.00  0.00     0.032 H 
ATOM     17  H   LIG d   1       4.065   2.895 -10.134  0.00  0.00     0.032 H 
ATOM     18  H   LIG d   1       6.687   0.118  -8.344  0.00  0.00     0.035 H 
ATOM     19  H   LIG d   1       6.015   1.511  -7.515  0.00  0.00     0.035 H 
ATOM     20  H   LIG d   1       5.465  -0.990  -6.813  0.00  0.00     0.060 H 
ATOM     21  H   LIG d   1       2.931  -1.246  -7.541  0.00  0.00     0.035 H 
ATOM     22  H   LIG d   1       4.243  -2.052  -8.385  0.00  0.00     0.035 H 
ENDROOT
BRANCH   1  23
ATOM     23  C   LIG d   1       5.455  -0.973 -10.487  0.00  0.00    -0.041 C 
ATOM     24  H   LIG d   1       4.905  -1.892 -10.687  0.00  0.00     0.078 H 
ATOM     25  H   LIG d   1       6.062  -0.717 -11.355  0.00  0.00     0.078 H 
ATOM     26  H   LIG d   1       6.103  -1.119  -9.622  0.00  0.00     0.078 H 
ENDBRANCH   1  23
BRANCH   1  27
ATOM     27  C   LIG d   1       4.048   0.645 -11.506  0.00  0.00    -0.041 C 
ATOM     28  H   LIG d   1       4.147  -0.126 -12.269  0.00  0.00     0.078 H 
ATOM     29  H   LIG d   1       3.003   0.944 -11.426  0.00  0.00     0.078 H 
ATOM     30  H   LIG d   1       4.653   1.509 -11.781  0.00  0.00     0.078 H 
ENDBRANCH   1  27
BRANCH  10  31
ATOM     31  O   LIG d   1       4.150   0.482  -6.322  0.00  0.00    -0.391 OA
ATOM     32  H   LIG d   1       4.617   0.488  -5.476  0.00  0.00     0.210 HD
ENDBRANCH  10  31
TORSDOF 3
ENDMDL
