MODEL 1
REMARK VINA RESULT:      -5.2      0.000      0.000
REMARK  3 active torsions:
REMARK  status: ('A' for Active; 'I' for Inactive)
REMARK    1  A    between atoms: C_1  and  C_2 
REMARK    2  A    between atoms: C_2  and  C_4 
REMARK    3  A    between atoms: C_2  and  C_10 
ROOT
ATOM      1  C   LIG d   1       4.985  -1.612  -3.043  0.00  0.00    -0.039 A 
ATOM      2  C   LIG d   1       4.508  -2.608  -3.874  0.00  0.00    -0.058 A 
ATOM      3  C   LIG d   1       5.391  -3.394  -4.590  0.00  0.00    -0.061 A 
ATOM      4  C   LIG d   1       6.753  -3.184  -4.476  0.00  0.00    -0.062 A 
ATOM      5  C   LIG d   1       7.230  -2.188  -3.644  0.00  0.00    -0.061 A 
ATOM      6  C   LIG d   1       6.347  -1.401  -2.929  0.00  0.00    -0.058 A 
ATOM      7  H   LIG d   1       3.444  -2.769  -3.968  0.00  0.00     0.062 H 
ATOM      8  H   LIG d   1       5.018  -4.172  -5.240  0.00  0.00     0.062 H 
ATOM      9  H   LIG d   1       7.443  -3.797  -5.035  0.00  0.00     0.062 H 
ATOM     10  H   LIG d   1       8.295  -2.024  -3.554  0.00  0.00     0.062 H 
ATOM     11  H   LIG d   1       6.720  -0.624  -2.279  0.00  0.00     0.062 H 
ENDROOT
BRANCH   1  12
ATOM     12  C   LIG d   1       4.023  -0.755  -2.263  0.00  0.00     0.021 C 
ATOM     13  H   LIG d   1       3.980  -1.118  -1.225  0.00  0.00     0.041 H 
BRANCH  12  14
ATOM     14  C   LIG d   1       2.637  -0.827  -2.907  0.00  0.00    -0.053 C 
ATOM     15  H   LIG d   1       2.571  -0.090  -3.720  0.00  0.00     0.024 H 
ATOM     16  H   LIG d   1       1.869  -0.608  -2.150  0.00  0.00     0.024 H 
ATOM     17  H   LIG d   1       2.474  -1.837  -3.313  0.00  0.00     0.024 H 
ENDBRANCH  12  14
BRANCH  12  18
ATOM     18  C   LIG d   1       4.504   0.672  -2.265  0.00  0.00     0.049 C 
ATOM     19  O   LIG d   1       4.871   1.188  -1.236  0.00  0.00    -0.549 OA
ATOM     20  O   LIG d   1       4.528   1.371  -3.411  0.00  0.00    -0.549 OA
ENDBRANCH  12  18
ENDBRANCH   1  12
TORSDOF 3
ENDMDL
MODEL 2
REMARK VINA RESULT:      -5.1      2.361      4.415
REMARK  3 active torsions:
REMARK  status: ('A' for Active; 'I' for Inactive)
REMARK    1  A    between atoms: C_1  and  C_2 
REMARK    2  A    between atoms: C_2  and  C_4 
REMARK    3  A    between atoms: C_2  and  C_10 
ROOT
ATOM      1  C   LIG d   1       5.016  -1.149  -3.065  0.00  0.00    -0.039 A 
ATOM      2  C   LIG d   1       5.741   0.001  -2.816  0.00  0.00    -0.058 A 
ATOM      3  C   LIG d   1       5.089   1.167  -2.460  0.00  0.00    -0.061 A 
ATOM      4  C   LIG d   1       3.711   1.182  -2.352  0.00  0.00    -0.062 A 
ATOM      5  C   LIG d   1       2.985   0.031  -2.601  0.00  0.00    -0.061 A 
ATOM      6  C   LIG d   1       3.638  -1.134  -2.958  0.00  0.00    -0.058 A 
ATOM      7  H   LIG d   1       6.817  -0.009  -2.905  0.00  0.00     0.062 H 
ATOM      8  H   LIG d   1       5.656   2.065  -2.266  0.00  0.00     0.062 H 
ATOM      9  H   LIG d   1       3.201   2.092  -2.074  0.00  0.00     0.062 H 
ATOM     10  H   LIG d   1       1.908   0.043  -2.516  0.00  0.00     0.062 H 
ATOM     11  H   LIG d   1       3.071  -2.032  -3.151  0.00  0.00     0.062 H 
ENDROOT
BRANCH   1  12
ATOM     12  C   LIG d   1       5.727  -2.419  -3.454  0.00  0.00     0.021 C 
ATOM     13  H   LIG d   1       5.608  -3.158  -2.647  0.00  0.00     0.041 H 
BRANCH  12  14
ATOM     14  C   LIG d   1       7.209  -2.124  -3.688  0.00  0.00    -0.053 C 
ATOM     15  H   LIG d   1       7.692  -1.886  -2.730  0.00  0.00     0.024 H 
ATOM     16  H   LIG d   1       7.309  -1.267  -4.372  0.00  0.00     0.024 H 
ATOM     17  H   LIG d   1       7.693  -3.006  -4.134  0.00  0.00     0.024 H 
ENDBRANCH  12  14
BRANCH  12  18
ATOM     18  C   LIG d   1       5.118  -2.969  -4.718  0.00  0.00     0.049 C 
ATOM     19  O   LIG d   1       5.267  -2.383  -5.765  0.00  0.00    -0.549 OA
ATOM     20  O   LIG d   1       4.413  -4.110  -4.682  0.00  0.00    -0.549 OA
ENDBRANCH  12  18
ENDBRANCH   1  12
TORSDOF 3
ENDMDL
MODEL 3
REMARK VINA RESULT:      -5.0      2.244      3.279
REMARK  3 active torsions:
REMARK  status: ('A' for Active; 'I' for Inactive)
REMARK    1  A    between atoms: C_1  and  C_2 
REMARK    2  A    between atoms: C_2  and  C_4 
REMARK    3  A    between atoms: C_2  and  C_10 
ROOT
ATOM      1  C   LIG d   1       4.272  -0.319  -4.340  0.00  0.00    -0.039 A 
ATOM      2  C   LIG d   1       3.053   0.333  -4.302  0.00  0.00    -0.058 A 
ATOM      3  C   LIG d   1       2.351   0.555  -5.472  0.00  0.00    -0.061 A 
ATOM      4  C   LIG d   1       2.867   0.126  -6.680  0.00  0.00    -0.062 A 
ATOM      5  C   LIG d   1       4.086  -0.527  -6.718  0.00  0.00    -0.061 A 
ATOM      6  C   LIG d   1       4.788  -0.749  -5.548  0.00  0.00    -0.058 A 
ATOM      7  H   LIG d   1       2.652   0.674  -3.360  0.00  0.00     0.062 H 
ATOM      8  H   LIG d   1       1.399   1.065  -5.443  0.00  0.00     0.062 H 
ATOM      9  H   LIG d   1       2.319   0.299  -7.595  0.00  0.00     0.062 H 
ATOM     10  H   LIG d   1       4.489  -0.864  -7.663  0.00  0.00     0.062 H 
ATOM     11  H   LIG d   1       5.739  -1.259  -5.579  0.00  0.00     0.062 H 
ENDROOT
BRANCH   1  12
ATOM     12  C   LIG d   1       5.037  -0.561  -3.066  0.00  0.00     0.021 C 
ATOM     13  H   LIG d   1       5.977  -1.082  -3.305  0.00  0.00     0.041 H 
BRANCH  12  14
ATOM     14  C   LIG d   1       4.189  -1.405  -2.113  0.00  0.00    -0.053 C 
ATOM     15  H   LIG d   1       3.287  -0.845  -1.829  0.00  0.00     0.024 H 
ATOM     16  H   LIG d   1       4.775  -1.639  -1.210  0.00  0.00     0.024 H 
ATOM     17  H   LIG d   1       3.899  -2.341  -2.613  0.00  0.00     0.024 H 
ENDBRANCH  12  14
BRANCH  12  18
ATOM     18  C   LIG d   1       5.360   0.759  -2.415  0.00  0.00     0.049 C 
ATOM     19  O   LIG d   1       6.181   1.493  -2.913  0.00  0.00    -0.549 OA
ATOM     20  O   LIG d   1       4.735   1.120  -1.283  0.00  0.00    -0.549 OA
ENDBRANCH  12  18
ENDBRANCH   1  12
TORSDOF 3
ENDMDL
MODEL 4
REMARK VINA RESULT:      -4.8      2.730      3.535
REMARK  3 active torsions:
REMARK  status: ('A' for Active; 'I' for Inactive)
REMARK    1  A    between atoms: C_1  and  C_2 
REMARK    2  A    between atoms: C_2  and  C_4 
REMARK    3  A    between atoms: C_2  and  C_10 
ROOT
ATOM      1  C   LIG d   1       3.532  -0.085  -4.414  0.00  0.00    -0.039 A 
ATOM      2  C   LIG d   1       4.790  -0.457  -4.851  0.00  0.00    -0.058 A 
ATOM      3  C   LIG d   1       5.077  -0.471  -6.203  0.00  0.00    -0.061 A 
ATOM      4  C   LIG d   1       4.106  -0.112  -7.119  0.00  0.00    -0.062 A 
ATOM      5  C   LIG d   1       2.848   0.261  -6.683  0.00  0.00    -0.061 A 
ATOM      6  C   LIG d   1       2.561   0.274  -5.331  0.00  0.00    -0.058 A 
ATOM      7  H   LIG d   1       5.546  -0.743  -4.136  0.00  0.00     0.062 H 
ATOM      8  H   LIG d   1       6.060  -0.762  -6.544  0.00  0.00     0.062 H 
ATOM      9  H   LIG d   1       4.330  -0.122  -8.176  0.00  0.00     0.062 H 
ATOM     10  H   LIG d   1       2.090   0.542  -7.399  0.00  0.00     0.062 H 
ATOM     11  H   LIG d   1       1.579   0.566  -4.991  0.00  0.00     0.062 H 
ENDROOT
BRANCH   1  12
ATOM     12  C   LIG d   1       3.218  -0.071  -2.941  0.00  0.00     0.021 C 
ATOM     13  H   LIG d   1       2.127  -0.118  -2.806  0.00  0.00     0.041 H 
BRANCH  12  14
ATOM     14  C   LIG d   1       3.776   1.207  -2.312  0.00  0.00    -0.053 C 
ATOM     15  H   LIG d   1       4.870   1.134  -2.239  0.00  0.00     0.024 H 
ATOM     16  H   LIG d   1       3.348   1.338  -1.306  0.00  0.00     0.024 H 
ATOM     17  H   LIG d   1       3.506   2.071  -2.939  0.00  0.00     0.024 H 
ENDBRANCH  12  14
BRANCH  12  18
ATOM     18  C   LIG d   1       3.847  -1.270  -2.282  0.00  0.00     0.049 C 
ATOM     19  O   LIG d   1       4.623  -1.120  -1.368  0.00  0.00    -0.549 OA
ATOM     20  O   LIG d   1       3.545  -2.507  -2.708  0.00  0.00    -0.549 OA
ENDBRANCH  12  18
ENDBRANCH   1  12
TORSDOF 3
ENDMDL
MODEL 5
REMARK VINA RESULT:      -4.7      2.375      3.684
REMARK  3 active torsions:
REMARK  status: ('A' for Active; 'I' for Inactive)
REMARK    1  A    between atoms: C_1  and  C_2 
REMARK    2  A    between atoms: C_2  and  C_4 
REMARK    3  A    between atoms: C_2  and  C_10 
ROOT
ATOM      1  C   LIG d   1       6.024  -0.732  -3.478  0.00  0.00    -0.039 A 
ATOM      2  C   LIG d   1       5.637  -2.002  -3.865  0.00  0.00    -0.058 A 
ATOM      3  C   LIG d   1       4.528  -2.593  -3.289  0.00  0.00    -0.061 A 
ATOM      4  C   LIG d   1       3.805  -1.914  -2.326  0.00  0.00    -0.062 A 
ATOM      5  C   LIG d   1       4.192  -0.644  -1.939  0.00  0.00    -0.061 A 
ATOM      6  C   LIG d   1       5.301  -0.054  -2.515  0.00  0.00    -0.058 A 
ATOM      7  H   LIG d   1       6.204  -2.534  -4.614  0.00  0.00     0.062 H 
ATOM      8  H   LIG d   1       4.226  -3.585  -3.592  0.00  0.00     0.062 H 
ATOM      9  H   LIG d   1       2.938  -2.376  -1.876  0.00  0.00     0.062 H 
ATOM     10  H   LIG d   1       3.626  -0.113  -1.186  0.00  0.00     0.062 H 
ATOM     11  H   LIG d   1       5.602   0.938  -2.212  0.00  0.00     0.062 H 
ENDROOT
BRANCH   1  12
ATOM     12  C   LIG d   1       7.232  -0.088  -4.105  0.00  0.00     0.021 C 
ATOM     13  H   LIG d   1       8.136  -0.625  -3.776  0.00  0.00     0.041 H 
BRANCH  12  14
ATOM     14  C   LIG d   1       7.306   1.381  -3.683  0.00  0.00    -0.053 C 
ATOM     15  H   LIG d   1       8.342   1.737  -3.770  0.00  0.00     0.024 H 
ATOM     16  H   LIG d   1       6.969   1.480  -2.639  0.00  0.00     0.024 H 
ATOM     17  H   LIG d   1       6.655   1.982  -4.335  0.00  0.00     0.024 H 
ENDBRANCH  12  14
BRANCH  12  18
ATOM     18  C   LIG d   1       7.127  -0.175  -5.605  0.00  0.00     0.049 C 
ATOM     19  O   LIG d   1       7.932  -0.825  -6.230  0.00  0.00    -0.549 OA
ATOM     20  O   LIG d   1       6.140   0.467  -6.247  0.00  0.00    -0.549 OA
ENDBRANCH  12  18
ENDBRANCH   1  12
TORSDOF 3
ENDMDL
MODEL 6
REMARK VINA RESULT:      -4.6      2.539      4.269
REMARK  3 active torsions:
REMARK  status: ('A' for Active; 'I' for Inactive)
REMARK    1  A    between atoms: C_1  and  C_2 
REMARK    2  A    between atoms: C_2  and  C_4 
REMARK    3  A    between atoms: C_2  and  C_10 
ROOT
ATOM      1  C   LIG d   1       5.606  -1.113  -3.668  0.00  0.00    -0.039 A 
ATOM      2  C   LIG d   1       5.984   0.216  -3.700  0.00  0.00    -0.058 A 
ATOM      3  C   LIG d   1       5.498   1.096  -2.751  0.00  0.00    -0.061 A 
ATOM      4  C   LIG d   1       4.634   0.648  -1.770  0.00  0.00    -0.062 A 
ATOM      5  C   LIG d   1       4.257  -0.682  -1.737  0.00  0.00    -0.061 A 
ATOM      6  C   LIG d   1       4.742  -1.562  -2.687  0.00  0.00    -0.058 A 
ATOM      7  H   LIG d   1       6.655   0.568  -4.469  0.00  0.00     0.062 H 
ATOM      8  H   LIG d   1       5.794   2.135  -2.776  0.00  0.00     0.062 H 
ATOM      9  H   LIG d   1       4.255   1.335  -1.028  0.00  0.00     0.062 H 
ATOM     10  H   LIG d   1       3.581  -1.033  -0.970  0.00  0.00     0.062 H 
ATOM     11  H   LIG d   1       4.446  -2.600  -2.660  0.00  0.00     0.062 H 
ENDROOT
BRANCH   1  12
ATOM     12  C   LIG d   1       6.134  -2.073  -4.702  0.00  0.00     0.021 C 
ATOM     13  H   LIG d   1       6.001  -1.632  -5.702  0.00  0.00     0.041 H 
BRANCH  12  14
ATOM     14  C   LIG d   1       5.378  -3.399  -4.602  0.00  0.00    -0.053 C 
ATOM     15  H   LIG d   1       5.612  -4.022  -5.477  0.00  0.00     0.024 H 
ATOM     16  H   LIG d   1       4.295  -3.202  -4.571  0.00  0.00     0.024 H 
ATOM     17  H   LIG d   1       5.680  -3.925  -3.684  0.00  0.00     0.024 H 
ENDBRANCH  12  14
BRANCH  12  18
ATOM     18  C   LIG d   1       7.602  -2.312  -4.462  0.00  0.00     0.049 C 
ATOM     19  O   LIG d   1       8.412  -1.978  -5.294  0.00  0.00    -0.549 OA
ATOM     20  O   LIG d   1       8.010  -2.895  -3.324  0.00  0.00    -0.549 OA
ENDBRANCH  12  18
ENDBRANCH   1  12
TORSDOF 3
ENDMDL
MODEL 7
REMARK VINA RESULT:      -4.5      2.710      3.796
REMARK  3 active torsions:
REMARK  status: ('A' for Active; 'I' for Inactive)
REMARK    1  A    between atoms: C_1  and  C_2 
REMARK    2  A    between atoms: C_2  and  C_4 
REMARK    3  A    between atoms: C_2  and  C_10 
ROOT
ATOM      1  C   LIG d   1       4.527  -1.151  -4.426  0.00  0.00    -0.039 A 
ATOM      2  C   LIG d   1       4.029  -2.124  -3.579  0.00  0.00    -0.058 A 
ATOM      3  C   LIG d   1       3.997  -1.903  -2.215  0.00  0.00    -0.061 A 
ATOM      4  C   LIG d   1       4.463  -0.709  -1.697  0.00  0.00    -0.062 A 
ATOM      5  C   LIG d   1       4.959   0.265  -2.544  0.00  0.00    -0.061 A 
ATOM      6  C   LIG d   1       4.992   0.043  -3.908  0.00  0.00    -0.058 A 
ATOM      7  H   LIG d   1       3.671  -3.059  -3.982  0.00  0.00     0.062 H 
ATOM      8  H   LIG d   1       3.609  -2.663  -1.553  0.00  0.00     0.062 H 
ATOM      9  H   LIG d   1       4.438  -0.536  -0.631  0.00  0.00     0.062 H 
ATOM     10  H   LIG d   1       5.323   1.199  -2.139  0.00  0.00     0.062 H 
ATOM     11  H   LIG d   1       5.379   0.804  -4.568  0.00  0.00     0.062 H 
ENDROOT
BRANCH   1  12
ATOM     12  C   LIG d   1       4.562  -1.391  -5.912  0.00  0.00     0.021 C 
ATOM     13  H   LIG d   1       3.931  -2.261  -6.150  0.00  0.00     0.041 H 
BRANCH  12  14
ATOM     14  C   LIG d   1       6.004  -1.647  -6.354  0.00  0.00    -0.053 C 
ATOM     15  H   LIG d   1       6.649  -0.834  -5.993  0.00  0.00     0.024 H 
ATOM     16  H   LIG d   1       6.049  -1.692  -7.453  0.00  0.00     0.024 H 
ATOM     17  H   LIG d   1       6.351  -2.604  -5.935  0.00  0.00     0.024 H 
ENDBRANCH  12  14
BRANCH  12  18
ATOM     18  C   LIG d   1       4.024  -0.182  -6.630  0.00  0.00     0.049 C 
ATOM     19  O   LIG d   1       4.774   0.538  -7.247  0.00  0.00    -0.549 OA
ATOM     20  O   LIG d   1       2.712   0.096  -6.588  0.00  0.00    -0.549 OA
ENDBRANCH  12  18
ENDBRANCH   1  12
TORSDOF 3
ENDMDL
MODEL 8
REMARK VINA RESULT:      -4.4      1.867      2.456
REMARK  3 active torsions:
REMARK  status: ('A' for Active; 'I' for Inactive)
REMARK    1  A    between atoms: C_1  and  C_2 
REMARK    2  A    between atoms: C_2  and  C_4 
REMARK    3  A    between atoms: C_2  and  C_10 
ROOT
ATOM      1  C   LIG d   1       5.514  -0.254  -3.788  0.00  0.00    -0.039 A 
ATOM      2  C   LIG d   1       6.145  -1.114  -2.908  0.00  0.00    -0.058 A 
ATOM      3  C   LIG d   1       7.019  -2.072  -3.386  0.00  0.00    -0.061 A 
ATOM      4  C   LIG d   1       7.263  -2.171  -4.743  0.00  0.00    -0.062 A 
ATOM      5  C   LIG d   1       6.632  -1.311  -5.623  0.00  0.00    -0.061 A 
ATOM      6  C   LIG d   1       5.757  -0.353  -5.145  0.00  0.00    -0.058 A 
ATOM      7  H   LIG d   1       5.951  -1.040  -1.849  0.00  0.00     0.062 H 
ATOM      8  H   LIG d   1       7.512  -2.744  -2.699  0.00  0.00     0.062 H 
ATOM      9  H   LIG d   1       7.946  -2.920  -5.116  0.00  0.00     0.062 H 
ATOM     10  H   LIG d   1       6.823  -1.388  -6.684  0.00  0.00     0.062 H 
ATOM     11  H   LIG d   1       5.266   0.319  -5.833  0.00  0.00     0.062 H 
ENDROOT
BRANCH   1  12
ATOM     12  C   LIG d   1       4.561   0.790  -3.269  0.00  0.00     0.021 C 
ATOM     13  H   LIG d   1       4.907   1.784  -3.591  0.00  0.00     0.041 H 
BRANCH  12  14
ATOM     14  C   LIG d   1       4.507   0.718  -1.741  0.00  0.00    -0.053 C 
ATOM     15  H   LIG d   1       5.386   1.224  -1.318  0.00  0.00     0.024 H 
ATOM     16  H   LIG d   1       4.502  -0.336  -1.424  0.00  0.00     0.024 H 
ATOM     17  H   LIG d   1       3.591   1.212  -1.383  0.00  0.00     0.024 H 
ENDBRANCH  12  14
BRANCH  12  18
ATOM     18  C   LIG d   1       3.186   0.541  -3.832  0.00  0.00     0.049 C 
ATOM     19  O   LIG d   1       2.718   1.306  -4.642  0.00  0.00    -0.549 OA
ATOM     20  O   LIG d   1       2.482  -0.530  -3.435  0.00  0.00    -0.549 OA
ENDBRANCH  12  18
ENDBRANCH   1  12
TORSDOF 3
ENDMDL
MODEL 9
REMARK VINA RESULT:      -4.3      6.784      7.461
REMARK  3 active torsions:
REMARK  status: ('A' for Active; 'I' for Inactive)
REMARK    1  A    between atoms: C_1  and  C_2 
REMARK    2  A    between atoms: C_2  and  C_4 
REMARK    3  A    between atoms: C_2  and  C_10 
ROOT
ATOM      1  C   LIG d   1       2.695   0.469  -9.931  0.00  0.00    -0.039 A 
ATOM      2  C   LIG d   1       3.637   0.482 -10.944  0.00  0.00    -0.058 A 
ATOM      3  C   LIG d   1       3.507  -0.377 -12.019  0.00  0.00    -0.061 A 
ATOM      4  C   LIG d   1       2.437  -1.250 -12.082  0.00  0.00    -0.062 A 
ATOM      5  C   LIG d   1       1.495  -1.262 -11.069  0.00  0.00    -0.061 A 
ATOM      6  C   LIG d   1       1.625  -0.403  -9.994  0.00  0.00    -0.058 A 
ATOM      7  H   LIG d   1       4.475   1.160 -10.892  0.00  0.00     0.062 H 
ATOM      8  H   LIG d   1       4.243  -0.367 -12.810  0.00  0.00     0.062 H 
ATOM      9  H   LIG d   1       2.336  -1.921 -12.921  0.00  0.00     0.062 H 
ATOM     10  H   LIG d   1       0.658  -1.944 -11.119  0.00  0.00     0.062 H 
ATOM     11  H   LIG d   1       0.889  -0.413  -9.204  0.00  0.00     0.062 H 
ENDROOT
BRANCH   1  12
ATOM     12  C   LIG d   1       2.836   1.405  -8.759  0.00  0.00     0.021 C 
ATOM     13  H   LIG d   1       1.839   1.775  -8.474  0.00  0.00     0.041 H 
BRANCH  12  14
ATOM     14  C   LIG d   1       3.745   2.574  -9.145  0.00  0.00    -0.053 C 
ATOM     15  H   LIG d   1       3.249   3.188  -9.910  0.00  0.00     0.024 H 
ATOM     16  H   LIG d   1       4.694   2.185  -9.545  0.00  0.00     0.024 H 
ATOM     17  H   LIG d   1       3.947   3.189  -8.256  0.00  0.00     0.024 H 
ENDBRANCH  12  14
BRANCH  12  18
ATOM     18  C   LIG d   1       3.438   0.665  -7.594  0.00  0.00     0.049 C 
ATOM     19  O   LIG d   1       4.639   0.569  -7.494  0.00  0.00    -0.549 OA
ATOM     20  O   LIG d   1       2.641   0.112  -6.665  0.00  0.00    -0.549 OA
ENDBRANCH  12  18
ENDBRANCH   1  12
TORSDOF 3
ENDMDL
MODEL 10
REMARK VINA RESULT:      -4.2      1.548      1.712
REMARK  3 active torsions:
REMARK  status: ('A' for Active; 'I' for Inactive)
REMARK    1  A    between atoms: C_1  and  C_2 
REMARK    2  A    between atoms: C_2  and  C_4 
REMARK    3  A    between atoms: C_2  and  C_10 
ROOT
ATOM      1  C   LIG d   1       5.570  -1.556  -3.665  0.00  0.00    -0.039 A 
ATOM      2  C   LIG d   1       4.917  -2.576  -4.334  0.00  0.00    -0.058 A 
ATOM      3  C   LIG d   1       5.637  -3.640  -4.844  0.00  0.00    -0.061 A 
ATOM      4  C   LIG d   1       7.009  -3.686  -4.686  0.00  0.00    -0.062 A 
ATOM      5  C   LIG d   1       7.662  -2.667  -4.016  0.00  0.00    -0.061 A 
ATOM      6  C   LIG d   1       6.943  -1.602  -3.508  0.00  0.00    -0.058 A 
ATOM      7  H   LIG d   1       3.846  -2.537  -4.462  0.00  0.00     0.062 H 
ATOM      8  H   LIG d   1       5.127  -4.436  -5.366  0.00  0.00     0.062 H 
ATOM      9  H   LIG d   1       7.572  -4.518  -5.084  0.00  0.00     0.062 H 
ATOM     10  H   LIG d   1       8.735  -2.704  -3.893  0.00  0.00     0.062 H 
ATOM     11  H   LIG d   1       7.453  -0.808  -2.985  0.00  0.00     0.062 H 
ENDROOT
BRANCH   1  12
ATOM     12  C   LIG d   1       4.787  -0.396  -3.110  0.00  0.00     0.021 C 
ATOM     13  H   LIG d   1       5.409   0.511  -3.155  0.00  0.00     0.041 H 
BRANCH  12  14
ATOM     14  C   LIG d   1       4.388  -0.694  -1.664  0.00  0.00    -0.053 C 
ATOM     15  H   LIG d   1       5.209  -0.412  -0.990  0.00  0.00     0.024 H 
ATOM     16  H   LIG d   1       4.178  -1.770  -1.556  0.00  0.00     0.024 H 
ATOM     17  H   LIG d   1       3.487  -0.118  -1.406  0.00  0.00     0.024 H 
ENDBRANCH  12  14
BRANCH  12  18
ATOM     18  C   LIG d   1       3.548  -0.183  -3.940  0.00  0.00     0.049 C 
ATOM     19  O   LIG d   1       2.482  -0.602  -3.552  0.00  0.00    -0.549 OA
ATOM     20  O   LIG d   1       3.626   0.473  -5.108  0.00  0.00    -0.549 OA
ENDBRANCH  12  18
ENDBRANCH   1  12
TORSDOF 3
ENDMDL
