MODEL 1
REMARK VINA RESULT:      -7.4      0.000      0.000
REMARK  11 active torsions:
REMARK  status: ('A' for Active; 'I' for Inactive)
REMARK    1  A    between atoms: C_1  and  O_2 
REMARK    2  A    between atoms: O_2  and  C_3 
REMARK    3  A    between atoms: C_6  and  C_9 
REMARK    4  A    between atoms: C_9  and  N_10 
REMARK       I    between atoms: N_10  and  C_11 
REMARK    5  A    between atoms: C_11  and  C_13 
REMARK    6  A    between atoms: C_13  and  C_14 
REMARK    7  A    between atoms: C_16  and  O_35 
REMARK    8  A    between atoms: C_18  and  O_34 
REMARK    9  A    between atoms: C_20  and  C_23 
REMARK   10  A    between atoms: C_23  and  N_24 
REMARK       I    between atoms: N_24  and  C_25 
REMARK   11  A    between atoms: C_25  and  C_27 
ROOT
ATOM      1  C   LIG d   1       3.475  -3.351  -9.166  0.00  0.00     0.096 C 
ATOM      2  H   LIG d   1       4.352  -3.249  -9.805  0.00  0.00     0.063 H 
ATOM      3  C   LIG d   1       2.185  -3.123  -9.984  0.00  0.00     0.110 C 
ATOM      4  H   LIG d   1       1.377  -3.750  -9.607  0.00  0.00     0.065 H 
ATOM      5  C   LIG d   1       1.861  -1.628  -9.766  0.00  0.00     0.111 C 
ATOM      6  H   LIG d   1       0.892  -1.515  -9.279  0.00  0.00     0.065 H 
ATOM      7  C   LIG d   1       2.993  -1.130  -8.841  0.00  0.00     0.103 C 
ATOM      8  H   LIG d   1       3.797  -0.687  -9.430  0.00  0.00     0.064 H 
ATOM      9  O   LIG d   1       3.462  -2.314  -8.161  0.00  0.00    -0.366 OA
ENDROOT
BRANCH   1  10
ATOM     10  C   LIG d   1       3.451  -4.732  -8.507  0.00  0.00     0.053 C 
ATOM     11  H   LIG d   1       2.420  -5.075  -8.420  0.00  0.00     0.038 H 
ATOM     12  H   LIG d   1       4.018  -5.435  -9.118  0.00  0.00     0.038 H 
BRANCH  10  13
ATOM     13  C   LIG d   1       4.070  -4.644  -7.135  0.00  0.00     0.216 C 
ATOM     14  N   LIG d   1       5.278  -4.068  -6.977  0.00  0.00    -0.311 N 
ATOM     15  H   LIG d   1       5.750  -3.711  -7.746  0.00  0.00     0.149 HD
ATOM     16  O   LIG d   1       3.481  -5.092  -6.175  0.00  0.00    -0.276 OA
BRANCH  14  17
ATOM     17  C   LIG d   1       5.880  -3.984  -5.643  0.00  0.00     0.037 C 
ATOM     18  H   LIG d   1       5.155  -4.312  -4.898  0.00  0.00     0.051 H 
ATOM     19  H   LIG d   1       6.761  -4.624  -5.601  0.00  0.00     0.051 H 
BRANCH  17  20
ATOM     20  C   LIG d   1       6.281  -2.559  -5.363  0.00  0.00    -0.030 A 
ATOM     21  C   LIG d   1       6.786  -2.215  -4.123  0.00  0.00    -0.054 A 
ATOM     22  C   LIG d   1       7.154  -0.908  -3.864  0.00  0.00    -0.020 A 
ATOM     23  H   LIG d   1       6.892  -2.968  -3.356  0.00  0.00     0.062 H 
ATOM     24  C   LIG d   1       7.017   0.059  -4.850  0.00  0.00     0.120 A 
ATOM     25  H   LIG d   1       7.548  -0.640  -2.895  0.00  0.00     0.065 H 
ATOM     26  C   LIG d   1       6.510  -0.289  -6.093  0.00  0.00    -0.020 A 
ATOM     27  C   LIG d   1       6.149  -1.598  -6.349  0.00  0.00    -0.054 A 
ATOM     28  H   LIG d   1       6.402   0.461  -6.862  0.00  0.00     0.065 H 
ATOM     29  H   LIG d   1       5.758  -1.871  -7.319  0.00  0.00     0.062 H 
BRANCH  24  30
ATOM     30  O   LIG d   1       7.378   1.343  -4.597  0.00  0.00    -0.495 OA
BRANCH  30  31
ATOM     31  C   LIG d   1       8.638   1.549  -3.954  0.00  0.00     0.079 C 
ATOM     32  H   LIG d   1       9.283   2.143  -4.602  0.00  0.00     0.066 H 
ATOM     33  H   LIG d   1       8.484   2.075  -3.012  0.00  0.00     0.066 H 
ATOM     34  H   LIG d   1       9.108   0.585  -3.760  0.00  0.00     0.066 H 
ENDBRANCH  30  31
ENDBRANCH  24  30
ENDBRANCH  17  20
ENDBRANCH  14  17
ENDBRANCH  10  13
ENDBRANCH   1  10
BRANCH   3  35
ATOM     35  O   LIG d   1       2.417  -3.388 -11.370  0.00  0.00    -0.387 OA
ATOM     36  H   LIG d   1       3.346  -3.537 -11.591  0.00  0.00     0.210 HD
ENDBRANCH   3  35
BRANCH   7  37
ATOM     37  C   LIG d   1       2.450  -0.115  -7.833  0.00  0.00     0.041 C 
ATOM     38  H   LIG d   1       2.810   0.882  -8.090  0.00  0.00     0.049 H 
ATOM     39  H   LIG d   1       1.361  -0.125  -7.860  0.00  0.00     0.049 H 
BRANCH  37  40
ATOM     40  N   LIG d   1       2.909  -0.469  -6.488  0.00  0.00    -0.309 N 
ATOM     41  C   LIG d   1       2.901   0.456  -5.508  0.00  0.00     0.244 C 
ATOM     42  O   LIG d   1       2.514   1.585  -5.741  0.00  0.00    -0.270 OA
ATOM     43  H   LIG d   1       3.218  -1.369  -6.302  0.00  0.00     0.149 HD
BRANCH  41  44
ATOM     44  C   LIG d   1       3.365   0.099  -4.150  0.00  0.00     0.039 A 
ATOM     45  C   LIG d   1       3.285  -1.221  -3.707  0.00  0.00    -0.014 A 
ATOM     46  C   LIG d   1       3.721  -1.547  -2.436  0.00  0.00     0.124 A 
ATOM     47  H   LIG d   1       2.884  -1.987  -4.355  0.00  0.00     0.065 H 
ATOM     48  C   LIG d   1       4.236  -0.565  -1.606  0.00  0.00    -0.026 A 
ATOM     49  F   LIG d   1       3.645  -2.825  -2.005  0.00  0.00    -0.205 F 
ATOM     50  C   LIG d   1       4.317   0.745  -2.041  0.00  0.00    -0.058 A 
ATOM     51  H   LIG d   1       4.577  -0.824  -0.614  0.00  0.00     0.065 H 
ATOM     52  C   LIG d   1       3.890   1.082  -3.309  0.00  0.00    -0.050 A 
ATOM     53  H   LIG d   1       4.719   1.506  -1.388  0.00  0.00     0.062 H 
ATOM     54  H   LIG d   1       3.957   2.105  -3.648  0.00  0.00     0.062 H 
ENDBRANCH  41  44
ENDBRANCH  37  40
ENDBRANCH   7  37
BRANCH   5  55
ATOM     55  O   LIG d   1       1.883  -0.925 -11.010  0.00  0.00    -0.387 OA
ATOM     56  H   LIG d   1       1.978   0.033 -10.918  0.00  0.00     0.210 HD
ENDBRANCH   5  55
TORSDOF 11
ENDMDL
MODEL 2
REMARK VINA RESULT:      -6.2      1.635      2.381
REMARK  11 active torsions:
REMARK  status: ('A' for Active; 'I' for Inactive)
REMARK    1  A    between atoms: C_1  and  O_2 
REMARK    2  A    between atoms: O_2  and  C_3 
REMARK    3  A    between atoms: C_6  and  C_9 
REMARK    4  A    between atoms: C_9  and  N_10 
REMARK       I    between atoms: N_10  and  C_11 
REMARK    5  A    between atoms: C_11  and  C_13 
REMARK    6  A    between atoms: C_13  and  C_14 
REMARK    7  A    between atoms: C_16  and  O_35 
REMARK    8  A    between atoms: C_18  and  O_34 
REMARK    9  A    between atoms: C_20  and  C_23 
REMARK   10  A    between atoms: C_23  and  N_24 
REMARK       I    between atoms: N_24  and  C_25 
REMARK   11  A    between atoms: C_25  and  C_27 
ROOT
ATOM      1  C   LIG d   1       4.872  -2.192  -9.408  0.00  0.00     0.096 C 
ATOM      2  H   LIG d   1       5.213  -1.782 -10.360  0.00  0.00     0.063 H 
ATOM      3  C   LIG d   1       3.559  -2.981  -9.602  0.00  0.00     0.110 C 
ATOM      4  H   LIG d   1       3.517  -3.827  -8.916  0.00  0.00     0.065 H 
ATOM      5  C   LIG d   1       2.452  -1.955  -9.270  0.00  0.00     0.111 C 
ATOM      6  H   LIG d   1       1.862  -2.292  -8.418  0.00  0.00     0.065 H 
ATOM      7  C   LIG d   1       3.229  -0.667  -8.914  0.00  0.00     0.103 C 
ATOM      8  H   LIG d   1       3.316  -0.024  -9.790  0.00  0.00     0.064 H 
ATOM      9  O   LIG d   1       4.531  -1.126  -8.495  0.00  0.00    -0.366 OA
ENDROOT
BRANCH   1  10
ATOM     10  C   LIG d   1       5.950  -3.091  -8.799  0.00  0.00     0.053 C 
ATOM     11  H   LIG d   1       5.685  -4.135  -8.961  0.00  0.00     0.038 H 
ATOM     12  H   LIG d   1       6.909  -2.881  -9.274  0.00  0.00     0.038 H 
BRANCH  10  13
ATOM     13  C   LIG d   1       6.052  -2.821  -7.319  0.00  0.00     0.216 C 
ATOM     14  N   LIG d   1       6.730  -1.744  -6.877  0.00  0.00    -0.311 N 
ATOM     15  H   LIG d   1       7.153  -1.142  -7.510  0.00  0.00     0.149 HD
ATOM     16  O   LIG d   1       5.524  -3.573  -6.528  0.00  0.00    -0.276 OA
BRANCH  14  17
ATOM     17  C   LIG d   1       6.830  -1.482  -5.438  0.00  0.00     0.037 C 
ATOM     18  H   LIG d   1       5.842  -1.564  -4.986  0.00  0.00     0.051 H 
ATOM     19  H   LIG d   1       7.501  -2.210  -4.983  0.00  0.00     0.051 H 
BRANCH  17  20
ATOM     20  C   LIG d   1       7.371  -0.093  -5.218  0.00  0.00    -0.030 A 
ATOM     21  C   LIG d   1       7.827   0.649  -6.291  0.00  0.00    -0.054 A 
ATOM     22  C   LIG d   1       8.322   1.924  -6.091  0.00  0.00    -0.020 A 
ATOM     23  H   LIG d   1       7.796   0.233  -7.287  0.00  0.00     0.062 H 
ATOM     24  C   LIG d   1       8.361   2.458  -4.811  0.00  0.00     0.120 A 
ATOM     25  H   LIG d   1       8.679   2.503  -6.930  0.00  0.00     0.065 H 
ATOM     26  C   LIG d   1       7.903   1.712  -3.736  0.00  0.00    -0.020 A 
ATOM     27  C   LIG d   1       7.403   0.440  -3.942  0.00  0.00    -0.054 A 
ATOM     28  H   LIG d   1       7.933   2.125  -2.738  0.00  0.00     0.065 H 
ATOM     29  H   LIG d   1       7.042  -0.140  -3.106  0.00  0.00     0.062 H 
BRANCH  24  30
ATOM     30  O   LIG d   1       8.849   3.710  -4.612  0.00  0.00    -0.495 OA
BRANCH  30  31
ATOM     31  C   LIG d   1       9.963   4.108  -5.414  0.00  0.00     0.079 C 
ATOM     32  H   LIG d   1      10.823   4.297  -4.772  0.00  0.00     0.066 H 
ATOM     33  H   LIG d   1      10.204   3.313  -6.120  0.00  0.00     0.066 H 
ATOM     34  H   LIG d   1       9.712   5.016  -5.961  0.00  0.00     0.066 H 
ENDBRANCH  30  31
ENDBRANCH  24  30
ENDBRANCH  17  20
ENDBRANCH  14  17
ENDBRANCH  10  13
ENDBRANCH   1  10
BRANCH   3  35
ATOM     35  O   LIG d   1       3.438  -3.428 -10.954  0.00  0.00    -0.387 OA
ATOM     36  H   LIG d   1       2.644  -3.953 -11.125  0.00  0.00     0.210 HD
ENDBRANCH   3  35
BRANCH   7  37
ATOM     37  C   LIG d   1       2.532   0.077  -7.773  0.00  0.00     0.041 C 
ATOM     38  H   LIG d   1       2.736   1.145  -7.857  0.00  0.00     0.049 H 
ATOM     39  H   LIG d   1       1.457  -0.093  -7.833  0.00  0.00     0.049 H 
BRANCH  37  40
ATOM     40  N   LIG d   1       3.033  -0.418  -6.489  0.00  0.00    -0.309 N 
ATOM     41  C   LIG d   1       2.988   0.372  -5.399  0.00  0.00     0.244 C 
ATOM     42  O   LIG d   1       2.532   1.496  -5.480  0.00  0.00    -0.270 OA
ATOM     43  H   LIG d   1       3.398  -1.314  -6.424  0.00  0.00     0.149 HD
BRANCH  41  44
ATOM     44  C   LIG d   1       3.496  -0.127  -4.102  0.00  0.00     0.039 A 
ATOM     45  C   LIG d   1       3.875   0.772  -3.106  0.00  0.00    -0.014 A 
ATOM     46  C   LIG d   1       4.348   0.298  -1.896  0.00  0.00     0.124 A 
ATOM     47  H   LIG d   1       3.800   1.835  -3.278  0.00  0.00     0.065 H 
ATOM     48  C   LIG d   1       4.443  -1.066  -1.674  0.00  0.00    -0.026 A 
ATOM     49  F   LIG d   1       4.715   1.166  -0.929  0.00  0.00    -0.205 F 
ATOM     50  C   LIG d   1       4.067  -1.962  -2.660  0.00  0.00    -0.058 A 
ATOM     51  H   LIG d   1       4.811  -1.433  -0.727  0.00  0.00     0.065 H 
ATOM     52  C   LIG d   1       3.590  -1.501  -3.869  0.00  0.00    -0.050 A 
ATOM     53  H   LIG d   1       4.144  -3.024  -2.480  0.00  0.00     0.062 H 
ATOM     54  H   LIG d   1       3.293  -2.201  -4.636  0.00  0.00     0.062 H 
ENDBRANCH  41  44
ENDBRANCH  37  40
ENDBRANCH   7  37
BRANCH   5  55
ATOM     55  O   LIG d   1       1.614  -1.737 -10.407  0.00  0.00    -0.387 OA
ATOM     56  H   LIG d   1       0.944  -1.053 -10.276  0.00  0.00     0.210 HD
ENDBRANCH   5  55
TORSDOF 11
ENDMDL
MODEL 3
REMARK VINA RESULT:      -6.1      6.152     10.275
REMARK  11 active torsions:
REMARK  status: ('A' for Active; 'I' for Inactive)
REMARK    1  A    between atoms: C_1  and  O_2 
REMARK    2  A    between atoms: O_2  and  C_3 
REMARK    3  A    between atoms: C_6  and  C_9 
REMARK    4  A    between atoms: C_9  and  N_10 
REMARK       I    between atoms: N_10  and  C_11 
REMARK    5  A    between atoms: C_11  and  C_13 
REMARK    6  A    between atoms: C_13  and  C_14 
REMARK    7  A    between atoms: C_16  and  O_35 
REMARK    8  A    between atoms: C_18  and  O_34 
REMARK    9  A    between atoms: C_20  and  C_23 
REMARK   10  A    between atoms: C_23  and  N_24 
REMARK       I    between atoms: N_24  and  C_25 
REMARK   11  A    between atoms: C_25  and  C_27 
ROOT
ATOM      1  C   LIG d   1      10.089   4.804  -4.327  0.00  0.00     0.096 C 
ATOM      2  H   LIG d   1      11.138   5.067  -4.474  0.00  0.00     0.063 H 
ATOM      3  C   LIG d   1       9.871   4.236  -2.908  0.00  0.00     0.110 C 
ATOM      4  H   LIG d   1       8.886   4.513  -2.532  0.00  0.00     0.065 H 
ATOM      5  C   LIG d   1       9.970   2.705  -3.097  0.00  0.00     0.111 C 
ATOM      6  H   LIG d   1       9.033   2.225  -2.816  0.00  0.00     0.065 H 
ATOM      7  C   LIG d   1      10.236   2.530  -4.609  0.00  0.00     0.103 C 
ATOM      8  H   LIG d   1      11.306   2.444  -4.797  0.00  0.00     0.064 H 
ATOM      9  O   LIG d   1       9.712   3.730  -5.217  0.00  0.00    -0.366 OA
ENDROOT
BRANCH   1  10
ATOM     10  C   LIG d   1       9.195   6.024  -4.557  0.00  0.00     0.053 C 
ATOM     11  H   LIG d   1       8.945   6.096  -5.615  0.00  0.00     0.038 H 
ATOM     12  H   LIG d   1       8.281   5.919  -3.973  0.00  0.00     0.038 H 
BRANCH  10  13
ATOM     13  C   LIG d   1       9.926   7.270  -4.127  0.00  0.00     0.216 C 
ATOM     14  N   LIG d   1       9.551   7.917  -3.006  0.00  0.00    -0.311 N 
ATOM     15  H   LIG d   1       8.811   7.581  -2.475  0.00  0.00     0.149 HD
ATOM     16  O   LIG d   1      10.850   7.691  -4.790  0.00  0.00    -0.276 OA
BRANCH  14  17
ATOM     17  C   LIG d   1      10.261   9.129  -2.588  0.00  0.00     0.037 C 
ATOM     18  H   LIG d   1      11.142   9.267  -3.214  0.00  0.00     0.051 H 
ATOM     19  H   LIG d   1       9.601   9.991  -2.693  0.00  0.00     0.051 H 
BRANCH  17  20
ATOM     20  C   LIG d   1      10.684   8.993  -1.148  0.00  0.00    -0.030 A 
ATOM     21  C   LIG d   1      10.878   7.737  -0.602  0.00  0.00    -0.054 A 
ATOM     22  C   LIG d   1      11.266   7.610   0.718  0.00  0.00    -0.020 A 
ATOM     23  H   LIG d   1      10.726   6.856  -1.207  0.00  0.00     0.062 H 
ATOM     24  C   LIG d   1      11.461   8.742   1.496  0.00  0.00     0.120 A 
ATOM     25  H   LIG d   1      11.417   6.629   1.145  0.00  0.00     0.065 H 
ATOM     26  C   LIG d   1      11.265  10.001   0.945  0.00  0.00    -0.020 A 
ATOM     27  C   LIG d   1      10.883  10.123  -0.377  0.00  0.00    -0.054 A 
ATOM     28  H   LIG d   1      11.416  10.884   1.548  0.00  0.00     0.065 H 
ATOM     29  H   LIG d   1      10.735  11.103  -0.808  0.00  0.00     0.062 H 
BRANCH  24  30
ATOM     30  O   LIG d   1      11.841   8.619   2.794  0.00  0.00    -0.495 OA
BRANCH  30  31
ATOM     31  C   LIG d   1      12.524   9.731   3.378  0.00  0.00     0.079 C 
ATOM     32  H   LIG d   1      13.457   9.905   2.842  0.00  0.00     0.066 H 
ATOM     33  H   LIG d   1      11.895  10.619   3.312  0.00  0.00     0.066 H 
ATOM     34  H   LIG d   1      12.741   9.515   4.424  0.00  0.00     0.066 H 
ENDBRANCH  30  31
ENDBRANCH  24  30
ENDBRANCH  17  20
ENDBRANCH  14  17
ENDBRANCH  10  13
ENDBRANCH   1  10
BRANCH   3  35
ATOM     35  O   LIG d   1      10.892   4.698  -2.021  0.00  0.00    -0.387 OA
ATOM     36  H   LIG d   1      10.645   5.482  -1.512  0.00  0.00     0.210 HD
ENDBRANCH   3  35
BRANCH   7  37
ATOM     37  C   LIG d   1       9.501   1.298  -5.140  0.00  0.00     0.041 C 
ATOM     38  H   LIG d   1       9.035   1.536  -6.097  0.00  0.00     0.049 H 
ATOM     39  H   LIG d   1      10.211   0.482  -5.275  0.00  0.00     0.049 H 
BRANCH  37  40
ATOM     40  N   LIG d   1       8.469   0.894  -4.182  0.00  0.00    -0.309 N 
ATOM     41  C   LIG d   1       7.208   0.674  -4.602  0.00  0.00     0.244 C 
ATOM     42  O   LIG d   1       6.926   0.811  -5.776  0.00  0.00    -0.270 OA
ATOM     43  H   LIG d   1       8.694   0.785  -3.244  0.00  0.00     0.149 HD
BRANCH  41  44
ATOM     44  C   LIG d   1       6.166   0.266  -3.634  0.00  0.00     0.039 A 
ATOM     45  C   LIG d   1       5.719  -1.055  -3.602  0.00  0.00    -0.014 A 
ATOM     46  C   LIG d   1       4.746  -1.428  -2.694  0.00  0.00     0.124 A 
ATOM     47  H   LIG d   1       6.133  -1.784  -4.282  0.00  0.00     0.065 H 
ATOM     48  C   LIG d   1       4.216  -0.493  -1.819  0.00  0.00    -0.026 A 
ATOM     49  F   LIG d   1       4.311  -2.707  -2.659  0.00  0.00    -0.205 F 
ATOM     50  C   LIG d   1       4.657   0.818  -1.848  0.00  0.00    -0.058 A 
ATOM     51  H   LIG d   1       3.457  -0.789  -1.111  0.00  0.00     0.065 H 
ATOM     52  C   LIG d   1       5.631   1.202  -2.746  0.00  0.00    -0.050 A 
ATOM     53  H   LIG d   1       4.239   1.542  -1.164  0.00  0.00     0.062 H 
ATOM     54  H   LIG d   1       5.977   2.224  -2.765  0.00  0.00     0.062 H 
ENDBRANCH  41  44
ENDBRANCH  37  40
ENDBRANCH   7  37
BRANCH   5  55
ATOM     55  O   LIG d   1      11.055   2.176  -2.332  0.00  0.00    -0.387 OA
ATOM     56  H   LIG d   1      11.881   2.670  -2.426  0.00  0.00     0.210 HD
ENDBRANCH   5  55
TORSDOF 11
ENDMDL
MODEL 4
REMARK VINA RESULT:      -6.0      1.959      2.894
REMARK  11 active torsions:
REMARK  status: ('A' for Active; 'I' for Inactive)
REMARK    1  A    between atoms: C_1  and  O_2 
REMARK    2  A    between atoms: O_2  and  C_3 
REMARK    3  A    between atoms: C_6  and  C_9 
REMARK    4  A    between atoms: C_9  and  N_10 
REMARK       I    between atoms: N_10  and  C_11 
REMARK    5  A    between atoms: C_11  and  C_13 
REMARK    6  A    between atoms: C_13  and  C_14 
REMARK    7  A    between atoms: C_16  and  O_35 
REMARK    8  A    between atoms: C_18  and  O_34 
REMARK    9  A    between atoms: C_20  and  C_23 
REMARK   10  A    between atoms: C_23  and  N_24 
REMARK       I    between atoms: N_24  and  C_25 
REMARK   11  A    between atoms: C_25  and  C_27 
ROOT
ATOM      1  C   LIG d   1       5.427  -1.183  -9.521  0.00  0.00     0.096 C 
ATOM      2  H   LIG d   1       5.287  -1.106 -10.600  0.00  0.00     0.063 H 
ATOM      3  C   LIG d   1       4.857  -2.520  -9.000  0.00  0.00     0.110 C 
ATOM      4  H   LIG d   1       5.451  -2.888  -8.163  0.00  0.00     0.065 H 
ATOM      5  C   LIG d   1       3.427  -2.165  -8.537  0.00  0.00     0.111 C 
ATOM      6  H   LIG d   1       3.312  -2.355  -7.470  0.00  0.00     0.065 H 
ATOM      7  C   LIG d   1       3.301  -0.654  -8.834  0.00  0.00     0.103 C 
ATOM      8  H   LIG d   1       2.835  -0.496  -9.807  0.00  0.00     0.064 H 
ATOM      9  O   LIG d   1       4.659  -0.165  -8.842  0.00  0.00    -0.366 OA
ENDROOT
BRANCH   1  10
ATOM     10  C   LIG d   1       6.909  -1.058  -9.165  0.00  0.00     0.053 C 
ATOM     11  H   LIG d   1       7.475  -1.823  -9.696  0.00  0.00     0.038 H 
ATOM     12  H   LIG d   1       7.270  -0.071  -9.455  0.00  0.00     0.038 H 
BRANCH  10  13
ATOM     13  C   LIG d   1       7.086  -1.242  -7.680  0.00  0.00     0.216 C 
ATOM     14  N   LIG d   1       6.684  -0.277  -6.829  0.00  0.00    -0.311 N 
ATOM     15  H   LIG d   1       6.282   0.536  -7.173  0.00  0.00     0.149 HD
ATOM     16  O   LIG d   1       7.590  -2.258  -7.250  0.00  0.00    -0.276 OA
BRANCH  14  17
ATOM     17  C   LIG d   1       6.857  -0.455  -5.385  0.00  0.00     0.037 C 
ATOM     18  H   LIG d   1       5.932  -0.188  -4.874  0.00  0.00     0.051 H 
ATOM     19  H   LIG d   1       7.102  -1.496  -5.174  0.00  0.00     0.051 H 
BRANCH  17  20
ATOM     20  C   LIG d   1       7.974   0.432  -4.899  0.00  0.00    -0.030 A 
ATOM     21  C   LIG d   1       7.689   1.533  -4.112  0.00  0.00    -0.054 A 
ATOM     22  C   LIG d   1       8.712   2.347  -3.665  0.00  0.00    -0.020 A 
ATOM     23  H   LIG d   1       6.666   1.755  -3.846  0.00  0.00     0.062 H 
ATOM     24  C   LIG d   1      10.025   2.061  -4.008  0.00  0.00     0.120 A 
ATOM     25  H   LIG d   1       8.488   3.207  -3.051  0.00  0.00     0.065 H 
ATOM     26  C   LIG d   1      10.308   0.957  -4.799  0.00  0.00    -0.020 A 
ATOM     27  C   LIG d   1       9.283   0.141  -5.238  0.00  0.00    -0.054 A 
ATOM     28  H   LIG d   1      11.330   0.732  -5.067  0.00  0.00     0.065 H 
ATOM     29  H   LIG d   1       9.503  -0.721  -5.849  0.00  0.00     0.062 H 
BRANCH  24  30
ATOM     30  O   LIG d   1      11.032   2.861  -3.571  0.00  0.00    -0.495 OA
BRANCH  30  31
ATOM     31  C   LIG d   1      10.741   3.727  -2.471  0.00  0.00     0.079 C 
ATOM     32  H   LIG d   1      11.391   4.600  -2.515  0.00  0.00     0.066 H 
ATOM     33  H   LIG d   1       9.700   4.045  -2.524  0.00  0.00     0.066 H 
ATOM     34  H   LIG d   1      10.912   3.194  -1.536  0.00  0.00     0.066 H 
ENDBRANCH  30  31
ENDBRANCH  24  30
ENDBRANCH  17  20
ENDBRANCH  14  17
ENDBRANCH  10  13
ENDBRANCH   1  10
BRANCH   3  35
ATOM     35  O   LIG d   1       4.818  -3.491 -10.048  0.00  0.00    -0.387 OA
ATOM     36  H   LIG d   1       4.985  -3.126 -10.928  0.00  0.00     0.210 HD
ENDBRANCH   3  35
BRANCH   7  37
ATOM     37  C   LIG d   1       2.491   0.039  -7.737  0.00  0.00     0.041 C 
ATOM     38  H   LIG d   1       2.590   1.120  -7.838  0.00  0.00     0.049 H 
ATOM     39  H   LIG d   1       1.441  -0.239  -7.831  0.00  0.00     0.049 H 
BRANCH  37  40
ATOM     40  N   LIG d   1       2.989  -0.378  -6.424  0.00  0.00    -0.309 N 
ATOM     41  C   LIG d   1       2.964   0.484  -5.389  0.00  0.00     0.244 C 
ATOM     42  O   LIG d   1       2.529   1.608  -5.544  0.00  0.00    -0.270 OA
ATOM     43  H   LIG d   1       3.337  -1.275  -6.300  0.00  0.00     0.149 HD
BRANCH  41  44
ATOM     44  C   LIG d   1       3.468   0.063  -4.063  0.00  0.00     0.039 A 
ATOM     45  C   LIG d   1       3.332  -1.262  -3.651  0.00  0.00    -0.014 A 
ATOM     46  C   LIG d   1       3.806  -1.648  -2.411  0.00  0.00     0.124 A 
ATOM     47  H   LIG d   1       2.858  -1.985  -4.298  0.00  0.00     0.065 H 
ATOM     48  C   LIG d   1       4.415  -0.721  -1.581  0.00  0.00    -0.026 A 
ATOM     49  F   LIG d   1       3.676  -2.931  -2.008  0.00  0.00    -0.205 F 
ATOM     50  C   LIG d   1       4.553   0.595  -1.987  0.00  0.00    -0.058 A 
ATOM     51  H   LIG d   1       4.785  -1.026  -0.614  0.00  0.00     0.065 H 
ATOM     52  C   LIG d   1       4.088   0.991  -3.223  0.00  0.00    -0.050 A 
ATOM     53  H   LIG d   1       5.028   1.312  -1.335  0.00  0.00     0.062 H 
ATOM     54  H   LIG d   1       4.199   2.017  -3.540  0.00  0.00     0.062 H 
ENDBRANCH  41  44
ENDBRANCH  37  40
ENDBRANCH   7  37
BRANCH   5  55
ATOM     55  O   LIG d   1       2.460  -2.905  -9.286  0.00  0.00    -0.387 OA
ATOM     56  H   LIG d   1       2.690  -3.022 -10.218  0.00  0.00     0.210 HD
ENDBRANCH   5  55
TORSDOF 11
ENDMDL
MODEL 5
REMARK VINA RESULT:      -5.9      1.825      3.956
REMARK  11 active torsions:
REMARK  status: ('A' for Active; 'I' for Inactive)
REMARK    1  A    between atoms: C_1  and  O_2 
REMARK    2  A    between atoms: O_2  and  C_3 
REMARK    3  A    between atoms: C_6  and  C_9 
REMARK    4  A    between atoms: C_9  and  N_10 
REMARK       I    between atoms: N_10  and  C_11 
REMARK    5  A    between atoms: C_11  and  C_13 
REMARK    6  A    between atoms: C_13  and  C_14 
REMARK    7  A    between atoms: C_16  and  O_35 
REMARK    8  A    between atoms: C_18  and  O_34 
REMARK    9  A    between atoms: C_20  and  C_23 
REMARK   10  A    between atoms: C_23  and  N_24 
REMARK       I    between atoms: N_24  and  C_25 
REMARK   11  A    between atoms: C_25  and  C_27 
ROOT
ATOM      1  C   LIG d   1       5.964   0.472  -8.845  0.00  0.00     0.096 C 
ATOM      2  H   LIG d   1       6.010   1.057  -9.764  0.00  0.00     0.063 H 
ATOM      3  C   LIG d   1       5.718  -1.018  -9.168  0.00  0.00     0.110 C 
ATOM      4  H   LIG d   1       6.227  -1.655  -8.445  0.00  0.00     0.065 H 
ATOM      5  C   LIG d   1       4.186  -1.180  -9.052  0.00  0.00     0.111 C 
ATOM      6  H   LIG d   1       3.936  -1.896  -8.269  0.00  0.00     0.065 H 
ATOM      7  C   LIG d   1       3.688   0.232  -8.672  0.00  0.00     0.103 C 
ATOM      8  H   LIG d   1       3.384   0.780  -9.564  0.00  0.00     0.064 H 
ATOM      9  O   LIG d   1       4.824   0.870  -8.052  0.00  0.00    -0.366 OA
ENDROOT
BRANCH   1  10
ATOM     10  C   LIG d   1       7.256   0.638  -8.042  0.00  0.00     0.053 C 
ATOM     11  H   LIG d   1       8.085   0.197  -8.594  0.00  0.00     0.038 H 
ATOM     12  H   LIG d   1       7.449   1.699  -7.881  0.00  0.00     0.038 H 
BRANCH  10  13
ATOM     13  C   LIG d   1       7.112  -0.055  -6.711  0.00  0.00     0.216 C 
ATOM     14  N   LIG d   1       7.664  -1.270  -6.522  0.00  0.00    -0.311 N 
ATOM     15  H   LIG d   1       8.152  -1.699  -7.243  0.00  0.00     0.149 HD
ATOM     16  O   LIG d   1       6.502   0.481  -5.811  0.00  0.00    -0.276 OA
BRANCH  14  17
ATOM     17  C   LIG d   1       7.524  -1.944  -5.228  0.00  0.00     0.037 C 
ATOM     18  H   LIG d   1       8.512  -2.204  -4.847  0.00  0.00     0.051 H 
ATOM     19  H   LIG d   1       7.026  -1.279  -4.524  0.00  0.00     0.051 H 
BRANCH  17  20
ATOM     20  C   LIG d   1       6.706  -3.198  -5.401  0.00  0.00    -0.030 A 
ATOM     21  C   LIG d   1       7.327  -4.433  -5.406  0.00  0.00    -0.054 A 
ATOM     22  C   LIG d   1       6.578  -5.583  -5.564  0.00  0.00    -0.020 A 
ATOM     23  H   LIG d   1       8.399  -4.498  -5.287  0.00  0.00     0.062 H 
ATOM     24  C   LIG d   1       5.202  -5.498  -5.718  0.00  0.00     0.120 A 
ATOM     25  H   LIG d   1       7.064  -6.548  -5.569  0.00  0.00     0.065 H 
ATOM     26  C   LIG d   1       4.581  -4.258  -5.712  0.00  0.00    -0.020 A 
ATOM     27  C   LIG d   1       5.333  -3.111  -5.548  0.00  0.00    -0.054 A 
ATOM     28  H   LIG d   1       3.510  -4.189  -5.832  0.00  0.00     0.065 H 
ATOM     29  H   LIG d   1       4.850  -2.145  -5.539  0.00  0.00     0.062 H 
BRANCH  24  30
ATOM     30  O   LIG d   1       4.465  -6.628  -5.874  0.00  0.00    -0.495 OA
BRANCH  30  31
ATOM     31  C   LIG d   1       4.981  -7.826  -5.290  0.00  0.00     0.079 C 
ATOM     32  H   LIG d   1       5.726  -8.262  -5.955  0.00  0.00     0.066 H 
ATOM     33  H   LIG d   1       5.443  -7.592  -4.330  0.00  0.00     0.066 H 
ATOM     34  H   LIG d   1       4.169  -8.536  -5.139  0.00  0.00     0.066 H 
ENDBRANCH  30  31
ENDBRANCH  24  30
ENDBRANCH  17  20
ENDBRANCH  14  17
ENDBRANCH  10  13
ENDBRANCH   1  10
BRANCH   3  35
ATOM     35  O   LIG d   1       6.154  -1.322 -10.495  0.00  0.00    -0.387 OA
ATOM     36  H   LIG d   1       6.721  -2.103 -10.553  0.00  0.00     0.210 HD
ENDBRANCH   3  35
BRANCH   7  37
ATOM     37  C   LIG d   1       2.524   0.138  -7.683  0.00  0.00     0.041 C 
ATOM     38  H   LIG d   1       2.057   1.118  -7.575  0.00  0.00     0.049 H 
ATOM     39  H   LIG d   1       1.788  -0.575  -8.055  0.00  0.00     0.049 H 
BRANCH  37  40
ATOM     40  N   LIG d   1       3.023  -0.310  -6.381  0.00  0.00    -0.309 N 
ATOM     41  C   LIG d   1       2.956   0.509  -5.314  0.00  0.00     0.244 C 
ATOM     42  O   LIG d   1       2.481   1.622  -5.431  0.00  0.00    -0.270 OA
ATOM     43  H   LIG d   1       3.403  -1.198  -6.287  0.00  0.00     0.149 HD
BRANCH  41  44
ATOM     44  C   LIG d   1       3.462   0.056  -4.000  0.00  0.00     0.039 A 
ATOM     45  C   LIG d   1       3.306  -1.274  -3.611  0.00  0.00    -0.014 A 
ATOM     46  C   LIG d   1       3.782  -1.690  -2.381  0.00  0.00     0.124 A 
ATOM     47  H   LIG d   1       2.817  -1.978  -4.267  0.00  0.00     0.065 H 
ATOM     48  C   LIG d   1       4.411  -0.788  -1.538  0.00  0.00    -0.026 A 
ATOM     49  F   LIG d   1       3.634  -2.978  -2.001  0.00  0.00    -0.205 F 
ATOM     50  C   LIG d   1       4.567   0.532  -1.921  0.00  0.00    -0.058 A 
ATOM     51  H   LIG d   1       4.782  -1.117  -0.579  0.00  0.00     0.065 H 
ATOM     52  C   LIG d   1       4.101   0.958  -3.147  0.00  0.00    -0.050 A 
ATOM     53  H   LIG d   1       5.058   1.230  -1.259  0.00  0.00     0.062 H 
ATOM     54  H   LIG d   1       4.227   1.988  -3.445  0.00  0.00     0.062 H 
ENDBRANCH  41  44
ENDBRANCH  37  40
ENDBRANCH   7  37
BRANCH   5  55
ATOM     55  O   LIG d   1       3.629  -1.588 -10.303  0.00  0.00    -0.387 OA
ATOM     56  H   LIG d   1       4.261  -1.584 -11.035  0.00  0.00     0.210 HD
ENDBRANCH   5  55
TORSDOF 11
ENDMDL
MODEL 6
REMARK VINA RESULT:      -5.9      6.928     10.740
REMARK  11 active torsions:
REMARK  status: ('A' for Active; 'I' for Inactive)
REMARK    1  A    between atoms: C_1  and  O_2 
REMARK    2  A    between atoms: O_2  and  C_3 
REMARK    3  A    between atoms: C_6  and  C_9 
REMARK    4  A    between atoms: C_9  and  N_10 
REMARK       I    between atoms: N_10  and  C_11 
REMARK    5  A    between atoms: C_11  and  C_13 
REMARK    6  A    between atoms: C_13  and  C_14 
REMARK    7  A    between atoms: C_16  and  O_35 
REMARK    8  A    between atoms: C_18  and  O_34 
REMARK    9  A    between atoms: C_20  and  C_23 
REMARK   10  A    between atoms: C_23  and  N_24 
REMARK       I    between atoms: N_24  and  C_25 
REMARK   11  A    between atoms: C_25  and  C_27 
ROOT
ATOM      1  C   LIG d   1      10.130   4.889  -4.359  0.00  0.00     0.096 C 
ATOM      2  H   LIG d   1      11.192   5.124  -4.436  0.00  0.00     0.063 H 
ATOM      3  C   LIG d   1       9.792   4.394  -2.935  0.00  0.00     0.110 C 
ATOM      4  H   LIG d   1       8.788   4.709  -2.650  0.00  0.00     0.065 H 
ATOM      5  C   LIG d   1       9.868   2.854  -3.046  0.00  0.00     0.111 C 
ATOM      6  H   LIG d   1       8.901   2.407  -2.816  0.00  0.00     0.065 H 
ATOM      7  C   LIG d   1      10.243   2.603  -4.523  0.00  0.00     0.103 C 
ATOM      8  H   LIG d   1      11.323   2.486  -4.625  0.00  0.00     0.064 H 
ATOM      9  O   LIG d   1       9.796   3.782  -5.224  0.00  0.00    -0.366 OA
ENDROOT
BRANCH   1  10
ATOM     10  C   LIG d   1       9.285   6.115  -4.712  0.00  0.00     0.053 C 
ATOM     11  H   LIG d   1       9.089   6.124  -5.783  0.00  0.00     0.038 H 
ATOM     12  H   LIG d   1       8.341   6.073  -4.169  0.00  0.00     0.038 H 
BRANCH  10  13
ATOM     13  C   LIG d   1      10.031   7.367  -4.327  0.00  0.00     0.216 C 
ATOM     14  N   LIG d   1       9.430   8.569  -4.436  0.00  0.00    -0.311 N 
ATOM     15  H   LIG d   1       8.518   8.628  -4.763  0.00  0.00     0.149 HD
ATOM     16  O   LIG d   1      11.170   7.294  -3.919  0.00  0.00    -0.276 OA
BRANCH  14  17
ATOM     17  C   LIG d   1      10.155   9.786  -4.063  0.00  0.00     0.037 C 
ATOM     18  H   LIG d   1       9.789  10.145  -3.101  0.00  0.00     0.051 H 
ATOM     19  H   LIG d   1      11.220   9.567  -3.988  0.00  0.00     0.051 H 
BRANCH  17  20
ATOM     20  C   LIG d   1       9.933  10.845  -5.112  0.00  0.00    -0.030 A 
ATOM     21  C   LIG d   1       9.486  12.100  -4.743  0.00  0.00    -0.054 A 
ATOM     22  C   LIG d   1       9.283  13.072  -5.705  0.00  0.00    -0.020 A 
ATOM     23  H   LIG d   1       9.296  12.321  -3.703  0.00  0.00     0.062 H 
ATOM     24  C   LIG d   1       9.526  12.787  -7.040  0.00  0.00     0.120 A 
ATOM     25  H   LIG d   1       8.933  14.052  -5.416  0.00  0.00     0.065 H 
ATOM     26  C   LIG d   1       9.974  11.527  -7.408  0.00  0.00    -0.020 A 
ATOM     27  C   LIG d   1      10.182  10.560  -6.443  0.00  0.00    -0.054 A 
ATOM     28  H   LIG d   1      10.164  11.302  -8.447  0.00  0.00     0.065 H 
ATOM     29  H   LIG d   1      10.536   9.580  -6.727  0.00  0.00     0.062 H 
BRANCH  24  30
ATOM     30  O   LIG d   1       9.325  13.740  -7.986  0.00  0.00    -0.495 OA
BRANCH  30  31
ATOM     31  C   LIG d   1      10.489  14.329  -8.571  0.00  0.00     0.079 C 
ATOM     32  H   LIG d   1      10.613  13.955  -9.587  0.00  0.00     0.066 H 
ATOM     33  H   LIG d   1      10.375  15.413  -8.594  0.00  0.00     0.066 H 
ATOM     34  H   LIG d   1      11.365  14.068  -7.979  0.00  0.00     0.066 H 
ENDBRANCH  30  31
ENDBRANCH  24  30
ENDBRANCH  17  20
ENDBRANCH  14  17
ENDBRANCH  10  13
ENDBRANCH   1  10
BRANCH   3  35
ATOM     35  O   LIG d   1      10.753   4.876  -1.995  0.00  0.00    -0.387 OA
ATOM     36  H   LIG d   1      10.395   5.507  -1.355  0.00  0.00     0.210 HD
ENDBRANCH   3  35
BRANCH   7  37
ATOM     37  C   LIG d   1       9.521   1.362  -5.052  0.00  0.00     0.041 C 
ATOM     38  H   LIG d   1       9.072   1.586  -6.020  0.00  0.00     0.049 H 
ATOM     39  H   LIG d   1      10.236   0.547  -5.165  0.00  0.00     0.049 H 
BRANCH  37  40
ATOM     40  N   LIG d   1       8.475   0.965  -4.107  0.00  0.00    -0.309 N 
ATOM     41  C   LIG d   1       7.237   0.677  -4.554  0.00  0.00     0.244 C 
ATOM     42  O   LIG d   1       6.988   0.746  -5.742  0.00  0.00    -0.270 OA
ATOM     43  H   LIG d   1       8.673   0.910  -3.159  0.00  0.00     0.149 HD
BRANCH  41  44
ATOM     44  C   LIG d   1       6.180   0.278  -3.600  0.00  0.00     0.039 A 
ATOM     45  C   LIG d   1       5.728  -1.042  -3.568  0.00  0.00    -0.014 A 
ATOM     46  C   LIG d   1       4.740  -1.407  -2.672  0.00  0.00     0.124 A 
ATOM     47  H   LIG d   1       6.149  -1.775  -4.239  0.00  0.00     0.065 H 
ATOM     48  C   LIG d   1       4.201  -0.467  -1.810  0.00  0.00    -0.026 A 
ATOM     49  F   LIG d   1       4.301  -2.685  -2.638  0.00  0.00    -0.205 F 
ATOM     50  C   LIG d   1       4.647   0.842  -1.839  0.00  0.00    -0.058 A 
ATOM     51  H   LIG d   1       3.430  -0.757  -1.112  0.00  0.00     0.065 H 
ATOM     52  C   LIG d   1       5.635   1.219  -2.724  0.00  0.00    -0.050 A 
ATOM     53  H   LIG d   1       4.221   1.571  -1.164  0.00  0.00     0.062 H 
ATOM     54  H   LIG d   1       5.984   2.241  -2.743  0.00  0.00     0.062 H 
ENDBRANCH  41  44
ENDBRANCH  37  40
ENDBRANCH   7  37
BRANCH   5  55
ATOM     55  O   LIG d   1      10.879   2.340  -2.177  0.00  0.00    -0.387 OA
ATOM     56  H   LIG d   1      10.676   1.469  -1.810  0.00  0.00     0.210 HD
ENDBRANCH   5  55
TORSDOF 11
ENDMDL
MODEL 7
REMARK VINA RESULT:      -5.8      5.439      9.481
REMARK  11 active torsions:
REMARK  status: ('A' for Active; 'I' for Inactive)
REMARK    1  A    between atoms: C_1  and  O_2 
REMARK    2  A    between atoms: O_2  and  C_3 
REMARK    3  A    between atoms: C_6  and  C_9 
REMARK    4  A    between atoms: C_9  and  N_10 
REMARK       I    between atoms: N_10  and  C_11 
REMARK    5  A    between atoms: C_11  and  C_13 
REMARK    6  A    between atoms: C_13  and  C_14 
REMARK    7  A    between atoms: C_16  and  O_35 
REMARK    8  A    between atoms: C_18  and  O_34 
REMARK    9  A    between atoms: C_20  and  C_23 
REMARK   10  A    between atoms: C_23  and  N_24 
REMARK       I    between atoms: N_24  and  C_25 
REMARK   11  A    between atoms: C_25  and  C_27 
ROOT
ATOM      1  C   LIG d   1      10.271   4.798  -3.679  0.00  0.00     0.096 C 
ATOM      2  H   LIG d   1      11.286   4.958  -4.044  0.00  0.00     0.063 H 
ATOM      3  C   LIG d   1      10.241   3.627  -2.673  0.00  0.00     0.110 C 
ATOM      4  H   LIG d   1       9.490   3.805  -1.902  0.00  0.00     0.065 H 
ATOM      5  C   LIG d   1       9.857   2.402  -3.533  0.00  0.00     0.111 C 
ATOM      6  H   LIG d   1       8.916   1.974  -3.189  0.00  0.00     0.065 H 
ATOM      7  C   LIG d   1       9.701   2.978  -4.958  0.00  0.00     0.103 C 
ATOM      8  H   LIG d   1      10.629   2.859  -5.518  0.00  0.00     0.064 H 
ATOM      9  O   LIG d   1       9.410   4.378  -4.760  0.00  0.00    -0.366 OA
ENDROOT
BRANCH   1  10
ATOM     10  C   LIG d   1       9.729   6.073  -3.031  0.00  0.00     0.053 C 
ATOM     11  H   LIG d   1       8.675   5.938  -2.789  0.00  0.00     0.038 H 
ATOM     12  H   LIG d   1      10.288   6.282  -2.118  0.00  0.00     0.038 H 
BRANCH  10  13
ATOM     13  C   LIG d   1       9.881   7.227  -3.988  0.00  0.00     0.216 C 
ATOM     14  N   LIG d   1       9.061   7.331  -5.053  0.00  0.00    -0.311 N 
ATOM     15  H   LIG d   1       8.374   6.663  -5.204  0.00  0.00     0.149 HD
ATOM     16  O   LIG d   1      10.740   8.062  -3.801  0.00  0.00    -0.276 OA
BRANCH  14  17
ATOM     17  C   LIG d   1       9.210   8.453  -5.985  0.00  0.00     0.037 C 
ATOM     18  H   LIG d   1       8.288   9.035  -6.000  0.00  0.00     0.051 H 
ATOM     19  H   LIG d   1      10.035   9.087  -5.661  0.00  0.00     0.051 H 
BRANCH  17  20
ATOM     20  C   LIG d   1       9.493   7.924  -7.367  0.00  0.00    -0.030 A 
ATOM     21  C   LIG d   1       9.566   6.560  -7.582  0.00  0.00    -0.054 A 
ATOM     22  C   LIG d   1       9.825   6.073  -8.849  0.00  0.00    -0.020 A 
ATOM     23  H   LIG d   1       9.421   5.875  -6.760  0.00  0.00     0.062 H 
ATOM     24  C   LIG d   1      10.012   6.953  -9.905  0.00  0.00     0.120 A 
ATOM     25  H   LIG d   1       9.883   5.008  -9.017  0.00  0.00     0.065 H 
ATOM     26  C   LIG d   1       9.938   8.321  -9.686  0.00  0.00    -0.020 A 
ATOM     27  C   LIG d   1       9.673   8.803  -8.419  0.00  0.00    -0.054 A 
ATOM     28  H   LIG d   1      10.084   9.008 -10.506  0.00  0.00     0.065 H 
ATOM     29  H   LIG d   1       9.611   9.868  -8.248  0.00  0.00     0.062 H 
BRANCH  24  30
ATOM     30  O   LIG d   1      10.268   6.476 -11.151  0.00  0.00    -0.495 OA
BRANCH  30  31
ATOM     31  C   LIG d   1       9.148   6.300 -12.021  0.00  0.00     0.079 C 
ATOM     32  H   LIG d   1       8.831   5.258 -11.998  0.00  0.00     0.066 H 
ATOM     33  H   LIG d   1       8.327   6.938 -11.690  0.00  0.00     0.066 H 
ATOM     34  H   LIG d   1       9.432   6.571 -13.037  0.00  0.00     0.066 H 
ENDBRANCH  30  31
ENDBRANCH  24  30
ENDBRANCH  17  20
ENDBRANCH  14  17
ENDBRANCH  10  13
ENDBRANCH   1  10
BRANCH   3  35
ATOM     35  O   LIG d   1      11.528   3.440  -2.081  0.00  0.00    -0.387 OA
ATOM     36  H   LIG d   1      12.222   3.991  -2.469  0.00  0.00     0.210 HD
ENDBRANCH   3  35
BRANCH   7  37
ATOM     37  C   LIG d   1       8.546   2.290  -5.687  0.00  0.00     0.041 C 
ATOM     38  H   LIG d   1       8.116   2.976  -6.418  0.00  0.00     0.049 H 
ATOM     39  H   LIG d   1       8.917   1.402  -6.198  0.00  0.00     0.049 H 
BRANCH  37  40
ATOM     40  N   LIG d   1       7.518   1.902  -4.718  0.00  0.00    -0.309 N 
ATOM     41  C   LIG d   1       7.137   0.614  -4.620  0.00  0.00     0.244 C 
ATOM     42  O   LIG d   1       7.645  -0.227  -5.335  0.00  0.00    -0.270 OA
ATOM     43  H   LIG d   1       7.112   2.573  -4.148  0.00  0.00     0.149 HD
BRANCH  41  44
ATOM     44  C   LIG d   1       6.098   0.222  -3.642  0.00  0.00     0.039 A 
ATOM     45  C   LIG d   1       5.643  -1.096  -3.595  0.00  0.00    -0.014 A 
ATOM     46  C   LIG d   1       4.673  -1.454  -2.677  0.00  0.00     0.124 A 
ATOM     47  H   LIG d   1       6.047  -1.834  -4.271  0.00  0.00     0.065 H 
ATOM     48  C   LIG d   1       4.155  -0.509  -1.809  0.00  0.00    -0.026 A 
ATOM     49  F   LIG d   1       4.230  -2.730  -2.628  0.00  0.00    -0.205 F 
ATOM     50  C   LIG d   1       4.604   0.799  -1.852  0.00  0.00    -0.058 A 
ATOM     51  H   LIG d   1       3.398  -0.793  -1.093  0.00  0.00     0.065 H 
ATOM     52  C   LIG d   1       5.575   1.169  -2.759  0.00  0.00    -0.050 A 
ATOM     53  H   LIG d   1       4.196   1.532  -1.172  0.00  0.00     0.062 H 
ATOM     54  H   LIG d   1       5.927   2.189  -2.790  0.00  0.00     0.062 H 
ENDBRANCH  41  44
ENDBRANCH  37  40
ENDBRANCH   7  37
BRANCH   5  55
ATOM     55  O   LIG d   1      10.897   1.422  -3.499  0.00  0.00    -0.387 OA
ATOM     56  H   LIG d   1      11.731   1.720  -3.887  0.00  0.00     0.210 HD
ENDBRANCH   5  55
TORSDOF 11
ENDMDL
MODEL 8
REMARK VINA RESULT:      -5.7      3.680      7.312
REMARK  11 active torsions:
REMARK  status: ('A' for Active; 'I' for Inactive)
REMARK    1  A    between atoms: C_1  and  O_2 
REMARK    2  A    between atoms: O_2  and  C_3 
REMARK    3  A    between atoms: C_6  and  C_9 
REMARK    4  A    between atoms: C_9  and  N_10 
REMARK       I    between atoms: N_10  and  C_11 
REMARK    5  A    between atoms: C_11  and  C_13 
REMARK    6  A    between atoms: C_13  and  C_14 
REMARK    7  A    between atoms: C_16  and  O_35 
REMARK    8  A    between atoms: C_18  and  O_34 
REMARK    9  A    between atoms: C_20  and  C_23 
REMARK   10  A    between atoms: C_23  and  N_24 
REMARK       I    between atoms: N_24  and  C_25 
REMARK   11  A    between atoms: C_25  and  C_27 
ROOT
ATOM      1  C   LIG d   1       3.089  -1.168 -10.813  0.00  0.00     0.096 C 
ATOM      2  H   LIG d   1       3.996  -1.771 -10.769  0.00  0.00     0.063 H 
ATOM      3  C   LIG d   1       3.434   0.299 -11.153  0.00  0.00     0.110 C 
ATOM      4  H   LIG d   1       2.644   0.747 -11.756  0.00  0.00     0.065 H 
ATOM      5  C   LIG d   1       3.528   0.992  -9.776  0.00  0.00     0.111 C 
ATOM      6  H   LIG d   1       2.783   1.784  -9.695  0.00  0.00     0.065 H 
ATOM      7  C   LIG d   1       3.228  -0.138  -8.766  0.00  0.00     0.103 C 
ATOM      8  H   LIG d   1       4.157  -0.583  -8.408  0.00  0.00     0.064 H 
ATOM      9  O   LIG d   1       2.462  -1.107  -9.513  0.00  0.00    -0.366 OA
ENDROOT
BRANCH   1  10
ATOM     10  C   LIG d   1       2.117  -1.741 -11.847  0.00  0.00     0.053 C 
ATOM     11  H   LIG d   1       1.227  -1.113 -11.894  0.00  0.00     0.038 H 
ATOM     12  H   LIG d   1       2.599  -1.763 -12.824  0.00  0.00     0.038 H 
BRANCH  10  13
ATOM     13  C   LIG d   1       1.725  -3.140 -11.447  0.00  0.00     0.216 C 
ATOM     14  N   LIG d   1       0.544  -3.360 -10.835  0.00  0.00    -0.311 N 
ATOM     15  H   LIG d   1      -0.054  -2.617 -10.652  0.00  0.00     0.149 HD
ATOM     16  O   LIG d   1       2.471  -4.067 -11.675  0.00  0.00    -0.276 OA
BRANCH  14  17
ATOM     17  C   LIG d   1       0.163  -4.720 -10.446  0.00  0.00     0.037 C 
ATOM     18  H   LIG d   1       0.695  -5.438 -11.070  0.00  0.00     0.051 H 
ATOM     19  H   LIG d   1       0.423  -4.885  -9.400  0.00  0.00     0.051 H 
BRANCH  17  20
ATOM     20  C   LIG d   1      -1.322  -4.898 -10.629  0.00  0.00    -0.030 A 
ATOM     21  C   LIG d   1      -2.081  -5.454  -9.617  0.00  0.00    -0.054 A 
ATOM     22  C   LIG d   1      -3.443  -5.617  -9.783  0.00  0.00    -0.020 A 
ATOM     23  H   LIG d   1      -1.609  -5.762  -8.695  0.00  0.00     0.062 H 
ATOM     24  C   LIG d   1      -4.049  -5.222 -10.967  0.00  0.00     0.120 A 
ATOM     25  H   LIG d   1      -4.036  -6.053  -8.992  0.00  0.00     0.065 H 
ATOM     26  C   LIG d   1      -3.285  -4.665 -11.982  0.00  0.00    -0.020 A 
ATOM     27  C   LIG d   1      -1.924  -4.498 -11.809  0.00  0.00    -0.054 A 
ATOM     28  H   LIG d   1      -3.753  -4.357 -12.905  0.00  0.00     0.065 H 
ATOM     29  H   LIG d   1      -1.329  -4.059 -12.596  0.00  0.00     0.062 H 
BRANCH  24  30
ATOM     30  O   LIG d   1      -5.387  -5.383 -11.133  0.00  0.00    -0.495 OA
BRANCH  30  31
ATOM     31  C   LIG d   1      -5.824  -6.604 -11.736  0.00  0.00     0.079 C 
ATOM     32  H   LIG d   1      -6.914  -6.624 -11.764  0.00  0.00     0.066 H 
ATOM     33  H   LIG d   1      -5.432  -6.668 -12.751  0.00  0.00     0.066 H 
ATOM     34  H   LIG d   1      -5.461  -7.448 -11.151  0.00  0.00     0.066 H 
ENDBRANCH  30  31
ENDBRANCH  24  30
ENDBRANCH  17  20
ENDBRANCH  14  17
ENDBRANCH  10  13
ENDBRANCH   1  10
BRANCH   3  35
ATOM     35  O   LIG d   1       4.686   0.373 -11.838  0.00  0.00    -0.387 OA
ATOM     36  H   LIG d   1       5.457   0.314 -11.256  0.00  0.00     0.210 HD
ENDBRANCH   3  35
BRANCH   7  37
ATOM     37  C   LIG d   1       2.408   0.400  -7.592  0.00  0.00     0.041 C 
ATOM     38  H   LIG d   1       2.460   1.489  -7.580  0.00  0.00     0.049 H 
ATOM     39  H   LIG d   1       1.369   0.088  -7.702  0.00  0.00     0.049 H 
BRANCH  37  40
ATOM     40  N   LIG d   1       2.945  -0.129  -6.337  0.00  0.00    -0.309 N 
ATOM     41  C   LIG d   1       2.902   0.618  -5.216  0.00  0.00     0.244 C 
ATOM     42  O   LIG d   1       2.416   1.732  -5.247  0.00  0.00    -0.270 OA
ATOM     43  H   LIG d   1       3.334  -1.018  -6.312  0.00  0.00     0.149 HD
BRANCH  41  44
ATOM     44  C   LIG d   1       3.445   0.083  -3.949  0.00  0.00     0.039 A 
ATOM     45  C   LIG d   1       3.296  -1.268  -3.638  0.00  0.00    -0.014 A 
ATOM     46  C   LIG d   1       3.808  -1.760  -2.451  0.00  0.00     0.124 A 
ATOM     47  H   LIG d   1       2.784  -1.928  -4.321  0.00  0.00     0.065 H 
ATOM     48  C   LIG d   1       4.466  -0.913  -1.575  0.00  0.00    -0.026 A 
ATOM     49  F   LIG d   1       3.666  -3.068  -2.147  0.00  0.00    -0.205 F 
ATOM     50  C   LIG d   1       4.616   0.428  -1.880  0.00  0.00    -0.058 A 
ATOM     51  H   LIG d   1       4.865  -1.302  -0.649  0.00  0.00     0.065 H 
ATOM     52  C   LIG d   1       4.115   0.930  -3.062  0.00  0.00    -0.050 A 
ATOM     53  H   LIG d   1       5.130   1.082  -1.191  0.00  0.00     0.062 H 
ATOM     54  H   LIG d   1       4.236   1.976  -3.300  0.00  0.00     0.062 H 
ENDBRANCH  41  44
ENDBRANCH  37  40
ENDBRANCH   7  37
BRANCH   5  55
ATOM     55  O   LIG d   1       4.841   1.515  -9.567  0.00  0.00    -0.387 OA
ATOM     56  H   LIG d   1       5.483   0.857  -9.265  0.00  0.00     0.210 HD
ENDBRANCH   5  55
TORSDOF 11
ENDMDL
MODEL 9
REMARK VINA RESULT:      -5.6      7.199     11.002
REMARK  11 active torsions:
REMARK  status: ('A' for Active; 'I' for Inactive)
REMARK    1  A    between atoms: C_1  and  O_2 
REMARK    2  A    between atoms: O_2  and  C_3 
REMARK    3  A    between atoms: C_6  and  C_9 
REMARK    4  A    between atoms: C_9  and  N_10 
REMARK       I    between atoms: N_10  and  C_11 
REMARK    5  A    between atoms: C_11  and  C_13 
REMARK    6  A    between atoms: C_13  and  C_14 
REMARK    7  A    between atoms: C_16  and  O_35 
REMARK    8  A    between atoms: C_18  and  O_34 
REMARK    9  A    between atoms: C_20  and  C_23 
REMARK   10  A    between atoms: C_23  and  N_24 
REMARK       I    between atoms: N_24  and  C_25 
REMARK   11  A    between atoms: C_25  and  C_27 
ROOT
ATOM      1  C   LIG d   1      10.007   4.467  -2.662  0.00  0.00     0.096 C 
ATOM      2  H   LIG d   1       9.077   4.121  -2.210  0.00  0.00     0.063 H 
ATOM      3  C   LIG d   1      10.557   5.688  -1.892  0.00  0.00     0.110 C 
ATOM      4  H   LIG d   1      11.647   5.683  -1.897  0.00  0.00     0.065 H 
ATOM      5  C   LIG d   1      10.015   6.903  -2.677  0.00  0.00     0.111 C 
ATOM      6  H   LIG d   1      10.837   7.500  -3.072  0.00  0.00     0.065 H 
ATOM      7  C   LIG d   1       9.202   6.272  -3.830  0.00  0.00     0.103 C 
ATOM      8  H   LIG d   1       8.148   6.204  -3.557  0.00  0.00     0.064 H 
ATOM      9  O   LIG d   1       9.764   4.954  -4.000  0.00  0.00    -0.366 OA
ENDROOT
BRANCH   1  10
ATOM     10  C   LIG d   1      11.042   3.340  -2.685  0.00  0.00     0.053 C 
ATOM     11  H   LIG d   1      11.971   3.710  -3.118  0.00  0.00     0.038 H 
ATOM     12  H   LIG d   1      11.226   2.996  -1.667  0.00  0.00     0.038 H 
BRANCH  10  13
ATOM     13  C   LIG d   1      10.520   2.196  -3.516  0.00  0.00     0.216 C 
ATOM     14  N   LIG d   1       9.192   1.987  -3.615  0.00  0.00    -0.311 N 
ATOM     15  H   LIG d   1       8.572   2.572  -3.152  0.00  0.00     0.149 HD
ATOM     16  O   LIG d   1      11.294   1.464  -4.094  0.00  0.00    -0.276 OA
BRANCH  14  17
ATOM     17  C   LIG d   1       8.685   0.873  -4.422  0.00  0.00     0.037 C 
ATOM     18  H   LIG d   1       8.495   1.220  -5.438  0.00  0.00     0.051 H 
ATOM     19  H   LIG d   1       9.424   0.073  -4.442  0.00  0.00     0.051 H 
BRANCH  17  20
ATOM     20  C   LIG d   1       7.403   0.359  -3.818  0.00  0.00    -0.030 A 
ATOM     21  C   LIG d   1       7.167  -1.002  -3.756  0.00  0.00    -0.054 A 
ATOM     22  C   LIG d   1       5.993  -1.475  -3.202  0.00  0.00    -0.020 A 
ATOM     23  H   LIG d   1       7.901  -1.695  -4.140  0.00  0.00     0.062 H 
ATOM     24  C   LIG d   1       5.051  -0.583  -2.709  0.00  0.00     0.120 A 
ATOM     25  H   LIG d   1       5.808  -2.538  -3.154  0.00  0.00     0.065 H 
ATOM     26  C   LIG d   1       5.290   0.781  -2.773  0.00  0.00    -0.020 A 
ATOM     27  C   LIG d   1       6.469   1.250  -3.322  0.00  0.00    -0.054 A 
ATOM     28  H   LIG d   1       4.558   1.478  -2.390  0.00  0.00     0.065 H 
ATOM     29  H   LIG d   1       6.658   2.312  -3.368  0.00  0.00     0.062 H 
BRANCH  24  30
ATOM     30  O   LIG d   1       3.895  -1.047  -2.166  0.00  0.00    -0.495 OA
BRANCH  30  31
ATOM     31  C   LIG d   1       2.698  -0.850  -2.921  0.00  0.00     0.079 C 
ATOM     32  H   LIG d   1       2.911  -0.988  -3.981  0.00  0.00     0.066 H 
ATOM     33  H   LIG d   1       1.945  -1.572  -2.604  0.00  0.00     0.066 H 
ATOM     34  H   LIG d   1       2.326   0.161  -2.755  0.00  0.00     0.066 H 
ENDBRANCH  30  31
ENDBRANCH  24  30
ENDBRANCH  17  20
ENDBRANCH  14  17
ENDBRANCH  10  13
ENDBRANCH   1  10
BRANCH   3  35
ATOM     35  O   LIG d   1      10.064   5.698  -0.551  0.00  0.00    -0.387 OA
ATOM     36  H   LIG d   1      10.446   6.392   0.004  0.00  0.00     0.210 HD
ENDBRANCH   3  35
BRANCH   7  37
ATOM     37  C   LIG d   1       9.367   7.093  -5.110  0.00  0.00     0.041 C 
ATOM     38  H   LIG d   1      10.293   6.806  -5.610  0.00  0.00     0.049 H 
ATOM     39  H   LIG d   1       8.524   6.904  -5.774  0.00  0.00     0.049 H 
BRANCH  37  40
ATOM     40  N   LIG d   1       9.414   8.518  -4.775  0.00  0.00    -0.309 N 
ATOM     41  C   LIG d   1       9.414   9.442  -5.755  0.00  0.00     0.244 C 
ATOM     42  O   LIG d   1       9.376   9.093  -6.919  0.00  0.00    -0.270 OA
ATOM     43  H   LIG d   1       9.444   8.797  -3.846  0.00  0.00     0.149 HD
BRANCH  41  44
ATOM     44  C   LIG d   1       9.462  10.881  -5.416  0.00  0.00     0.039 A 
ATOM     45  C   LIG d   1       9.139  11.308  -4.128  0.00  0.00    -0.014 A 
ATOM     46  C   LIG d   1       9.187  12.654  -3.819  0.00  0.00     0.124 A 
ATOM     47  H   LIG d   1       8.854  10.589  -3.374  0.00  0.00     0.065 H 
ATOM     48  C   LIG d   1       9.553  13.576  -4.785  0.00  0.00    -0.026 A 
ATOM     49  F   LIG d   1       8.876  13.071  -2.572  0.00  0.00    -0.205 F 
ATOM     50  C   LIG d   1       9.874  13.157  -6.064  0.00  0.00    -0.058 A 
ATOM     51  H   LIG d   1       9.591  14.627  -4.539  0.00  0.00     0.065 H 
ATOM     52  C   LIG d   1       9.835  11.816  -6.384  0.00  0.00    -0.050 A 
ATOM     53  H   LIG d   1      10.159  13.881  -6.813  0.00  0.00     0.062 H 
ATOM     54  H   LIG d   1      10.089  11.490  -7.381  0.00  0.00     0.062 H 
ENDBRANCH  41  44
ENDBRANCH  37  40
ENDBRANCH   7  37
BRANCH   5  55
ATOM     55  O   LIG d   1       9.170   7.700  -1.845  0.00  0.00    -0.387 OA
ATOM     56  H   LIG d   1       8.595   8.305  -2.333  0.00  0.00     0.210 HD
ENDBRANCH   5  55
TORSDOF 11
ENDMDL
