MODEL 1
REMARK VINA RESULT:      -5.0      0.000      0.000
REMARK  1 active torsions:
REMARK  status: ('A' for Active; 'I' for Inactive)
REMARK    1  A    between atoms: C_1  and  C_2 
ROOT
ATOM      1  C   LIG d   1       4.260  -0.995  -2.561  0.00  0.00    -0.014 A 
ATOM      2  C   LIG d   1       3.370   0.021  -2.267  0.00  0.00    -0.056 A 
ATOM      3  C   LIG d   1       3.747   1.341  -2.431  0.00  0.00    -0.060 A 
ATOM      4  C   LIG d   1       5.015   1.647  -2.888  0.00  0.00    -0.045 A 
ATOM      5  C   LIG d   1       5.908   0.632  -3.183  0.00  0.00     0.053 A 
ATOM      6  C   LIG d   1       5.533  -0.690  -3.014  0.00  0.00     0.140 A 
ATOM      7  F   LIG d   1       6.405  -1.682  -3.295  0.00  0.00    -0.204 F 
ATOM      8 BR   LIG d   1       7.642   1.051  -3.810  0.00  0.00    -0.047 Br
ATOM      9  H   LIG d   1       2.379  -0.216  -1.911  0.00  0.00     0.062 H 
ATOM     10  H   LIG d   1       3.051   2.134  -2.202  0.00  0.00     0.062 H 
ATOM     11  H   LIG d   1       5.308   2.678  -3.016  0.00  0.00     0.063 H 
ENDROOT
BRANCH   1  12
ATOM     12  C   LIG d   1       3.848  -2.433  -2.382  0.00  0.00    -0.037 C 
ATOM     13  H   LIG d   1       3.643  -2.625  -1.330  0.00  0.00     0.028 H 
ATOM     14  H   LIG d   1       2.950  -2.629  -2.969  0.00  0.00     0.028 H 
ATOM     15  H   LIG d   1       4.653  -3.086  -2.721  0.00  0.00     0.028 H 
ENDBRANCH   1  12
TORSDOF 1
ENDMDL
MODEL 2
REMARK VINA RESULT:      -4.8      1.607      2.784
REMARK  1 active torsions:
REMARK  status: ('A' for Active; 'I' for Inactive)
REMARK    1  A    between atoms: C_1  and  C_2 
ROOT
ATOM      1  C   LIG d   1       4.780  -0.248  -2.347  0.00  0.00    -0.014 A 
ATOM      2  C   LIG d   1       3.846  -1.268  -2.299  0.00  0.00    -0.056 A 
ATOM      3  C   LIG d   1       4.081  -2.452  -2.972  0.00  0.00    -0.060 A 
ATOM      4  C   LIG d   1       5.248  -2.620  -3.694  0.00  0.00    -0.045 A 
ATOM      5  C   LIG d   1       6.183  -1.602  -3.743  0.00  0.00     0.053 A 
ATOM      6  C   LIG d   1       5.946  -0.412  -3.074  0.00  0.00     0.140 A 
ATOM      7  F   LIG d   1       6.856   0.585  -3.125  0.00  0.00    -0.204 F 
ATOM      8 BR   LIG d   1       7.780  -1.832  -4.728  0.00  0.00    -0.047 Br
ATOM      9  H   LIG d   1       2.934  -1.138  -1.736  0.00  0.00     0.062 H 
ATOM     10  H   LIG d   1       3.351  -3.247  -2.934  0.00  0.00     0.062 H 
ATOM     11  H   LIG d   1       5.429  -3.545  -4.218  0.00  0.00     0.063 H 
ENDROOT
BRANCH   1  12
ATOM     12  C   LIG d   1       4.523   1.043  -1.613  0.00  0.00    -0.037 C 
ATOM     13  H   LIG d   1       4.462   0.847  -0.543  0.00  0.00     0.028 H 
ATOM     14  H   LIG d   1       5.338   1.740  -1.808  0.00  0.00     0.028 H 
ATOM     15  H   LIG d   1       3.584   1.476  -1.958  0.00  0.00     0.028 H 
ENDBRANCH   1  12
TORSDOF 1
ENDMDL
MODEL 3
REMARK VINA RESULT:      -4.5      2.320      2.994
REMARK  1 active torsions:
REMARK  status: ('A' for Active; 'I' for Inactive)
REMARK    1  A    between atoms: C_1  and  C_2 
ROOT
ATOM      1  C   LIG d   1       3.262  -0.340  -4.229  0.00  0.00    -0.014 A 
ATOM      2  C   LIG d   1       2.828  -0.912  -3.047  0.00  0.00    -0.056 A 
ATOM      3  C   LIG d   1       3.635  -1.810  -2.376  0.00  0.00    -0.060 A 
ATOM      4  C   LIG d   1       4.878  -2.140  -2.885  0.00  0.00    -0.045 A 
ATOM      5  C   LIG d   1       5.315  -1.568  -4.067  0.00  0.00     0.053 A 
ATOM      6  C   LIG d   1       4.503  -0.672  -4.743  0.00  0.00     0.140 A 
ATOM      7  F   LIG d   1       4.926  -0.118  -5.901  0.00  0.00    -0.204 F 
ATOM      8 BR   LIG d   1       7.014  -2.017  -4.761  0.00  0.00    -0.047 Br
ATOM      9  H   LIG d   1       1.857  -0.656  -2.648  0.00  0.00     0.062 H 
ATOM     10  H   LIG d   1       3.295  -2.257  -1.453  0.00  0.00     0.062 H 
ATOM     11  H   LIG d   1       5.508  -2.841  -2.359  0.00  0.00     0.063 H 
ENDROOT
BRANCH   1  12
ATOM     12  C   LIG d   1       2.380   0.640  -4.960  0.00  0.00    -0.037 C 
ATOM     13  H   LIG d   1       2.985   1.469  -5.327  0.00  0.00     0.028 H 
ATOM     14  H   LIG d   1       1.900   0.140  -5.800  0.00  0.00     0.028 H 
ATOM     15  H   LIG d   1       1.618   1.020  -4.279  0.00  0.00     0.028 H 
ENDBRANCH   1  12
TORSDOF 1
ENDMDL
MODEL 4
REMARK VINA RESULT:      -4.4      2.000      3.093
REMARK  1 active torsions:
REMARK  status: ('A' for Active; 'I' for Inactive)
REMARK    1  A    between atoms: C_1  and  C_2 
ROOT
ATOM      1  C   LIG d   1       6.116   0.615  -3.268  0.00  0.00    -0.014 A 
ATOM      2  C   LIG d   1       5.229   0.994  -2.277  0.00  0.00    -0.056 A 
ATOM      3  C   LIG d   1       4.221   0.134  -1.885  0.00  0.00    -0.060 A 
ATOM      4  C   LIG d   1       4.097  -1.107  -2.483  0.00  0.00    -0.045 A 
ATOM      5  C   LIG d   1       4.983  -1.488  -3.474  0.00  0.00     0.053 A 
ATOM      6  C   LIG d   1       5.989  -0.625  -3.872  0.00  0.00     0.140 A 
ATOM      7  F   LIG d   1       6.852  -0.993  -4.845  0.00  0.00    -0.204 F 
ATOM      8 BR   LIG d   1       4.813  -3.185  -4.291  0.00  0.00    -0.047 Br
ATOM      9  H   LIG d   1       5.325   1.962  -1.809  0.00  0.00     0.062 H 
ATOM     10  H   LIG d   1       3.529   0.431  -1.111  0.00  0.00     0.062 H 
ATOM     11  H   LIG d   1       3.309  -1.777  -2.175  0.00  0.00     0.063 H 
ENDROOT
BRANCH   1  12
ATOM     12  C   LIG d   1       7.215   1.553  -3.695  0.00  0.00    -0.037 C 
ATOM     13  H   LIG d   1       7.668   2.007  -2.815  0.00  0.00     0.028 H 
ATOM     14  H   LIG d   1       7.972   0.998  -4.249  0.00  0.00     0.028 H 
ATOM     15  H   LIG d   1       6.798   2.334  -4.333  0.00  0.00     0.028 H 
ENDBRANCH   1  12
TORSDOF 1
ENDMDL
MODEL 5
REMARK VINA RESULT:      -4.3      1.679      2.077
REMARK  1 active torsions:
REMARK  status: ('A' for Active; 'I' for Inactive)
REMARK    1  A    between atoms: C_1  and  C_2 
ROOT
ATOM      1  C   LIG d   1       4.074  -0.540  -2.964  0.00  0.00    -0.014 A 
ATOM      2  C   LIG d   1       4.486   0.772  -2.822  0.00  0.00    -0.056 A 
ATOM      3  C   LIG d   1       5.819   1.099  -2.981  0.00  0.00    -0.060 A 
ATOM      4  C   LIG d   1       6.743   0.116  -3.280  0.00  0.00    -0.045 A 
ATOM      5  C   LIG d   1       6.334  -1.198  -3.422  0.00  0.00     0.053 A 
ATOM      6  C   LIG d   1       4.998  -1.528  -3.257  0.00  0.00     0.140 A 
ATOM      7  F   LIG d   1       4.597  -2.811  -3.390  0.00  0.00    -0.204 F 
ATOM      8 BR   LIG d   1       7.597  -2.543  -3.833  0.00  0.00    -0.047 Br
ATOM      9  H   LIG d   1       3.765   1.542  -2.589  0.00  0.00     0.062 H 
ATOM     10  H   LIG d   1       6.140   2.125  -2.870  0.00  0.00     0.062 H 
ATOM     11  H   LIG d   1       7.784   0.373  -3.403  0.00  0.00     0.063 H 
ENDROOT
BRANCH   1  12
ATOM     12  C   LIG d   1       2.619  -0.896  -2.791  0.00  0.00    -0.037 C 
ATOM     13  H   LIG d   1       2.529  -1.731  -2.097  0.00  0.00     0.028 H 
ATOM     14  H   LIG d   1       2.079  -0.035  -2.397  0.00  0.00     0.028 H 
ATOM     15  H   LIG d   1       2.198  -1.179  -3.756  0.00  0.00     0.028 H 
ENDBRANCH   1  12
TORSDOF 1
ENDMDL
MODEL 6
REMARK VINA RESULT:      -4.3      2.120      3.283
REMARK  1 active torsions:
REMARK  status: ('A' for Active; 'I' for Inactive)
REMARK    1  A    between atoms: C_1  and  C_2 
ROOT
ATOM      1  C   LIG d   1       6.520  -1.870  -3.928  0.00  0.00    -0.014 A 
ATOM      2  C   LIG d   1       5.594  -2.889  -4.053  0.00  0.00    -0.056 A 
ATOM      3  C   LIG d   1       4.333  -2.749  -3.506  0.00  0.00    -0.060 A 
ATOM      4  C   LIG d   1       3.994  -1.590  -2.833  0.00  0.00    -0.045 A 
ATOM      5  C   LIG d   1       4.918  -0.569  -2.707  0.00  0.00     0.053 A 
ATOM      6  C   LIG d   1       6.185  -0.711  -3.249  0.00  0.00     0.140 A 
ATOM      7  F   LIG d   1       7.091   0.284  -3.121  0.00  0.00    -0.204 F 
ATOM      8 BR   LIG d   1       4.454   1.017  -1.787  0.00  0.00    -0.047 Br
ATOM      9  H   LIG d   1       5.857  -3.795  -4.579  0.00  0.00     0.062 H 
ATOM     10  H   LIG d   1       3.611  -3.546  -3.605  0.00  0.00     0.062 H 
ATOM     11  H   LIG d   1       3.008  -1.482  -2.407  0.00  0.00     0.063 H 
ENDROOT
BRANCH   1  12
ATOM     12  C   LIG d   1       7.895  -2.023  -4.524  0.00  0.00    -0.037 C 
ATOM     13  H   LIG d   1       8.616  -1.468  -3.924  0.00  0.00     0.028 H 
ATOM     14  H   LIG d   1       8.170  -3.078  -4.539  0.00  0.00     0.028 H 
ATOM     15  H   LIG d   1       7.894  -1.634  -5.543  0.00  0.00     0.028 H 
ENDBRANCH   1  12
TORSDOF 1
ENDMDL
MODEL 7
REMARK VINA RESULT:      -4.1      2.528      2.913
REMARK  1 active torsions:
REMARK  status: ('A' for Active; 'I' for Inactive)
REMARK    1  A    between atoms: C_1  and  C_2 
ROOT
ATOM      1  C   LIG d   1       5.323  -1.615  -3.602  0.00  0.00    -0.014 A 
ATOM      2  C   LIG d   1       5.382  -1.187  -2.289  0.00  0.00    -0.056 A 
ATOM      3  C   LIG d   1       4.508  -0.216  -1.838  0.00  0.00    -0.060 A 
ATOM      4  C   LIG d   1       3.573   0.329  -2.698  0.00  0.00    -0.045 A 
ATOM      5  C   LIG d   1       3.512  -0.097  -4.013  0.00  0.00     0.053 A 
ATOM      6  C   LIG d   1       4.392  -1.065  -4.468  0.00  0.00     0.140 A 
ATOM      7  F   LIG d   1       4.338  -1.479  -5.753  0.00  0.00    -0.204 F 
ATOM      8 BR   LIG d   1       2.234   0.648  -5.189  0.00  0.00    -0.047 Br
ATOM      9  H   LIG d   1       6.111  -1.612  -1.615  0.00  0.00     0.062 H 
ATOM     10  H   LIG d   1       4.555   0.117  -0.811  0.00  0.00     0.062 H 
ATOM     11  H   LIG d   1       2.892   1.087  -2.344  0.00  0.00     0.063 H 
ENDROOT
BRANCH   1  12
ATOM     12  C   LIG d   1       6.276  -2.674  -4.094  0.00  0.00    -0.037 C 
ATOM     13  H   LIG d   1       6.873  -2.274  -4.913  0.00  0.00     0.028 H 
ATOM     14  H   LIG d   1       6.934  -2.977  -3.279  0.00  0.00     0.028 H 
ATOM     15  H   LIG d   1       5.710  -3.537  -4.444  0.00  0.00     0.028 H 
ENDBRANCH   1  12
TORSDOF 1
ENDMDL
MODEL 8
REMARK VINA RESULT:      -4.0      3.284      3.654
REMARK  1 active torsions:
REMARK  status: ('A' for Active; 'I' for Inactive)
REMARK    1  A    between atoms: C_1  and  C_2 
ROOT
ATOM      1  C   LIG d   1       4.022  -0.614  -6.208  0.00  0.00    -0.014 A 
ATOM      2  C   LIG d   1       2.971   0.284  -6.222  0.00  0.00    -0.056 A 
ATOM      3  C   LIG d   1       2.260   0.534  -5.063  0.00  0.00    -0.060 A 
ATOM      4  C   LIG d   1       2.597  -0.113  -3.889  0.00  0.00    -0.045 A 
ATOM      5  C   LIG d   1       3.649  -1.012  -3.873  0.00  0.00     0.053 A 
ATOM      6  C   LIG d   1       4.358  -1.268  -5.035  0.00  0.00     0.140 A 
ATOM      7  F   LIG d   1       5.382  -2.150  -5.022  0.00  0.00    -0.204 F 
ATOM      8 BR   LIG d   1       4.111  -1.896  -2.268  0.00  0.00    -0.047 Br
ATOM      9  H   LIG d   1       2.706   0.791  -7.138  0.00  0.00     0.062 H 
ATOM     10  H   LIG d   1       1.439   1.236  -5.075  0.00  0.00     0.062 H 
ATOM     11  H   LIG d   1       2.041   0.083  -2.986  0.00  0.00     0.063 H 
ENDROOT
BRANCH   1  12
ATOM     12  C   LIG d   1       4.797  -0.886  -7.472  0.00  0.00    -0.037 C 
ATOM     13  H   LIG d   1       5.741  -0.344  -7.443  0.00  0.00     0.028 H 
ATOM     14  H   LIG d   1       4.994  -1.955  -7.554  0.00  0.00     0.028 H 
ATOM     15  H   LIG d   1       4.215  -0.557  -8.332  0.00  0.00     0.028 H 
ENDBRANCH   1  12
TORSDOF 1
ENDMDL
MODEL 9
REMARK VINA RESULT:      -4.0      1.770      2.798
REMARK  1 active torsions:
REMARK  status: ('A' for Active; 'I' for Inactive)
REMARK    1  A    between atoms: C_1  and  C_2 
ROOT
ATOM      1  C   LIG d   1       5.283  -0.926  -2.876  0.00  0.00    -0.014 A 
ATOM      2  C   LIG d   1       5.772  -2.094  -3.432  0.00  0.00    -0.056 A 
ATOM      3  C   LIG d   1       6.951  -2.076  -4.153  0.00  0.00    -0.060 A 
ATOM      4  C   LIG d   1       7.643  -0.892  -4.321  0.00  0.00    -0.045 A 
ATOM      5  C   LIG d   1       7.156   0.278  -3.767  0.00  0.00     0.053 A 
ATOM      6  C   LIG d   1       5.972   0.263  -3.049  0.00  0.00     0.140 A 
ATOM      7  F   LIG d   1       5.491   1.406  -2.511  0.00  0.00    -0.204 F 
ATOM      8 BR   LIG d   1       8.103   1.898  -3.996  0.00  0.00    -0.047 Br
ATOM      9  H   LIG d   1       5.233  -3.020  -3.301  0.00  0.00     0.062 H 
ATOM     10  H   LIG d   1       7.332  -2.990  -4.586  0.00  0.00     0.062 H 
ATOM     11  H   LIG d   1       8.563  -0.880  -4.885  0.00  0.00     0.063 H 
ENDROOT
BRANCH   1  12
ATOM     12  C   LIG d   1       3.998  -0.946  -2.090  0.00  0.00    -0.037 C 
ATOM     13  H   LIG d   1       3.409  -1.815  -2.378  0.00  0.00     0.028 H 
ATOM     14  H   LIG d   1       4.224  -0.997  -1.025  0.00  0.00     0.028 H 
ATOM     15  H   LIG d   1       3.432  -0.038  -2.298  0.00  0.00     0.028 H 
ENDBRANCH   1  12
TORSDOF 1
ENDMDL
MODEL 10
REMARK VINA RESULT:      -3.9      7.478      7.886
REMARK  1 active torsions:
REMARK  status: ('A' for Active; 'I' for Inactive)
REMARK    1  A    between atoms: C_1  and  C_2 
ROOT
ATOM      1  C   LIG d   1       3.558   1.520  -9.229  0.00  0.00    -0.014 A 
ATOM      2  C   LIG d   1       3.044   1.003  -8.055  0.00  0.00    -0.056 A 
ATOM      3  C   LIG d   1       2.383  -0.211  -8.064  0.00  0.00    -0.060 A 
ATOM      4  C   LIG d   1       2.235  -0.910  -9.247  0.00  0.00    -0.045 A 
ATOM      5  C   LIG d   1       2.749  -0.395 -10.424  0.00  0.00     0.053 A 
ATOM      6  C   LIG d   1       3.405   0.825 -10.417  0.00  0.00     0.140 A 
ATOM      7  F   LIG d   1       3.903   1.332 -11.566  0.00  0.00    -0.204 F 
ATOM      8 BR   LIG d   1       2.547  -1.351 -12.042  0.00  0.00    -0.047 Br
ATOM      9  H   LIG d   1       3.159   1.548  -7.129  0.00  0.00     0.062 H 
ATOM     10  H   LIG d   1       1.982  -0.614  -7.146  0.00  0.00     0.062 H 
ATOM     11  H   LIG d   1       1.719  -1.858  -9.253  0.00  0.00     0.063 H 
ENDROOT
BRANCH   1  12
ATOM     12  C   LIG d   1       4.279   2.844  -9.218  0.00  0.00    -0.037 C 
ATOM     13  H   LIG d   1       4.047   3.376  -8.296  0.00  0.00     0.028 H 
ATOM     14  H   LIG d   1       5.353   2.674  -9.280  0.00  0.00     0.028 H 
ATOM     15  H   LIG d   1       3.956   3.440 -10.073  0.00  0.00     0.028 H 
ENDBRANCH   1  12
TORSDOF 1
ENDMDL
