MODEL 1
REMARK VINA RESULT:      -7.5      0.000      0.000
REMARK  9 active torsions:
REMARK  status: ('A' for Active; 'I' for Inactive)
REMARK    1  A    between atoms: C_1  and  N_2 
REMARK       I    between atoms: N_5  and  C_8 
REMARK    2  A    between atoms: C_8  and  C_10 
REMARK    3  A    between atoms: C_10  and  C_11 
REMARK    4  A    between atoms: C_11  and  C_12 
REMARK    5  A    between atoms: C_22  and  N_25 
REMARK    6  A    between atoms: N_25  and  C_26 
REMARK    7  A    between atoms: C_26  and  C_27 
REMARK    8  A    between atoms: C_30  and  C_32 
REMARK    9  A    between atoms: C_32  and  O_33 
ROOT
ATOM      1  C   LIG d   1       3.879  -0.851  -4.620  0.00  0.00    -0.004 C 
ATOM      2  H   LIG d   1       4.882  -0.424  -4.630  0.00  0.00     0.087 H 
ATOM      3  C   LIG d   1       2.948  -0.018  -5.514  0.00  0.00     0.055 C 
ATOM      4  N   LIG d   1       3.134  -0.319  -6.929  0.00  0.00    -0.305 N 
ATOM      5  C   LIG d   1       3.877  -1.340  -7.399  0.00  0.00     0.262 C 
ATOM      6  O   LIG d   1       3.900  -1.590  -8.586  0.00  0.00    -0.270 OA
ATOM      7  C   LIG d   1       4.674  -2.157  -6.435  0.00  0.00     0.059 C 
ATOM      8  H   LIG d   1       5.655  -1.710  -6.278  0.00  0.00     0.095 H 
ATOM      9  N   LIG d   1       3.910  -2.199  -5.158  0.00  0.00     0.248 N 
ATOM     10  C   LIG d   1       4.559  -3.236  -4.362  0.00  0.00    -0.015 C 
ATOM     11  C   LIG d   1       5.098  -4.270  -5.384  0.00  0.00     0.054 C 
ATOM     12  H   LIG d   1       6.172  -4.408  -5.254  0.00  0.00     0.051 H 
ATOM     13  C   LIG d   1       4.813  -3.644  -6.791  0.00  0.00     0.019 C 
ATOM     14  H   LIG d   1       1.914  -0.227  -5.240  0.00  0.00     0.052 H 
ATOM     15  H   LIG d   1       3.150   1.040  -5.347  0.00  0.00     0.052 H 
ATOM     16  H   LIG d   1       2.692   0.255  -7.575  0.00  0.00     0.149 HD
ATOM     17  H   LIG d   1       5.381  -2.811  -3.786  0.00  0.00     0.083 H 
ATOM     18  H   LIG d   1       3.835  -3.708  -3.697  0.00  0.00     0.083 H 
ATOM     19  H   LIG d   1       3.886  -4.034  -7.210  0.00  0.00     0.034 H 
ATOM     20  H   LIG d   1       5.647  -3.804  -7.476  0.00  0.00     0.034 H 
ATOM     21  H   LIG d   1       2.967  -2.497  -5.355  0.00  0.00     0.204 HD
ENDROOT
BRANCH   1  22
ATOM     22  C   LIG d   1       3.339  -0.875  -3.188  0.00  0.00     0.000 C 
ATOM     23  H   LIG d   1       2.962  -1.872  -2.959  0.00  0.00     0.033 H 
ATOM     24  H   LIG d   1       2.533  -0.150  -3.092  0.00  0.00     0.033 H 
BRANCH  22  25
ATOM     25  C   LIG d   1       4.464  -0.519  -2.213  0.00  0.00     0.029 C 
ATOM     26  H   LIG d   1       5.092  -1.395  -2.049  0.00  0.00     0.036 H 
ATOM     27  H   LIG d   1       4.033  -0.198  -1.264  0.00  0.00     0.036 H 
BRANCH  25  28
ATOM     28  C   LIG d   1       5.296   0.596  -2.791  0.00  0.00     0.216 C 
ATOM     29  N   LIG d   1       6.555   0.353  -3.205  0.00  0.00    -0.291 N 
ATOM     30  C   LIG d   1       7.386   1.426  -3.773  0.00  0.00     0.055 C 
ATOM     31  C   LIG d   1       7.137  -0.994  -3.104  0.00  0.00     0.055 C 
ATOM     32  C   LIG d   1       7.970   0.937  -5.102  0.00  0.00    -0.016 C 
ATOM     33  H   LIG d   1       8.194   1.667  -3.083  0.00  0.00     0.052 H 
ATOM     34  H   LIG d   1       6.772   2.310  -3.946  0.00  0.00     0.052 H 
ATOM     35  N   LIG d   1       8.682  -0.329  -4.886  0.00  0.00     0.235 N 
ATOM     36  H   LIG d   1       8.665   1.682  -5.489  0.00  0.00     0.083 H 
ATOM     37  H   LIG d   1       7.165   0.782  -5.819  0.00  0.00     0.083 H 
ATOM     38  C   LIG d   1       7.735  -1.369  -4.464  0.00  0.00    -0.016 C 
ATOM     39  H   LIG d   1       9.381  -0.202  -4.168  0.00  0.00     0.203 HD
ATOM     40  H   LIG d   1       6.936  -1.454  -5.202  0.00  0.00     0.083 H 
ATOM     41  H   LIG d   1       8.255  -2.323  -4.382  0.00  0.00     0.083 H 
ATOM     42  H   LIG d   1       7.921  -0.998  -2.347  0.00  0.00     0.052 H 
ATOM     43  H   LIG d   1       6.361  -1.710  -2.835  0.00  0.00     0.052 H 
ATOM     44  O   LIG d   1       4.832   1.713  -2.883  0.00  0.00    -0.276 OA
BRANCH  35  45
ATOM     45  C   LIG d   1       9.335  -0.742  -6.135  0.00  0.00    -0.043 C 
ATOM     46  H   LIG d   1       9.405  -1.829  -6.166  0.00  0.00     0.078 H 
ATOM     47  H   LIG d   1       8.748  -0.391  -6.985  0.00  0.00     0.078 H 
ATOM     48  H   LIG d   1      10.335  -0.311  -6.182  0.00  0.00     0.078 H 
ENDBRANCH  35  45
ENDBRANCH  25  28
ENDBRANCH  22  25
ENDBRANCH   1  22
BRANCH  11  49
ATOM     49  N   LIG d   1       4.397  -5.552  -5.234  0.00  0.00    -0.302 N 
ATOM     50  H   LIG d   1       4.325  -5.813  -4.262  0.00  0.00     0.123 HD
BRANCH  49  51
ATOM     51  C   LIG d   1       5.057  -6.607  -6.014  0.00  0.00     0.055 C 
ATOM     52  H   LIG d   1       4.499  -6.784  -6.933  0.00  0.00     0.050 H 
ATOM     53  H   LIG d   1       6.073  -6.297  -6.260  0.00  0.00     0.050 H 
BRANCH  51  54
ATOM     54  C   LIG d   1       5.104  -7.877  -5.203  0.00  0.00     0.119 A 
ATOM     55  O   LIG d   1       4.040  -8.546  -4.728  0.00  0.00    -0.461 OA
ATOM     56  C   LIG d   1       4.457  -9.631  -4.056  0.00  0.00     0.131 A 
ATOM     57  C   LIG d   1       5.801  -9.660  -4.088  0.00  0.00    -0.018 A 
ATOM     58  C   LIG d   1       6.218  -8.530  -4.827  0.00  0.00    -0.019 A 
ATOM     59  H   LIG d   1       6.439 -10.405  -3.635  0.00  0.00     0.065 H 
ATOM     60  H   LIG d   1       7.236  -8.245  -5.048  0.00  0.00     0.065 H 
BRANCH  56  61
ATOM     61  C   LIG d   1       3.569 -10.641  -3.376  0.00  0.00     0.102 C 
ATOM     62  H   LIG d   1       3.336 -11.448  -4.072  0.00  0.00     0.064 H 
ATOM     63  H   LIG d   1       4.082 -11.049  -2.505  0.00  0.00     0.064 H 
BRANCH  61  64
ATOM     64  O   LIG d   1       2.357 -10.008  -2.960  0.00  0.00    -0.387 OA
ATOM     65  H   LIG d   1       1.733 -10.601  -2.522  0.00  0.00     0.210 HD
ENDBRANCH  61  64
ENDBRANCH  56  61
ENDBRANCH  51  54
ENDBRANCH  49  51
ENDBRANCH  11  49
TORSDOF 9
ENDMDL
MODEL 2
REMARK VINA RESULT:      -6.9      6.173      9.590
REMARK  9 active torsions:
REMARK  status: ('A' for Active; 'I' for Inactive)
REMARK    1  A    between atoms: C_1  and  N_2 
REMARK       I    between atoms: N_5  and  C_8 
REMARK    2  A    between atoms: C_8  and  C_10 
REMARK    3  A    between atoms: C_10  and  C_11 
REMARK    4  A    between atoms: C_11  and  C_12 
REMARK    5  A    between atoms: C_22  and  N_25 
REMARK    6  A    between atoms: N_25  and  C_26 
REMARK    7  A    between atoms: C_26  and  C_27 
REMARK    8  A    between atoms: C_30  and  C_32 
REMARK    9  A    between atoms: C_32  and  O_33 
ROOT
ATOM      1  C   LIG d   1      10.462   4.885  -3.881  0.00  0.00    -0.004 C 
ATOM      2  H   LIG d   1      11.452   4.449  -4.019  0.00  0.00     0.087 H 
ATOM      3  C   LIG d   1      10.394   6.253  -4.575  0.00  0.00     0.055 C 
ATOM      4  N   LIG d   1      10.211   6.128  -6.016  0.00  0.00    -0.305 N 
ATOM      5  C   LIG d   1       9.930   4.972  -6.651  0.00  0.00     0.262 C 
ATOM      6  O   LIG d   1       9.689   4.965  -7.839  0.00  0.00    -0.270 OA
ATOM      7  C   LIG d   1       9.924   3.701  -5.866  0.00  0.00     0.059 C 
ATOM      8  H   LIG d   1      10.924   3.270  -5.835  0.00  0.00     0.095 H 
ATOM      9  N   LIG d   1       9.457   4.034  -4.493  0.00  0.00     0.248 N 
ATOM     10  C   LIG d   1       9.179   2.746  -3.865  0.00  0.00    -0.015 C 
ATOM     11  C   LIG d   1       8.718   1.813  -5.014  0.00  0.00     0.054 C 
ATOM     12  H   LIG d   1       9.348   0.924  -5.056  0.00  0.00     0.051 H 
ATOM     13  C   LIG d   1       8.901   2.652  -6.324  0.00  0.00     0.019 C 
ATOM     14  H   LIG d   1       9.560   6.820  -4.160  0.00  0.00     0.052 H 
ATOM     15  H   LIG d   1      11.319   6.795  -4.380  0.00  0.00     0.052 H 
ATOM     16  H   LIG d   1      10.296   6.931  -6.555  0.00  0.00     0.149 HD
ATOM     17  H   LIG d   1      10.081   2.352  -3.397  0.00  0.00     0.083 H 
ATOM     18  H   LIG d   1       8.385   2.853  -3.125  0.00  0.00     0.083 H 
ATOM     19  H   LIG d   1       7.964   3.122  -6.618  0.00  0.00     0.034 H 
ATOM     20  H   LIG d   1       9.303   2.044  -7.135  0.00  0.00     0.034 H 
ATOM     21  H   LIG d   1       8.590   4.545  -4.561  0.00  0.00     0.204 HD
ENDROOT
BRANCH   1  22
ATOM     22  C   LIG d   1      10.168   5.044  -2.388  0.00  0.00     0.000 C 
ATOM     23  H   LIG d   1      11.086   4.894  -1.819  0.00  0.00     0.033 H 
ATOM     24  H   LIG d   1       9.428   4.306  -2.083  0.00  0.00     0.033 H 
BRANCH  22  25
ATOM     25  C   LIG d   1       9.626   6.450  -2.121  0.00  0.00     0.029 C 
ATOM     26  H   LIG d   1       8.543   6.406  -2.009  0.00  0.00     0.036 H 
ATOM     27  H   LIG d   1       9.878   7.101  -2.958  0.00  0.00     0.036 H 
BRANCH  25  28
ATOM     28  C   LIG d   1      10.240   6.994  -0.857  0.00  0.00     0.216 C 
ATOM     29  N   LIG d   1      10.789   8.225  -0.851  0.00  0.00    -0.291 N 
ATOM     30  C   LIG d   1      11.394   8.777   0.371  0.00  0.00     0.055 C 
ATOM     31  C   LIG d   1      10.797   9.055  -2.065  0.00  0.00     0.055 C 
ATOM     32  C   LIG d   1      10.815  10.175   0.611  0.00  0.00    -0.016 C 
ATOM     33  H   LIG d   1      12.474   8.844   0.246  0.00  0.00     0.052 H 
ATOM     34  H   LIG d   1      11.159   8.133   1.219  0.00  0.00     0.052 H 
ATOM     35  N   LIG d   1      11.014  10.998  -0.588  0.00  0.00     0.235 N 
ATOM     36  H   LIG d   1      11.322  10.638   1.457  0.00  0.00     0.083 H 
ATOM     37  H   LIG d   1       9.749  10.097   0.825  0.00  0.00     0.083 H 
ATOM     38  C   LIG d   1      10.247  10.441  -1.710  0.00  0.00    -0.016 C 
ATOM     39  H   LIG d   1      11.995  11.011  -0.826  0.00  0.00     0.203 HD
ATOM     40  H   LIG d   1       9.199  10.355  -1.426  0.00  0.00     0.083 H 
ATOM     41  H   LIG d   1      10.336  11.099  -2.574  0.00  0.00     0.083 H 
ATOM     42  H   LIG d   1      11.818   9.151  -2.435  0.00  0.00     0.052 H 
ATOM     43  H   LIG d   1      10.168   8.597  -2.828  0.00  0.00     0.052 H 
ATOM     44  O   LIG d   1      10.242   6.324   0.154  0.00  0.00    -0.276 OA
BRANCH  35  45
ATOM     45  C   LIG d   1      10.559  12.369  -0.321  0.00  0.00    -0.043 C 
ATOM     46  H   LIG d   1       9.942  12.716  -1.150  0.00  0.00     0.078 H 
ATOM     47  H   LIG d   1       9.974  12.385   0.599  0.00  0.00     0.078 H 
ATOM     48  H   LIG d   1      11.423  13.024  -0.212  0.00  0.00     0.078 H 
ENDBRANCH  35  45
ENDBRANCH  25  28
ENDBRANCH  22  25
ENDBRANCH   1  22
BRANCH  11  49
ATOM     49  N   LIG d   1       7.310   1.433  -4.832  0.00  0.00    -0.302 N 
ATOM     50  H   LIG d   1       6.695   2.171  -5.139  0.00  0.00     0.123 HD
BRANCH  49  51
ATOM     51  C   LIG d   1       7.040   1.070  -3.434  0.00  0.00     0.055 C 
ATOM     52  H   LIG d   1       7.574   0.152  -3.187  0.00  0.00     0.050 H 
ATOM     53  H   LIG d   1       7.374   1.873  -2.778  0.00  0.00     0.050 H 
BRANCH  51  54
ATOM     54  C   LIG d   1       5.560   0.855  -3.249  0.00  0.00     0.119 A 
ATOM     55  O   LIG d   1       4.696   0.473  -4.205  0.00  0.00    -0.461 OA
ATOM     56  C   LIG d   1       3.462   0.379  -3.681  0.00  0.00     0.131 A 
ATOM     57  C   LIG d   1       3.527   0.710  -2.379  0.00  0.00    -0.018 A 
ATOM     58  C   LIG d   1       4.879   1.017  -2.101  0.00  0.00    -0.019 A 
ATOM     59  H   LIG d   1       2.704   0.738  -1.680  0.00  0.00     0.065 H 
ATOM     60  H   LIG d   1       5.286   1.323  -1.149  0.00  0.00     0.065 H 
BRANCH  56  61
ATOM     61  C   LIG d   1       2.217  -0.024  -4.427  0.00  0.00     0.102 C 
ATOM     62  H   LIG d   1       1.908  -1.020  -4.108  0.00  0.00     0.064 H 
ATOM     63  H   LIG d   1       1.420   0.689  -4.215  0.00  0.00     0.064 H 
BRANCH  61  64
ATOM     64  O   LIG d   1       2.484  -0.036  -5.831  0.00  0.00    -0.387 OA
ATOM     65  H   LIG d   1       1.880  -0.589  -6.342  0.00  0.00     0.210 HD
ENDBRANCH  61  64
ENDBRANCH  56  61
ENDBRANCH  51  54
ENDBRANCH  49  51
ENDBRANCH  11  49
TORSDOF 9
ENDMDL
MODEL 3
REMARK VINA RESULT:      -6.7      4.961      8.876
REMARK  9 active torsions:
REMARK  status: ('A' for Active; 'I' for Inactive)
REMARK    1  A    between atoms: C_1  and  N_2 
REMARK       I    between atoms: N_5  and  C_8 
REMARK    2  A    between atoms: C_8  and  C_10 
REMARK    3  A    between atoms: C_10  and  C_11 
REMARK    4  A    between atoms: C_11  and  C_12 
REMARK    5  A    between atoms: C_22  and  N_25 
REMARK    6  A    between atoms: N_25  and  C_26 
REMARK    7  A    between atoms: C_26  and  C_27 
REMARK    8  A    between atoms: C_30  and  C_32 
REMARK    9  A    between atoms: C_32  and  O_33 
ROOT
ATOM      1  C   LIG d   1       3.760  -0.420  -5.681  0.00  0.00    -0.004 C 
ATOM      2  H   LIG d   1       3.393  -1.365  -5.279  0.00  0.00     0.087 H 
ATOM      3  C   LIG d   1       2.709   0.679  -5.472  0.00  0.00     0.055 C 
ATOM      4  N   LIG d   1       2.708   1.184  -4.103  0.00  0.00    -0.305 N 
ATOM      5  C   LIG d   1       3.641   0.880  -3.179  0.00  0.00     0.262 C 
ATOM      6  O   LIG d   1       3.632   1.421  -2.093  0.00  0.00    -0.270 OA
ATOM      7  C   LIG d   1       4.686  -0.133  -3.514  0.00  0.00     0.059 C 
ATOM      8  H   LIG d   1       4.334  -1.135  -3.272  0.00  0.00     0.095 H 
ATOM      9  N   LIG d   1       4.962  -0.016  -4.971  0.00  0.00     0.248 N 
ATOM     10  C   LIG d   1       6.178  -0.793  -5.191  0.00  0.00    -0.015 C 
ATOM     11  C   LIG d   1       6.994  -0.670  -3.879  0.00  0.00     0.054 C 
ATOM     12  H   LIG d   1       7.211  -1.658  -3.473  0.00  0.00     0.051 H 
ATOM     13  C   LIG d   1       6.067   0.115  -2.890  0.00  0.00     0.019 C 
ATOM     14  H   LIG d   1       2.919   1.504  -6.153  0.00  0.00     0.052 H 
ATOM     15  H   LIG d   1       1.723   0.275  -5.701  0.00  0.00     0.052 H 
ATOM     16  H   LIG d   1       1.987   1.778  -3.840  0.00  0.00     0.149 HD
ATOM     17  H   LIG d   1       5.929  -1.837  -5.384  0.00  0.00     0.083 H 
ATOM     18  H   LIG d   1       6.743  -0.379  -6.026  0.00  0.00     0.083 H 
ATOM     19  H   LIG d   1       6.310   1.176  -2.889  0.00  0.00     0.034 H 
ATOM     20  H   LIG d   1       6.118  -0.298  -1.882  0.00  0.00     0.034 H 
ATOM     21  H   LIG d   1       5.162   0.949  -5.186  0.00  0.00     0.204 HD
ENDROOT
BRANCH   1  22
ATOM     22  C   LIG d   1       4.064  -0.572  -7.172  0.00  0.00     0.000 C 
ATOM     23  H   LIG d   1       3.740  -1.556  -7.511  0.00  0.00     0.033 H 
ATOM     24  H   LIG d   1       5.136  -0.466  -7.337  0.00  0.00     0.033 H 
BRANCH  22  25
ATOM     25  C   LIG d   1       3.319   0.509  -7.958  0.00  0.00     0.029 C 
ATOM     26  H   LIG d   1       4.024   1.273  -8.284  0.00  0.00     0.036 H 
ATOM     27  H   LIG d   1       2.560   0.964  -7.319  0.00  0.00     0.036 H 
BRANCH  25  28
ATOM     28  C   LIG d   1       2.657  -0.111  -9.161  0.00  0.00     0.216 C 
ATOM     29  N   LIG d   1       3.174   0.085 -10.390  0.00  0.00    -0.291 N 
ATOM     30  C   LIG d   1       2.545  -0.510 -11.579  0.00  0.00     0.055 C 
ATOM     31  C   LIG d   1       4.384   0.899 -10.580  0.00  0.00     0.055 C 
ATOM     32  C   LIG d   1       3.623  -1.240 -12.385  0.00  0.00    -0.016 C 
ATOM     33  H   LIG d   1       2.099   0.275 -12.190  0.00  0.00     0.052 H 
ATOM     34  H   LIG d   1       1.776  -1.219 -11.271  0.00  0.00     0.052 H 
ATOM     35  N   LIG d   1       4.723  -0.314 -12.682  0.00  0.00     0.235 N 
ATOM     36  H   LIG d   1       3.195  -1.606 -13.319  0.00  0.00     0.083 H 
ATOM     37  H   LIG d   1       4.004  -2.082 -11.807  0.00  0.00     0.083 H 
ATOM     38  C   LIG d   1       5.376   0.102 -11.435  0.00  0.00    -0.016 C 
ATOM     39  H   LIG d   1       4.357   0.499 -13.156  0.00  0.00     0.203 HD
ATOM     40  H   LIG d   1       5.704  -0.779 -10.885  0.00  0.00     0.083 H 
ATOM     41  H   LIG d   1       6.239   0.727 -11.666  0.00  0.00     0.083 H 
ATOM     42  H   LIG d   1       4.125   1.827 -11.091  0.00  0.00     0.052 H 
ATOM     43  H   LIG d   1       4.832   1.122  -9.612  0.00  0.00     0.052 H 
ATOM     44  O   LIG d   1       1.658  -0.786  -9.024  0.00  0.00    -0.276 OA
BRANCH  35  45
ATOM     45  C   LIG d   1       5.704  -0.981 -13.547  0.00  0.00    -0.043 C 
ATOM     46  H   LIG d   1       5.436  -0.821 -14.592  0.00  0.00     0.078 H 
ATOM     47  H   LIG d   1       6.695  -0.566 -13.359  0.00  0.00     0.078 H 
ATOM     48  H   LIG d   1       5.711  -2.049 -13.333  0.00  0.00     0.078 H 
ENDBRANCH  35  45
ENDBRANCH  25  28
ENDBRANCH  22  25
ENDBRANCH   1  22
BRANCH  11  49
ATOM     49  N   LIG d   1       8.241   0.069  -4.119  0.00  0.00    -0.302 N 
ATOM     50  H   LIG d   1       8.935  -0.158  -3.423  0.00  0.00     0.123 HD
BRANCH  49  51
ATOM     51  C   LIG d   1       7.995   1.516  -4.165  0.00  0.00     0.055 C 
ATOM     52  H   LIG d   1       7.785   1.818  -5.190  0.00  0.00     0.050 H 
ATOM     53  H   LIG d   1       7.141   1.760  -3.532  0.00  0.00     0.050 H 
BRANCH  51  54
ATOM     54  C   LIG d   1       9.214   2.249  -3.665  0.00  0.00     0.119 A 
ATOM     55  O   LIG d   1       9.208   3.370  -2.926  0.00  0.00    -0.461 OA
ATOM     56  C   LIG d   1      10.473   3.738  -2.661  0.00  0.00     0.131 A 
ATOM     57  C   LIG d   1      11.303   2.853  -3.241  0.00  0.00    -0.018 A 
ATOM     58  C   LIG d   1      10.492   1.892  -3.888  0.00  0.00    -0.019 A 
ATOM     59  H   LIG d   1      12.383   2.871  -3.217  0.00  0.00     0.065 H 
ATOM     60  H   LIG d   1      10.832   1.038  -4.452  0.00  0.00     0.065 H 
BRANCH  56  61
ATOM     61  C   LIG d   1      10.890   4.942  -1.857  0.00  0.00     0.102 C 
ATOM     62  H   LIG d   1      11.615   5.525  -2.425  0.00  0.00     0.064 H 
ATOM     63  H   LIG d   1      10.015   5.557  -1.643  0.00  0.00     0.064 H 
BRANCH  61  64
ATOM     64  O   LIG d   1      11.481   4.513  -0.629  0.00  0.00    -0.387 OA
ATOM     65  H   LIG d   1      11.709   5.236  -0.029  0.00  0.00     0.210 HD
ENDBRANCH  61  64
ENDBRANCH  56  61
ENDBRANCH  51  54
ENDBRANCH  49  51
ENDBRANCH  11  49
TORSDOF 9
ENDMDL
MODEL 4
REMARK VINA RESULT:      -6.6      4.234      5.965
REMARK  9 active torsions:
REMARK  status: ('A' for Active; 'I' for Inactive)
REMARK    1  A    between atoms: C_1  and  N_2 
REMARK       I    between atoms: N_5  and  C_8 
REMARK    2  A    between atoms: C_8  and  C_10 
REMARK    3  A    between atoms: C_10  and  C_11 
REMARK    4  A    between atoms: C_11  and  C_12 
REMARK    5  A    between atoms: C_22  and  N_25 
REMARK    6  A    between atoms: N_25  and  C_26 
REMARK    7  A    between atoms: C_26  and  C_27 
REMARK    8  A    between atoms: C_30  and  C_32 
REMARK    9  A    between atoms: C_32  and  O_33 
ROOT
ATOM      1  C   LIG d   1       6.316   0.759  -9.103  0.00  0.00    -0.004 C 
ATOM      2  H   LIG d   1       6.289   0.451 -10.148  0.00  0.00     0.087 H 
ATOM      3  C   LIG d   1       5.924   2.239  -8.984  0.00  0.00     0.055 C 
ATOM      4  N   LIG d   1       4.482   2.433  -9.074  0.00  0.00    -0.305 N 
ATOM      5  C   LIG d   1       3.576   1.434  -9.058  0.00  0.00     0.262 C 
ATOM      6  O   LIG d   1       2.389   1.679  -9.031  0.00  0.00    -0.270 OA
ATOM      7  C   LIG d   1       4.061   0.020  -9.075  0.00  0.00     0.059 C 
ATOM      8  H   LIG d   1       4.199  -0.321 -10.100  0.00  0.00     0.095 H 
ATOM      9  N   LIG d   1       5.352  -0.011  -8.336  0.00  0.00     0.248 N 
ATOM     10  C   LIG d   1       5.629  -1.427  -8.117  0.00  0.00    -0.015 C 
ATOM     11  C   LIG d   1       4.243  -2.108  -7.987  0.00  0.00     0.054 C 
ATOM     12  H   LIG d   1       4.142  -2.907  -8.721  0.00  0.00     0.051 H 
ATOM     13  C   LIG d   1       3.200  -0.979  -8.289  0.00  0.00     0.019 C 
ATOM     14  H   LIG d   1       6.274   2.623  -8.026  0.00  0.00     0.052 H 
ATOM     15  H   LIG d   1       6.408   2.798  -9.785  0.00  0.00     0.052 H 
ATOM     16  H   LIG d   1       4.151   3.342  -9.150  0.00  0.00     0.149 HD
ATOM     17  H   LIG d   1       6.174  -1.841  -8.966  0.00  0.00     0.083 H 
ATOM     18  H   LIG d   1       6.202  -1.561  -7.199  0.00  0.00     0.083 H 
ATOM     19  H   LIG d   1       2.830  -0.534  -7.366  0.00  0.00     0.034 H 
ATOM     20  H   LIG d   1       2.376  -1.349  -8.900  0.00  0.00     0.034 H 
ATOM     21  H   LIG d   1       5.222   0.427  -7.437  0.00  0.00     0.204 HD
ENDROOT
BRANCH   1  22
ATOM     22  C   LIG d   1       7.720   0.546  -8.534  0.00  0.00     0.000 C 
ATOM     23  H   LIG d   1       8.416   0.345  -9.349  0.00  0.00     0.033 H 
ATOM     24  H   LIG d   1       7.710  -0.301  -7.849  0.00  0.00     0.033 H 
BRANCH  22  25
ATOM     25  C   LIG d   1       8.163   1.803  -7.784  0.00  0.00     0.029 C 
ATOM     26  H   LIG d   1       7.492   2.627  -8.028  0.00  0.00     0.036 H 
ATOM     27  H   LIG d   1       9.180   2.064  -8.079  0.00  0.00     0.036 H 
BRANCH  25  28
ATOM     28  C   LIG d   1       8.122   1.544  -6.300  0.00  0.00     0.216 C 
ATOM     29  N   LIG d   1       9.169   1.892  -5.525  0.00  0.00    -0.291 N 
ATOM     30  C   LIG d   1       9.151   1.648  -4.075  0.00  0.00     0.055 C 
ATOM     31  C   LIG d   1      10.361   2.527  -6.107  0.00  0.00     0.055 C 
ATOM     32  C   LIG d   1       9.532   2.948  -3.359  0.00  0.00    -0.016 C 
ATOM     33  H   LIG d   1       9.870   0.868  -3.826  0.00  0.00     0.052 H 
ATOM     34  H   LIG d   1       8.151   1.341  -3.768  0.00  0.00     0.052 H 
ATOM     35  N   LIG d   1      10.819   3.431  -3.876  0.00  0.00     0.235 N 
ATOM     36  H   LIG d   1       9.618   2.762  -2.289  0.00  0.00     0.083 H 
ATOM     37  H   LIG d   1       8.764   3.701  -3.537  0.00  0.00     0.083 H 
ATOM     38  C   LIG d   1      10.686   3.786  -5.295  0.00  0.00    -0.016 C 
ATOM     39  H   LIG d   1      11.513   2.705  -3.776  0.00  0.00     0.203 HD
ATOM     40  H   LIG d   1       9.884   4.513  -5.414  0.00  0.00     0.083 H 
ATOM     41  H   LIG d   1      11.622   4.216  -5.651  0.00  0.00     0.083 H 
ATOM     42  H   LIG d   1      11.203   1.836  -6.063  0.00  0.00     0.052 H 
ATOM     43  H   LIG d   1      10.162   2.801  -7.143  0.00  0.00     0.052 H 
ATOM     44  O   LIG d   1       7.147   1.021  -5.802  0.00  0.00    -0.276 OA
BRANCH  35  45
ATOM     45  C   LIG d   1      11.238   4.615  -3.115  0.00  0.00    -0.043 C 
ATOM     46  H   LIG d   1      10.603   4.725  -2.236  0.00  0.00     0.078 H 
ATOM     47  H   LIG d   1      12.276   4.497  -2.801  0.00  0.00     0.078 H 
ATOM     48  H   LIG d   1      11.147   5.502  -3.742  0.00  0.00     0.078 H 
ENDBRANCH  35  45
ENDBRANCH  25  28
ENDBRANCH  22  25
ENDBRANCH   1  22
BRANCH  11  49
ATOM     49  N   LIG d   1       4.057  -2.637  -6.629  0.00  0.00    -0.302 N 
ATOM     50  H   LIG d   1       3.190  -2.312  -6.230  0.00  0.00     0.123 HD
BRANCH  49  51
ATOM     51  C   LIG d   1       5.196  -2.287  -5.768  0.00  0.00     0.055 C 
ATOM     52  H   LIG d   1       5.792  -3.178  -5.572  0.00  0.00     0.050 H 
ATOM     53  H   LIG d   1       5.812  -1.540  -6.267  0.00  0.00     0.050 H 
BRANCH  51  54
ATOM     54  C   LIG d   1       4.686  -1.728  -4.465  0.00  0.00     0.119 A 
ATOM     55  O   LIG d   1       4.549  -0.425  -4.169  0.00  0.00    -0.461 OA
ATOM     56  C   LIG d   1       4.065  -0.297  -2.923  0.00  0.00     0.131 A 
ATOM     57  C   LIG d   1       3.896  -1.526  -2.404  0.00  0.00    -0.018 A 
ATOM     58  C   LIG d   1       4.296  -2.449  -3.398  0.00  0.00    -0.019 A 
ATOM     59  H   LIG d   1       3.526  -1.764  -1.418  0.00  0.00     0.065 H 
ATOM     60  H   LIG d   1       4.290  -3.525  -3.317  0.00  0.00     0.065 H 
BRANCH  56  61
ATOM     61  C   LIG d   1       3.767   1.003  -2.222  0.00  0.00     0.102 C 
ATOM     62  H   LIG d   1       3.698   1.805  -2.958  0.00  0.00     0.064 H 
ATOM     63  H   LIG d   1       2.821   0.919  -1.686  0.00  0.00     0.064 H 
BRANCH  61  64
ATOM     64  O   LIG d   1       4.815   1.297  -1.296  0.00  0.00    -0.387 OA
ATOM     65  H   LIG d   1       5.518   0.635  -1.275  0.00  0.00     0.210 HD
ENDBRANCH  61  64
ENDBRANCH  56  61
ENDBRANCH  51  54
ENDBRANCH  49  51
ENDBRANCH  11  49
TORSDOF 9
ENDMDL
MODEL 5
REMARK VINA RESULT:      -6.5      3.924      8.859
REMARK  9 active torsions:
REMARK  status: ('A' for Active; 'I' for Inactive)
REMARK    1  A    between atoms: C_1  and  N_2 
REMARK       I    between atoms: N_5  and  C_8 
REMARK    2  A    between atoms: C_8  and  C_10 
REMARK    3  A    between atoms: C_10  and  C_11 
REMARK    4  A    between atoms: C_11  and  C_12 
REMARK    5  A    between atoms: C_22  and  N_25 
REMARK    6  A    between atoms: N_25  and  C_26 
REMARK    7  A    between atoms: C_26  and  C_27 
REMARK    8  A    between atoms: C_30  and  C_32 
REMARK    9  A    between atoms: C_32  and  O_33 
ROOT
ATOM      1  C   LIG d   1       6.104  -2.545  -4.649  0.00  0.00    -0.004 C 
ATOM      2  H   LIG d   1       6.461  -3.031  -3.741  0.00  0.00     0.087 H 
ATOM      3  C   LIG d   1       4.675  -3.010  -4.964  0.00  0.00     0.055 C 
ATOM      4  N   LIG d   1       3.684  -2.335  -4.134  0.00  0.00    -0.305 N 
ATOM      5  C   LIG d   1       3.951  -1.286  -3.331  0.00  0.00     0.262 C 
ATOM      6  O   LIG d   1       3.054  -0.711  -2.751  0.00  0.00    -0.270 OA
ATOM      7  C   LIG d   1       5.368  -0.844  -3.167  0.00  0.00     0.059 C 
ATOM      8  H   LIG d   1       5.846  -1.396  -2.357  0.00  0.00     0.095 H 
ATOM      9  N   LIG d   1       6.063  -1.106  -4.456  0.00  0.00     0.248 N 
ATOM     10  C   LIG d   1       7.333  -0.395  -4.354  0.00  0.00    -0.015 C 
ATOM     11  C   LIG d   1       7.049   0.840  -3.460  0.00  0.00     0.054 C 
ATOM     12  H   LIG d   1       7.718   0.848  -2.599  0.00  0.00     0.051 H 
ATOM     13  C   LIG d   1       5.569   0.666  -2.978  0.00  0.00     0.019 C 
ATOM     14  H   LIG d   1       4.459  -2.805  -6.013  0.00  0.00     0.052 H 
ATOM     15  H   LIG d   1       4.608  -4.085  -4.794  0.00  0.00     0.052 H 
ATOM     16  H   LIG d   1       2.771  -2.663  -4.162  0.00  0.00     0.149 HD
ATOM     17  H   LIG d   1       8.086  -1.031  -3.888  0.00  0.00     0.083 H 
ATOM     18  H   LIG d   1       7.666  -0.076  -5.341  0.00  0.00     0.083 H 
ATOM     19  H   LIG d   1       4.885   1.233  -3.609  0.00  0.00     0.034 H 
ATOM     20  H   LIG d   1       5.455   0.946  -1.930  0.00  0.00     0.034 H 
ATOM     21  H   LIG d   1       5.528  -0.689  -5.202  0.00  0.00     0.204 HD
ENDROOT
BRANCH   1  22
ATOM     22  C   LIG d   1       7.031  -2.886  -5.818  0.00  0.00     0.000 C 
ATOM     23  H   LIG d   1       7.542  -3.827  -5.615  0.00  0.00     0.033 H 
ATOM     24  H   LIG d   1       7.768  -2.092  -5.940  0.00  0.00     0.033 H 
BRANCH  22  25
ATOM     25  C   LIG d   1       6.208  -3.018  -7.101  0.00  0.00     0.029 C 
ATOM     26  H   LIG d   1       5.146  -3.008  -6.853  0.00  0.00     0.036 H 
ATOM     27  H   LIG d   1       6.456  -3.957  -7.596  0.00  0.00     0.036 H 
BRANCH  25  28
ATOM     28  C   LIG d   1       6.521  -1.866  -8.020  0.00  0.00     0.216 C 
ATOM     29  N   LIG d   1       5.520  -1.132  -8.546  0.00  0.00    -0.291 N 
ATOM     30  C   LIG d   1       5.802  -0.003  -9.446  0.00  0.00     0.055 C 
ATOM     31  C   LIG d   1       4.116  -1.437  -8.235  0.00  0.00     0.055 C 
ATOM     32  C   LIG d   1       5.032   1.222  -8.944  0.00  0.00    -0.016 C 
ATOM     33  H   LIG d   1       5.478  -0.251 -10.457  0.00  0.00     0.052 H 
ATOM     34  H   LIG d   1       6.872   0.209  -9.442  0.00  0.00     0.052 H 
ATOM     35  N   LIG d   1       3.608   0.888  -8.820  0.00  0.00     0.235 N 
ATOM     36  H   LIG d   1       5.152   2.042  -9.652  0.00  0.00     0.083 H 
ATOM     37  H   LIG d   1       5.420   1.523  -7.971  0.00  0.00     0.083 H 
ATOM     38  C   LIG d   1       3.424  -0.143  -7.791  0.00  0.00    -0.016 C 
ATOM     39  H   LIG d   1       3.268   0.541  -9.705  0.00  0.00     0.203 HD
ATOM     40  H   LIG d   1       3.861   0.199  -6.852  0.00  0.00     0.083 H 
ATOM     41  H   LIG d   1       2.360  -0.330  -7.649  0.00  0.00     0.083 H 
ATOM     42  H   LIG d   1       3.620  -1.829  -9.124  0.00  0.00     0.052 H 
ATOM     43  H   LIG d   1       4.068  -2.172  -7.432  0.00  0.00     0.052 H 
ATOM     44  O   LIG d   1       7.674  -1.600  -8.288  0.00  0.00    -0.276 OA
BRANCH  35  45
ATOM     45  C   LIG d   1       2.854   2.091  -8.445  0.00  0.00    -0.043 C 
ATOM     46  H   LIG d   1       1.823   1.818  -8.220  0.00  0.00     0.078 H 
ATOM     47  H   LIG d   1       3.310   2.546  -7.564  0.00  0.00     0.078 H 
ATOM     48  H   LIG d   1       2.871   2.803  -9.270  0.00  0.00     0.078 H 
ENDBRANCH  35  45
ENDBRANCH  25  28
ENDBRANCH  22  25
ENDBRANCH   1  22
BRANCH  11  49
ATOM     49  N   LIG d   1       7.201   2.079  -4.236  0.00  0.00    -0.302 N 
ATOM     50  H   LIG d   1       6.541   2.110  -4.998  0.00  0.00     0.123 HD
BRANCH  49  51
ATOM     51  C   LIG d   1       8.578   2.229  -4.723  0.00  0.00     0.055 C 
ATOM     52  H   LIG d   1       9.167   1.363  -4.423  0.00  0.00     0.050 H 
ATOM     53  H   LIG d   1       8.572   2.305  -5.811  0.00  0.00     0.050 H 
BRANCH  51  54
ATOM     54  C   LIG d   1       9.185   3.477  -4.137  0.00  0.00     0.119 A 
ATOM     55  O   LIG d   1       9.550   3.646  -2.855  0.00  0.00    -0.461 OA
ATOM     56  C   LIG d   1      10.056   4.880  -2.692  0.00  0.00     0.131 A 
ATOM     57  C   LIG d   1      10.010   5.517  -3.875  0.00  0.00    -0.018 A 
ATOM     58  C   LIG d   1       9.449   4.614  -4.807  0.00  0.00    -0.019 A 
ATOM     59  H   LIG d   1      10.339   6.526  -4.076  0.00  0.00     0.065 H 
ATOM     60  H   LIG d   1       9.267   4.799  -5.854  0.00  0.00     0.065 H 
BRANCH  56  61
ATOM     61  C   LIG d   1      10.580   5.453  -1.401  0.00  0.00     0.102 C 
ATOM     62  H   LIG d   1      11.227   6.304  -1.617  0.00  0.00     0.064 H 
ATOM     63  H   LIG d   1       9.743   5.780  -0.783  0.00  0.00     0.064 H 
BRANCH  61  64
ATOM     64  O   LIG d   1      11.325   4.454  -0.703  0.00  0.00    -0.387 OA
ATOM     65  H   LIG d   1      10.934   3.571  -0.744  0.00  0.00     0.210 HD
ENDBRANCH  61  64
ENDBRANCH  56  61
ENDBRANCH  51  54
ENDBRANCH  49  51
ENDBRANCH  11  49
TORSDOF 9
ENDMDL
MODEL 6
REMARK VINA RESULT:      -6.5      4.305      8.147
REMARK  9 active torsions:
REMARK  status: ('A' for Active; 'I' for Inactive)
REMARK    1  A    between atoms: C_1  and  N_2 
REMARK       I    between atoms: N_5  and  C_8 
REMARK    2  A    between atoms: C_8  and  C_10 
REMARK    3  A    between atoms: C_10  and  C_11 
REMARK    4  A    between atoms: C_11  and  C_12 
REMARK    5  A    between atoms: C_22  and  N_25 
REMARK    6  A    between atoms: N_25  and  C_26 
REMARK    7  A    between atoms: C_26  and  C_27 
REMARK    8  A    between atoms: C_30  and  C_32 
REMARK    9  A    between atoms: C_32  and  O_33 
ROOT
ATOM      1  C   LIG d   1       3.737  -0.666 -10.673  0.00  0.00    -0.004 C 
ATOM      2  H   LIG d   1       2.680  -0.934 -10.647  0.00  0.00     0.087 H 
ATOM      3  C   LIG d   1       3.905   0.736 -11.275  0.00  0.00     0.055 C 
ATOM      4  N   LIG d   1       3.594   1.787 -10.313  0.00  0.00    -0.305 N 
ATOM      5  C   LIG d   1       3.381   1.577  -8.998  0.00  0.00     0.262 C 
ATOM      6  O   LIG d   1       3.231   2.513  -8.242  0.00  0.00    -0.270 OA
ATOM      7  C   LIG d   1       3.333   0.174  -8.490  0.00  0.00     0.059 C 
ATOM      8  H   LIG d   1       2.320  -0.222  -8.566  0.00  0.00     0.095 H 
ATOM      9  N   LIG d   1       4.269  -0.629  -9.322  0.00  0.00     0.248 N 
ATOM     10  C   LIG d   1       4.418  -1.895  -8.612  0.00  0.00    -0.015 C 
ATOM     11  C   LIG d   1       4.263  -1.550  -7.108  0.00  0.00     0.054 C 
ATOM     12  H   LIG d   1       3.461  -2.140  -6.664  0.00  0.00     0.051 H 
ATOM     13  C   LIG d   1       3.883  -0.031  -7.072  0.00  0.00     0.019 C 
ATOM     14  H   LIG d   1       4.936   0.856 -11.610  0.00  0.00     0.052 H 
ATOM     15  H   LIG d   1       3.242   0.834 -12.135  0.00  0.00     0.052 H 
ATOM     16  H   LIG d   1       3.537   2.698 -10.641  0.00  0.00     0.149 HD
ATOM     17  H   LIG d   1       3.641  -2.594  -8.920  0.00  0.00     0.083 H 
ATOM     18  H   LIG d   1       5.405  -2.318  -8.801  0.00  0.00     0.083 H 
ATOM     19  H   LIG d   1       4.765   0.586  -6.902  0.00  0.00     0.034 H 
ATOM     20  H   LIG d   1       3.117   0.171  -6.323  0.00  0.00     0.034 H 
ATOM     21  H   LIG d   1       5.166  -0.168  -9.335  0.00  0.00     0.204 HD
ENDROOT
BRANCH   1  22
ATOM     22  C   LIG d   1       4.511  -1.688 -11.508  0.00  0.00     0.000 C 
ATOM     23  H   LIG d   1       5.192  -2.244 -10.863  0.00  0.00     0.033 H 
ATOM     24  H   LIG d   1       5.081  -1.170 -12.278  0.00  0.00     0.033 H 
BRANCH  22  25
ATOM     25  C   LIG d   1       3.528  -2.657 -12.168  0.00  0.00     0.029 C 
ATOM     26  H   LIG d   1       3.836  -2.842 -13.197  0.00  0.00     0.036 H 
ATOM     27  H   LIG d   1       2.528  -2.221 -12.162  0.00  0.00     0.036 H 
BRANCH  25  28
ATOM     28  C   LIG d   1       3.515  -3.957 -11.406  0.00  0.00     0.216 C 
ATOM     29  N   LIG d   1       2.457  -4.275 -10.634  0.00  0.00    -0.291 N 
ATOM     30  C   LIG d   1       2.422  -5.538  -9.880  0.00  0.00     0.055 C 
ATOM     31  C   LIG d   1       1.304  -3.369 -10.522  0.00  0.00     0.055 C 
ATOM     32  C   LIG d   1       1.092  -6.240 -10.172  0.00  0.00    -0.016 C 
ATOM     33  H   LIG d   1       2.500  -5.330  -8.813  0.00  0.00     0.052 H 
ATOM     34  H   LIG d   1       3.249  -6.174 -10.195  0.00  0.00     0.052 H 
ATOM     35  N   LIG d   1      -0.018  -5.327  -9.874  0.00  0.00     0.235 N 
ATOM     36  H   LIG d   1       1.007  -7.130  -9.548  0.00  0.00     0.083 H 
ATOM     37  H   LIG d   1       1.054  -6.528 -11.222  0.00  0.00     0.083 H 
ATOM     38  C   LIG d   1       0.026  -4.174 -10.782  0.00  0.00    -0.016 C 
ATOM     39  H   LIG d   1       0.059  -5.006  -8.920  0.00  0.00     0.203 HD
ATOM     40  H   LIG d   1       0.020  -4.524 -11.814  0.00  0.00     0.083 H 
ATOM     41  H   LIG d   1      -0.844  -3.541 -10.609  0.00  0.00     0.083 H 
ATOM     42  H   LIG d   1       1.269  -2.942  -9.519  0.00  0.00     0.052 H 
ATOM     43  H   LIG d   1       1.390  -2.571 -11.260  0.00  0.00     0.052 H 
ATOM     44  O   LIG d   1       4.457  -4.717 -11.486  0.00  0.00    -0.276 OA
BRANCH  35  45
ATOM     45  C   LIG d   1      -1.293  -6.036 -10.048  0.00  0.00    -0.043 C 
ATOM     46  H   LIG d   1      -1.492  -6.647  -9.167  0.00  0.00     0.078 H 
ATOM     47  H   LIG d   1      -2.097  -5.310 -10.176  0.00  0.00     0.078 H 
ATOM     48  H   LIG d   1      -1.237  -6.675 -10.929  0.00  0.00     0.078 H 
ENDBRANCH  35  45
ENDBRANCH  25  28
ENDBRANCH  22  25
ENDBRANCH   1  22
BRANCH  11  49
ATOM     49  N   LIG d   1       5.526  -1.788  -6.395  0.00  0.00    -0.302 N 
ATOM     50  H   LIG d   1       6.252  -2.073  -7.034  0.00  0.00     0.123 HD
BRANCH  49  51
ATOM     51  C   LIG d   1       5.348  -2.778  -5.325  0.00  0.00     0.055 C 
ATOM     52  H   LIG d   1       4.589  -3.502  -5.621  0.00  0.00     0.050 H 
ATOM     53  H   LIG d   1       6.291  -3.293  -5.145  0.00  0.00     0.050 H 
BRANCH  51  54
ATOM     54  C   LIG d   1       4.910  -2.079  -4.063  0.00  0.00     0.119 A 
ATOM     55  O   LIG d   1       5.160  -0.798  -3.747  0.00  0.00    -0.461 OA
ATOM     56  C   LIG d   1       4.617  -0.517  -2.551  0.00  0.00     0.131 A 
ATOM     57  C   LIG d   1       4.017  -1.627  -2.086  0.00  0.00    -0.018 A 
ATOM     58  C   LIG d   1       4.205  -2.634  -3.060  0.00  0.00    -0.019 A 
ATOM     59  H   LIG d   1       3.492  -1.730  -1.148  0.00  0.00     0.065 H 
ATOM     60  H   LIG d   1       3.852  -3.653  -3.010  0.00  0.00     0.065 H 
BRANCH  56  61
ATOM     61  C   LIG d   1       4.674   0.814  -1.849  0.00  0.00     0.102 C 
ATOM     62  H   LIG d   1       4.878   0.658  -0.789  0.00  0.00     0.064 H 
ATOM     63  H   LIG d   1       5.467   1.422  -2.286  0.00  0.00     0.064 H 
BRANCH  61  64
ATOM     64  O   LIG d   1       3.422   1.487  -1.998  0.00  0.00    -0.387 OA
ATOM     65  H   LIG d   1       2.740   1.190  -1.382  0.00  0.00     0.210 HD
ENDBRANCH  61  64
ENDBRANCH  56  61
ENDBRANCH  51  54
ENDBRANCH  49  51
ENDBRANCH  11  49
TORSDOF 9
ENDMDL
MODEL 7
REMARK VINA RESULT:      -6.5      5.059      9.354
REMARK  9 active torsions:
REMARK  status: ('A' for Active; 'I' for Inactive)
REMARK    1  A    between atoms: C_1  and  N_2 
REMARK       I    between atoms: N_5  and  C_8 
REMARK    2  A    between atoms: C_8  and  C_10 
REMARK    3  A    between atoms: C_10  and  C_11 
REMARK    4  A    between atoms: C_11  and  C_12 
REMARK    5  A    between atoms: C_22  and  N_25 
REMARK    6  A    between atoms: N_25  and  C_26 
REMARK    7  A    between atoms: C_26  and  C_27 
REMARK    8  A    between atoms: C_30  and  C_32 
REMARK    9  A    between atoms: C_32  and  O_33 
ROOT
ATOM      1  C   LIG d   1       4.079  -0.496  -5.839  0.00  0.00    -0.004 C 
ATOM      2  H   LIG d   1       3.801  -1.483  -5.469  0.00  0.00     0.087 H 
ATOM      3  C   LIG d   1       2.874   0.452  -5.751  0.00  0.00     0.055 C 
ATOM      4  N   LIG d   1       2.664   0.947  -4.396  0.00  0.00    -0.305 N 
ATOM      5  C   LIG d   1       3.528   0.767  -3.377  0.00  0.00     0.262 C 
ATOM      6  O   LIG d   1       3.334   1.297  -2.303  0.00  0.00    -0.270 OA
ATOM      7  C   LIG d   1       4.728  -0.097  -3.591  0.00  0.00     0.059 C 
ATOM      8  H   LIG d   1       4.489  -1.138  -3.377  0.00  0.00     0.095 H 
ATOM      9  N   LIG d   1       5.136   0.061  -5.014  0.00  0.00     0.248 N 
ATOM     10  C   LIG d   1       6.460  -0.546  -5.099  0.00  0.00    -0.015 C 
ATOM     11  C   LIG d   1       7.112  -0.320  -3.710  0.00  0.00     0.054 C 
ATOM     12  H   LIG d   1       7.415  -1.272  -3.274  0.00  0.00     0.051 H 
ATOM     13  C   LIG d   1       5.991   0.330  -2.831  0.00  0.00     0.019 C 
ATOM     14  H   LIG d   1       3.042   1.300  -6.416  0.00  0.00     0.052 H 
ATOM     15  H   LIG d   1       1.981  -0.080  -6.078  0.00  0.00     0.052 H 
ATOM     16  H   LIG d   1       1.847   1.438  -4.215  0.00  0.00     0.149 HD
ATOM     17  H   LIG d   1       6.374  -1.612  -5.305  0.00  0.00     0.083 H 
ATOM     18  H   LIG d   1       7.049  -0.057  -5.875  0.00  0.00     0.083 H 
ATOM     19  H   LIG d   1       6.089   1.415  -2.815  0.00  0.00     0.034 H 
ATOM     20  H   LIG d   1       5.992  -0.075  -1.818  0.00  0.00     0.034 H 
ATOM     21  H   LIG d   1       5.227   1.045  -5.216  0.00  0.00     0.204 HD
ENDROOT
BRANCH   1  22
ATOM     22  C   LIG d   1       4.553  -0.601  -7.290  0.00  0.00     0.000 C 
ATOM     23  H   LIG d   1       5.566  -1.004  -7.313  0.00  0.00     0.033 H 
ATOM     24  H   LIG d   1       4.546   0.388  -7.747  0.00  0.00     0.033 H 
BRANCH  22  25
ATOM     25  C   LIG d   1       3.617  -1.528  -8.068  0.00  0.00     0.029 C 
ATOM     26  H   LIG d   1       2.735  -1.743  -7.464  0.00  0.00     0.036 H 
ATOM     27  H   LIG d   1       4.136  -2.460  -8.296  0.00  0.00     0.036 H 
BRANCH  25  28
ATOM     28  C   LIG d   1       3.198  -0.859  -9.351  0.00  0.00     0.216 C 
ATOM     29  N   LIG d   1       2.715  -1.597 -10.370  0.00  0.00    -0.291 N 
ATOM     30  C   LIG d   1       2.300  -0.965 -11.631  0.00  0.00     0.055 C 
ATOM     31  C   LIG d   1       2.587  -3.057 -10.250  0.00  0.00     0.055 C 
ATOM     32  C   LIG d   1       0.894  -1.462 -11.984  0.00  0.00    -0.016 C 
ATOM     33  H   LIG d   1       2.995  -1.239 -12.425  0.00  0.00     0.052 H 
ATOM     34  H   LIG d   1       2.285   0.118 -11.511  0.00  0.00     0.052 H 
ATOM     35  N   LIG d   1       0.887  -2.930 -12.011  0.00  0.00     0.235 N 
ATOM     36  H   LIG d   1       0.609  -1.079 -12.964  0.00  0.00     0.083 H 
ATOM     37  H   LIG d   1       0.185  -1.110 -11.235  0.00  0.00     0.083 H 
ATOM     38  C   LIG d   1       1.167  -3.456 -10.669  0.00  0.00    -0.016 C 
ATOM     39  H   LIG d   1       1.595  -3.256 -12.653  0.00  0.00     0.203 HD
ATOM     40  H   LIG d   1       0.449  -3.043  -9.961  0.00  0.00     0.083 H 
ATOM     41  H   LIG d   1       1.083  -4.542 -10.680  0.00  0.00     0.083 H 
ATOM     42  H   LIG d   1       3.310  -3.543 -10.905  0.00  0.00     0.052 H 
ATOM     43  H   LIG d   1       2.761  -3.358  -9.218  0.00  0.00     0.052 H 
ATOM     44  O   LIG d   1       3.297   0.345  -9.467  0.00  0.00    -0.276 OA
BRANCH  35  45
ATOM     45  C   LIG d   1      -0.429  -3.404 -12.456  0.00  0.00    -0.043 C 
ATOM     46  H   LIG d   1      -1.160  -3.245 -11.663  0.00  0.00     0.078 H 
ATOM     47  H   LIG d   1      -0.733  -2.852 -13.346  0.00  0.00     0.078 H 
ATOM     48  H   LIG d   1      -0.373  -4.467 -12.690  0.00  0.00     0.078 H 
ENDBRANCH  35  45
ENDBRANCH  25  28
ENDBRANCH  22  25
ENDBRANCH   1  22
BRANCH  11  49
ATOM     49  N   LIG d   1       8.268   0.579  -3.828  0.00  0.00    -0.302 N 
ATOM     50  H   LIG d   1       8.543   0.932  -2.924  0.00  0.00     0.123 HD
BRANCH  49  51
ATOM     51  C   LIG d   1       7.986   1.680  -4.759  0.00  0.00     0.055 C 
ATOM     52  H   LIG d   1       8.258   1.380  -5.771  0.00  0.00     0.050 H 
ATOM     53  H   LIG d   1       6.924   1.922  -4.725  0.00  0.00     0.050 H 
BRANCH  51  54
ATOM     54  C   LIG d   1       8.789   2.892  -4.362  0.00  0.00     0.119 A 
ATOM     55  O   LIG d   1       9.191   3.195  -3.117  0.00  0.00    -0.461 OA
ATOM     56  C   LIG d   1       9.887   4.343  -3.138  0.00  0.00     0.131 A 
ATOM     57  C   LIG d   1       9.929   4.792  -4.405  0.00  0.00    -0.018 A 
ATOM     58  C   LIG d   1       9.221   3.856  -5.194  0.00  0.00    -0.019 A 
ATOM     59  H   LIG d   1      10.410   5.694  -4.753  0.00  0.00     0.065 H 
ATOM     60  H   LIG d   1       9.059   3.906  -6.260  0.00  0.00     0.065 H 
BRANCH  56  61
ATOM     61  C   LIG d   1      10.510   5.017  -1.943  0.00  0.00     0.102 C 
ATOM     62  H   LIG d   1      11.206   5.786  -2.281  0.00  0.00     0.064 H 
ATOM     63  H   LIG d   1       9.729   5.476  -1.336  0.00  0.00     0.064 H 
BRANCH  61  64
ATOM     64  O   LIG d   1      11.213   4.049  -1.162  0.00  0.00    -0.387 OA
ATOM     65  H   LIG d   1      11.309   3.190  -1.593  0.00  0.00     0.210 HD
ENDBRANCH  61  64
ENDBRANCH  56  61
ENDBRANCH  51  54
ENDBRANCH  49  51
ENDBRANCH  11  49
TORSDOF 9
ENDMDL
MODEL 8
REMARK VINA RESULT:      -6.3      4.116      7.364
REMARK  9 active torsions:
REMARK  status: ('A' for Active; 'I' for Inactive)
REMARK    1  A    between atoms: C_1  and  N_2 
REMARK       I    between atoms: N_5  and  C_8 
REMARK    2  A    between atoms: C_8  and  C_10 
REMARK    3  A    between atoms: C_10  and  C_11 
REMARK    4  A    between atoms: C_11  and  C_12 
REMARK    5  A    between atoms: C_22  and  N_25 
REMARK    6  A    between atoms: N_25  and  C_26 
REMARK    7  A    between atoms: C_26  and  C_27 
REMARK    8  A    between atoms: C_30  and  C_32 
REMARK    9  A    between atoms: C_32  and  O_33 
ROOT
ATOM      1  C   LIG d   1       2.651  -0.454 -11.296  0.00  0.00    -0.004 C 
ATOM      2  H   LIG d   1       2.167   0.483 -11.571  0.00  0.00     0.087 H 
ATOM      3  C   LIG d   1       3.905  -0.666 -12.156  0.00  0.00     0.055 C 
ATOM      4  N   LIG d   1       5.032   0.131 -11.686  0.00  0.00    -0.305 N 
ATOM      5  C   LIG d   1       5.049   0.816 -10.524  0.00  0.00     0.262 C 
ATOM      6  O   LIG d   1       6.061   1.371 -10.151  0.00  0.00    -0.270 OA
ATOM      7  C   LIG d   1       3.801   0.881  -9.706  0.00  0.00     0.059 C 
ATOM      8  H   LIG d   1       3.184   1.722 -10.022  0.00  0.00     0.095 H 
ATOM      9  N   LIG d   1       3.075  -0.402  -9.908  0.00  0.00     0.248 N 
ATOM     10  C   LIG d   1       2.042  -0.420  -8.877  0.00  0.00    -0.015 C 
ATOM     11  C   LIG d   1       2.639   0.358  -7.676  0.00  0.00     0.054 C 
ATOM     12  H   LIG d   1       1.987   1.187  -7.400  0.00  0.00     0.051 H 
ATOM     13  C   LIG d   1       4.012   0.912  -8.186  0.00  0.00     0.019 C 
ATOM     14  H   LIG d   1       4.181  -1.720 -12.127  0.00  0.00     0.052 H 
ATOM     15  H   LIG d   1       3.680  -0.389 -13.185  0.00  0.00     0.052 H 
ATOM     16  H   LIG d   1       5.824   0.171 -12.246  0.00  0.00     0.149 HD
ATOM     17  H   LIG d   1       1.141   0.076  -9.237  0.00  0.00     0.083 H 
ATOM     18  H   LIG d   1       1.818  -1.446  -8.587  0.00  0.00     0.083 H 
ATOM     19  H   LIG d   1       4.830   0.256  -7.892  0.00  0.00     0.034 H 
ATOM     20  H   LIG d   1       4.186   1.931  -7.838  0.00  0.00     0.034 H 
ATOM     21  H   LIG d   1       3.711  -1.165  -9.730  0.00  0.00     0.204 HD
ENDROOT
BRANCH   1  22
ATOM     22  C   LIG d   1       1.679  -1.619 -11.498  0.00  0.00     0.000 C 
ATOM     23  H   LIG d   1       1.026  -1.405 -12.345  0.00  0.00     0.033 H 
ATOM     24  H   LIG d   1       1.077  -1.750 -10.600  0.00  0.00     0.033 H 
BRANCH  22  25
ATOM     25  C   LIG d   1       2.469  -2.900 -11.774  0.00  0.00     0.029 C 
ATOM     26  H   LIG d   1       3.520  -2.654 -11.923  0.00  0.00     0.036 H 
ATOM     27  H   LIG d   1       2.078  -3.382 -12.671  0.00  0.00     0.036 H 
BRANCH  25  28
ATOM     28  C   LIG d   1       2.333  -3.836 -10.601  0.00  0.00     0.216 C 
ATOM     29  N   LIG d   1       3.407  -4.124  -9.840  0.00  0.00    -0.291 N 
ATOM     30  C   LIG d   1       3.299  -5.035  -8.690  0.00  0.00     0.055 C 
ATOM     31  C   LIG d   1       4.722  -3.535 -10.136  0.00  0.00     0.055 C 
ATOM     32  C   LIG d   1       3.925  -4.354  -7.470  0.00  0.00    -0.016 C 
ATOM     33  H   LIG d   1       3.830  -5.962  -8.906  0.00  0.00     0.052 H 
ATOM     34  H   LIG d   1       2.248  -5.249  -8.491  0.00  0.00     0.052 H 
ATOM     35  N   LIG d   1       5.298  -3.945  -7.790  0.00  0.00     0.235 N 
ATOM     36  H   LIG d   1       3.940  -5.051  -6.632  0.00  0.00     0.083 H 
ATOM     37  H   LIG d   1       3.338  -3.476  -7.201  0.00  0.00     0.083 H 
ATOM     38  C   LIG d   1       5.283  -2.925  -8.846  0.00  0.00    -0.016 C 
ATOM     39  H   LIG d   1       5.821  -4.748  -8.107  0.00  0.00     0.203 HD
ATOM     40  H   LIG d   1       4.655  -2.090  -8.536  0.00  0.00     0.083 H 
ATOM     41  H   LIG d   1       6.297  -2.570  -9.024  0.00  0.00     0.083 H 
ATOM     42  H   LIG d   1       5.398  -4.311 -10.497  0.00  0.00     0.052 H 
ATOM     43  H   LIG d   1       4.615  -2.758 -10.892  0.00  0.00     0.052 H 
ATOM     44  O   LIG d   1       1.256  -4.331 -10.341  0.00  0.00    -0.276 OA
BRANCH  35  45
ATOM     45  C   LIG d   1       5.936  -3.392  -6.588  0.00  0.00    -0.043 C 
ATOM     46  H   LIG d   1       7.014  -3.539  -6.649  0.00  0.00     0.078 H 
ATOM     47  H   LIG d   1       5.719  -2.325  -6.520  0.00  0.00     0.078 H 
ATOM     48  H   LIG d   1       5.548  -3.898  -5.705  0.00  0.00     0.078 H 
ENDBRANCH  35  45
ENDBRANCH  25  28
ENDBRANCH  22  25
ENDBRANCH   1  22
BRANCH  11  49
ATOM     49  N   LIG d   1       2.834  -0.541  -6.530  0.00  0.00    -0.302 N 
ATOM     50  H   LIG d   1       2.201  -1.325  -6.574  0.00  0.00     0.123 HD
BRANCH  49  51
ATOM     51  C   LIG d   1       2.687   0.184  -5.261  0.00  0.00     0.055 C 
ATOM     52  H   LIG d   1       2.963   1.229  -5.404  0.00  0.00     0.050 H 
ATOM     53  H   LIG d   1       1.651   0.125  -4.927  0.00  0.00     0.050 H 
BRANCH  51  54
ATOM     54  C   LIG d   1       3.585  -0.435  -4.222  0.00  0.00     0.119 A 
ATOM     55  O   LIG d   1       4.877  -0.763  -4.394  0.00  0.00    -0.461 OA
ATOM     56  C   LIG d   1       5.361  -1.288  -3.256  0.00  0.00     0.131 A 
ATOM     57  C   LIG d   1       4.373  -1.307  -2.343  0.00  0.00    -0.018 A 
ATOM     58  C   LIG d   1       3.229  -0.758  -2.965  0.00  0.00    -0.019 A 
ATOM     59  H   LIG d   1       4.441  -1.673  -1.329  0.00  0.00     0.065 H 
ATOM     60  H   LIG d   1       2.256  -0.623  -2.518  0.00  0.00     0.065 H 
BRANCH  56  61
ATOM     61  C   LIG d   1       6.770  -1.776  -3.042  0.00  0.00     0.102 C 
ATOM     62  H   LIG d   1       6.901  -2.060  -1.997  0.00  0.00     0.064 H 
ATOM     63  H   LIG d   1       6.956  -2.640  -3.680  0.00  0.00     0.064 H 
BRANCH  61  64
ATOM     64  O   LIG d   1       7.691  -0.735  -3.371  0.00  0.00    -0.387 OA
ATOM     65  H   LIG d   1       7.574  -0.372  -4.259  0.00  0.00     0.210 HD
ENDBRANCH  61  64
ENDBRANCH  56  61
ENDBRANCH  51  54
ENDBRANCH  49  51
ENDBRANCH  11  49
TORSDOF 9
ENDMDL
MODEL 9
REMARK VINA RESULT:      -6.3      7.204     10.639
REMARK  9 active torsions:
REMARK  status: ('A' for Active; 'I' for Inactive)
REMARK    1  A    between atoms: C_1  and  N_2 
REMARK       I    between atoms: N_5  and  C_8 
REMARK    2  A    between atoms: C_8  and  C_10 
REMARK    3  A    between atoms: C_10  and  C_11 
REMARK    4  A    between atoms: C_11  and  C_12 
REMARK    5  A    between atoms: C_22  and  N_25 
REMARK    6  A    between atoms: N_25  and  C_26 
REMARK    7  A    between atoms: C_26  and  C_27 
REMARK    8  A    between atoms: C_30  and  C_32 
REMARK    9  A    between atoms: C_32  and  O_33 
ROOT
ATOM      1  C   LIG d   1      10.834   6.089  -2.454  0.00  0.00    -0.004 C 
ATOM      2  H   LIG d   1      11.884   6.186  -2.732  0.00  0.00     0.087 H 
ATOM      3  C   LIG d   1      10.049   7.314  -2.944  0.00  0.00     0.055 C 
ATOM      4  N   LIG d   1       9.748   7.238  -4.369  0.00  0.00    -0.305 N 
ATOM      5  C   LIG d   1       9.947   6.145  -5.133  0.00  0.00     0.262 C 
ATOM      6  O   LIG d   1       9.576   6.124  -6.287  0.00  0.00    -0.270 OA
ATOM      7  C   LIG d   1      10.635   4.962  -4.534  0.00  0.00     0.059 C 
ATOM      8  H   LIG d   1      11.715   5.054  -4.644  0.00  0.00     0.095 H 
ATOM      9  N   LIG d   1      10.261   4.917  -3.094  0.00  0.00     0.248 N 
ATOM     10  C   LIG d   1      10.696   3.604  -2.629  0.00  0.00    -0.015 C 
ATOM     11  C   LIG d   1      10.565   2.664  -3.854  0.00  0.00     0.054 C 
ATOM     12  H   LIG d   1      11.520   2.186  -4.070  0.00  0.00     0.051 H 
ATOM     13  C   LIG d   1      10.159   3.596  -5.046  0.00  0.00     0.019 C 
ATOM     14  H   LIG d   1       9.113   7.381  -2.388  0.00  0.00     0.052 H 
ATOM     15  H   LIG d   1      10.637   8.211  -2.753  0.00  0.00     0.052 H 
ATOM     16  H   LIG d   1       9.379   8.027  -4.797  0.00  0.00     0.149 HD
ATOM     17  H   LIG d   1      11.733   3.647  -2.296  0.00  0.00     0.083 H 
ATOM     18  H   LIG d   1      10.053   3.260  -1.820  0.00  0.00     0.083 H 
ATOM     19  H   LIG d   1       9.080   3.589  -5.195  0.00  0.00     0.034 H 
ATOM     20  H   LIG d   1      10.680   3.320  -5.964  0.00  0.00     0.034 H 
ATOM     21  H   LIG d   1       9.256   4.961  -3.019  0.00  0.00     0.204 HD
ENDROOT
BRANCH   1  22
ATOM     22  C   LIG d   1      10.708   5.964  -0.935  0.00  0.00     0.000 C 
ATOM     23  H   LIG d   1      11.688   5.754  -0.505  0.00  0.00     0.033 H 
ATOM     24  H   LIG d   1      10.023   5.152  -0.692  0.00  0.00     0.033 H 
BRANCH  22  25
ATOM     25  C   LIG d   1      10.169   7.275  -0.358  0.00  0.00     0.029 C 
ATOM     26  H   LIG d   1       9.197   7.096   0.102  0.00  0.00     0.036 H 
ATOM     27  H   LIG d   1      10.062   8.007  -1.159  0.00  0.00     0.036 H 
BRANCH  25  28
ATOM     28  C   LIG d   1      11.127   7.800   0.679  0.00  0.00     0.216 C 
ATOM     29  N   LIG d   1      11.694   9.012   0.521  0.00  0.00    -0.291 N 
ATOM     30  C   LIG d   1      12.633   9.545   1.520  0.00  0.00     0.055 C 
ATOM     31  C   LIG d   1      11.391   9.840  -0.656  0.00  0.00     0.055 C 
ATOM     32  C   LIG d   1      12.188  10.961   1.898  0.00  0.00    -0.016 C 
ATOM     33  H   LIG d   1      13.638   9.576   1.099  0.00  0.00     0.052 H 
ATOM     34  H   LIG d   1      12.623   8.910   2.407  0.00  0.00     0.052 H 
ATOM     35  N   LIG d   1      12.071  11.777   0.682  0.00  0.00     0.235 N 
ATOM     36  H   LIG d   1      12.926  11.408   2.565  0.00  0.00     0.083 H 
ATOM     37  H   LIG d   1      11.222  10.918   2.400  0.00  0.00     0.083 H 
ATOM     38  C   LIG d   1      11.006  11.244  -0.176  0.00  0.00    -0.016 C 
ATOM     39  H   LIG d   1      12.947  11.757   0.180  0.00  0.00     0.203 HD
ATOM     40  H   LIG d   1      10.075  11.193   0.389  0.00  0.00     0.083 H 
ATOM     41  H   LIG d   1      10.871  11.898  -1.038  0.00  0.00     0.083 H 
ATOM     42  H   LIG d   1      12.271   9.902  -1.297  0.00  0.00     0.052 H 
ATOM     43  H   LIG d   1      10.561   9.402  -1.209  0.00  0.00     0.052 H 
ATOM     44  O   LIG d   1      11.389   7.131   1.657  0.00  0.00    -0.276 OA
BRANCH  35  45
ATOM     45  C   LIG d   1      11.752  13.162   1.052  0.00  0.00    -0.043 C 
ATOM     46  H   LIG d   1      10.818  13.459   0.575  0.00  0.00     0.078 H 
ATOM     47  H   LIG d   1      11.647  13.234   2.135  0.00  0.00     0.078 H 
ATOM     48  H   LIG d   1      12.555  13.820   0.721  0.00  0.00     0.078 H 
ENDBRANCH  35  45
ENDBRANCH  25  28
ENDBRANCH  22  25
ENDBRANCH   1  22
BRANCH  11  49
ATOM     49  N   LIG d   1       9.530   1.649  -3.612  0.00  0.00    -0.302 N 
ATOM     50  H   LIG d   1       9.851   0.733  -3.887  0.00  0.00     0.123 HD
BRANCH  49  51
ATOM     51  C   LIG d   1       8.280   1.997  -4.301  0.00  0.00     0.055 C 
ATOM     52  H   LIG d   1       8.088   3.064  -4.190  0.00  0.00     0.050 H 
ATOM     53  H   LIG d   1       8.367   1.752  -5.359  0.00  0.00     0.050 H 
BRANCH  51  54
ATOM     54  C   LIG d   1       7.141   1.217  -3.697  0.00  0.00     0.119 A 
ATOM     55  O   LIG d   1       6.027   1.742  -3.160  0.00  0.00    -0.461 OA
ATOM     56  C   LIG d   1       5.231   0.751  -2.725  0.00  0.00     0.131 A 
ATOM     57  C   LIG d   1       5.838  -0.423  -2.974  0.00  0.00    -0.018 A 
ATOM     58  C   LIG d   1       7.069  -0.123  -3.601  0.00  0.00    -0.019 A 
ATOM     59  H   LIG d   1       5.458  -1.406  -2.740  0.00  0.00     0.065 H 
ATOM     60  H   LIG d   1       7.809  -0.833  -3.937  0.00  0.00     0.065 H 
BRANCH  56  61
ATOM     61  C   LIG d   1       3.888   0.927  -2.064  0.00  0.00     0.102 C 
ATOM     62  H   LIG d   1       3.959   0.642  -1.014  0.00  0.00     0.064 H 
ATOM     63  H   LIG d   1       3.580   1.970  -2.138  0.00  0.00     0.064 H 
BRANCH  61  64
ATOM     64  O   LIG d   1       2.923   0.099  -2.717  0.00  0.00    -0.387 OA
ATOM     65  H   LIG d   1       2.191   0.588  -3.115  0.00  0.00     0.210 HD
ENDBRANCH  61  64
ENDBRANCH  56  61
ENDBRANCH  51  54
ENDBRANCH  49  51
ENDBRANCH  11  49
TORSDOF 9
ENDMDL
