MODEL 1
REMARK VINA RESULT:      -6.9      0.000      0.000
REMARK  9 active torsions:
REMARK  status: ('A' for Active; 'I' for Inactive)
REMARK    1  A    between atoms: C_1  and  C_2 
REMARK    2  A    between atoms: C_2  and  N_54 
REMARK    3  A    between atoms: C_3  and  C_4 
REMARK    4  A    between atoms: C_3  and  N_54 
REMARK    5  A    between atoms: C_5  and  C_6 
REMARK    6  A    between atoms: C_5  and  N_54 
REMARK    7  A    between atoms: C_6  and  C_8 
REMARK    8  A    between atoms: C_6  and  O_28 
REMARK    9  A    between atoms: C_10  and  C_18 
ROOT
ATOM      1  C   LIG d   1      10.129   3.919  -3.678  0.00  0.00    -0.003 A 
ATOM      2  C   LIG d   1       9.306   2.864  -3.416  0.00  0.00    -0.029 A 
ATOM      3  C   LIG d   1       8.625   2.232  -4.468  0.00  0.00     0.072 A 
ATOM      4  N   LIG d   1       8.764   2.631  -5.718  0.00  0.00    -0.247 NA
ATOM      5  C   LIG d   1       9.552   3.663  -6.032  0.00  0.00     0.072 A 
ATOM      6  C   LIG d   1      10.267   4.342  -5.014  0.00  0.00     0.006 A 
ATOM      7  C   LIG d   1      11.097   5.422  -5.354  0.00  0.00    -0.052 A 
ATOM      8  C   LIG d   1      11.208   5.804  -6.656  0.00  0.00    -0.061 A 
ATOM      9  C   LIG d   1      10.505   5.137  -7.658  0.00  0.00    -0.060 A 
ATOM     10  C   LIG d   1       9.691   4.086  -7.365  0.00  0.00    -0.036 A 
ATOM     11  H   LIG d   1       9.179   2.515  -2.401  0.00  0.00     0.064 H 
ATOM     12  H   LIG d   1      11.647   5.947  -4.587  0.00  0.00     0.062 H 
ATOM     13  H   LIG d   1      11.846   6.635  -6.916  0.00  0.00     0.062 H 
ATOM     14  H   LIG d   1      10.609   5.460  -8.684  0.00  0.00     0.062 H 
ATOM     15  H   LIG d   1       9.155   3.581  -8.155  0.00  0.00     0.064 H 
ENDROOT
BRANCH   1  16
ATOM     16  C   LIG d   1      10.871   4.614  -2.566  0.00  0.00     0.120 C 
ATOM     17  H   LIG d   1      11.784   5.059  -2.961  0.00  0.00     0.070 H 
BRANCH  16  18
ATOM     18  C   LIG d   1       9.985   5.711  -1.969  0.00  0.00    -0.001 C 
ATOM     19  H   LIG d   1       9.249   6.025  -2.709  0.00  0.00     0.084 H 
ATOM     20  H   LIG d   1       9.473   5.326  -1.088  0.00  0.00     0.084 H 
BRANCH  18  21
ATOM     21  N   LIG d   1      10.839   6.850  -1.572  0.00  0.00     0.237 N 
ATOM     22  H   LIG d   1      11.821   6.550  -1.581  0.00  0.00     0.203 HD
BRANCH  21  23
ATOM     23  C   LIG d   1      10.671   7.965  -2.528  0.00  0.00    -0.035 C 
ATOM     24  H   LIG d   1       9.959   7.667  -3.298  0.00  0.00     0.081 H 
ATOM     25  H   LIG d   1      10.286   8.835  -1.995  0.00  0.00     0.081 H 
BRANCH  23  26
ATOM     26  C   LIG d   1      12.009   8.318  -3.181  0.00  0.00    -0.025 C 
ATOM     27  H   LIG d   1      12.811   7.770  -2.686  0.00  0.00     0.028 H 
ATOM     28  H   LIG d   1      11.982   8.046  -4.236  0.00  0.00     0.028 H 
ATOM     29  H   LIG d   1      12.189   9.388  -3.087  0.00  0.00     0.028 H 
ENDBRANCH  23  26
ENDBRANCH  21  23
BRANCH  21  30
ATOM     30  C   LIG d   1      10.485   7.296  -0.209  0.00  0.00    -0.035 C 
ATOM     31  H   LIG d   1      10.864   8.301  -0.025  0.00  0.00     0.081 H 
ATOM     32  H   LIG d   1       9.400   7.292  -0.102  0.00  0.00     0.081 H 
BRANCH  30  33
ATOM     33  C   LIG d   1      11.100   6.326   0.801  0.00  0.00    -0.025 C 
ATOM     34  H   LIG d   1      10.485   5.428   0.865  0.00  0.00     0.028 H 
ATOM     35  H   LIG d   1      12.106   6.055   0.480  0.00  0.00     0.028 H 
ATOM     36  H   LIG d   1      11.148   6.803   1.780  0.00  0.00     0.028 H 
ENDBRANCH  30  33
ENDBRANCH  21  30
ENDBRANCH  18  21
ENDBRANCH  16  18
BRANCH  16  37
ATOM     37  O   LIG d   1      11.205   3.666  -1.550  0.00  0.00    -0.382 OA
ATOM     38  H   LIG d   1      10.788   3.843  -0.695  0.00  0.00     0.210 HD
ENDBRANCH  16  37
ENDBRANCH   1  16
BRANCH   3  39
ATOM     39  C   LIG d   1       7.734   1.086  -4.169  0.00  0.00     0.001 A 
ATOM     40  C   LIG d   1       6.640   1.265  -3.343  0.00  0.00    -0.045 A 
ATOM     41  C   LIG d   1       5.800   0.176  -3.063  0.00  0.00    -0.017 A 
ATOM     42  H   LIG d   1       6.434   2.235  -2.915  0.00  0.00     0.063 H 
ATOM     43  C   LIG d   1       6.085  -1.090  -3.633  0.00  0.00    -0.018 A 
ATOM     44  C   LIG d   1       4.678   0.318  -2.226  0.00  0.00    -0.054 A 
ATOM     45  C   LIG d   1       7.206  -1.239  -4.471  0.00  0.00    -0.053 A 
ATOM     46  C   LIG d   1       5.242  -2.178  -3.351  0.00  0.00    -0.054 A 
ATOM     47  C   LIG d   1       8.007  -0.173  -4.729  0.00  0.00    -0.052 A 
ATOM     48  H   LIG d   1       7.429  -2.201  -4.908  0.00  0.00     0.062 H 
ATOM     49  H   LIG d   1       8.865  -0.295  -5.373  0.00  0.00     0.062 H 
ATOM     50  C   LIG d   1       4.168  -2.004  -2.533  0.00  0.00    -0.061 A 
ATOM     51  H   LIG d   1       5.447  -3.148  -3.778  0.00  0.00     0.062 H 
ATOM     52  C   LIG d   1       3.884  -0.758  -1.976  0.00  0.00    -0.061 A 
ATOM     53  H   LIG d   1       3.524  -2.842  -2.314  0.00  0.00     0.062 H 
ATOM     54  H   LIG d   1       3.023  -0.647  -1.333  0.00  0.00     0.062 H 
ATOM     55  H   LIG d   1       4.448   1.277  -1.786  0.00  0.00     0.062 H 
ENDBRANCH   3  39
TORSDOF 9
ENDMDL
MODEL 2
REMARK VINA RESULT:      -6.7      2.538      8.662
REMARK  9 active torsions:
REMARK  status: ('A' for Active; 'I' for Inactive)
REMARK    1  A    between atoms: C_1  and  C_2 
REMARK    2  A    between atoms: C_2  and  N_54 
REMARK    3  A    between atoms: C_3  and  C_4 
REMARK    4  A    between atoms: C_3  and  N_54 
REMARK    5  A    between atoms: C_5  and  C_6 
REMARK    6  A    between atoms: C_5  and  N_54 
REMARK    7  A    between atoms: C_6  and  C_8 
REMARK    8  A    between atoms: C_6  and  O_28 
REMARK    9  A    between atoms: C_10  and  C_18 
ROOT
ATOM      1  C   LIG d   1       6.989  -1.292  -3.821  0.00  0.00    -0.003 A 
ATOM      2  C   LIG d   1       7.837  -0.291  -4.191  0.00  0.00    -0.029 A 
ATOM      3  C   LIG d   1       7.418   1.046  -4.104  0.00  0.00     0.072 A 
ATOM      4  N   LIG d   1       6.215   1.365  -3.667  0.00  0.00    -0.247 NA
ATOM      5  C   LIG d   1       5.341   0.426  -3.297  0.00  0.00     0.072 A 
ATOM      6  C   LIG d   1       5.705  -0.943  -3.360  0.00  0.00     0.006 A 
ATOM      7  C   LIG d   1       4.782  -1.924  -2.965  0.00  0.00    -0.052 A 
ATOM      8  C   LIG d   1       3.548  -1.551  -2.524  0.00  0.00    -0.061 A 
ATOM      9  C   LIG d   1       3.189  -0.206  -2.460  0.00  0.00    -0.060 A 
ATOM     10  C   LIG d   1       4.058   0.772  -2.836  0.00  0.00    -0.036 A 
ATOM     11  H   LIG d   1       8.829  -0.525  -4.548  0.00  0.00     0.064 H 
ATOM     12  H   LIG d   1       5.048  -2.970  -3.009  0.00  0.00     0.062 H 
ATOM     13  H   LIG d   1       2.839  -2.306  -2.221  0.00  0.00     0.062 H 
ATOM     14  H   LIG d   1       2.205   0.065  -2.108  0.00  0.00     0.062 H 
ATOM     15  H   LIG d   1       3.763   1.809  -2.780  0.00  0.00     0.064 H 
ENDROOT
BRANCH   1  16
ATOM     16  C   LIG d   1       7.415  -2.735  -3.905  0.00  0.00     0.120 C 
ATOM     17  H   LIG d   1       6.641  -3.368  -3.473  0.00  0.00     0.070 H 
BRANCH  16  18
ATOM     18  C   LIG d   1       7.630  -3.119  -5.371  0.00  0.00    -0.001 C 
ATOM     19  H   LIG d   1       8.293  -2.394  -5.843  0.00  0.00     0.084 H 
ATOM     20  H   LIG d   1       8.076  -4.111  -5.426  0.00  0.00     0.084 H 
BRANCH  18  21
ATOM     21  N   LIG d   1       6.319  -3.142  -6.055  0.00  0.00     0.237 N 
ATOM     22  H   LIG d   1       5.606  -2.759  -5.421  0.00  0.00     0.203 HD
BRANCH  21  23
ATOM     23  C   LIG d   1       6.371  -2.311  -7.276  0.00  0.00    -0.035 C 
ATOM     24  H   LIG d   1       7.395  -1.973  -7.430  0.00  0.00     0.081 H 
ATOM     25  H   LIG d   1       6.053  -2.911  -8.128  0.00  0.00     0.081 H 
BRANCH  23  26
ATOM     26  C   LIG d   1       5.450  -1.096  -7.137  0.00  0.00    -0.025 C 
ATOM     27  H   LIG d   1       5.054  -1.054  -6.122  0.00  0.00     0.028 H 
ATOM     28  H   LIG d   1       6.014  -0.187  -7.344  0.00  0.00     0.028 H 
ATOM     29  H   LIG d   1       4.627  -1.181  -7.845  0.00  0.00     0.028 H 
ENDBRANCH  23  26
ENDBRANCH  21  23
BRANCH  21  30
ATOM     30  C   LIG d   1       5.955  -4.531  -6.404  0.00  0.00    -0.035 C 
ATOM     31  H   LIG d   1       5.614  -4.588  -7.437  0.00  0.00     0.081 H 
ATOM     32  H   LIG d   1       6.828  -5.172  -6.274  0.00  0.00     0.081 H 
BRANCH  30  33
ATOM     33  C   LIG d   1       4.836  -4.996  -5.471  0.00  0.00    -0.025 C 
ATOM     34  H   LIG d   1       5.194  -5.824  -4.858  0.00  0.00     0.028 H 
ATOM     35  H   LIG d   1       4.533  -4.171  -4.826  0.00  0.00     0.028 H 
ATOM     36  H   LIG d   1       3.983  -5.325  -6.064  0.00  0.00     0.028 H 
ENDBRANCH  30  33
ENDBRANCH  21  30
ENDBRANCH  18  21
ENDBRANCH  16  18
BRANCH  16  37
ATOM     37  O   LIG d   1       8.635  -2.914  -3.182  0.00  0.00    -0.382 OA
ATOM     38  H   LIG d   1       9.343  -3.322  -3.700  0.00  0.00     0.210 HD
ENDBRANCH  16  37
ENDBRANCH   1  16
BRANCH   3  39
ATOM     39  C   LIG d   1       8.351   2.125  -4.509  0.00  0.00     0.001 A 
ATOM     40  C   LIG d   1       8.926   2.932  -3.545  0.00  0.00    -0.045 A 
ATOM     41  C   LIG d   1       9.808   3.953  -3.934  0.00  0.00    -0.017 A 
ATOM     42  H   LIG d   1       8.698   2.779  -2.500  0.00  0.00     0.063 H 
ATOM     43  C   LIG d   1      10.096   4.138  -5.309  0.00  0.00    -0.018 A 
ATOM     44  C   LIG d   1      10.412   4.794  -2.983  0.00  0.00    -0.054 A 
ATOM     45  C   LIG d   1       9.495   3.300  -6.266  0.00  0.00    -0.053 A 
ATOM     46  C   LIG d   1      10.979   5.161  -5.696  0.00  0.00    -0.054 A 
ATOM     47  C   LIG d   1       8.644   2.319  -5.869  0.00  0.00    -0.052 A 
ATOM     48  H   LIG d   1       9.709   3.437  -7.315  0.00  0.00     0.062 H 
ATOM     49  H   LIG d   1       8.186   1.679  -6.609  0.00  0.00     0.062 H 
ATOM     50  C   LIG d   1      11.541   5.960  -4.748  0.00  0.00    -0.061 A 
ATOM     51  H   LIG d   1      11.207   5.315  -6.739  0.00  0.00     0.062 H 
ATOM     52  C   LIG d   1      11.263   5.774  -3.394  0.00  0.00    -0.061 A 
ATOM     53  H   LIG d   1      12.216   6.747  -5.047  0.00  0.00     0.062 H 
ATOM     54  H   LIG d   1      11.725   6.419  -2.663  0.00  0.00     0.062 H 
ATOM     55  H   LIG d   1      10.203   4.663  -1.932  0.00  0.00     0.062 H 
ENDBRANCH   3  39
TORSDOF 9
ENDMDL
MODEL 3
REMARK VINA RESULT:      -6.7      2.666      8.756
REMARK  9 active torsions:
REMARK  status: ('A' for Active; 'I' for Inactive)
REMARK    1  A    between atoms: C_1  and  C_2 
REMARK    2  A    between atoms: C_2  and  N_54 
REMARK    3  A    between atoms: C_3  and  C_4 
REMARK    4  A    between atoms: C_3  and  N_54 
REMARK    5  A    between atoms: C_5  and  C_6 
REMARK    6  A    between atoms: C_5  and  N_54 
REMARK    7  A    between atoms: C_6  and  C_8 
REMARK    8  A    between atoms: C_6  and  O_28 
REMARK    9  A    between atoms: C_10  and  C_18 
ROOT
ATOM      1  C   LIG d   1       7.366  -0.955  -4.010  0.00  0.00    -0.003 A 
ATOM      2  C   LIG d   1       8.153   0.090  -4.391  0.00  0.00    -0.029 A 
ATOM      3  C   LIG d   1       7.778   1.402  -4.062  0.00  0.00     0.072 A 
ATOM      4  N   LIG d   1       6.675   1.656  -3.385  0.00  0.00    -0.247 NA
ATOM      5  C   LIG d   1       5.862   0.671  -2.991  0.00  0.00     0.072 A 
ATOM      6  C   LIG d   1       6.187  -0.676  -3.291  0.00  0.00     0.006 A 
ATOM      7  C   LIG d   1       5.330  -1.705  -2.869  0.00  0.00    -0.052 A 
ATOM      8  C   LIG d   1       4.199  -1.399  -2.176  0.00  0.00    -0.061 A 
ATOM      9  C   LIG d   1       3.879  -0.075  -1.880  0.00  0.00    -0.060 A 
ATOM     10  C   LIG d   1       4.685   0.948  -2.274  0.00  0.00    -0.036 A 
ATOM     11  H   LIG d   1       9.064  -0.091  -4.943  0.00  0.00     0.064 H 
ATOM     12  H   LIG d   1       5.567  -2.735  -3.092  0.00  0.00     0.062 H 
ATOM     13  H   LIG d   1       3.541  -2.191  -1.853  0.00  0.00     0.062 H 
ATOM     14  H   LIG d   1       2.975   0.142  -1.329  0.00  0.00     0.062 H 
ATOM     15  H   LIG d   1       4.422   1.968  -2.035  0.00  0.00     0.064 H 
ENDROOT
BRANCH   1  16
ATOM     16  C   LIG d   1       7.747  -2.373  -4.349  0.00  0.00     0.120 C 
ATOM     17  H   LIG d   1       6.975  -3.053  -3.990  0.00  0.00     0.070 H 
BRANCH  16  18
ATOM     18  C   LIG d   1       7.885  -2.514  -5.867  0.00  0.00    -0.001 C 
ATOM     19  H   LIG d   1       7.858  -1.526  -6.328  0.00  0.00     0.084 H 
ATOM     20  H   LIG d   1       8.831  -3.000  -6.103  0.00  0.00     0.084 H 
BRANCH  18  21
ATOM     21  N   LIG d   1       6.774  -3.350  -6.371  0.00  0.00     0.237 N 
ATOM     22  H   LIG d   1       7.085  -3.842  -7.218  0.00  0.00     0.203 HD
BRANCH  21  23
ATOM     23  C   LIG d   1       6.388  -4.346  -5.351  0.00  0.00    -0.035 C 
ATOM     24  H   LIG d   1       6.837  -5.306  -5.606  0.00  0.00     0.081 H 
ATOM     25  H   LIG d   1       6.756  -4.020  -4.378  0.00  0.00     0.081 H 
BRANCH  23  26
ATOM     26  C   LIG d   1       4.866  -4.495  -5.296  0.00  0.00    -0.025 C 
ATOM     27  H   LIG d   1       4.440  -3.666  -4.730  0.00  0.00     0.028 H 
ATOM     28  H   LIG d   1       4.463  -4.487  -6.308  0.00  0.00     0.028 H 
ATOM     29  H   LIG d   1       4.610  -5.436  -4.811  0.00  0.00     0.028 H 
ENDBRANCH  23  26
ENDBRANCH  21  23
BRANCH  21  30
ATOM     30  C   LIG d   1       5.615  -2.499  -6.710  0.00  0.00    -0.035 C 
ATOM     31  H   LIG d   1       4.881  -3.064  -7.284  0.00  0.00     0.081 H 
ATOM     32  H   LIG d   1       5.156  -2.137  -5.789  0.00  0.00     0.081 H 
BRANCH  30  33
ATOM     33  C   LIG d   1       6.103  -1.309  -7.539  0.00  0.00    -0.025 C 
ATOM     34  H   LIG d   1       5.375  -1.086  -8.319  0.00  0.00     0.028 H 
ATOM     35  H   LIG d   1       6.220  -0.439  -6.892  0.00  0.00     0.028 H 
ATOM     36  H   LIG d   1       7.062  -1.553  -7.995  0.00  0.00     0.028 H 
ENDBRANCH  30  33
ENDBRANCH  21  30
ENDBRANCH  18  21
ENDBRANCH  16  18
BRANCH  16  37
ATOM     37  O   LIG d   1       8.992  -2.694  -3.726  0.00  0.00    -0.382 OA
ATOM     38  H   LIG d   1       9.175  -3.643  -3.679  0.00  0.00     0.210 HD
ENDBRANCH  16  37
ENDBRANCH   1  16
BRANCH   3  39
ATOM     39  C   LIG d   1       8.644   2.530  -4.483  0.00  0.00     0.001 A 
ATOM     40  C   LIG d   1       8.796   2.815  -5.827  0.00  0.00    -0.045 A 
ATOM     41  C   LIG d   1       9.617   3.883  -6.219  0.00  0.00    -0.017 A 
ATOM     42  H   LIG d   1       8.287   2.219  -6.571  0.00  0.00     0.063 H 
ATOM     43  C   LIG d   1      10.277   4.655  -5.230  0.00  0.00    -0.018 A 
ATOM     44  C   LIG d   1       9.797   4.203  -7.577  0.00  0.00    -0.054 A 
ATOM     45  C   LIG d   1      10.101   4.340  -3.869  0.00  0.00    -0.053 A 
ATOM     46  C   LIG d   1      11.099   5.724  -5.625  0.00  0.00    -0.054 A 
ATOM     47  C   LIG d   1       9.303   3.302  -3.511  0.00  0.00    -0.052 A 
ATOM     48  H   LIG d   1      10.602   4.923  -3.111  0.00  0.00     0.062 H 
ATOM     49  H   LIG d   1       9.172   3.066  -2.465  0.00  0.00     0.062 H 
ATOM     50  C   LIG d   1      11.253   6.001  -6.949  0.00  0.00    -0.061 A 
ATOM     51  H   LIG d   1      11.608   6.320  -4.884  0.00  0.00     0.062 H 
ATOM     52  C   LIG d   1      10.600   5.246  -7.922  0.00  0.00    -0.061 A 
ATOM     53  H   LIG d   1      11.888   6.820  -7.251  0.00  0.00     0.062 H 
ATOM     54  H   LIG d   1      10.737   5.489  -8.965  0.00  0.00     0.062 H 
ATOM     55  H   LIG d   1       9.299   3.624  -8.340  0.00  0.00     0.062 H 
ENDBRANCH   3  39
TORSDOF 9
ENDMDL
MODEL 4
REMARK VINA RESULT:      -6.6      5.905      8.355
REMARK  9 active torsions:
REMARK  status: ('A' for Active; 'I' for Inactive)
REMARK    1  A    between atoms: C_1  and  C_2 
REMARK    2  A    between atoms: C_2  and  N_54 
REMARK    3  A    between atoms: C_3  and  C_4 
REMARK    4  A    between atoms: C_3  and  N_54 
REMARK    5  A    between atoms: C_5  and  C_6 
REMARK    6  A    between atoms: C_5  and  N_54 
REMARK    7  A    between atoms: C_6  and  C_8 
REMARK    8  A    between atoms: C_6  and  O_28 
REMARK    9  A    between atoms: C_10  and  C_18 
ROOT
ATOM      1  C   LIG d   1       4.652  -0.849  -5.603  0.00  0.00    -0.003 A 
ATOM      2  C   LIG d   1       5.542  -1.882  -5.614  0.00  0.00    -0.029 A 
ATOM      3  C   LIG d   1       6.178  -2.268  -4.424  0.00  0.00     0.072 A 
ATOM      4  N   LIG d   1       5.932  -1.657  -3.280  0.00  0.00    -0.247 NA
ATOM      5  C   LIG d   1       5.074  -0.635  -3.212  0.00  0.00     0.072 A 
ATOM      6  C   LIG d   1       4.399  -0.199  -4.380  0.00  0.00     0.006 A 
ATOM      7  C   LIG d   1       3.495   0.872  -4.297  0.00  0.00    -0.052 A 
ATOM      8  C   LIG d   1       3.275   1.478  -3.098  0.00  0.00    -0.061 A 
ATOM      9  C   LIG d   1       3.937   1.050  -1.949  0.00  0.00    -0.060 A 
ATOM     10  C   LIG d   1       4.820   0.015  -1.991  0.00  0.00    -0.036 A 
ATOM     11  H   LIG d   1       5.758  -2.402  -6.536  0.00  0.00     0.064 H 
ATOM     12  H   LIG d   1       2.976   1.213  -5.181  0.00  0.00     0.062 H 
ATOM     13  H   LIG d   1       2.580   2.302  -3.036  0.00  0.00     0.062 H 
ATOM     14  H   LIG d   1       3.746   1.547  -1.009  0.00  0.00     0.062 H 
ATOM     15  H   LIG d   1       5.324  -0.304  -1.091  0.00  0.00     0.064 H 
ENDROOT
BRANCH   1  16
ATOM     16  C   LIG d   1       3.957  -0.415  -6.867  0.00  0.00     0.120 C 
ATOM     17  H   LIG d   1       3.290   0.418  -6.648  0.00  0.00     0.070 H 
BRANCH  16  18
ATOM     18  C   LIG d   1       5.000   0.023  -7.898  0.00  0.00    -0.001 C 
ATOM     19  H   LIG d   1       5.999  -0.128  -7.490  0.00  0.00     0.084 H 
ATOM     20  H   LIG d   1       4.885  -0.567  -8.807  0.00  0.00     0.084 H 
BRANCH  18  21
ATOM     21  N   LIG d   1       4.783   1.450  -8.219  0.00  0.00     0.237 N 
ATOM     22  H   LIG d   1       4.695   1.979  -7.343  0.00  0.00     0.203 HD
BRANCH  21  23
ATOM     23  C   LIG d   1       5.932   1.976  -8.985  0.00  0.00    -0.035 C 
ATOM     24  H   LIG d   1       5.939   1.516  -9.973  0.00  0.00     0.081 H 
ATOM     25  H   LIG d   1       5.825   3.056  -9.088  0.00  0.00     0.081 H 
BRANCH  23  26
ATOM     26  C   LIG d   1       7.245   1.660  -8.267  0.00  0.00    -0.025 C 
ATOM     27  H   LIG d   1       7.091   1.710  -7.188  0.00  0.00     0.028 H 
ATOM     28  H   LIG d   1       7.577   0.658  -8.539  0.00  0.00     0.028 H 
ATOM     29  H   LIG d   1       8.004   2.385  -8.559  0.00  0.00     0.028 H 
ENDBRANCH  23  26
ENDBRANCH  21  23
BRANCH  21  30
ATOM     30  C   LIG d   1       3.539   1.608  -9.002  0.00  0.00    -0.035 C 
ATOM     31  H   LIG d   1       2.825   0.825  -8.747  0.00  0.00     0.081 H 
ATOM     32  H   LIG d   1       3.102   2.583  -8.784  0.00  0.00     0.081 H 
BRANCH  30  33
ATOM     33  C   LIG d   1       3.880   1.522 -10.490  0.00  0.00    -0.025 C 
ATOM     34  H   LIG d   1       2.960   1.541 -11.075  0.00  0.00     0.028 H 
ATOM     35  H   LIG d   1       4.506   2.370 -10.769  0.00  0.00     0.028 H 
ATOM     36  H   LIG d   1       4.417   0.595 -10.687  0.00  0.00     0.028 H 
ENDBRANCH  30  33
ENDBRANCH  21  30
ENDBRANCH  18  21
ENDBRANCH  16  18
BRANCH  16  37
ATOM     37  O   LIG d   1       3.198  -1.507  -7.392  0.00  0.00    -0.382 OA
ATOM     38  H   LIG d   1       3.283  -2.326  -6.885  0.00  0.00     0.210 HD
ENDBRANCH  16  37
ENDBRANCH   1  16
BRANCH   3  39
ATOM     39  C   LIG d   1       7.143  -3.393  -4.450  0.00  0.00     0.001 A 
ATOM     40  C   LIG d   1       8.287  -3.333  -3.676  0.00  0.00    -0.045 A 
ATOM     41  C   LIG d   1       9.198  -4.401  -3.705  0.00  0.00    -0.017 A 
ATOM     42  H   LIG d   1       8.479  -2.471  -3.054  0.00  0.00     0.063 H 
ATOM     43  C   LIG d   1       8.930  -5.524  -4.526  0.00  0.00    -0.018 A 
ATOM     44  C   LIG d   1      10.373  -4.376  -2.932  0.00  0.00    -0.054 A 
ATOM     45  C   LIG d   1       7.756  -5.555  -5.302  0.00  0.00    -0.053 A 
ATOM     46  C   LIG d   1       9.844  -6.591  -4.553  0.00  0.00    -0.054 A 
ATOM     47  C   LIG d   1       6.887  -4.512  -5.260  0.00  0.00    -0.052 A 
ATOM     48  H   LIG d   1       7.546  -6.407  -5.930  0.00  0.00     0.062 H 
ATOM     49  H   LIG d   1       5.989  -4.542  -5.858  0.00  0.00     0.062 H 
ATOM     50  C   LIG d   1      10.973  -6.530  -3.796  0.00  0.00    -0.061 A 
ATOM     51  H   LIG d   1       9.653  -7.453  -5.175  0.00  0.00     0.062 H 
ATOM     52  C   LIG d   1      11.235  -5.427  -2.984  0.00  0.00    -0.061 A 
ATOM     53  H   LIG d   1      11.676  -7.349  -3.822  0.00  0.00     0.062 H 
ATOM     54  H   LIG d   1      12.137  -5.407  -2.390  0.00  0.00     0.062 H 
ATOM     55  H   LIG d   1      10.589  -3.527  -2.301  0.00  0.00     0.062 H 
ENDBRANCH   3  39
TORSDOF 9
ENDMDL
MODEL 5
REMARK VINA RESULT:      -6.5      6.378      8.821
REMARK  9 active torsions:
REMARK  status: ('A' for Active; 'I' for Inactive)
REMARK    1  A    between atoms: C_1  and  C_2 
REMARK    2  A    between atoms: C_2  and  N_54 
REMARK    3  A    between atoms: C_3  and  C_4 
REMARK    4  A    between atoms: C_3  and  N_54 
REMARK    5  A    between atoms: C_5  and  C_6 
REMARK    6  A    between atoms: C_5  and  N_54 
REMARK    7  A    between atoms: C_6  and  C_8 
REMARK    8  A    between atoms: C_6  and  O_28 
REMARK    9  A    between atoms: C_10  and  C_18 
ROOT
ATOM      1  C   LIG d   1       5.965  -1.280  -4.506  0.00  0.00    -0.003 A 
ATOM      2  C   LIG d   1       5.647  -1.500  -5.813  0.00  0.00    -0.029 A 
ATOM      3  C   LIG d   1       4.527  -0.868  -6.375  0.00  0.00     0.072 A 
ATOM      4  N   LIG d   1       3.766  -0.055  -5.667  0.00  0.00    -0.247 NA
ATOM      5  C   LIG d   1       4.026   0.192  -4.380  0.00  0.00     0.072 A 
ATOM      6  C   LIG d   1       5.145  -0.415  -3.756  0.00  0.00     0.006 A 
ATOM      7  C   LIG d   1       5.414  -0.145  -2.405  0.00  0.00    -0.052 A 
ATOM      8  C   LIG d   1       4.600   0.696  -1.709  0.00  0.00    -0.061 A 
ATOM      9  C   LIG d   1       3.500   1.295  -2.322  0.00  0.00    -0.060 A 
ATOM     10  C   LIG d   1       3.209   1.056  -3.630  0.00  0.00    -0.036 A 
ATOM     11  H   LIG d   1       6.257  -2.157  -6.416  0.00  0.00     0.064 H 
ATOM     12  H   LIG d   1       6.264  -0.602  -1.918  0.00  0.00     0.062 H 
ATOM     13  H   LIG d   1       4.808   0.903  -0.670  0.00  0.00     0.062 H 
ATOM     14  H   LIG d   1       2.869   1.958  -1.749  0.00  0.00     0.062 H 
ATOM     15  H   LIG d   1       2.352   1.528  -4.088  0.00  0.00     0.064 H 
ENDROOT
BRANCH   1  16
ATOM     16  C   LIG d   1       7.163  -1.945  -3.880  0.00  0.00     0.120 C 
ATOM     17  H   LIG d   1       7.009  -2.035  -2.805  0.00  0.00     0.070 H 
BRANCH  16  18
ATOM     18  C   LIG d   1       7.348  -3.338  -4.487  0.00  0.00    -0.001 C 
ATOM     19  H   LIG d   1       6.818  -4.072  -3.880  0.00  0.00     0.084 H 
ATOM     20  H   LIG d   1       6.950  -3.349  -5.501  0.00  0.00     0.084 H 
BRANCH  18  21
ATOM     21  N   LIG d   1       8.792  -3.650  -4.533  0.00  0.00     0.237 N 
ATOM     22  H   LIG d   1       9.324  -2.772  -4.513  0.00  0.00     0.203 HD
BRANCH  21  23
ATOM     23  C   LIG d   1       9.170  -4.466  -3.360  0.00  0.00    -0.035 C 
ATOM     24  H   LIG d   1      10.146  -4.139  -3.002  0.00  0.00     0.081 H 
ATOM     25  H   LIG d   1       8.428  -4.324  -2.574  0.00  0.00     0.081 H 
BRANCH  23  26
ATOM     26  C   LIG d   1       9.237  -5.948  -3.736  0.00  0.00    -0.025 C 
ATOM     27  H   LIG d   1       9.855  -6.480  -3.013  0.00  0.00     0.028 H 
ATOM     28  H   LIG d   1       8.232  -6.369  -3.732  0.00  0.00     0.028 H 
ATOM     29  H   LIG d   1       9.669  -6.051  -4.730  0.00  0.00     0.028 H 
ENDBRANCH  23  26
ENDBRANCH  21  23
BRANCH  21  30
ATOM     30  C   LIG d   1       9.113  -4.378  -5.778  0.00  0.00    -0.035 C 
ATOM     31  H   LIG d   1      10.170  -4.273  -6.021  0.00  0.00     0.081 H 
ATOM     32  H   LIG d   1       8.874  -5.434  -5.646  0.00  0.00     0.081 H 
BRANCH  30  33
ATOM     33  C   LIG d   1       8.269  -3.802  -6.916  0.00  0.00    -0.025 C 
ATOM     34  H   LIG d   1       7.265  -4.224  -6.874  0.00  0.00     0.028 H 
ATOM     35  H   LIG d   1       8.212  -2.718  -6.814  0.00  0.00     0.028 H 
ATOM     36  H   LIG d   1       8.729  -4.053  -7.872  0.00  0.00     0.028 H 
ENDBRANCH  30  33
ENDBRANCH  21  30
ENDBRANCH  18  21
ENDBRANCH  16  18
BRANCH  16  37
ATOM     37  O   LIG d   1       8.330  -1.159  -4.129  0.00  0.00    -0.382 OA
ATOM     38  H   LIG d   1       8.470  -0.448  -3.488  0.00  0.00     0.210 HD
ENDBRANCH  16  37
ENDBRANCH   1  16
BRANCH   3  39
ATOM     39  C   LIG d   1       4.193  -1.115  -7.798  0.00  0.00     0.001 A 
ATOM     40  C   LIG d   1       2.932  -0.803  -8.271  0.00  0.00    -0.045 A 
ATOM     41  C   LIG d   1       2.621  -1.040  -9.619  0.00  0.00    -0.017 A 
ATOM     42  H   LIG d   1       2.191  -0.381  -7.608  0.00  0.00     0.063 H 
ATOM     43  C   LIG d   1       3.606  -1.595 -10.474  0.00  0.00    -0.018 A 
ATOM     44  C   LIG d   1       1.349  -0.737 -10.137  0.00  0.00    -0.054 A 
ATOM     45  C   LIG d   1       4.880  -1.901  -9.962  0.00  0.00    -0.053 A 
ATOM     46  C   LIG d   1       3.292  -1.831 -11.824  0.00  0.00    -0.054 A 
ATOM     47  C   LIG d   1       5.161  -1.664  -8.655  0.00  0.00    -0.052 A 
ATOM     48  H   LIG d   1       5.635  -2.324 -10.608  0.00  0.00     0.062 H 
ATOM     49  H   LIG d   1       6.141  -1.901  -8.269  0.00  0.00     0.062 H 
ATOM     50  C   LIG d   1       2.049  -1.529 -12.289  0.00  0.00    -0.061 A 
ATOM     51  H   LIG d   1       4.031  -2.253 -12.487  0.00  0.00     0.062 H 
ATOM     52  C   LIG d   1       1.081  -0.979 -11.449  0.00  0.00    -0.061 A 
ATOM     53  H   LIG d   1       1.808  -1.716 -13.325  0.00  0.00     0.062 H 
ATOM     54  H   LIG d   1       0.104  -0.745 -11.845  0.00  0.00     0.062 H 
ATOM     55  H   LIG d   1       0.590  -0.312  -9.497  0.00  0.00     0.062 H 
ENDBRANCH   3  39
TORSDOF 9
ENDMDL
MODEL 6
REMARK VINA RESULT:      -6.3      3.006      8.517
REMARK  9 active torsions:
REMARK  status: ('A' for Active; 'I' for Inactive)
REMARK    1  A    between atoms: C_1  and  C_2 
REMARK    2  A    between atoms: C_2  and  N_54 
REMARK    3  A    between atoms: C_3  and  C_4 
REMARK    4  A    between atoms: C_3  and  N_54 
REMARK    5  A    between atoms: C_5  and  C_6 
REMARK    6  A    between atoms: C_5  and  N_54 
REMARK    7  A    between atoms: C_6  and  C_8 
REMARK    8  A    between atoms: C_6  and  O_28 
REMARK    9  A    between atoms: C_10  and  C_18 
ROOT
ATOM      1  C   LIG d   1       6.309  -0.331  -5.411  0.00  0.00    -0.003 A 
ATOM      2  C   LIG d   1       7.330   0.569  -5.490  0.00  0.00    -0.029 A 
ATOM      3  C   LIG d   1       7.534   1.485  -4.446  0.00  0.00     0.072 A 
ATOM      4  N   LIG d   1       6.760   1.498  -3.378  0.00  0.00    -0.247 NA
ATOM      5  C   LIG d   1       5.742   0.643  -3.250  0.00  0.00     0.072 A 
ATOM      6  C   LIG d   1       5.484  -0.308  -4.270  0.00  0.00     0.006 A 
ATOM      7  C   LIG d   1       4.415  -1.205  -4.125  0.00  0.00    -0.052 A 
ATOM      8  C   LIG d   1       3.638  -1.155  -3.008  0.00  0.00    -0.061 A 
ATOM      9  C   LIG d   1       3.890  -0.221  -2.004  0.00  0.00    -0.060 A 
ATOM     10  C   LIG d   1       4.918   0.665  -2.111  0.00  0.00    -0.036 A 
ATOM     11  H   LIG d   1       7.981   0.576  -6.352  0.00  0.00     0.064 H 
ATOM     12  H   LIG d   1       4.209  -1.934  -4.895  0.00  0.00     0.062 H 
ATOM     13  H   LIG d   1       2.815  -1.845  -2.898  0.00  0.00     0.062 H 
ATOM     14  H   LIG d   1       3.259  -0.200  -1.128  0.00  0.00     0.062 H 
ATOM     15  H   LIG d   1       5.099   1.382  -1.324  0.00  0.00     0.064 H 
ENDROOT
BRANCH   1  16
ATOM     16  C   LIG d   1       6.069  -1.325  -6.518  0.00  0.00     0.120 C 
ATOM     17  H   LIG d   1       5.029  -1.651  -6.495  0.00  0.00     0.070 H 
BRANCH  16  18
ATOM     18  C   LIG d   1       6.368  -0.668  -7.868  0.00  0.00    -0.001 C 
ATOM     19  H   LIG d   1       6.903   0.268  -7.705  0.00  0.00     0.084 H 
ATOM     20  H   LIG d   1       6.980  -1.337  -8.471  0.00  0.00     0.084 H 
BRANCH  18  21
ATOM     21  N   LIG d   1       5.091  -0.418  -8.570  0.00  0.00     0.237 N 
ATOM     22  H   LIG d   1       5.153  -0.802  -9.521  0.00  0.00     0.203 HD
BRANCH  21  23
ATOM     23  C   LIG d   1       3.983  -1.085  -7.854  0.00  0.00    -0.035 C 
ATOM     24  H   LIG d   1       3.624  -1.919  -8.458  0.00  0.00     0.081 H 
ATOM     25  H   LIG d   1       4.350  -1.459  -6.899  0.00  0.00     0.081 H 
BRANCH  23  26
ATOM     26  C   LIG d   1       2.835  -0.102  -7.610  0.00  0.00    -0.025 C 
ATOM     27  H   LIG d   1       2.793   0.619  -8.426  0.00  0.00     0.028 H 
ATOM     28  H   LIG d   1       1.893  -0.648  -7.560  0.00  0.00     0.028 H 
ATOM     29  H   LIG d   1       3.000   0.423  -6.670  0.00  0.00     0.028 H 
ENDBRANCH  23  26
ENDBRANCH  21  23
BRANCH  21  30
ATOM     30  C   LIG d   1       4.836   1.035  -8.654  0.00  0.00    -0.035 C 
ATOM     31  H   LIG d   1       4.172   1.258  -9.489  0.00  0.00     0.081 H 
ATOM     32  H   LIG d   1       4.376   1.371  -7.724  0.00  0.00     0.081 H 
BRANCH  30  33
ATOM     33  C   LIG d   1       6.169   1.758  -8.855  0.00  0.00    -0.025 C 
ATOM     34  H   LIG d   1       6.982   1.130  -8.486  0.00  0.00     0.028 H 
ATOM     35  H   LIG d   1       6.318   1.959  -9.915  0.00  0.00     0.028 H 
ATOM     36  H   LIG d   1       6.158   2.698  -8.305  0.00  0.00     0.028 H 
ENDBRANCH  30  33
ENDBRANCH  21  30
ENDBRANCH  18  21
ENDBRANCH  16  18
BRANCH  16  37
ATOM     37  O   LIG d   1       6.926  -2.455  -6.338  0.00  0.00    -0.382 OA
ATOM     38  H   LIG d   1       7.424  -2.700  -7.129  0.00  0.00     0.210 HD
ENDBRANCH  16  37
ENDBRANCH   1  16
BRANCH   3  39
ATOM     39  C   LIG d   1       8.648   2.458  -4.544  0.00  0.00     0.001 A 
ATOM     40  C   LIG d   1       9.271   2.906  -3.394  0.00  0.00    -0.045 A 
ATOM     41  C   LIG d   1      10.326   3.827  -3.493  0.00  0.00    -0.017 A 
ATOM     42  H   LIG d   1       8.949   2.550  -2.426  0.00  0.00     0.063 H 
ATOM     43  C   LIG d   1      10.736   4.283  -4.771  0.00  0.00    -0.018 A 
ATOM     44  C   LIG d   1      10.984   4.307  -2.346  0.00  0.00    -0.054 A 
ATOM     45  C   LIG d   1      10.082   3.807  -5.923  0.00  0.00    -0.053 A 
ATOM     46  C   LIG d   1      11.791   5.206  -4.867  0.00  0.00    -0.054 A 
ATOM     47  C   LIG d   1       9.064   2.916  -5.806  0.00  0.00    -0.052 A 
ATOM     48  H   LIG d   1      10.389   4.151  -6.899  0.00  0.00     0.062 H 
ATOM     49  H   LIG d   1       8.567   2.555  -6.694  0.00  0.00     0.062 H 
ATOM     50  C   LIG d   1      12.401   5.652  -3.735  0.00  0.00    -0.061 A 
ATOM     51  H   LIG d   1      12.114   5.562  -5.833  0.00  0.00     0.062 H 
ATOM     52  C   LIG d   1      12.002   5.199  -2.478  0.00  0.00    -0.061 A 
ATOM     53  H   LIG d   1      13.209   6.364  -3.810  0.00  0.00     0.062 H 
ATOM     54  H   LIG d   1      12.505   5.567  -1.596  0.00  0.00     0.062 H 
ATOM     55  H   LIG d   1      10.682   3.967  -1.367  0.00  0.00     0.062 H 
ENDBRANCH   3  39
TORSDOF 9
ENDMDL
MODEL 7
REMARK VINA RESULT:      -6.2      6.293      9.234
REMARK  9 active torsions:
REMARK  status: ('A' for Active; 'I' for Inactive)
REMARK    1  A    between atoms: C_1  and  C_2 
REMARK    2  A    between atoms: C_2  and  N_54 
REMARK    3  A    between atoms: C_3  and  C_4 
REMARK    4  A    between atoms: C_3  and  N_54 
REMARK    5  A    between atoms: C_5  and  C_6 
REMARK    6  A    between atoms: C_5  and  N_54 
REMARK    7  A    between atoms: C_6  and  C_8 
REMARK    8  A    between atoms: C_6  and  O_28 
REMARK    9  A    between atoms: C_10  and  C_18 
ROOT
ATOM      1  C   LIG d   1       4.351  -1.395  -6.961  0.00  0.00    -0.003 A 
ATOM      2  C   LIG d   1       4.573  -2.705  -6.655  0.00  0.00    -0.029 A 
ATOM      3  C   LIG d   1       4.038  -3.713  -7.473  0.00  0.00     0.072 A 
ATOM      4  N   LIG d   1       3.322  -3.425  -8.544  0.00  0.00    -0.247 NA
ATOM      5  C   LIG d   1       3.068  -2.159  -8.887  0.00  0.00     0.072 A 
ATOM      6  C   LIG d   1       3.582  -1.097  -8.102  0.00  0.00     0.006 A 
ATOM      7  C   LIG d   1       3.314   0.230  -8.474  0.00  0.00    -0.052 A 
ATOM      8  C   LIG d   1       2.567   0.483  -9.583  0.00  0.00    -0.061 A 
ATOM      9  C   LIG d   1       2.062  -0.561 -10.357  0.00  0.00    -0.060 A 
ATOM     10  C   LIG d   1       2.300  -1.859 -10.026  0.00  0.00    -0.036 A 
ATOM     11  H   LIG d   1       5.160  -2.967  -5.787  0.00  0.00     0.064 H 
ATOM     12  H   LIG d   1       3.701   1.048  -7.883  0.00  0.00     0.062 H 
ATOM     13  H   LIG d   1       2.361   1.504  -9.868  0.00  0.00     0.062 H 
ATOM     14  H   LIG d   1       1.470  -0.335 -11.232  0.00  0.00     0.062 H 
ATOM     15  H   LIG d   1       1.901  -2.656 -10.637  0.00  0.00     0.064 H 
ENDROOT
BRANCH   1  16
ATOM     16  C   LIG d   1       4.915  -0.295  -6.099  0.00  0.00     0.120 C 
ATOM     17  H   LIG d   1       4.169   0.489  -5.976  0.00  0.00     0.070 H 
BRANCH  16  18
ATOM     18  C   LIG d   1       5.289  -0.863  -4.727  0.00  0.00    -0.001 C 
ATOM     19  H   LIG d   1       5.155  -1.945  -4.734  0.00  0.00     0.084 H 
ATOM     20  H   LIG d   1       6.329  -0.625  -4.506  0.00  0.00     0.084 H 
BRANCH  18  21
ATOM     21  N   LIG d   1       4.423  -0.241  -3.702  0.00  0.00     0.237 N 
ATOM     22  H   LIG d   1       4.030   0.629  -4.081  0.00  0.00     0.203 HD
BRANCH  21  23
ATOM     23  C   LIG d   1       3.317  -1.156  -3.353  0.00  0.00    -0.035 C 
ATOM     24  H   LIG d   1       2.559  -0.599  -2.802  0.00  0.00     0.081 H 
ATOM     25  H   LIG d   1       2.881  -1.553  -4.269  0.00  0.00     0.081 H 
BRANCH  23  26
ATOM     26  C   LIG d   1       3.828  -2.311  -2.489  0.00  0.00    -0.025 C 
ATOM     27  H   LIG d   1       4.898  -2.441  -2.653  0.00  0.00     0.028 H 
ATOM     28  H   LIG d   1       3.648  -2.087  -1.438  0.00  0.00     0.028 H 
ATOM     29  H   LIG d   1       3.305  -3.227  -2.760  0.00  0.00     0.028 H 
ENDBRANCH  23  26
ENDBRANCH  21  23
BRANCH  21  30
ATOM     30  C   LIG d   1       5.216   0.076  -2.496  0.00  0.00    -0.035 C 
ATOM     31  H   LIG d   1       5.364  -0.817  -1.890  0.00  0.00     0.081 H 
ATOM     32  H   LIG d   1       6.186   0.473  -2.801  0.00  0.00     0.081 H 
BRANCH  30  33
ATOM     33  C   LIG d   1       4.468   1.130  -1.678  0.00  0.00    -0.025 C 
ATOM     34  H   LIG d   1       4.384   0.795  -0.644  0.00  0.00     0.028 H 
ATOM     35  H   LIG d   1       5.015   2.072  -1.712  0.00  0.00     0.028 H 
ATOM     36  H   LIG d   1       3.472   1.273  -2.096  0.00  0.00     0.028 H 
ENDBRANCH  30  33
ENDBRANCH  21  30
ENDBRANCH  18  21
ENDBRANCH  16  18
BRANCH  16  37
ATOM     37  O   LIG d   1       6.080   0.249  -6.723  0.00  0.00    -0.382 OA
ATOM     38  H   LIG d   1       6.908   0.008  -6.287  0.00  0.00     0.210 HD
ENDBRANCH  16  37
ENDBRANCH   1  16
BRANCH   3  39
ATOM     39  C   LIG d   1       4.287  -5.133  -7.130  0.00  0.00     0.001 A 
ATOM     40  C   LIG d   1       4.076  -6.116  -8.079  0.00  0.00    -0.045 A 
ATOM     41  C   LIG d   1       4.314  -7.459  -7.748  0.00  0.00    -0.017 A 
ATOM     42  H   LIG d   1       3.731  -5.852  -9.069  0.00  0.00     0.063 H 
ATOM     43  C   LIG d   1       4.767  -7.786  -6.446  0.00  0.00    -0.018 A 
ATOM     44  C   LIG d   1       4.110  -8.487  -8.686  0.00  0.00    -0.054 A 
ATOM     45  C   LIG d   1       4.973  -6.763  -5.502  0.00  0.00    -0.053 A 
ATOM     46  C   LIG d   1       5.003  -9.132  -6.118  0.00  0.00    -0.054 A 
ATOM     47  C   LIG d   1       4.737  -5.470  -5.842  0.00  0.00    -0.052 A 
ATOM     48  H   LIG d   1       5.317  -7.006  -4.508  0.00  0.00     0.062 H 
ATOM     49  H   LIG d   1       4.897  -4.689  -5.113  0.00  0.00     0.062 H 
ATOM     50  C   LIG d   1       4.790 -10.101  -7.050  0.00  0.00    -0.061 A 
ATOM     51  H   LIG d   1       5.348  -9.397  -5.129  0.00  0.00     0.062 H 
ATOM     52  C   LIG d   1       4.349  -9.778  -8.333  0.00  0.00    -0.061 A 
ATOM     53  H   LIG d   1       4.968 -11.135  -6.794  0.00  0.00     0.062 H 
ATOM     54  H   LIG d   1       4.192 -10.566  -9.054  0.00  0.00     0.062 H 
ATOM     55  H   LIG d   1       3.766  -8.251  -9.683  0.00  0.00     0.062 H 
ENDBRANCH   3  39
TORSDOF 9
ENDMDL
MODEL 8
REMARK VINA RESULT:      -6.2      4.644      6.966
REMARK  9 active torsions:
REMARK  status: ('A' for Active; 'I' for Inactive)
REMARK    1  A    between atoms: C_1  and  C_2 
REMARK    2  A    between atoms: C_2  and  N_54 
REMARK    3  A    between atoms: C_3  and  C_4 
REMARK    4  A    between atoms: C_3  and  N_54 
REMARK    5  A    between atoms: C_5  and  C_6 
REMARK    6  A    between atoms: C_5  and  N_54 
REMARK    7  A    between atoms: C_6  and  C_8 
REMARK    8  A    between atoms: C_6  and  O_28 
REMARK    9  A    between atoms: C_10  and  C_18 
ROOT
ATOM      1  C   LIG d   1       7.182   0.524  -5.303  0.00  0.00    -0.003 A 
ATOM      2  C   LIG d   1       6.352   0.179  -6.328  0.00  0.00    -0.029 A 
ATOM      3  C   LIG d   1       6.552   0.729  -7.604  0.00  0.00     0.072 A 
ATOM      4  N   LIG d   1       7.534   1.578  -7.843  0.00  0.00    -0.247 NA
ATOM      5  C   LIG d   1       8.374   1.956  -6.876  0.00  0.00     0.072 A 
ATOM      6  C   LIG d   1       8.225   1.434  -5.566  0.00  0.00     0.006 A 
ATOM      7  C   LIG d   1       9.115   1.833  -4.556  0.00  0.00    -0.052 A 
ATOM      8  C   LIG d   1      10.112   2.715  -4.845  0.00  0.00    -0.061 A 
ATOM      9  C   LIG d   1      10.260   3.228  -6.133  0.00  0.00    -0.060 A 
ATOM     10  C   LIG d   1       9.416   2.864  -7.136  0.00  0.00    -0.036 A 
ATOM     11  H   LIG d   1       5.543  -0.516  -6.160  0.00  0.00     0.064 H 
ATOM     12  H   LIG d   1       9.011   1.443  -3.555  0.00  0.00     0.062 H 
ATOM     13  H   LIG d   1      10.795   3.021  -4.068  0.00  0.00     0.062 H 
ATOM     14  H   LIG d   1      11.059   3.926  -6.337  0.00  0.00     0.062 H 
ATOM     15  H   LIG d   1       9.546   3.271  -8.128  0.00  0.00     0.064 H 
ENDROOT
BRANCH   1  16
ATOM     16  C   LIG d   1       6.988  -0.052  -3.925  0.00  0.00     0.120 C 
ATOM     17  H   LIG d   1       7.335   0.663  -3.179  0.00  0.00     0.070 H 
BRANCH  16  18
ATOM     18  C   LIG d   1       5.503  -0.345  -3.699  0.00  0.00    -0.001 C 
ATOM     19  H   LIG d   1       4.904   0.437  -4.165  0.00  0.00     0.084 H 
ATOM     20  H   LIG d   1       5.251  -1.309  -4.140  0.00  0.00     0.084 H 
BRANCH  18  21
ATOM     21  N   LIG d   1       5.243  -0.397  -2.244  0.00  0.00     0.237 N 
ATOM     22  H   LIG d   1       6.128  -0.579  -1.754  0.00  0.00     0.203 HD
BRANCH  21  23
ATOM     23  C   LIG d   1       4.695   0.895  -1.782  0.00  0.00    -0.035 C 
ATOM     24  H   LIG d   1       4.280   0.765  -0.783  0.00  0.00     0.081 H 
ATOM     25  H   LIG d   1       5.499   1.630  -1.749  0.00  0.00     0.081 H 
BRANCH  23  26
ATOM     26  C   LIG d   1       3.598   1.382  -2.731  0.00  0.00    -0.025 C 
ATOM     27  H   LIG d   1       2.792   1.834  -2.153  0.00  0.00     0.028 H 
ATOM     28  H   LIG d   1       4.012   2.122  -3.416  0.00  0.00     0.028 H 
ATOM     29  H   LIG d   1       3.208   0.539  -3.300  0.00  0.00     0.028 H 
ENDBRANCH  23  26
ENDBRANCH  21  23
BRANCH  21  30
ATOM     30  C   LIG d   1       4.293  -1.487  -1.939  0.00  0.00    -0.035 C 
ATOM     31  H   LIG d   1       4.646  -2.076  -1.093  0.00  0.00     0.081 H 
ATOM     32  H   LIG d   1       3.320  -1.055  -1.701  0.00  0.00     0.081 H 
BRANCH  30  33
ATOM     33  C   LIG d   1       4.165  -2.387  -3.169  0.00  0.00    -0.025 C 
ATOM     34  H   LIG d   1       3.834  -1.793  -4.022  0.00  0.00     0.028 H 
ATOM     35  H   LIG d   1       5.132  -2.837  -3.393  0.00  0.00     0.028 H 
ATOM     36  H   LIG d   1       3.437  -3.173  -2.969  0.00  0.00     0.028 H 
ENDBRANCH  30  33
ENDBRANCH  21  30
ENDBRANCH  18  21
ENDBRANCH  16  18
BRANCH  16  37
ATOM     37  O   LIG d   1       7.736  -1.264  -3.806  0.00  0.00    -0.382 OA
ATOM     38  H   LIG d   1       8.547  -1.178  -3.286  0.00  0.00     0.210 HD
ENDBRANCH  16  37
ENDBRANCH   1  16
BRANCH   3  39
ATOM     39  C   LIG d   1       5.643   0.345  -8.710  0.00  0.00     0.001 A 
ATOM     40  C   LIG d   1       4.302   0.131  -8.452  0.00  0.00    -0.045 A 
ATOM     41  C   LIG d   1       3.445  -0.233  -9.503  0.00  0.00    -0.017 A 
ATOM     42  H   LIG d   1       3.915   0.242  -7.449  0.00  0.00     0.063 H 
ATOM     43  C   LIG d   1       3.969  -0.373 -10.812  0.00  0.00    -0.018 A 
ATOM     44  C   LIG d   1       2.075  -0.460  -9.279  0.00  0.00    -0.054 A 
ATOM     45  C   LIG d   1       5.338  -0.147 -11.042  0.00  0.00    -0.053 A 
ATOM     46  C   LIG d   1       3.109  -0.738 -11.862  0.00  0.00    -0.054 A 
ATOM     47  C   LIG d   1       6.151   0.203 -10.012  0.00  0.00    -0.052 A 
ATOM     48  H   LIG d   1       5.744  -0.254 -12.037  0.00  0.00     0.062 H 
ATOM     49  H   LIG d   1       7.201   0.375 -10.196  0.00  0.00     0.062 H 
ATOM     50  C   LIG d   1       1.789  -0.955 -11.607  0.00  0.00    -0.061 A 
ATOM     51  H   LIG d   1       3.493  -0.849 -12.864  0.00  0.00     0.062 H 
ATOM     52  C   LIG d   1       1.273  -0.811 -10.320  0.00  0.00    -0.061 A 
ATOM     53  H   LIG d   1       1.131  -1.239 -12.415  0.00  0.00     0.062 H 
ATOM     54  H   LIG d   1       0.221  -0.986 -10.147  0.00  0.00     0.062 H 
ATOM     55  H   LIG d   1       1.663  -0.355  -8.287  0.00  0.00     0.062 H 
ENDBRANCH   3  39
TORSDOF 9
ENDMDL
MODEL 9
REMARK VINA RESULT:      -6.2      3.266      9.123
REMARK  9 active torsions:
REMARK  status: ('A' for Active; 'I' for Inactive)
REMARK    1  A    between atoms: C_1  and  C_2 
REMARK    2  A    between atoms: C_2  and  N_54 
REMARK    3  A    between atoms: C_3  and  C_4 
REMARK    4  A    between atoms: C_3  and  N_54 
REMARK    5  A    between atoms: C_5  and  C_6 
REMARK    6  A    between atoms: C_5  and  N_54 
REMARK    7  A    between atoms: C_6  and  C_8 
REMARK    8  A    between atoms: C_6  and  O_28 
REMARK    9  A    between atoms: C_10  and  C_18 
ROOT
ATOM      1  C   LIG d   1       6.240  -0.898  -5.469  0.00  0.00    -0.003 A 
ATOM      2  C   LIG d   1       7.152   0.104  -5.615  0.00  0.00    -0.029 A 
ATOM      3  C   LIG d   1       7.357   1.019  -4.571  0.00  0.00     0.072 A 
ATOM      4  N   LIG d   1       6.687   0.934  -3.437  0.00  0.00    -0.247 NA
ATOM      5  C   LIG d   1       5.777  -0.023  -3.241  0.00  0.00     0.072 A 
ATOM      6  C   LIG d   1       5.525  -0.979  -4.258  0.00  0.00     0.006 A 
ATOM      7  C   LIG d   1       4.570  -1.985  -4.041  0.00  0.00    -0.052 A 
ATOM      8  C   LIG d   1       3.898  -2.033  -2.858  0.00  0.00    -0.061 A 
ATOM      9  C   LIG d   1       4.144  -1.095  -1.857  0.00  0.00    -0.060 A 
ATOM     10  C   LIG d   1       5.062  -0.105  -2.033  0.00  0.00    -0.036 A 
ATOM     11  H   LIG d   1       7.717   0.193  -6.531  0.00  0.00     0.064 H 
ATOM     12  H   LIG d   1       4.370  -2.718  -4.808  0.00  0.00     0.062 H 
ATOM     13  H   LIG d   1       3.163  -2.806  -2.692  0.00  0.00     0.062 H 
ATOM     14  H   LIG d   1       3.597  -1.153  -0.927  0.00  0.00     0.062 H 
ATOM     15  H   LIG d   1       5.241   0.613  -1.247  0.00  0.00     0.064 H 
ENDROOT
BRANCH   1  16
ATOM     16  C   LIG d   1       6.001  -1.894  -6.574  0.00  0.00     0.120 C 
ATOM     17  H   LIG d   1       5.432  -2.738  -6.187  0.00  0.00     0.070 H 
BRANCH  16  18
ATOM     18  C   LIG d   1       5.216  -1.222  -7.704  0.00  0.00    -0.001 C 
ATOM     19  H   LIG d   1       5.274  -0.140  -7.593  0.00  0.00     0.084 H 
ATOM     20  H   LIG d   1       5.639  -1.514  -8.665  0.00  0.00     0.084 H 
BRANCH  18  21
ATOM     21  N   LIG d   1       3.810  -1.674  -7.640  0.00  0.00     0.237 N 
ATOM     22  H   LIG d   1       3.642  -2.115  -6.727  0.00  0.00     0.203 HD
BRANCH  21  23
ATOM     23  C   LIG d   1       2.900  -0.518  -7.788  0.00  0.00    -0.035 C 
ATOM     24  H   LIG d   1       3.255   0.107  -8.607  0.00  0.00     0.081 H 
ATOM     25  H   LIG d   1       1.898  -0.881  -8.015  0.00  0.00     0.081 H 
BRANCH  23  26
ATOM     26  C   LIG d   1       2.865   0.304  -6.498  0.00  0.00    -0.025 C 
ATOM     27  H   LIG d   1       1.964   0.059  -5.935  0.00  0.00     0.028 H 
ATOM     28  H   LIG d   1       3.743   0.074  -5.895  0.00  0.00     0.028 H 
ATOM     29  H   LIG d   1       2.861   1.366  -6.743  0.00  0.00     0.028 H 
ENDBRANCH  23  26
ENDBRANCH  21  23
BRANCH  21  30
ATOM     30  C   LIG d   1       3.547  -2.663  -8.706  0.00  0.00    -0.035 C 
ATOM     31  H   LIG d   1       4.448  -2.841  -9.292  0.00  0.00     0.081 H 
ATOM     32  H   LIG d   1       3.218  -3.599  -8.252  0.00  0.00     0.081 H 
BRANCH  30  33
ATOM     33  C   LIG d   1       2.444  -2.123  -9.617  0.00  0.00    -0.025 C 
ATOM     34  H   LIG d   1       1.638  -1.711  -9.008  0.00  0.00     0.028 H 
ATOM     35  H   LIG d   1       2.852  -1.341 -10.258  0.00  0.00     0.028 H 
ATOM     36  H   LIG d   1       2.054  -2.932 -10.235  0.00  0.00     0.028 H 
ENDBRANCH  30  33
ENDBRANCH  21  30
ENDBRANCH  18  21
ENDBRANCH  16  18
BRANCH  16  37
ATOM     37  O   LIG d   1       7.257  -2.357  -7.077  0.00  0.00    -0.382 OA
ATOM     38  H   LIG d   1       7.969  -1.705  -7.018  0.00  0.00     0.210 HD
ENDBRANCH  16  37
ENDBRANCH   1  16
BRANCH   3  39
ATOM     39  C   LIG d   1       8.353   2.104  -4.743  0.00  0.00     0.001 A 
ATOM     40  C   LIG d   1       8.629   2.587  -6.008  0.00  0.00    -0.045 A 
ATOM     41  C   LIG d   1       9.573   3.614  -6.166  0.00  0.00    -0.017 A 
ATOM     42  H   LIG d   1       8.123   2.177  -6.871  0.00  0.00     0.063 H 
ATOM     43  C   LIG d   1      10.227   4.140  -5.024  0.00  0.00    -0.018 A 
ATOM     44  C   LIG d   1       9.881   4.131  -7.437  0.00  0.00    -0.054 A 
ATOM     45  C   LIG d   1       9.924   3.628  -3.749  0.00  0.00    -0.053 A 
ATOM     46  C   LIG d   1      11.172   5.168  -5.185  0.00  0.00    -0.054 A 
ATOM     47  C   LIG d   1       9.007   2.633  -3.618  0.00  0.00    -0.052 A 
ATOM     48  H   LIG d   1      10.419   4.023  -2.875  0.00  0.00     0.062 H 
ATOM     49  H   LIG d   1       8.779   2.245  -2.637  0.00  0.00     0.062 H 
ATOM     50  C   LIG d   1      11.449   5.640  -6.431  0.00  0.00    -0.061 A 
ATOM     51  H   LIG d   1      11.679   5.579  -4.324  0.00  0.00     0.062 H 
ATOM     52  C   LIG d   1      10.801   5.126  -7.554  0.00  0.00    -0.061 A 
ATOM     53  H   LIG d   1      12.178   6.427  -6.552  0.00  0.00     0.062 H 
ATOM     54  H   LIG d   1      11.037   5.522  -8.531  0.00  0.00     0.062 H 
ATOM     55  H   LIG d   1       9.389   3.740  -8.315  0.00  0.00     0.062 H 
ENDBRANCH   3  39
TORSDOF 9
ENDMDL
MODEL 10
REMARK VINA RESULT:      -6.2      2.411      7.727
REMARK  9 active torsions:
REMARK  status: ('A' for Active; 'I' for Inactive)
REMARK    1  A    between atoms: C_1  and  C_2 
REMARK    2  A    between atoms: C_2  and  N_54 
REMARK    3  A    between atoms: C_3  and  C_4 
REMARK    4  A    between atoms: C_3  and  N_54 
REMARK    5  A    between atoms: C_5  and  C_6 
REMARK    6  A    between atoms: C_5  and  N_54 
REMARK    7  A    between atoms: C_6  and  C_8 
REMARK    8  A    between atoms: C_6  and  O_28 
REMARK    9  A    between atoms: C_10  and  C_18 
ROOT
ATOM      1  C   LIG d   1       7.966   0.574  -4.811  0.00  0.00    -0.003 A 
ATOM      2  C   LIG d   1       8.119   1.870  -4.415  0.00  0.00    -0.029 A 
ATOM      3  C   LIG d   1       9.401   2.439  -4.368  0.00  0.00     0.072 A 
ATOM      4  N   LIG d   1      10.475   1.749  -4.702  0.00  0.00    -0.247 NA
ATOM      5  C   LIG d   1      10.386   0.475  -5.092  0.00  0.00     0.072 A 
ATOM      6  C   LIG d   1       9.118  -0.157  -5.162  0.00  0.00     0.006 A 
ATOM      7  C   LIG d   1       9.034  -1.495  -5.577  0.00  0.00    -0.052 A 
ATOM      8  C   LIG d   1      10.168  -2.171  -5.908  0.00  0.00    -0.061 A 
ATOM      9  C   LIG d   1      11.415  -1.552  -5.841  0.00  0.00    -0.060 A 
ATOM     10  C   LIG d   1      11.535  -0.256  -5.442  0.00  0.00    -0.036 A 
ATOM     11  H   LIG d   1       7.255   2.457  -4.140  0.00  0.00     0.064 H 
ATOM     12  H   LIG d   1       8.074  -1.986  -5.634  0.00  0.00     0.062 H 
ATOM     13  H   LIG d   1      10.102  -3.201  -6.227  0.00  0.00     0.062 H 
ATOM     14  H   LIG d   1      12.300  -2.110  -6.108  0.00  0.00     0.062 H 
ATOM     15  H   LIG d   1      12.509   0.208  -5.396  0.00  0.00     0.064 H 
ENDROOT
BRANCH   1  16
ATOM     16  C   LIG d   1       6.601  -0.060  -4.871  0.00  0.00     0.120 C 
ATOM     17  H   LIG d   1       6.706  -1.140  -4.973  0.00  0.00     0.070 H 
BRANCH  16  18
ATOM     18  C   LIG d   1       5.834   0.258  -3.584  0.00  0.00    -0.001 C 
ATOM     19  H   LIG d   1       6.322  -0.230  -2.741  0.00  0.00     0.084 H 
ATOM     20  H   LIG d   1       5.823   1.336  -3.425  0.00  0.00     0.084 H 
BRANCH  18  21
ATOM     21  N   LIG d   1       4.444  -0.223  -3.727  0.00  0.00     0.237 N 
ATOM     22  H   LIG d   1       4.055   0.136  -4.607  0.00  0.00     0.203 HD
BRANCH  21  23
ATOM     23  C   LIG d   1       4.422  -1.701  -3.761  0.00  0.00    -0.035 C 
ATOM     24  H   LIG d   1       3.806  -2.025  -4.599  0.00  0.00     0.081 H 
ATOM     25  H   LIG d   1       5.439  -2.068  -3.893  0.00  0.00     0.081 H 
BRANCH  23  26
ATOM     26  C   LIG d   1       3.843  -2.258  -2.458  0.00  0.00    -0.025 C 
ATOM     27  H   LIG d   1       4.574  -2.917  -1.988  0.00  0.00     0.028 H 
ATOM     28  H   LIG d   1       3.611  -1.435  -1.783  0.00  0.00     0.028 H 
ATOM     29  H   LIG d   1       2.935  -2.818  -2.674  0.00  0.00     0.028 H 
ENDBRANCH  23  26
ENDBRANCH  21  23
BRANCH  21  30
ATOM     30  C   LIG d   1       3.621   0.269  -2.602  0.00  0.00    -0.035 C 
ATOM     31  H   LIG d   1       2.789   0.867  -2.971  0.00  0.00     0.081 H 
ATOM     32  H   LIG d   1       3.235  -0.584  -2.043  0.00  0.00     0.081 H 
BRANCH  30  33
ATOM     33  C   LIG d   1       4.498   1.124  -1.687  0.00  0.00    -0.025 C 
ATOM     34  H   LIG d   1       4.353   0.815  -0.651  0.00  0.00     0.028 H 
ATOM     35  H   LIG d   1       5.545   0.994  -1.962  0.00  0.00     0.028 H 
ATOM     36  H   LIG d   1       4.222   2.172  -1.796  0.00  0.00     0.028 H 
ENDBRANCH  30  33
ENDBRANCH  21  30
ENDBRANCH  18  21
ENDBRANCH  16  18
BRANCH  16  37
ATOM     37  O   LIG d   1       5.884   0.458  -5.993  0.00  0.00    -0.382 OA
ATOM     38  H   LIG d   1       5.159  -0.107  -6.292  0.00  0.00     0.210 HD
ENDBRANCH  16  37
ENDBRANCH   1  16
BRANCH   3  39
ATOM     39  C   LIG d   1       9.552   3.849  -3.936  0.00  0.00     0.001 A 
ATOM     40  C   LIG d   1       9.987   4.132  -2.655  0.00  0.00    -0.045 A 
ATOM     41  C   LIG d   1      10.128   5.469  -2.252  0.00  0.00    -0.017 A 
ATOM     42  H   LIG d   1      10.217   3.330  -1.969  0.00  0.00     0.063 H 
ATOM     43  C   LIG d   1       9.823   6.508  -3.166  0.00  0.00    -0.018 A 
ATOM     44  C   LIG d   1      10.568   5.796  -0.956  0.00  0.00    -0.054 A 
ATOM     45  C   LIG d   1       9.383   6.188  -4.463  0.00  0.00    -0.053 A 
ATOM     46  C   LIG d   1       9.965   7.846  -2.759  0.00  0.00    -0.054 A 
ATOM     47  C   LIG d   1       9.252   4.888  -4.834  0.00  0.00    -0.052 A 
ATOM     48  H   LIG d   1       9.148   6.975  -5.164  0.00  0.00     0.062 H 
ATOM     49  H   LIG d   1       8.914   4.649  -5.831  0.00  0.00     0.062 H 
ATOM     50  C   LIG d   1      10.388   8.125  -1.495  0.00  0.00    -0.061 A 
ATOM     51  H   LIG d   1       9.736   8.649  -3.443  0.00  0.00     0.062 H 
ATOM     52  C   LIG d   1      10.694   7.103  -0.598  0.00  0.00    -0.061 A 
ATOM     53  H   LIG d   1      10.492   9.153  -1.184  0.00  0.00     0.062 H 
ATOM     54  H   LIG d   1      11.031   7.352   0.397  0.00  0.00     0.062 H 
ATOM     55  H   LIG d   1      10.805   5.014  -0.251  0.00  0.00     0.062 H 
ENDBRANCH   3  39
TORSDOF 9
ENDMDL
