MODEL 1
REMARK VINA RESULT:      -7.5      0.000      0.000
REMARK  8 active torsions:
REMARK  status: ('A' for Active; 'I' for Inactive)
REMARK    1  A    between atoms: C_4  and  C_7 
REMARK    2  A    between atoms: C_8  and  C_18 
REMARK    3  A    between atoms: C_10  and  N_17 
REMARK    4  A    between atoms: C_12  and  C_13 
REMARK    5  A    between atoms: C_21  and  O_25 
REMARK    6  A    between atoms: C_23  and  O_24 
REMARK    7  A    between atoms: O_25  and  C_26 
REMARK    8  A    between atoms: C_26  and  C_27 
ROOT
ATOM      1  C   LIG d   1       4.376  -3.215  -8.148  0.00  0.00     0.043 A 
ATOM      2  C   LIG d   1       5.453  -2.348  -8.342  0.00  0.00    -0.046 A 
ATOM      3  C   LIG d   1       6.358  -2.136  -7.326  0.00  0.00    -0.019 A 
ATOM      4  C   LIG d   1       6.201  -2.780  -6.104  0.00  0.00     0.124 A 
ATOM      5  C   LIG d   1       5.134  -3.643  -5.901  0.00  0.00     0.022 A 
ATOM      6  C   LIG d   1       4.216  -3.859  -6.916  0.00  0.00     0.130 A 
ATOM      7  H   LIG d   1       5.577  -1.846  -9.290  0.00  0.00     0.063 H 
ATOM      8  H   LIG d   1       7.192  -1.466  -7.478  0.00  0.00     0.065 H 
ATOM      9  H   LIG d   1       5.016  -4.143  -4.951  0.00  0.00     0.069 H 
ENDROOT
BRANCH   1  10
ATOM     10  C   LIG d   1       3.403  -3.445  -9.238  0.00  0.00     0.088 A 
ATOM     11  C   LIG d   1       2.774  -2.360  -9.879  0.00  0.00     0.038 A 
ATOM     12  C   LIG d   1       1.865  -2.634 -10.901  0.00  0.00     0.157 A 
ATOM     13  N   LIG d   1       1.627  -3.893 -11.229  0.00  0.00    -0.210 NA
ATOM     14  C   LIG d   1       2.235  -4.891 -10.605  0.00  0.00     0.214 A 
ATOM     15  N   LIG d   1       3.106  -4.682  -9.630  0.00  0.00    -0.214 NA
BRANCH  11  16
ATOM     16  C   LIG d   1       3.071  -0.963  -9.480  0.00  0.00    -0.014 A 
ATOM     17  C   LIG d   1       2.513  -0.434  -8.318  0.00  0.00    -0.054 A 
ATOM     18  C   LIG d   1       2.793   0.866  -7.951  0.00  0.00    -0.061 A 
ATOM     19  H   LIG d   1       1.861  -1.040  -7.706  0.00  0.00     0.062 H 
ATOM     20  C   LIG d   1       3.626   1.645  -8.735  0.00  0.00    -0.062 A 
ATOM     21  H   LIG d   1       2.361   1.277  -7.050  0.00  0.00     0.062 H 
ATOM     22  C   LIG d   1       4.182   1.125  -9.889  0.00  0.00    -0.061 A 
ATOM     23  H   LIG d   1       3.843   2.661  -8.444  0.00  0.00     0.062 H 
ATOM     24  C   LIG d   1       3.914  -0.176 -10.262  0.00  0.00    -0.054 A 
ATOM     25  H   LIG d   1       4.832   1.737 -10.497  0.00  0.00     0.062 H 
ATOM     26  H   LIG d   1       4.353  -0.583 -11.162  0.00  0.00     0.062 H 
ENDBRANCH  11  16
BRANCH  12  27
ATOM     27  C   LIG d   1       1.164  -1.512 -11.621  0.00  0.00     0.435 C 
ATOM     28  F   LIG d   1       2.081  -0.833 -12.431  0.00  0.00    -0.164 F 
ATOM     29  F   LIG d   1       0.138  -2.036 -12.416  0.00  0.00    -0.164 F 
ATOM     30  F   LIG d   1       0.622  -0.624 -10.686  0.00  0.00    -0.164 F 
ENDBRANCH  12  27
BRANCH  14  31
ATOM     31  N   LIG d   1       1.957  -6.192 -10.987  0.00  0.00    -0.328 N 
ATOM     32  H   LIG d   1       1.667  -6.379 -11.893  0.00  0.00     0.145 HD
ATOM     33  H   LIG d   1       2.051  -6.916 -10.348  0.00  0.00     0.145 HD
ENDBRANCH  14  31
ENDBRANCH   1  10
BRANCH   6  34
ATOM     34  O   LIG d   1       3.168  -4.699  -6.717  0.00  0.00    -0.506 OA
ATOM     35  H   LIG d   1       3.213  -5.196  -5.889  0.00  0.00     0.292 HD
ENDBRANCH   6  34
BRANCH   4  36
ATOM     36  O   LIG d   1       7.097  -2.567  -5.106  0.00  0.00    -0.487 OA
BRANCH  36  37
ATOM     37  C   LIG d   1       7.055  -1.293  -4.458  0.00  0.00     0.115 C 
ATOM     38  H   LIG d   1       7.821  -1.254  -3.684  0.00  0.00     0.075 H 
ATOM     39  H   LIG d   1       7.238  -0.507  -5.191  0.00  0.00     0.075 H 
BRANCH  37  40
ATOM     40  C   LIG d   1       5.698  -1.092  -3.834  0.00  0.00    -0.009 A 
ATOM     41  C   LIG d   1       4.797  -0.213  -4.406  0.00  0.00    -0.037 A 
ATOM     42  C   LIG d   1       3.551  -0.032  -3.835  0.00  0.00     0.041 A 
ATOM     43  H   LIG d   1       5.066   0.329  -5.301  0.00  0.00     0.064 H 
ATOM     44  C   LIG d   1       3.210  -0.722  -2.686  0.00  0.00    -0.043 A 
ATOM     45 CL   LIG d   1       2.418   1.068  -4.556  0.00  0.00    -0.084 Cl
ATOM     46  C   LIG d   1       4.113  -1.597  -2.112  0.00  0.00    -0.060 A 
ATOM     47  H   LIG d   1       2.238  -0.577  -2.237  0.00  0.00     0.063 H 
ATOM     48  C   LIG d   1       5.356  -1.781  -2.686  0.00  0.00    -0.055 A 
ATOM     49  H   LIG d   1       3.847  -2.135  -1.215  0.00  0.00     0.062 H 
ATOM     50  H   LIG d   1       6.062  -2.465  -2.237  0.00  0.00     0.062 H 
ENDBRANCH  37  40
ENDBRANCH  36  37
ENDBRANCH   4  36
TORSDOF 8
ENDMDL
MODEL 2
REMARK VINA RESULT:      -7.2      4.457      6.336
REMARK  8 active torsions:
REMARK  status: ('A' for Active; 'I' for Inactive)
REMARK    1  A    between atoms: C_4  and  C_7 
REMARK    2  A    between atoms: C_8  and  C_18 
REMARK    3  A    between atoms: C_10  and  N_17 
REMARK    4  A    between atoms: C_12  and  C_13 
REMARK    5  A    between atoms: C_21  and  O_25 
REMARK    6  A    between atoms: C_23  and  O_24 
REMARK    7  A    between atoms: O_25  and  C_26 
REMARK    8  A    between atoms: C_26  and  C_27 
ROOT
ATOM      1  C   LIG d   1       5.149  -3.638  -6.439  0.00  0.00     0.043 A 
ATOM      2  C   LIG d   1       6.533  -3.517  -6.299  0.00  0.00    -0.046 A 
ATOM      3  C   LIG d   1       7.275  -4.585  -5.846  0.00  0.00    -0.019 A 
ATOM      4  C   LIG d   1       6.650  -5.786  -5.526  0.00  0.00     0.124 A 
ATOM      5  C   LIG d   1       5.276  -5.915  -5.661  0.00  0.00     0.022 A 
ATOM      6  C   LIG d   1       4.520  -4.845  -6.112  0.00  0.00     0.130 A 
ATOM      7  H   LIG d   1       7.021  -2.586  -6.547  0.00  0.00     0.063 H 
ATOM      8  H   LIG d   1       8.346  -4.491  -5.739  0.00  0.00     0.065 H 
ATOM      9  H   LIG d   1       4.794  -6.850  -5.413  0.00  0.00     0.069 H 
ENDROOT
BRANCH   1  10
ATOM     10  C   LIG d   1       4.350  -2.493  -6.926  0.00  0.00     0.088 A 
ATOM     11  C   LIG d   1       3.972  -1.457  -6.049  0.00  0.00     0.038 A 
ATOM     12  C   LIG d   1       3.219  -0.401  -6.560  0.00  0.00     0.157 A 
ATOM     13  N   LIG d   1       2.887  -0.409  -7.841  0.00  0.00    -0.210 NA
ATOM     14  C   LIG d   1       3.258  -1.399  -8.639  0.00  0.00     0.214 A 
ATOM     15  N   LIG d   1       3.974  -2.423  -8.201  0.00  0.00    -0.214 NA
BRANCH  11  16
ATOM     16  C   LIG d   1       4.366  -1.488  -4.620  0.00  0.00    -0.014 A 
ATOM     17  C   LIG d   1       5.614  -1.008  -4.227  0.00  0.00    -0.054 A 
ATOM     18  C   LIG d   1       5.975  -1.039  -2.896  0.00  0.00    -0.061 A 
ATOM     19  H   LIG d   1       6.298  -0.613  -4.965  0.00  0.00     0.062 H 
ATOM     20  C   LIG d   1       5.102  -1.546  -1.951  0.00  0.00    -0.062 A 
ATOM     21  H   LIG d   1       6.943  -0.667  -2.591  0.00  0.00     0.062 H 
ATOM     22  C   LIG d   1       3.862  -2.025  -2.335  0.00  0.00    -0.061 A 
ATOM     23  H   LIG d   1       5.388  -1.568  -0.911  0.00  0.00     0.062 H 
ATOM     24  C   LIG d   1       3.487  -1.992  -3.662  0.00  0.00    -0.054 A 
ATOM     25  H   LIG d   1       3.184  -2.419  -1.593  0.00  0.00     0.062 H 
ATOM     26  H   LIG d   1       2.517  -2.362  -3.960  0.00  0.00     0.062 H 
ENDBRANCH  11  16
BRANCH  12  27
ATOM     27  C   LIG d   1       2.788   0.733  -5.667  0.00  0.00     0.435 C 
ATOM     28  F   LIG d   1       2.473   1.849  -6.450  0.00  0.00    -0.164 F 
ATOM     29  F   LIG d   1       1.662   0.346  -4.931  0.00  0.00    -0.164 F 
ATOM     30  F   LIG d   1       3.829   1.058  -4.790  0.00  0.00    -0.164 F 
ENDBRANCH  12  27
BRANCH  14  31
ATOM     31  N   LIG d   1       2.891  -1.360  -9.973  0.00  0.00    -0.328 N 
ATOM     32  H   LIG d   1       3.333  -0.745 -10.579  0.00  0.00     0.145 HD
ATOM     33  H   LIG d   1       2.192  -1.947 -10.301  0.00  0.00     0.145 HD
ENDBRANCH  14  31
ENDBRANCH   1  10
BRANCH   6  34
ATOM     34  O   LIG d   1       3.175  -4.969  -6.239  0.00  0.00    -0.506 OA
ATOM     35  H   LIG d   1       2.805  -4.491  -6.994  0.00  0.00     0.292 HD
ENDBRANCH   6  34
BRANCH   4  36
ATOM     36  O   LIG d   1       7.387  -6.835  -5.080  0.00  0.00    -0.487 OA
BRANCH  36  37
ATOM     37  C   LIG d   1       7.006  -8.135  -5.534  0.00  0.00     0.115 C 
ATOM     38  H   LIG d   1       6.214  -8.043  -6.277  0.00  0.00     0.075 H 
ATOM     39  H   LIG d   1       7.868  -8.630  -5.982  0.00  0.00     0.075 H 
BRANCH  37  40
ATOM     40  C   LIG d   1       6.509  -8.949  -4.367  0.00  0.00    -0.009 A 
ATOM     41  C   LIG d   1       5.229  -9.470  -4.383  0.00  0.00    -0.037 A 
ATOM     42  C   LIG d   1       4.776 -10.220  -3.313  0.00  0.00     0.041 A 
ATOM     43  H   LIG d   1       4.585  -9.293  -5.231  0.00  0.00     0.064 H 
ATOM     44  C   LIG d   1       5.599 -10.441  -2.224  0.00  0.00    -0.043 A 
ATOM     45 CL   LIG d   1       3.169 -10.878  -3.334  0.00  0.00    -0.084 Cl
ATOM     46  C   LIG d   1       6.878  -9.916  -2.208  0.00  0.00    -0.060 A 
ATOM     47  H   LIG d   1       5.244 -11.023  -1.386  0.00  0.00     0.063 H 
ATOM     48  C   LIG d   1       7.332  -9.170  -3.279  0.00  0.00    -0.055 A 
ATOM     49  H   LIG d   1       7.521 -10.087  -1.358  0.00  0.00     0.062 H 
ATOM     50  H   LIG d   1       8.332  -8.760  -3.266  0.00  0.00     0.062 H 
ENDBRANCH  37  40
ENDBRANCH  36  37
ENDBRANCH   4  36
TORSDOF 8
ENDMDL
MODEL 3
REMARK VINA RESULT:      -7.1      3.528      4.382
REMARK  8 active torsions:
REMARK  status: ('A' for Active; 'I' for Inactive)
REMARK    1  A    between atoms: C_4  and  C_7 
REMARK    2  A    between atoms: C_8  and  C_18 
REMARK    3  A    between atoms: C_10  and  N_17 
REMARK    4  A    between atoms: C_12  and  C_13 
REMARK    5  A    between atoms: C_21  and  O_25 
REMARK    6  A    between atoms: C_23  and  O_24 
REMARK    7  A    between atoms: O_25  and  C_26 
REMARK    8  A    between atoms: C_26  and  C_27 
ROOT
ATOM      1  C   LIG d   1       5.310  -1.251  -6.485  0.00  0.00     0.043 A 
ATOM      2  C   LIG d   1       6.544  -0.759  -6.915  0.00  0.00    -0.046 A 
ATOM      3  C   LIG d   1       7.290   0.049  -6.085  0.00  0.00    -0.019 A 
ATOM      4  C   LIG d   1       6.819   0.377  -4.819  0.00  0.00     0.124 A 
ATOM      5  C   LIG d   1       5.595  -0.107  -4.383  0.00  0.00     0.022 A 
ATOM      6  C   LIG d   1       4.834  -0.916  -5.212  0.00  0.00     0.130 A 
ATOM      7  H   LIG d   1       6.913  -1.012  -7.898  0.00  0.00     0.063 H 
ATOM      8  H   LIG d   1       8.245   0.428  -6.419  0.00  0.00     0.065 H 
ATOM      9  H   LIG d   1       5.233   0.149  -3.398  0.00  0.00     0.069 H 
ENDROOT
BRANCH   1  10
ATOM     10  C   LIG d   1       4.507  -2.118  -7.373  0.00  0.00     0.088 A 
ATOM     11  C   LIG d   1       3.738  -1.562  -8.415  0.00  0.00     0.038 A 
ATOM     12  C   LIG d   1       3.000  -2.426  -9.223  0.00  0.00     0.157 A 
ATOM     13  N   LIG d   1       3.044  -3.726  -8.984  0.00  0.00    -0.210 NA
ATOM     14  C   LIG d   1       3.777  -4.217  -7.994  0.00  0.00     0.214 A 
ATOM     15  N   LIG d   1       4.496  -3.438  -7.201  0.00  0.00    -0.214 NA
BRANCH  11  16
ATOM     16  C   LIG d   1       3.717  -0.099  -8.648  0.00  0.00    -0.014 A 
ATOM     17  C   LIG d   1       2.809   0.706  -7.962  0.00  0.00    -0.054 A 
ATOM     18  C   LIG d   1       2.794   2.068  -8.182  0.00  0.00    -0.061 A 
ATOM     19  H   LIG d   1       2.117   0.264  -7.260  0.00  0.00     0.062 H 
ATOM     20  C   LIG d   1       3.677   2.636  -9.082  0.00  0.00    -0.062 A 
ATOM     21  H   LIG d   1       2.090   2.692  -7.651  0.00  0.00     0.062 H 
ATOM     22  C   LIG d   1       4.580   1.842  -9.767  0.00  0.00    -0.061 A 
ATOM     23  H   LIG d   1       3.662   3.702  -9.252  0.00  0.00     0.062 H 
ATOM     24  C   LIG d   1       4.609   0.480  -9.549  0.00  0.00    -0.054 A 
ATOM     25  H   LIG d   1       5.268   2.291 -10.468  0.00  0.00     0.062 H 
ATOM     26  H   LIG d   1       5.318  -0.138 -10.080  0.00  0.00     0.062 H 
ENDBRANCH  11  16
BRANCH  12  27
ATOM     27  C   LIG d   1       2.161  -1.886 -10.352  0.00  0.00     0.435 C 
ATOM     28  F   LIG d   1       1.240  -0.962  -9.848  0.00  0.00    -0.164 F 
ATOM     29  F   LIG d   1       2.989  -1.257 -11.289  0.00  0.00    -0.164 F 
ATOM     30  F   LIG d   1       1.476  -2.939 -10.969  0.00  0.00    -0.164 F 
ENDBRANCH  12  27
BRANCH  14  31
ATOM     31  N   LIG d   1       3.796  -5.585  -7.788  0.00  0.00    -0.328 N 
ATOM     32  H   LIG d   1       2.963  -6.077  -7.725  0.00  0.00     0.145 HD
ATOM     33  H   LIG d   1       4.643  -6.051  -7.705  0.00  0.00     0.145 HD
ENDBRANCH  14  31
ENDBRANCH   1  10
BRANCH   6  34
ATOM     34  O   LIG d   1       3.633  -1.385  -4.788  0.00  0.00    -0.506 OA
ATOM     35  H   LIG d   1       3.672  -2.266  -4.391  0.00  0.00     0.292 HD
ENDBRANCH   6  34
BRANCH   4  36
ATOM     36  O   LIG d   1       7.560   1.172  -4.007  0.00  0.00    -0.487 OA
BRANCH  36  37
ATOM     37  C   LIG d   1       8.938   1.344  -4.347  0.00  0.00     0.115 C 
ATOM     38  H   LIG d   1       9.558   0.789  -3.642  0.00  0.00     0.075 H 
ATOM     39  H   LIG d   1       9.112   0.970  -5.356  0.00  0.00     0.075 H 
BRANCH  37  40
ATOM     40  C   LIG d   1       9.293   2.807  -4.285  0.00  0.00    -0.009 A 
ATOM     41  C   LIG d   1       9.658   3.380  -3.082  0.00  0.00    -0.037 A 
ATOM     42  C   LIG d   1       9.987   4.722  -3.027  0.00  0.00     0.041 A 
ATOM     43  H   LIG d   1       9.689   2.779  -2.185  0.00  0.00     0.064 H 
ATOM     44  C   LIG d   1       9.940   5.493  -4.175  0.00  0.00    -0.043 A 
ATOM     45 CL   LIG d   1      10.450   5.442  -1.517  0.00  0.00    -0.084 Cl
ATOM     46  C   LIG d   1       9.570   4.920  -5.378  0.00  0.00    -0.060 A 
ATOM     47  H   LIG d   1      10.192   6.543  -4.132  0.00  0.00     0.063 H 
ATOM     48  C   LIG d   1       9.246   3.578  -5.432  0.00  0.00    -0.055 A 
ATOM     49  H   LIG d   1       9.534   5.521  -6.273  0.00  0.00     0.062 H 
ATOM     50  H   LIG d   1       8.957   3.130  -6.372  0.00  0.00     0.062 H 
ENDBRANCH  37  40
ENDBRANCH  36  37
ENDBRANCH   4  36
TORSDOF 8
ENDMDL
MODEL 4
REMARK VINA RESULT:      -7.0      4.215      5.586
REMARK  8 active torsions:
REMARK  status: ('A' for Active; 'I' for Inactive)
REMARK    1  A    between atoms: C_4  and  C_7 
REMARK    2  A    between atoms: C_8  and  C_18 
REMARK    3  A    between atoms: C_10  and  N_17 
REMARK    4  A    between atoms: C_12  and  C_13 
REMARK    5  A    between atoms: C_21  and  O_25 
REMARK    6  A    between atoms: C_23  and  O_24 
REMARK    7  A    between atoms: O_25  and  C_26 
REMARK    8  A    between atoms: C_26  and  C_27 
ROOT
ATOM      1  C   LIG d   1       4.979  -4.183  -7.181  0.00  0.00     0.043 A 
ATOM      2  C   LIG d   1       6.370  -4.158  -7.299  0.00  0.00    -0.046 A 
ATOM      3  C   LIG d   1       7.137  -5.064  -6.601  0.00  0.00    -0.019 A 
ATOM      4  C   LIG d   1       6.532  -6.006  -5.777  0.00  0.00     0.124 A 
ATOM      5  C   LIG d   1       5.150  -6.039  -5.653  0.00  0.00     0.022 A 
ATOM      6  C   LIG d   1       4.370  -5.129  -6.347  0.00  0.00     0.130 A 
ATOM      7  H   LIG d   1       6.844  -3.427  -7.938  0.00  0.00     0.063 H 
ATOM      8  H   LIG d   1       8.214  -5.044  -6.694  0.00  0.00     0.065 H 
ATOM      9  H   LIG d   1       4.683  -6.773  -5.013  0.00  0.00     0.069 H 
ENDROOT
BRANCH   1  10
ATOM     10  C   LIG d   1       4.153  -3.212  -7.929  0.00  0.00     0.088 A 
ATOM     11  C   LIG d   1       4.090  -1.863  -7.526  0.00  0.00     0.038 A 
ATOM     12  C   LIG d   1       3.295  -0.990  -8.267  0.00  0.00     0.157 A 
ATOM     13  N   LIG d   1       2.633  -1.453  -9.314  0.00  0.00    -0.210 NA
ATOM     14  C   LIG d   1       2.714  -2.729  -9.667  0.00  0.00     0.214 A 
ATOM     15  N   LIG d   1       3.455  -3.596  -8.995  0.00  0.00    -0.214 NA
BRANCH  11  16
ATOM     16  C   LIG d   1       4.848  -1.385  -6.345  0.00  0.00    -0.014 A 
ATOM     17  C   LIG d   1       4.343  -1.584  -5.061  0.00  0.00    -0.054 A 
ATOM     18  C   LIG d   1       5.054  -1.137  -3.966  0.00  0.00    -0.061 A 
ATOM     19  H   LIG d   1       3.396  -2.086  -4.924  0.00  0.00     0.062 H 
ATOM     20  C   LIG d   1       6.265  -0.493  -4.140  0.00  0.00    -0.062 A 
ATOM     21  H   LIG d   1       4.663  -1.292  -2.971  0.00  0.00     0.062 H 
ATOM     22  C   LIG d   1       6.771  -0.292  -5.412  0.00  0.00    -0.061 A 
ATOM     23  H   LIG d   1       6.818  -0.145  -3.281  0.00  0.00     0.062 H 
ATOM     24  C   LIG d   1       6.072  -0.741  -6.514  0.00  0.00    -0.054 A 
ATOM     25  H   LIG d   1       7.717   0.212  -5.542  0.00  0.00     0.062 H 
ATOM     26  H   LIG d   1       6.470  -0.587  -7.506  0.00  0.00     0.062 H 
ENDBRANCH  11  16
BRANCH  12  27
ATOM     27  C   LIG d   1       3.192   0.463  -7.881  0.00  0.00     0.435 C 
ATOM     28  F   LIG d   1       4.435   1.080  -8.050  0.00  0.00    -0.164 F 
ATOM     29  F   LIG d   1       2.243   1.095  -8.692  0.00  0.00    -0.164 F 
ATOM     30  F   LIG d   1       2.800   0.563  -6.541  0.00  0.00    -0.164 F 
ENDBRANCH  12  27
BRANCH  14  31
ATOM     31  N   LIG d   1       2.008  -3.165 -10.774  0.00  0.00    -0.328 N 
ATOM     32  H   LIG d   1       1.712  -4.087 -10.827  0.00  0.00     0.145 HD
ATOM     33  H   LIG d   1       1.809  -2.549 -11.496  0.00  0.00     0.145 HD
ENDBRANCH  14  31
ENDBRANCH   1  10
BRANCH   6  34
ATOM     34  O   LIG d   1       3.019  -5.157  -6.222  0.00  0.00    -0.506 OA
ATOM     35  H   LIG d   1       2.662  -6.026  -5.992  0.00  0.00     0.292 HD
ENDBRANCH   6  34
BRANCH   4  36
ATOM     36  O   LIG d   1       7.293  -6.897  -5.093  0.00  0.00    -0.487 OA
BRANCH  36  37
ATOM     37  C   LIG d   1       7.157  -8.275  -5.447  0.00  0.00     0.115 C 
ATOM     38  H   LIG d   1       6.482  -8.366  -6.299  0.00  0.00     0.075 H 
ATOM     39  H   LIG d   1       8.134  -8.680  -5.713  0.00  0.00     0.075 H 
BRANCH  37  40
ATOM     40  C   LIG d   1       6.597  -9.042  -4.277  0.00  0.00    -0.009 A 
ATOM     41  C   LIG d   1       5.311  -9.547  -4.333  0.00  0.00    -0.037 A 
ATOM     42  C   LIG d   1       4.800 -10.254  -3.261  0.00  0.00     0.041 A 
ATOM     43  H   LIG d   1       4.709  -9.394  -5.216  0.00  0.00     0.064 H 
ATOM     44  C   LIG d   1       5.570 -10.446  -2.128  0.00  0.00    -0.043 A 
ATOM     45 CL   LIG d   1       3.188 -10.894  -3.333  0.00  0.00    -0.084 Cl
ATOM     46  C   LIG d   1       6.853  -9.935  -2.070  0.00  0.00    -0.060 A 
ATOM     47  H   LIG d   1       5.169 -10.994  -1.287  0.00  0.00     0.063 H 
ATOM     48  C   LIG d   1       7.366  -9.233  -3.145  0.00  0.00    -0.055 A 
ATOM     49  H   LIG d   1       7.454 -10.085  -1.186  0.00  0.00     0.062 H 
ATOM     50  H   LIG d   1       8.369  -8.835  -3.099  0.00  0.00     0.062 H 
ENDBRANCH  37  40
ENDBRANCH  36  37
ENDBRANCH   4  36
TORSDOF 8
ENDMDL
MODEL 5
REMARK VINA RESULT:      -6.9      4.828      6.304
REMARK  8 active torsions:
REMARK  status: ('A' for Active; 'I' for Inactive)
REMARK    1  A    between atoms: C_4  and  C_7 
REMARK    2  A    between atoms: C_8  and  C_18 
REMARK    3  A    between atoms: C_10  and  N_17 
REMARK    4  A    between atoms: C_12  and  C_13 
REMARK    5  A    between atoms: C_21  and  O_25 
REMARK    6  A    between atoms: C_23  and  O_24 
REMARK    7  A    between atoms: O_25  and  C_26 
REMARK    8  A    between atoms: C_26  and  C_27 
ROOT
ATOM      1  C   LIG d   1       5.297  -4.063  -5.484  0.00  0.00     0.043 A 
ATOM      2  C   LIG d   1       6.662  -4.180  -5.213  0.00  0.00    -0.046 A 
ATOM      3  C   LIG d   1       7.277  -5.410  -5.299  0.00  0.00    -0.019 A 
ATOM      4  C   LIG d   1       6.543  -6.536  -5.653  0.00  0.00     0.124 A 
ATOM      5  C   LIG d   1       5.187  -6.430  -5.924  0.00  0.00     0.022 A 
ATOM      6  C   LIG d   1       4.558  -5.198  -5.836  0.00  0.00     0.130 A 
ATOM      7  H   LIG d   1       7.235  -3.307  -4.938  0.00  0.00     0.063 H 
ATOM      8  H   LIG d   1       8.333  -5.500  -5.090  0.00  0.00     0.065 H 
ATOM      9  H   LIG d   1       4.620  -7.307  -6.200  0.00  0.00     0.069 H 
ENDROOT
BRANCH   1  10
ATOM     10  C   LIG d   1       4.634  -2.744  -5.393  0.00  0.00     0.088 A 
ATOM     11  C   LIG d   1       4.526  -1.916  -6.528  0.00  0.00     0.038 A 
ATOM     12  C   LIG d   1       3.892  -0.682  -6.386  0.00  0.00     0.157 A 
ATOM     13  N   LIG d   1       3.418  -0.335  -5.201  0.00  0.00    -0.210 NA
ATOM     14  C   LIG d   1       3.537  -1.137  -4.153  0.00  0.00     0.214 A 
ATOM     15  N   LIG d   1       4.130  -2.318  -4.238  0.00  0.00    -0.214 NA
BRANCH  11  16
ATOM     16  C   LIG d   1       5.071  -2.345  -7.838  0.00  0.00    -0.014 A 
ATOM     17  C   LIG d   1       4.254  -3.008  -8.753  0.00  0.00    -0.054 A 
ATOM     18  C   LIG d   1       4.766  -3.405  -9.971  0.00  0.00    -0.061 A 
ATOM     19  H   LIG d   1       3.221  -3.212  -8.507  0.00  0.00     0.062 H 
ATOM     20  C   LIG d   1       6.088  -3.146 -10.286  0.00  0.00    -0.062 A 
ATOM     21  H   LIG d   1       4.133  -3.919 -10.680  0.00  0.00     0.062 H 
ATOM     22  C   LIG d   1       6.903  -2.489  -9.382  0.00  0.00    -0.061 A 
ATOM     23  H   LIG d   1       6.484  -3.458 -11.240  0.00  0.00     0.062 H 
ATOM     24  C   LIG d   1       6.400  -2.082  -8.164  0.00  0.00    -0.054 A 
ATOM     25  H   LIG d   1       7.935  -2.290  -9.634  0.00  0.00     0.062 H 
ATOM     26  H   LIG d   1       7.037  -1.565  -7.461  0.00  0.00     0.062 H 
ENDBRANCH  11  16
BRANCH  12  27
ATOM     27  C   LIG d   1       3.747   0.243  -7.567  0.00  0.00     0.435 C 
ATOM     28  F   LIG d   1       5.015   0.601  -8.036  0.00  0.00    -0.164 F 
ATOM     29  F   LIG d   1       3.039  -0.406  -8.584  0.00  0.00    -0.164 F 
ATOM     30  F   LIG d   1       3.053   1.393  -7.176  0.00  0.00    -0.164 F 
ENDBRANCH  12  27
BRANCH  14  31
ATOM     31  N   LIG d   1       3.021  -0.732  -2.935  0.00  0.00    -0.328 N 
ATOM     32  H   LIG d   1       3.263  -1.205  -2.124  0.00  0.00     0.145 HD
ATOM     33  H   LIG d   1       2.416   0.026  -2.893  0.00  0.00     0.145 HD
ENDBRANCH  14  31
ENDBRANCH   1  10
BRANCH   6  34
ATOM     34  O   LIG d   1       3.230  -5.093  -6.095  0.00  0.00    -0.506 OA
ATOM     35  H   LIG d   1       2.926  -4.186  -6.234  0.00  0.00     0.292 HD
ENDBRANCH   6  34
BRANCH   4  36
ATOM     36  O   LIG d   1       7.156  -7.745  -5.736  0.00  0.00    -0.487 OA
BRANCH  36  37
ATOM     37  C   LIG d   1       8.111  -8.059  -4.720  0.00  0.00     0.115 C 
ATOM     38  H   LIG d   1       8.932  -8.628  -5.156  0.00  0.00     0.075 H 
ATOM     39  H   LIG d   1       8.498  -7.136  -4.288  0.00  0.00     0.075 H 
BRANCH  37  40
ATOM     40  C   LIG d   1       7.448  -8.879  -3.643  0.00  0.00    -0.009 A 
ATOM     41  C   LIG d   1       6.262  -9.538  -3.908  0.00  0.00    -0.037 A 
ATOM     42  C   LIG d   1       5.656 -10.293  -2.921  0.00  0.00     0.041 A 
ATOM     43  H   LIG d   1       5.811  -9.466  -4.887  0.00  0.00     0.064 H 
ATOM     44  C   LIG d   1       6.231 -10.381  -1.666  0.00  0.00    -0.043 A 
ATOM     45 CL   LIG d   1       4.169 -11.125  -3.254  0.00  0.00    -0.084 Cl
ATOM     46  C   LIG d   1       7.415  -9.717  -1.401  0.00  0.00    -0.060 A 
ATOM     47  H   LIG d   1       5.755 -10.967  -0.893  0.00  0.00     0.063 H 
ATOM     48  C   LIG d   1       8.022  -8.967  -2.389  0.00  0.00    -0.055 A 
ATOM     49  H   LIG d   1       7.863  -9.785  -0.421  0.00  0.00     0.062 H 
ATOM     50  H   LIG d   1       8.947  -8.449  -2.182  0.00  0.00     0.062 H 
ENDBRANCH  37  40
ENDBRANCH  36  37
ENDBRANCH   4  36
TORSDOF 8
ENDMDL
MODEL 6
REMARK VINA RESULT:      -6.8      4.537      6.257
REMARK  8 active torsions:
REMARK  status: ('A' for Active; 'I' for Inactive)
REMARK    1  A    between atoms: C_4  and  C_7 
REMARK    2  A    between atoms: C_8  and  C_18 
REMARK    3  A    between atoms: C_10  and  N_17 
REMARK    4  A    between atoms: C_12  and  C_13 
REMARK    5  A    between atoms: C_21  and  O_25 
REMARK    6  A    between atoms: C_23  and  O_24 
REMARK    7  A    between atoms: O_25  and  C_26 
REMARK    8  A    between atoms: C_26  and  C_27 
ROOT
ATOM      1  C   LIG d   1       5.183  -3.133  -5.487  0.00  0.00     0.043 A 
ATOM      2  C   LIG d   1       4.471  -4.313  -5.711  0.00  0.00    -0.046 A 
ATOM      3  C   LIG d   1       5.127  -5.524  -5.707  0.00  0.00    -0.019 A 
ATOM      4  C   LIG d   1       6.497  -5.577  -5.481  0.00  0.00     0.124 A 
ATOM      5  C   LIG d   1       7.214  -4.410  -5.258  0.00  0.00     0.022 A 
ATOM      6  C   LIG d   1       6.564  -3.187  -5.265  0.00  0.00     0.130 A 
ATOM      7  H   LIG d   1       3.406  -4.275  -5.887  0.00  0.00     0.063 H 
ATOM      8  H   LIG d   1       4.574  -6.436  -5.879  0.00  0.00     0.065 H 
ATOM      9  H   LIG d   1       8.278  -4.455  -5.081  0.00  0.00     0.069 H 
ENDROOT
BRANCH   1  10
ATOM     10  C   LIG d   1       4.481  -1.831  -5.491  0.00  0.00     0.088 A 
ATOM     11  C   LIG d   1       4.144  -1.202  -6.706  0.00  0.00     0.038 A 
ATOM     12  C   LIG d   1       3.483   0.025  -6.652  0.00  0.00     0.157 A 
ATOM     13  N   LIG d   1       3.199   0.552  -5.472  0.00  0.00    -0.210 NA
ATOM     14  C   LIG d   1       3.532  -0.067  -4.348  0.00  0.00     0.214 A 
ATOM     15  N   LIG d   1       4.159  -1.232  -4.347  0.00  0.00    -0.214 NA
BRANCH  11  16
ATOM     16  C   LIG d   1       4.481  -1.827  -8.007  0.00  0.00    -0.014 A 
ATOM     17  C   LIG d   1       5.748  -1.653  -8.560  0.00  0.00    -0.054 A 
ATOM     18  C   LIG d   1       6.056  -2.238  -9.771  0.00  0.00    -0.061 A 
ATOM     19  H   LIG d   1       6.488  -1.060  -8.042  0.00  0.00     0.062 H 
ATOM     20  C   LIG d   1       5.110  -2.996 -10.437  0.00  0.00    -0.062 A 
ATOM     21  H   LIG d   1       7.039  -2.104 -10.200  0.00  0.00     0.062 H 
ATOM     22  C   LIG d   1       3.850  -3.172  -9.893  0.00  0.00    -0.061 A 
ATOM     23  H   LIG d   1       5.355  -3.453 -11.384  0.00  0.00     0.062 H 
ATOM     24  C   LIG d   1       3.534  -2.597  -8.679  0.00  0.00    -0.054 A 
ATOM     25  H   LIG d   1       3.115  -3.765 -10.417  0.00  0.00     0.062 H 
ATOM     26  H   LIG d   1       2.551  -2.739  -8.254  0.00  0.00     0.062 H 
ENDBRANCH  11  16
BRANCH  12  27
ATOM     27  C   LIG d   1       3.097   0.741  -7.920  0.00  0.00     0.435 C 
ATOM     28  F   LIG d   1       2.639   2.026  -7.609  0.00  0.00    -0.164 F 
ATOM     29  F   LIG d   1       4.212   0.835  -8.761  0.00  0.00    -0.164 F 
ATOM     30  F   LIG d   1       2.083   0.028  -8.569  0.00  0.00    -0.164 F 
ENDBRANCH  12  27
BRANCH  14  31
ATOM     31  N   LIG d   1       3.209   0.522  -3.137  0.00  0.00    -0.328 N 
ATOM     32  H   LIG d   1       2.280   0.682  -2.909  0.00  0.00     0.145 HD
ATOM     33  H   LIG d   1       3.912   0.773  -2.518  0.00  0.00     0.145 HD
ENDBRANCH  14  31
ENDBRANCH   1  10
BRANCH   6  34
ATOM     34  O   LIG d   1       7.265  -2.043  -5.053  0.00  0.00    -0.506 OA
ATOM     35  H   LIG d   1       7.872  -1.814  -5.770  0.00  0.00     0.292 HD
ENDBRANCH   6  34
BRANCH   4  36
ATOM     36  O   LIG d   1       7.137  -6.774  -5.477  0.00  0.00    -0.487 OA
BRANCH  36  37
ATOM     37  C   LIG d   1       6.392  -7.910  -5.923  0.00  0.00     0.115 C 
ATOM     38  H   LIG d   1       5.466  -7.576  -6.391  0.00  0.00     0.075 H 
ATOM     39  H   LIG d   1       6.984  -8.470  -6.647  0.00  0.00     0.075 H 
BRANCH  37  40
ATOM     40  C   LIG d   1       6.070  -8.793  -4.745  0.00  0.00    -0.009 A 
ATOM     41  C   LIG d   1       4.808  -9.343  -4.618  0.00  0.00    -0.037 A 
ATOM     42  C   LIG d   1       4.515 -10.157  -3.539  0.00  0.00     0.041 A 
ATOM     43  H   LIG d   1       4.053  -9.139  -5.363  0.00  0.00     0.064 H 
ATOM     44  C   LIG d   1       5.480 -10.412  -2.583  0.00  0.00    -0.043 A 
ATOM     45 CL   LIG d   1       2.932 -10.851  -3.382  0.00  0.00    -0.084 Cl
ATOM     46  C   LIG d   1       6.741  -9.858  -2.708  0.00  0.00    -0.060 A 
ATOM     47  H   LIG d   1       5.250 -11.044  -1.737  0.00  0.00     0.063 H 
ATOM     48  C   LIG d   1       7.034  -9.048  -3.789  0.00  0.00    -0.055 A 
ATOM     49  H   LIG d   1       7.494 -10.057  -1.961  0.00  0.00     0.062 H 
ATOM     50  H   LIG d   1       8.020  -8.616  -3.886  0.00  0.00     0.062 H 
ENDBRANCH  37  40
ENDBRANCH  36  37
ENDBRANCH   4  36
TORSDOF 8
ENDMDL
MODEL 7
REMARK VINA RESULT:      -6.8     13.202     15.221
REMARK  8 active torsions:
REMARK  status: ('A' for Active; 'I' for Inactive)
REMARK    1  A    between atoms: C_4  and  C_7 
REMARK    2  A    between atoms: C_8  and  C_18 
REMARK    3  A    between atoms: C_10  and  N_17 
REMARK    4  A    between atoms: C_12  and  C_13 
REMARK    5  A    between atoms: C_21  and  O_25 
REMARK    6  A    between atoms: C_23  and  O_24 
REMARK    7  A    between atoms: O_25  and  C_26 
REMARK    8  A    between atoms: C_26  and  C_27 
ROOT
ATOM      1  C   LIG d   1      10.561  10.381  -1.930  0.00  0.00     0.043 A 
ATOM      2  C   LIG d   1      11.884  10.650  -1.574  0.00  0.00    -0.046 A 
ATOM      3  C   LIG d   1      12.194  10.986  -0.274  0.00  0.00    -0.019 A 
ATOM      4  C   LIG d   1      11.192  11.059   0.687  0.00  0.00     0.124 A 
ATOM      5  C   LIG d   1       9.874  10.793   0.343  0.00  0.00     0.022 A 
ATOM      6  C   LIG d   1       9.552  10.460  -0.962  0.00  0.00     0.130 A 
ATOM      7  H   LIG d   1      12.665  10.594  -2.318  0.00  0.00     0.063 H 
ATOM      8  H   LIG d   1      13.218  11.192  -0.000  0.00  0.00     0.065 H 
ATOM      9  H   LIG d   1       9.098  10.850   1.093  0.00  0.00     0.069 H 
ENDROOT
BRANCH   1  10
ATOM     10  C   LIG d   1      10.227  10.021  -3.324  0.00  0.00     0.088 A 
ATOM     11  C   LIG d   1      10.257   8.676  -3.745  0.00  0.00     0.038 A 
ATOM     12  C   LIG d   1       9.933   8.392  -5.071  0.00  0.00     0.157 A 
ATOM     13  N   LIG d   1       9.611   9.387  -5.882  0.00  0.00    -0.210 NA
ATOM     14  C   LIG d   1       9.593  10.641  -5.454  0.00  0.00     0.214 A 
ATOM     15  N   LIG d   1       9.892  10.961  -4.205  0.00  0.00    -0.214 NA
BRANCH  11  16
ATOM     16  C   LIG d   1      10.623   7.592  -2.802  0.00  0.00    -0.014 A 
ATOM     17  C   LIG d   1       9.636   6.956  -2.050  0.00  0.00    -0.054 A 
ATOM     18  C   LIG d   1       9.982   5.948  -1.174  0.00  0.00    -0.061 A 
ATOM     19  H   LIG d   1       8.602   7.254  -2.151  0.00  0.00     0.062 H 
ATOM     20  C   LIG d   1      11.305   5.567  -1.042  0.00  0.00    -0.062 A 
ATOM     21  H   LIG d   1       9.218   5.455  -0.591  0.00  0.00     0.062 H 
ATOM     22  C   LIG d   1      12.289   6.194  -1.785  0.00  0.00    -0.061 A 
ATOM     23  H   LIG d   1      11.571   4.777  -0.356  0.00  0.00     0.062 H 
ATOM     24  C   LIG d   1      11.953   7.199  -2.669  0.00  0.00    -0.054 A 
ATOM     25  H   LIG d   1      13.320   5.893  -1.677  0.00  0.00     0.062 H 
ATOM     26  H   LIG d   1      12.722   7.686  -3.252  0.00  0.00     0.062 H 
ENDBRANCH  11  16
BRANCH  12  27
ATOM     27  C   LIG d   1       9.949   6.972  -5.574  0.00  0.00     0.435 C 
ATOM     28  F   LIG d   1       9.010   6.216  -4.865  0.00  0.00    -0.164 F 
ATOM     29  F   LIG d   1       9.629   6.956  -6.936  0.00  0.00    -0.164 F 
ATOM     30  F   LIG d   1      11.224   6.425  -5.388  0.00  0.00    -0.164 F 
ENDBRANCH  12  27
BRANCH  14  31
ATOM     31  N   LIG d   1       9.245  11.647  -6.339  0.00  0.00    -0.328 N 
ATOM     32  H   LIG d   1       9.413  12.574  -6.109  0.00  0.00     0.145 HD
ATOM     33  H   LIG d   1       8.833  11.423  -7.188  0.00  0.00     0.145 HD
ENDBRANCH  14  31
ENDBRANCH   1  10
BRANCH   6  34
ATOM     34  O   LIG d   1       8.263  10.206  -1.301  0.00  0.00    -0.506 OA
ATOM     35  H   LIG d   1       7.808  10.955  -1.711  0.00  0.00     0.292 HD
ENDBRANCH   6  34
BRANCH   4  36
ATOM     36  O   LIG d   1      11.503  11.389   1.966  0.00  0.00    -0.487 OA
BRANCH  36  37
ATOM     37  C   LIG d   1      12.754  10.916   2.472  0.00  0.00     0.115 C 
ATOM     38  H   LIG d   1      13.199  10.227   1.755  0.00  0.00     0.075 H 
ATOM     39  H   LIG d   1      13.425  11.762   2.629  0.00  0.00     0.075 H 
BRANCH  37  40
ATOM     40  C   LIG d   1      12.529  10.204   3.781  0.00  0.00    -0.009 A 
ATOM     41  C   LIG d   1      12.024   8.918   3.790  0.00  0.00    -0.037 A 
ATOM     42  C   LIG d   1      11.822   8.263   4.992  0.00  0.00     0.041 A 
ATOM     43  H   LIG d   1      11.791   8.422   2.859  0.00  0.00     0.064 H 
ATOM     44  C   LIG d   1      12.114   8.900   6.184  0.00  0.00    -0.043 A 
ATOM     45 CL   LIG d   1      11.192   6.646   5.004  0.00  0.00    -0.084 Cl
ATOM     46  C   LIG d   1      12.615  10.189   6.174  0.00  0.00    -0.060 A 
ATOM     47  H   LIG d   1      11.952   8.391   7.123  0.00  0.00     0.063 H 
ATOM     48  C   LIG d   1      12.821  10.840   4.973  0.00  0.00    -0.055 A 
ATOM     49  H   LIG d   1      12.843  10.686   7.104  0.00  0.00     0.062 H 
ATOM     50  H   LIG d   1      13.212  11.847   4.965  0.00  0.00     0.062 H 
ENDBRANCH  37  40
ENDBRANCH  36  37
ENDBRANCH   4  36
TORSDOF 8
ENDMDL
MODEL 8
REMARK VINA RESULT:      -6.7      9.726     12.076
REMARK  8 active torsions:
REMARK  status: ('A' for Active; 'I' for Inactive)
REMARK    1  A    between atoms: C_4  and  C_7 
REMARK    2  A    between atoms: C_8  and  C_18 
REMARK    3  A    between atoms: C_10  and  N_17 
REMARK    4  A    between atoms: C_12  and  C_13 
REMARK    5  A    between atoms: C_21  and  O_25 
REMARK    6  A    between atoms: C_23  and  O_24 
REMARK    7  A    between atoms: O_25  and  C_26 
REMARK    8  A    between atoms: C_26  and  C_27 
ROOT
ATOM      1  C   LIG d   1       9.955   4.928  -3.376  0.00  0.00     0.043 A 
ATOM      2  C   LIG d   1       9.294   4.674  -4.580  0.00  0.00    -0.046 A 
ATOM      3  C   LIG d   1       9.094   3.375  -4.994  0.00  0.00    -0.019 A 
ATOM      4  C   LIG d   1       9.548   2.315  -4.217  0.00  0.00     0.124 A 
ATOM      5  C   LIG d   1      10.205   2.558  -3.020  0.00  0.00     0.022 A 
ATOM      6  C   LIG d   1      10.416   3.860  -2.598  0.00  0.00     0.130 A 
ATOM      7  H   LIG d   1       8.940   5.495  -5.185  0.00  0.00     0.063 H 
ATOM      8  H   LIG d   1       8.582   3.180  -5.925  0.00  0.00     0.065 H 
ATOM      9  H   LIG d   1      10.556   1.732  -2.419  0.00  0.00     0.069 H 
ENDROOT
BRANCH   1  10
ATOM     10  C   LIG d   1      10.171   6.321  -2.929  0.00  0.00     0.088 A 
ATOM     11  C   LIG d   1      11.314   7.037  -3.339  0.00  0.00     0.038 A 
ATOM     12  C   LIG d   1      11.468   8.347  -2.888  0.00  0.00     0.157 A 
ATOM     13  N   LIG d   1      10.545   8.868  -2.097  0.00  0.00    -0.210 NA
ATOM     14  C   LIG d   1       9.482   8.167  -1.729  0.00  0.00     0.214 A 
ATOM     15  N   LIG d   1       9.290   6.921  -2.131  0.00  0.00    -0.214 NA
BRANCH  11  16
ATOM     16  C   LIG d   1      12.324   6.414  -4.227  0.00  0.00    -0.014 A 
ATOM     17  C   LIG d   1      12.217   6.548  -5.611  0.00  0.00    -0.054 A 
ATOM     18  C   LIG d   1      13.160   5.967  -6.433  0.00  0.00    -0.061 A 
ATOM     19  H   LIG d   1      11.396   7.106  -6.039  0.00  0.00     0.062 H 
ATOM     20  C   LIG d   1      14.211   5.251  -5.887  0.00  0.00    -0.062 A 
ATOM     21  H   LIG d   1      13.078   6.071  -7.505  0.00  0.00     0.062 H 
ATOM     22  C   LIG d   1      14.321   5.114  -4.515  0.00  0.00    -0.061 A 
ATOM     23  H   LIG d   1      14.947   4.799  -6.534  0.00  0.00     0.062 H 
ATOM     24  C   LIG d   1      13.388   5.697  -3.683  0.00  0.00    -0.054 A 
ATOM     25  H   LIG d   1      15.144   4.555  -4.094  0.00  0.00     0.062 H 
ATOM     26  H   LIG d   1      13.478   5.593  -2.612  0.00  0.00     0.062 H 
ENDBRANCH  11  16
BRANCH  12  27
ATOM     27  C   LIG d   1      12.670   9.159  -3.296  0.00  0.00     0.435 C 
ATOM     28  F   LIG d   1      12.689   9.297  -4.687  0.00  0.00    -0.164 F 
ATOM     29  F   LIG d   1      12.602  10.424  -2.702  0.00  0.00    -0.164 F 
ATOM     30  F   LIG d   1      13.836   8.509  -2.875  0.00  0.00    -0.164 F 
ENDBRANCH  12  27
BRANCH  14  31
ATOM     31  N   LIG d   1       8.540   8.758  -0.904  0.00  0.00    -0.328 N 
ATOM     32  H   LIG d   1       7.602   8.533  -1.001  0.00  0.00     0.145 HD
ATOM     33  H   LIG d   1       8.820   9.397  -0.230  0.00  0.00     0.145 HD
ENDBRANCH  14  31
ENDBRANCH   1  10
BRANCH   6  34
ATOM     34  O   LIG d   1      11.064   4.100  -1.429  0.00  0.00    -0.506 OA
ATOM     35  H   LIG d   1      10.548   4.608  -0.789  0.00  0.00     0.292 HD
ENDBRANCH   6  34
BRANCH   4  36
ATOM     36  O   LIG d   1       9.346   1.038  -4.630  0.00  0.00    -0.487 OA
BRANCH  36  37
ATOM     37  C   LIG d   1       8.116   0.760  -5.303  0.00  0.00     0.115 C 
ATOM     38  H   LIG d   1       7.660   1.695  -5.629  0.00  0.00     0.075 H 
ATOM     39  H   LIG d   1       8.311   0.129  -6.171  0.00  0.00     0.075 H 
BRANCH  37  40
ATOM     40  C   LIG d   1       7.180   0.045  -4.362  0.00  0.00    -0.009 A 
ATOM     41  C   LIG d   1       6.366   0.771  -3.513  0.00  0.00    -0.037 A 
ATOM     42  C   LIG d   1       5.505   0.114  -2.654  0.00  0.00     0.041 A 
ATOM     43  H   LIG d   1       6.401   1.850  -3.524  0.00  0.00     0.064 H 
ATOM     44  C   LIG d   1       5.465  -1.269  -2.636  0.00  0.00    -0.043 A 
ATOM     45 CL   LIG d   1       4.479   1.024  -1.590  0.00  0.00    -0.084 Cl
ATOM     46  C   LIG d   1       6.283  -1.994  -3.483  0.00  0.00    -0.060 A 
ATOM     47  H   LIG d   1       4.796  -1.782  -1.961  0.00  0.00     0.063 H 
ATOM     48  C   LIG d   1       7.140  -1.336  -4.345  0.00  0.00    -0.055 A 
ATOM     49  H   LIG d   1       6.253  -3.072  -3.470  0.00  0.00     0.062 H 
ATOM     50  H   LIG d   1       7.779  -1.903  -5.007  0.00  0.00     0.062 H 
ENDBRANCH  37  40
ENDBRANCH  36  37
ENDBRANCH   4  36
TORSDOF 8
ENDMDL
MODEL 9
REMARK VINA RESULT:      -6.7      9.580     12.003
REMARK  8 active torsions:
REMARK  status: ('A' for Active; 'I' for Inactive)
REMARK    1  A    between atoms: C_4  and  C_7 
REMARK    2  A    between atoms: C_8  and  C_18 
REMARK    3  A    between atoms: C_10  and  N_17 
REMARK    4  A    between atoms: C_12  and  C_13 
REMARK    5  A    between atoms: C_21  and  O_25 
REMARK    6  A    between atoms: C_23  and  O_24 
REMARK    7  A    between atoms: O_25  and  C_26 
REMARK    8  A    between atoms: C_26  and  C_27 
ROOT
ATOM      1  C   LIG d   1      11.231   3.856  -4.323  0.00  0.00     0.043 A 
ATOM      2  C   LIG d   1      10.252   4.434  -5.133  0.00  0.00    -0.046 A 
ATOM      3  C   LIG d   1       8.994   3.875  -5.198  0.00  0.00    -0.019 A 
ATOM      4  C   LIG d   1       8.696   2.735  -4.461  0.00  0.00     0.124 A 
ATOM      5  C   LIG d   1       9.662   2.153  -3.653  0.00  0.00     0.022 A 
ATOM      6  C   LIG d   1      10.931   2.705  -3.584  0.00  0.00     0.130 A 
ATOM      7  H   LIG d   1      10.480   5.320  -5.707  0.00  0.00     0.063 H 
ATOM      8  H   LIG d   1       8.237   4.324  -5.825  0.00  0.00     0.065 H 
ATOM      9  H   LIG d   1       9.426   1.268  -3.081  0.00  0.00     0.069 H 
ENDROOT
BRANCH   1  10
ATOM     10  C   LIG d   1      12.581   4.454  -4.250  0.00  0.00     0.088 A 
ATOM     11  C   LIG d   1      12.831   5.563  -3.418  0.00  0.00     0.038 A 
ATOM     12  C   LIG d   1      14.122   6.088  -3.387  0.00  0.00     0.157 A 
ATOM     13  N   LIG d   1      15.061   5.531  -4.135  0.00  0.00    -0.210 NA
ATOM     14  C   LIG d   1      14.792   4.489  -4.908  0.00  0.00     0.214 A 
ATOM     15  N   LIG d   1      13.583   3.955  -4.971  0.00  0.00    -0.214 NA
BRANCH  11  16
ATOM     16  C   LIG d   1      11.750   6.156  -2.595  0.00  0.00    -0.014 A 
ATOM     17  C   LIG d   1      10.999   7.222  -3.088  0.00  0.00    -0.054 A 
ATOM     18  C   LIG d   1       9.993   7.770  -2.318  0.00  0.00    -0.061 A 
ATOM     19  H   LIG d   1      11.204   7.619  -4.072  0.00  0.00     0.062 H 
ATOM     20  C   LIG d   1       9.730   7.264  -1.058  0.00  0.00    -0.062 A 
ATOM     21  H   LIG d   1       9.411   8.595  -2.700  0.00  0.00     0.062 H 
ATOM     22  C   LIG d   1      10.473   6.207  -0.563  0.00  0.00    -0.061 A 
ATOM     23  H   LIG d   1       8.942   7.695  -0.459  0.00  0.00     0.062 H 
ATOM     24  C   LIG d   1      11.476   5.647  -1.327  0.00  0.00    -0.054 A 
ATOM     25  H   LIG d   1      10.262   5.816   0.422  0.00  0.00     0.062 H 
ATOM     26  H   LIG d   1      12.052   4.819  -0.941  0.00  0.00     0.062 H 
ENDBRANCH  11  16
BRANCH  12  27
ATOM     27  C   LIG d   1      14.445   7.273  -2.515  0.00  0.00     0.435 C 
ATOM     28  F   LIG d   1      15.798   7.601  -2.655  0.00  0.00    -0.164 F 
ATOM     29  F   LIG d   1      13.658   8.364  -2.898  0.00  0.00    -0.164 F 
ATOM     30  F   LIG d   1      14.180   6.954  -1.178  0.00  0.00    -0.164 F 
ENDBRANCH  12  27
BRANCH  14  31
ATOM     31  N   LIG d   1      15.809   3.937  -5.669  0.00  0.00    -0.328 N 
ATOM     32  H   LIG d   1      15.728   3.030  -6.001  0.00  0.00     0.145 HD
ATOM     33  H   LIG d   1      16.602   4.459  -5.869  0.00  0.00     0.145 HD
ENDBRANCH  14  31
ENDBRANCH   1  10
BRANCH   6  34
ATOM     34  O   LIG d   1      11.879   2.134  -2.799  0.00  0.00    -0.506 OA
ATOM     35  H   LIG d   1      12.522   1.598  -3.284  0.00  0.00     0.292 HD
ENDBRANCH   6  34
BRANCH   4  36
ATOM     36  O   LIG d   1       7.455   2.190  -4.530  0.00  0.00    -0.487 OA
BRANCH  36  37
ATOM     37  C   LIG d   1       7.364   0.767  -4.420  0.00  0.00     0.115 C 
ATOM     38  H   LIG d   1       7.214   0.336  -5.410  0.00  0.00     0.075 H 
ATOM     39  H   LIG d   1       8.287   0.377  -3.990  0.00  0.00     0.075 H 
BRANCH  37  40
ATOM     40  C   LIG d   1       6.202   0.405  -3.531  0.00  0.00    -0.009 A 
ATOM     41  C   LIG d   1       5.694  -0.880  -3.548  0.00  0.00    -0.037 A 
ATOM     42  C   LIG d   1       4.631  -1.213  -2.729  0.00  0.00     0.041 A 
ATOM     43  H   LIG d   1       6.130  -1.625  -4.198  0.00  0.00     0.064 H 
ATOM     44  C   LIG d   1       4.070  -0.258  -1.901  0.00  0.00    -0.043 A 
ATOM     45 CL   LIG d   1       3.995  -2.828  -2.745  0.00  0.00    -0.084 Cl
ATOM     46  C   LIG d   1       4.576   1.029  -1.889  0.00  0.00    -0.060 A 
ATOM     47  H   LIG d   1       3.235  -0.516  -1.265  0.00  0.00     0.063 H 
ATOM     48  C   LIG d   1       5.641   1.359  -2.704  0.00  0.00    -0.055 A 
ATOM     49  H   LIG d   1       4.138   1.775  -1.243  0.00  0.00     0.062 H 
ATOM     50  H   LIG d   1       6.036   2.365  -2.694  0.00  0.00     0.062 H 
ENDBRANCH  37  40
ENDBRANCH  36  37
ENDBRANCH   4  36
TORSDOF 8
ENDMDL
