MODEL 1
REMARK VINA RESULT:      -3.8      0.000      0.000
REMARK  10 active torsions:
REMARK  status: ('A' for Active; 'I' for Inactive)
REMARK    1  A    between atoms: C_1  and  C_2 
REMARK    2  A    between atoms: C_1  and  O_15 
REMARK    3  A    between atoms: C_2  and  C_4 
REMARK    4  A    between atoms: C_2  and  O_14 
REMARK    5  A    between atoms: C_4  and  C_6 
REMARK    6  A    between atoms: C_4  and  O_13 
REMARK    7  A    between atoms: C_6  and  C_8 
REMARK    8  A    between atoms: C_6  and  N_25 
REMARK    9  A    between atoms: C_8  and  C_10 
REMARK   10  A    between atoms: C_8  and  O_12 
ROOT
ATOM      1  C   LIG d   1       4.253  -1.482  -4.252  0.00  0.00     0.128 C 
ATOM      2  H   LIG d   1       4.629  -2.498  -4.374  0.00  0.00     0.068 H 
ENDROOT
BRANCH   1   3
ATOM      3  C   LIG d   1       5.113  -0.742  -3.225  0.00  0.00     0.109 C 
ATOM      4  H   LIG d   1       5.409   0.226  -3.630  0.00  0.00     0.064 H 
BRANCH   3   5
ATOM      5  C   LIG d   1       4.306  -0.533  -1.941  0.00  0.00     0.073 C 
ATOM      6  H   LIG d   1       4.986  -0.455  -1.094  0.00  0.00     0.058 H 
ATOM      7  H   LIG d   1       3.635  -1.378  -1.792  0.00  0.00     0.058 H 
BRANCH   5   8
ATOM      8  O   LIG d   1       3.541   0.669  -2.051  0.00  0.00    -0.392 OA
ATOM      9  H   LIG d   1       3.545   1.212  -1.251  0.00  0.00     0.209 HD
ENDBRANCH   5   8
ENDBRANCH   3   5
BRANCH   3  10
ATOM     10  O   LIG d   1       6.279  -1.514  -2.934  0.00  0.00    -0.387 OA
ATOM     11  H   LIG d   1       6.790  -1.186  -2.182  0.00  0.00     0.210 HD
ENDBRANCH   3  10
ENDBRANCH   1   3
BRANCH   1  12
ATOM     12  C   LIG d   1       4.318  -0.749  -5.594  0.00  0.00     0.038 C 
ATOM     13  H   LIG d   1       4.472  -1.472  -6.396  0.00  0.00     0.091 H 
BRANCH  12  14
ATOM     14  C   LIG d   1       3.005   0.001  -5.828  0.00  0.00     0.154 C 
ATOM     15  H   LIG d   1       2.235  -0.596  -5.602  0.00  0.00     0.073 H 
BRANCH  14  16
ATOM     16  C   LIG d   1       2.914   0.413  -7.275  0.00  0.00     0.154 C 
ATOM     17  O   LIG d   1       3.410   1.452  -7.638  0.00  0.00    -0.298 OA
ATOM     18  H   LIG d   1       2.405  -0.221  -7.986  0.00  0.00     0.106 H 
ENDBRANCH  14  16
BRANCH  14  19
ATOM     19  O   LIG d   1       2.966   1.163  -4.998  0.00  0.00    -0.379 OA
ATOM     20  H   LIG d   1       2.195   1.729  -5.149  0.00  0.00     0.211 HD
ENDBRANCH  14  19
ENDBRANCH  12  14
BRANCH  12  21
ATOM     21  N   LIG d   1       5.429   0.218  -5.598  0.00  0.00     0.225 N 
ATOM     22  H   LIG d   1       5.517   0.653  -4.682  0.00  0.00     0.200 HD
ATOM     23  H   LIG d   1       6.301  -0.253  -5.834  0.00  0.00     0.200 HD
ATOM     24  H   LIG d   1       5.240   0.945  -6.299  0.00  0.00     0.200 HD
ENDBRANCH  12  21
ENDBRANCH   1  12
BRANCH   1  25
ATOM     25  O   LIG d   1       2.899  -1.526  -3.798  0.00  0.00    -0.383 OA
ATOM     26  H   LIG d   1       2.266  -1.800  -4.475  0.00  0.00     0.210 HD
ENDBRANCH   1  25
TORSDOF 10
ENDMDL
MODEL 2
REMARK VINA RESULT:      -3.7     12.024     12.942
REMARK  10 active torsions:
REMARK  status: ('A' for Active; 'I' for Inactive)
REMARK    1  A    between atoms: C_1  and  C_2 
REMARK    2  A    between atoms: C_1  and  O_15 
REMARK    3  A    between atoms: C_2  and  C_4 
REMARK    4  A    between atoms: C_2  and  O_14 
REMARK    5  A    between atoms: C_4  and  C_6 
REMARK    6  A    between atoms: C_4  and  O_13 
REMARK    7  A    between atoms: C_6  and  C_8 
REMARK    8  A    between atoms: C_6  and  N_25 
REMARK    9  A    between atoms: C_8  and  C_10 
REMARK   10  A    between atoms: C_8  and  O_12 
ROOT
ATOM      1  C   LIG d   1      10.416  11.554  -2.250  0.00  0.00     0.128 C 
ATOM      2  H   LIG d   1      11.464  11.854  -2.205  0.00  0.00     0.068 H 
ENDROOT
BRANCH   1   3
ATOM      3  C   LIG d   1       9.806  12.037  -3.568  0.00  0.00     0.109 C 
ATOM      4  H   LIG d   1       9.640  11.182  -4.225  0.00  0.00     0.064 H 
BRANCH   3   5
ATOM      5  C   LIG d   1       8.472  12.732  -3.289  0.00  0.00     0.073 C 
ATOM      6  H   LIG d   1       8.204  13.360  -4.138  0.00  0.00     0.058 H 
ATOM      7  H   LIG d   1       8.563  13.349  -2.395  0.00  0.00     0.058 H 
BRANCH   5   8
ATOM      8  O   LIG d   1       7.456  11.747  -3.085  0.00  0.00    -0.392 OA
ATOM      9  H   LIG d   1       7.553  10.961  -3.640  0.00  0.00     0.209 HD
ENDBRANCH   5   8
ENDBRANCH   3   5
BRANCH   3  10
ATOM     10  O   LIG d   1      10.699  12.956  -4.198  0.00  0.00    -0.387 OA
ATOM     11  H   LIG d   1      10.548  13.880  -3.957  0.00  0.00     0.210 HD
ENDBRANCH   3  10
ENDBRANCH   1   3
BRANCH   1  12
ATOM     12  C   LIG d   1      10.317  10.030  -2.170  0.00  0.00     0.038 C 
ATOM     13  H   LIG d   1      11.318   9.603  -2.106  0.00  0.00     0.091 H 
BRANCH  12  14
ATOM     14  C   LIG d   1       9.514   9.636  -0.929  0.00  0.00     0.154 C 
ATOM     15  H   LIG d   1       9.830  10.170  -0.144  0.00  0.00     0.073 H 
BRANCH  14  16
ATOM     16  C   LIG d   1       9.710   8.168  -0.649  0.00  0.00     0.154 C 
ATOM     17  O   LIG d   1       8.949   7.358  -1.121  0.00  0.00    -0.298 OA
ATOM     18  H   LIG d   1      10.530   7.841  -0.028  0.00  0.00     0.106 H 
ENDBRANCH  14  16
BRANCH  14  19
ATOM     19  O   LIG d   1       8.128   9.898  -1.155  0.00  0.00    -0.379 OA
ATOM     20  H   LIG d   1       7.960  10.633  -1.761  0.00  0.00     0.211 HD
ENDBRANCH  14  19
ENDBRANCH  12  14
BRANCH  12  21
ATOM     21  N   LIG d   1       9.642   9.495  -3.366  0.00  0.00     0.225 N 
ATOM     22  H   LIG d   1       8.961   8.789  -3.096  0.00  0.00     0.200 HD
ATOM     23  H   LIG d   1       9.172  10.247  -3.867  0.00  0.00     0.200 HD
ATOM     24  H   LIG d   1      10.342   9.067  -3.984  0.00  0.00     0.200 HD
ENDBRANCH  12  21
ENDBRANCH   1  12
BRANCH   1  25
ATOM     25  O   LIG d   1       9.706  12.136  -1.155  0.00  0.00    -0.383 OA
ATOM     26  H   LIG d   1       8.857  12.528  -1.401  0.00  0.00     0.210 HD
ENDBRANCH   1  25
TORSDOF 10
ENDMDL
MODEL 3
REMARK VINA RESULT:      -3.7      1.745      4.418
REMARK  10 active torsions:
REMARK  status: ('A' for Active; 'I' for Inactive)
REMARK    1  A    between atoms: C_1  and  C_2 
REMARK    2  A    between atoms: C_1  and  O_15 
REMARK    3  A    between atoms: C_2  and  C_4 
REMARK    4  A    between atoms: C_2  and  O_14 
REMARK    5  A    between atoms: C_4  and  C_6 
REMARK    6  A    between atoms: C_4  and  O_13 
REMARK    7  A    between atoms: C_6  and  C_8 
REMARK    8  A    between atoms: C_6  and  N_25 
REMARK    9  A    between atoms: C_8  and  C_10 
REMARK   10  A    between atoms: C_8  and  O_12 
ROOT
ATOM      1  C   LIG d   1       3.349  -0.336  -6.053  0.00  0.00     0.128 C 
ATOM      2  H   LIG d   1       3.494  -1.401  -5.869  0.00  0.00     0.068 H 
ENDROOT
BRANCH   1   3
ATOM      3  C   LIG d   1       2.743  -0.138  -7.445  0.00  0.00     0.109 C 
ATOM      4  H   LIG d   1       1.697   0.155  -7.346  0.00  0.00     0.064 H 
BRANCH   3   5
ATOM      5  C   LIG d   1       3.513   0.957  -8.185  0.00  0.00     0.073 C 
ATOM      6  H   LIG d   1       3.431   0.796  -9.260  0.00  0.00     0.058 H 
ATOM      7  H   LIG d   1       4.563   0.924  -7.893  0.00  0.00     0.058 H 
BRANCH   5   8
ATOM      8  O   LIG d   1       2.965   2.233  -7.851  0.00  0.00    -0.392 OA
ATOM      9  H   LIG d   1       2.063   2.196  -7.506  0.00  0.00     0.209 HD
ENDBRANCH   5   8
ENDBRANCH   3   5
BRANCH   3  10
ATOM     10  O   LIG d   1       2.828  -1.360  -8.180  0.00  0.00    -0.387 OA
ATOM     11  H   LIG d   1       2.281  -1.379  -8.976  0.00  0.00     0.210 HD
ENDBRANCH   3  10
ENDBRANCH   1   3
BRANCH   1  12
ATOM     12  C   LIG d   1       2.401   0.239  -4.999  0.00  0.00     0.038 C 
ATOM     13  H   LIG d   1       1.371   0.130  -5.338  0.00  0.00     0.091 H 
BRANCH  12  14
ATOM     14  C   LIG d   1       2.588  -0.516  -3.681  0.00  0.00     0.154 C 
ATOM     15  H   LIG d   1       1.693  -0.703  -3.274  0.00  0.00     0.073 H 
BRANCH  14  16
ATOM     16  C   LIG d   1       3.404   0.324  -2.732  0.00  0.00     0.154 C 
ATOM     17  O   LIG d   1       4.601   0.398  -2.871  0.00  0.00    -0.298 OA
ATOM     18  H   LIG d   1       2.919   0.860  -1.930  0.00  0.00     0.106 H 
ENDBRANCH  14  16
BRANCH  14  19
ATOM     19  O   LIG d   1       3.265  -1.749  -3.930  0.00  0.00    -0.379 OA
ATOM     20  H   LIG d   1       4.162  -1.642  -4.276  0.00  0.00     0.211 HD
ENDBRANCH  14  19
ENDBRANCH  12  14
BRANCH  12  21
ATOM     21  N   LIG d   1       2.686   1.668  -4.776  0.00  0.00     0.225 N 
ATOM     22  H   LIG d   1       2.885   2.126  -5.663  0.00  0.00     0.200 HD
ATOM     23  H   LIG d   1       1.887   2.118  -4.334  0.00  0.00     0.200 HD
ATOM     24  H   LIG d   1       3.504   1.757  -4.162  0.00  0.00     0.200 HD
ENDBRANCH  12  21
ENDBRANCH   1  12
BRANCH   1  25
ATOM     25  O   LIG d   1       4.608   0.337  -5.981  0.00  0.00    -0.383 OA
ATOM     26  H   LIG d   1       4.615   1.204  -6.407  0.00  0.00     0.210 HD
ENDBRANCH   1  25
TORSDOF 10
ENDMDL
MODEL 4
REMARK VINA RESULT:      -3.6     11.842     12.287
REMARK  10 active torsions:
REMARK  status: ('A' for Active; 'I' for Inactive)
REMARK    1  A    between atoms: C_1  and  C_2 
REMARK    2  A    between atoms: C_1  and  O_15 
REMARK    3  A    between atoms: C_2  and  C_4 
REMARK    4  A    between atoms: C_2  and  O_14 
REMARK    5  A    between atoms: C_4  and  C_6 
REMARK    6  A    between atoms: C_4  and  O_13 
REMARK    7  A    between atoms: C_6  and  C_8 
REMARK    8  A    between atoms: C_6  and  N_25 
REMARK    9  A    between atoms: C_8  and  C_10 
REMARK   10  A    between atoms: C_8  and  O_12 
ROOT
ATOM      1  C   LIG d   1      10.380   9.668  -2.329  0.00  0.00     0.128 C 
ATOM      2  H   LIG d   1      11.415   9.671  -2.671  0.00  0.00     0.068 H 
ENDROOT
BRANCH   1   3
ATOM      3  C   LIG d   1      10.269   8.836  -1.050  0.00  0.00     0.109 C 
ATOM      4  H   LIG d   1      10.022   9.489  -0.212  0.00  0.00     0.064 H 
BRANCH   3   5
ATOM      5  C   LIG d   1       9.170   7.785  -1.219  0.00  0.00     0.073 C 
ATOM      6  H   LIG d   1       9.346   6.960  -0.530  0.00  0.00     0.058 H 
ATOM      7  H   LIG d   1       9.178   7.411  -2.242  0.00  0.00     0.058 H 
BRANCH   5   8
ATOM      8  O   LIG d   1       7.899   8.376  -0.939  0.00  0.00    -0.392 OA
ATOM      9  H   LIG d   1       7.154   7.926  -1.359  0.00  0.00     0.209 HD
ENDBRANCH   5   8
ENDBRANCH   3   5
BRANCH   3  10
ATOM     10  O   LIG d   1      11.515   8.185  -0.796  0.00  0.00    -0.387 OA
ATOM     11  H   LIG d   1      12.026   8.581  -0.078  0.00  0.00     0.210 HD
ENDBRANCH   3  10
ENDBRANCH   1   3
BRANCH   1  12
ATOM     12  C   LIG d   1       9.933  11.103  -2.044  0.00  0.00     0.038 C 
ATOM     13  H   LIG d   1      10.770  11.783  -2.203  0.00  0.00     0.091 H 
BRANCH  12  14
ATOM     14  C   LIG d   1       8.786  11.477  -2.985  0.00  0.00     0.154 C 
ATOM     15  H   LIG d   1       8.914  11.019  -3.866  0.00  0.00     0.073 H 
BRANCH  14  16
ATOM     16  C   LIG d   1       8.772  12.969  -3.193  0.00  0.00     0.154 C 
ATOM     17  O   LIG d   1       9.417  13.685  -2.466  0.00  0.00    -0.298 OA
ATOM     18  H   LIG d   1       8.186  13.398  -3.992  0.00  0.00     0.106 H 
ENDBRANCH  14  16
BRANCH  14  19
ATOM     19  O   LIG d   1       7.544  11.063  -2.411  0.00  0.00    -0.379 OA
ATOM     20  H   LIG d   1       7.312  11.532  -1.596  0.00  0.00     0.211 HD
ENDBRANCH  14  19
ENDBRANCH  12  14
BRANCH  12  21
ATOM     21  N   LIG d   1       9.469  11.230  -0.651  0.00  0.00     0.225 N 
ATOM     22  H   LIG d   1      10.122  11.800  -0.116  0.00  0.00     0.200 HD
ATOM     23  H   LIG d   1       8.546  11.660  -0.628  0.00  0.00     0.200 HD
ATOM     24  H   LIG d   1       9.415  10.296  -0.228  0.00  0.00     0.200 HD
ENDBRANCH  12  21
ENDBRANCH   1  12
BRANCH   1  25
ATOM     25  O   LIG d   1       9.545   9.101  -3.341  0.00  0.00    -0.383 OA
ATOM     26  H   LIG d   1       8.798   8.594  -2.996  0.00  0.00     0.210 HD
ENDBRANCH   1  25
TORSDOF 10
ENDMDL
MODEL 5
REMARK VINA RESULT:      -3.5      2.183      3.395
REMARK  10 active torsions:
REMARK  status: ('A' for Active; 'I' for Inactive)
REMARK    1  A    between atoms: C_1  and  C_2 
REMARK    2  A    between atoms: C_1  and  O_15 
REMARK    3  A    between atoms: C_2  and  C_4 
REMARK    4  A    between atoms: C_2  and  O_14 
REMARK    5  A    between atoms: C_4  and  C_6 
REMARK    6  A    between atoms: C_4  and  O_13 
REMARK    7  A    between atoms: C_6  and  C_8 
REMARK    8  A    between atoms: C_6  and  N_25 
REMARK    9  A    between atoms: C_8  and  C_10 
REMARK   10  A    between atoms: C_8  and  O_12 
ROOT
ATOM      1  C   LIG d   1       4.248  -1.138  -3.063  0.00  0.00     0.128 C 
ATOM      2  H   LIG d   1       5.235  -1.138  -2.598  0.00  0.00     0.068 H 
ENDROOT
BRANCH   1   3
ATOM      3  C   LIG d   1       3.543   0.186  -2.760  0.00  0.00     0.109 C 
ATOM      4  H   LIG d   1       2.566  -0.017  -2.319  0.00  0.00     0.064 H 
BRANCH   3   5
ATOM      5  C   LIG d   1       4.387   1.000  -1.777  0.00  0.00     0.073 C 
ATOM      6  H   LIG d   1       4.639   0.382  -0.916  0.00  0.00     0.058 H 
ATOM      7  H   LIG d   1       3.821   1.871  -1.447  0.00  0.00     0.058 H 
BRANCH   5   8
ATOM      8  O   LIG d   1       5.587   1.429  -2.423  0.00  0.00    -0.392 OA
ATOM      9  H   LIG d   1       6.396   1.103  -2.007  0.00  0.00     0.209 HD
ENDBRANCH   5   8
ENDBRANCH   3   5
BRANCH   3  10
ATOM     10  O   LIG d   1       3.375   0.925  -3.970  0.00  0.00    -0.387 OA
ATOM     11  H   LIG d   1       2.454   1.027  -4.245  0.00  0.00     0.210 HD
ENDBRANCH   3  10
ENDBRANCH   1   3
BRANCH   1  12
ATOM     12  C   LIG d   1       4.398  -1.301  -4.577  0.00  0.00     0.038 C 
ATOM     13  H   LIG d   1       3.768  -0.571  -5.085  0.00  0.00     0.091 H 
BRANCH  12  14
ATOM     14  C   LIG d   1       5.860  -1.075  -4.971  0.00  0.00     0.154 C 
ATOM     15  H   LIG d   1       6.032  -1.491  -5.865  0.00  0.00     0.073 H 
BRANCH  14  16
ATOM     16  C   LIG d   1       6.760  -1.706  -3.941  0.00  0.00     0.154 C 
ATOM     17  O   LIG d   1       7.049  -2.875  -4.028  0.00  0.00    -0.298 OA
ATOM     18  H   LIG d   1       7.148  -1.113  -3.126  0.00  0.00     0.106 H 
ENDBRANCH  14  16
BRANCH  14  19
ATOM     19  O   LIG d   1       6.123   0.328  -5.040  0.00  0.00    -0.379 OA
ATOM     20  H   LIG d   1       5.977   0.797  -4.206  0.00  0.00     0.211 HD
ENDBRANCH  14  19
ENDBRANCH  12  14
BRANCH  12  21
ATOM     21  N   LIG d   1       3.995  -2.655  -4.991  0.00  0.00     0.225 N 
ATOM     22  H   LIG d   1       4.738  -3.320  -4.785  0.00  0.00     0.200 HD
ATOM     23  H   LIG d   1       3.147  -2.932  -4.500  0.00  0.00     0.200 HD
ATOM     24  H   LIG d   1       3.813  -2.659  -6.002  0.00  0.00     0.200 HD
ENDBRANCH  12  21
ENDBRANCH   1  12
BRANCH   1  25
ATOM     25  O   LIG d   1       3.475  -2.221  -2.542  0.00  0.00    -0.383 OA
ATOM     26  H   LIG d   1       2.524  -2.050  -2.520  0.00  0.00     0.210 HD
ENDBRANCH   1  25
TORSDOF 10
ENDMDL
MODEL 6
REMARK VINA RESULT:      -3.5     11.194     12.309
REMARK  10 active torsions:
REMARK  status: ('A' for Active; 'I' for Inactive)
REMARK    1  A    between atoms: C_1  and  C_2 
REMARK    2  A    between atoms: C_1  and  O_15 
REMARK    3  A    between atoms: C_2  and  C_4 
REMARK    4  A    between atoms: C_2  and  O_14 
REMARK    5  A    between atoms: C_4  and  C_6 
REMARK    6  A    between atoms: C_4  and  O_13 
REMARK    7  A    between atoms: C_6  and  C_8 
REMARK    8  A    between atoms: C_6  and  N_25 
REMARK    9  A    between atoms: C_8  and  C_10 
REMARK   10  A    between atoms: C_8  and  O_12 
ROOT
ATOM      1  C   LIG d   1       9.395  10.039  -1.172  0.00  0.00     0.128 C 
ATOM      2  H   LIG d   1       9.812  10.235  -0.183  0.00  0.00     0.068 H 
ENDROOT
BRANCH   1   3
ATOM      3  C   LIG d   1       9.749  11.194  -2.111  0.00  0.00     0.109 C 
ATOM      4  H   LIG d   1      10.801  11.124  -2.391  0.00  0.00     0.064 H 
BRANCH   3   5
ATOM      5  C   LIG d   1       8.881  11.115  -3.368  0.00  0.00     0.073 C 
ATOM      6  H   LIG d   1       8.765  10.073  -3.664  0.00  0.00     0.058 H 
ATOM      7  H   LIG d   1       9.357  11.671  -4.175  0.00  0.00     0.058 H 
BRANCH   5   8
ATOM      8  O   LIG d   1       7.596  11.678  -3.095  0.00  0.00    -0.392 OA
ATOM      9  H   LIG d   1       7.426  12.511  -3.555  0.00  0.00     0.209 HD
ENDBRANCH   5   8
ENDBRANCH   3   5
BRANCH   3  10
ATOM     10  O   LIG d   1       9.515  12.437  -1.448  0.00  0.00    -0.387 OA
ATOM     11  H   LIG d   1       8.812  12.403  -0.786  0.00  0.00     0.210 HD
ENDBRANCH   3  10
ENDBRANCH   1   3
BRANCH   1  12
ATOM     12  C   LIG d   1       9.977   8.736  -1.723  0.00  0.00     0.038 C 
ATOM     13  H   LIG d   1      10.409   8.919  -2.708  0.00  0.00     0.091 H 
BRANCH  12  14
ATOM     14  C   LIG d   1      11.064   8.223  -0.776  0.00  0.00     0.154 C 
ATOM     15  H   LIG d   1      11.965   8.413  -1.168  0.00  0.00     0.073 H 
BRANCH  14  16
ATOM     16  C   LIG d   1      10.903   6.737  -0.585  0.00  0.00     0.154 C 
ATOM     17  O   LIG d   1      10.329   6.313   0.389  0.00  0.00    -0.298 OA
ATOM     18  H   LIG d   1      11.300   6.052  -1.319  0.00  0.00     0.106 H 
ENDBRANCH  14  16
BRANCH  14  19
ATOM     19  O   LIG d   1      10.946   8.882   0.486  0.00  0.00    -0.379 OA
ATOM     20  H   LIG d   1      10.570   8.328   1.185  0.00  0.00     0.211 HD
ENDBRANCH  14  19
ENDBRANCH  12  14
BRANCH  12  21
ATOM     21  N   LIG d   1       8.924   7.713  -1.843  0.00  0.00     0.225 N 
ATOM     22  H   LIG d   1       9.338   6.811  -2.071  0.00  0.00     0.200 HD
ATOM     23  H   LIG d   1       8.409   7.638  -0.968  0.00  0.00     0.200 HD
ATOM     24  H   LIG d   1       8.276   7.983  -2.592  0.00  0.00     0.200 HD
ENDBRANCH  12  21
ENDBRANCH   1  12
BRANCH   1  25
ATOM     25  O   LIG d   1       7.974   9.923  -1.075  0.00  0.00    -0.383 OA
ATOM     26  H   LIG d   1       7.611  10.221  -0.230  0.00  0.00     0.210 HD
ENDBRANCH   1  25
TORSDOF 10
ENDMDL
MODEL 7
REMARK VINA RESULT:      -3.4     11.731     12.844
REMARK  10 active torsions:
REMARK  status: ('A' for Active; 'I' for Inactive)
REMARK    1  A    between atoms: C_1  and  C_2 
REMARK    2  A    between atoms: C_1  and  O_15 
REMARK    3  A    between atoms: C_2  and  C_4 
REMARK    4  A    between atoms: C_2  and  O_14 
REMARK    5  A    between atoms: C_4  and  C_6 
REMARK    6  A    between atoms: C_4  and  O_13 
REMARK    7  A    between atoms: C_6  and  C_8 
REMARK    8  A    between atoms: C_6  and  N_25 
REMARK    9  A    between atoms: C_8  and  C_10 
REMARK   10  A    between atoms: C_8  and  O_12 
ROOT
ATOM      1  C   LIG d   1       9.835  11.284  -2.231  0.00  0.00     0.128 C 
ATOM      2  H   LIG d   1      10.885  11.283  -2.526  0.00  0.00     0.068 H 
ENDROOT
BRANCH   1   3
ATOM      3  C   LIG d   1       8.970  11.674  -3.432  0.00  0.00     0.109 C 
ATOM      4  H   LIG d   1       9.201  12.698  -3.726  0.00  0.00     0.064 H 
BRANCH   3   5
ATOM      5  C   LIG d   1       9.261  10.729  -4.599  0.00  0.00     0.073 C 
ATOM      6  H   LIG d   1       8.511   9.939  -4.622  0.00  0.00     0.058 H 
ATOM      7  H   LIG d   1      10.249  10.288  -4.472  0.00  0.00     0.058 H 
BRANCH   5   8
ATOM      8  O   LIG d   1       9.220  11.461  -5.826  0.00  0.00    -0.392 OA
ATOM      9  H   LIG d   1       9.669  11.021  -6.561  0.00  0.00     0.209 HD
ENDBRANCH   5   8
ENDBRANCH   3   5
BRANCH   3  10
ATOM     10  O   LIG d   1       7.590  11.580  -3.075  0.00  0.00    -0.387 OA
ATOM     11  H   LIG d   1       7.376  11.978  -2.221  0.00  0.00     0.210 HD
ENDBRANCH   3  10
ENDBRANCH   1   3
BRANCH   1  12
ATOM     12  C   LIG d   1       9.439   9.886  -1.750  0.00  0.00     0.038 C 
ATOM     13  H   LIG d   1       9.212   9.256  -2.610  0.00  0.00     0.091 H 
BRANCH  12  14
ATOM     14  C   LIG d   1      10.596   9.273  -0.958  0.00  0.00     0.154 C 
ATOM     15  H   LIG d   1      11.450   9.398  -1.465  0.00  0.00     0.073 H 
BRANCH  14  16
ATOM     16  C   LIG d   1      10.341   7.802  -0.756  0.00  0.00     0.154 C 
ATOM     17  O   LIG d   1       9.249   7.342  -0.985  0.00  0.00    -0.298 OA
ATOM     18  H   LIG d   1      11.137   7.159  -0.408  0.00  0.00     0.106 H 
ENDBRANCH  14  16
BRANCH  14  19
ATOM     19  O   LIG d   1      10.698   9.918   0.313  0.00  0.00    -0.379 OA
ATOM     20  H   LIG d   1      11.234  10.725   0.303  0.00  0.00     0.211 HD
ENDBRANCH  14  19
ENDBRANCH  12  14
BRANCH  12  21
ATOM     21  N   LIG d   1       8.250   9.959  -0.882  0.00  0.00     0.225 N 
ATOM     22  H   LIG d   1       8.320  10.764  -0.262  0.00  0.00     0.200 HD
ATOM     23  H   LIG d   1       7.409  10.040  -1.449  0.00  0.00     0.200 HD
ATOM     24  H   LIG d   1       8.193   9.104  -0.316  0.00  0.00     0.200 HD
ENDBRANCH  12  21
ENDBRANCH   1  12
BRANCH   1  25
ATOM     25  O   LIG d   1       9.638  12.226  -1.175  0.00  0.00    -0.383 OA
ATOM     26  H   LIG d   1       9.286  13.077  -1.468  0.00  0.00     0.210 HD
ENDBRANCH   1  25
TORSDOF 10
ENDMDL
MODEL 8
REMARK VINA RESULT:      -3.4     10.412     11.329
REMARK  10 active torsions:
REMARK  status: ('A' for Active; 'I' for Inactive)
REMARK    1  A    between atoms: C_1  and  C_2 
REMARK    2  A    between atoms: C_1  and  O_15 
REMARK    3  A    between atoms: C_2  and  C_4 
REMARK    4  A    between atoms: C_2  and  O_14 
REMARK    5  A    between atoms: C_4  and  C_6 
REMARK    6  A    between atoms: C_4  and  O_13 
REMARK    7  A    between atoms: C_6  and  C_8 
REMARK    8  A    between atoms: C_6  and  N_25 
REMARK    9  A    between atoms: C_8  and  C_10 
REMARK   10  A    between atoms: C_8  and  O_12 
ROOT
ATOM      1  C   LIG d   1       9.222   8.516  -0.788  0.00  0.00     0.128 C 
ATOM      2  H   LIG d   1       9.613   8.097   0.140  0.00  0.00     0.068 H 
ENDROOT
BRANCH   1   3
ATOM      3  C   LIG d   1       8.806   9.970  -0.554  0.00  0.00     0.109 C 
ATOM      4  H   LIG d   1       8.220  10.036   0.364  0.00  0.00     0.064 H 
BRANCH   3   5
ATOM      5  C   LIG d   1      10.055  10.844  -0.426  0.00  0.00     0.073 C 
ATOM      6  H   LIG d   1      10.271  11.312  -1.385  0.00  0.00     0.058 H 
ATOM      7  H   LIG d   1      10.901  10.226  -0.125  0.00  0.00     0.058 H 
BRANCH   5   8
ATOM      8  O   LIG d   1       9.830  11.855   0.558  0.00  0.00    -0.392 OA
ATOM      9  H   LIG d   1       9.083  12.437   0.360  0.00  0.00     0.209 HD
ENDBRANCH   5   8
ENDBRANCH   3   5
BRANCH   3  10
ATOM     10  O   LIG d   1       8.018  10.423  -1.656  0.00  0.00    -0.387 OA
ATOM     11  H   LIG d   1       8.535  10.666  -2.435  0.00  0.00     0.210 HD
ENDBRANCH   3  10
ENDBRANCH   1   3
BRANCH   1  12
ATOM     12  C   LIG d   1      10.304   8.463  -1.868  0.00  0.00     0.038 C 
ATOM     13  H   LIG d   1      10.984   9.306  -1.742  0.00  0.00     0.091 H 
BRANCH  12  14
ATOM     14  C   LIG d   1      11.086   7.153  -1.742  0.00  0.00     0.154 C 
ATOM     15  H   LIG d   1      12.067   7.344  -1.793  0.00  0.00     0.073 H 
BRANCH  14  16
ATOM     16  C   LIG d   1      10.695   6.226  -2.864  0.00  0.00     0.154 C 
ATOM     17  O   LIG d   1       9.685   5.570  -2.780  0.00  0.00    -0.298 OA
ATOM     18  H   LIG d   1      11.318   6.149  -3.743  0.00  0.00     0.106 H 
ENDBRANCH  14  16
BRANCH  14  19
ATOM     19  O   LIG d   1      10.785   6.538  -0.488  0.00  0.00    -0.379 OA
ATOM     20  H   LIG d   1      10.358   7.129   0.148  0.00  0.00     0.211 HD
ENDBRANCH  14  19
ENDBRANCH  12  14
BRANCH  12  21
ATOM     21  N   LIG d   1       9.697   8.531  -3.208  0.00  0.00     0.225 N 
ATOM     22  H   LIG d   1      10.073   9.325  -3.723  0.00  0.00     0.200 HD
ATOM     23  H   LIG d   1       9.888   7.673  -3.722  0.00  0.00     0.200 HD
ATOM     24  H   LIG d   1       8.680   8.645  -3.112  0.00  0.00     0.200 HD
ENDBRANCH  12  21
ENDBRANCH   1  12
BRANCH   1  25
ATOM     25  O   LIG d   1       8.087   7.757  -1.212  0.00  0.00    -0.383 OA
ATOM     26  H   LIG d   1       7.300   8.291  -1.384  0.00  0.00     0.210 HD
ENDBRANCH   1  25
TORSDOF 10
ENDMDL
MODEL 9
REMARK VINA RESULT:      -3.4      2.167      3.425
REMARK  10 active torsions:
REMARK  status: ('A' for Active; 'I' for Inactive)
REMARK    1  A    between atoms: C_1  and  C_2 
REMARK    2  A    between atoms: C_1  and  O_15 
REMARK    3  A    between atoms: C_2  and  C_4 
REMARK    4  A    between atoms: C_2  and  O_14 
REMARK    5  A    between atoms: C_4  and  C_6 
REMARK    6  A    between atoms: C_4  and  O_13 
REMARK    7  A    between atoms: C_6  and  C_8 
REMARK    8  A    between atoms: C_6  and  N_25 
REMARK    9  A    between atoms: C_8  and  C_10 
REMARK   10  A    between atoms: C_8  and  O_12 
ROOT
ATOM      1  C   LIG d   1       3.883  -1.926  -3.939  0.00  0.00     0.128 C 
ATOM      2  H   LIG d   1       2.858  -2.283  -4.048  0.00  0.00     0.068 H 
ENDROOT
BRANCH   1   3
ATOM      3  C   LIG d   1       4.745  -2.506  -5.064  0.00  0.00     0.109 C 
ATOM      4  H   LIG d   1       5.015  -1.711  -5.760  0.00  0.00     0.064 H 
BRANCH   3   5
ATOM      5  C   LIG d   1       6.015  -3.118  -4.469  0.00  0.00     0.073 C 
ATOM      6  H   LIG d   1       6.471  -3.787  -5.197  0.00  0.00     0.058 H 
ATOM      7  H   LIG d   1       5.762  -3.678  -3.569  0.00  0.00     0.058 H 
BRANCH   5   8
ATOM      8  O   LIG d   1       6.935  -2.075  -4.138  0.00  0.00    -0.392 OA
ATOM      9  H   LIG d   1       7.760  -2.105  -4.641  0.00  0.00     0.209 HD
ENDBRANCH   5   8
ENDBRANCH   3   5
BRANCH   3  10
ATOM     10  O   LIG d   1       4.009  -3.516  -5.756  0.00  0.00    -0.387 OA
ATOM     11  H   LIG d   1       3.463  -4.069  -5.181  0.00  0.00     0.210 HD
ENDBRANCH   3  10
ENDBRANCH   1   3
BRANCH   1  12
ATOM     12  C   LIG d   1       3.903  -0.398  -4.018  0.00  0.00     0.038 C 
ATOM     13  H   LIG d   1       2.895  -0.031  -4.213  0.00  0.00     0.091 H 
BRANCH  12  14
ATOM     14  C   LIG d   1       4.407   0.173  -2.692  0.00  0.00     0.154 C 
ATOM     15  H   LIG d   1       4.138  -0.433  -1.943  0.00  0.00     0.073 H 
BRANCH  14  16
ATOM     16  C   LIG d   1       3.808   1.538  -2.473  0.00  0.00     0.154 C 
ATOM     17  O   LIG d   1       3.568   2.250  -3.418  0.00  0.00    -0.298 OA
ATOM     18  H   LIG d   1       3.591   1.880  -1.471  0.00  0.00     0.106 H 
ENDBRANCH  14  16
BRANCH  14  19
ATOM     19  O   LIG d   1       5.832   0.279  -2.729  0.00  0.00    -0.379 OA
ATOM     20  H   LIG d   1       6.260   0.120  -1.875  0.00  0.00     0.211 HD
ENDBRANCH  14  19
ENDBRANCH  12  14
BRANCH  12  21
ATOM     21  N   LIG d   1       4.795   0.049  -5.102  0.00  0.00     0.225 N 
ATOM     22  H   LIG d   1       5.744  -0.279  -4.932  0.00  0.00     0.200 HD
ATOM     23  H   LIG d   1       4.466  -0.313  -5.996  0.00  0.00     0.200 HD
ATOM     24  H   LIG d   1       4.796   1.076  -5.136  0.00  0.00     0.200 HD
ENDBRANCH  12  21
ENDBRANCH   1  12
BRANCH   1  25
ATOM     25  O   LIG d   1       4.403  -2.345  -2.676  0.00  0.00    -0.383 OA
ATOM     26  H   LIG d   1       3.948  -3.110  -2.298  0.00  0.00     0.210 HD
ENDBRANCH   1  25
TORSDOF 10
ENDMDL
MODEL 10
REMARK VINA RESULT:      -3.3      1.890      2.662
REMARK  10 active torsions:
REMARK  status: ('A' for Active; 'I' for Inactive)
REMARK    1  A    between atoms: C_1  and  C_2 
REMARK    2  A    between atoms: C_1  and  O_15 
REMARK    3  A    between atoms: C_2  and  C_4 
REMARK    4  A    between atoms: C_2  and  O_14 
REMARK    5  A    between atoms: C_4  and  C_6 
REMARK    6  A    between atoms: C_4  and  O_13 
REMARK    7  A    between atoms: C_6  and  C_8 
REMARK    8  A    between atoms: C_6  and  N_25 
REMARK    9  A    between atoms: C_8  and  C_10 
REMARK   10  A    between atoms: C_8  and  O_12 
ROOT
ATOM      1  C   LIG d   1       5.196  -0.182  -4.268  0.00  0.00     0.128 C 
ATOM      2  H   LIG d   1       5.174   0.498  -5.121  0.00  0.00     0.068 H 
ENDROOT
BRANCH   1   3
ATOM      3  C   LIG d   1       6.036   0.436  -3.148  0.00  0.00     0.109 C 
ATOM      4  H   LIG d   1       6.313  -0.340  -2.433  0.00  0.00     0.064 H 
BRANCH   3   5
ATOM      5  C   LIG d   1       7.302   1.057  -3.743  0.00  0.00     0.073 C 
ATOM      6  H   LIG d   1       7.709   1.789  -3.047  0.00  0.00     0.058 H 
ATOM      7  H   LIG d   1       7.058   1.548  -4.685  0.00  0.00     0.058 H 
BRANCH   5   8
ATOM      8  O   LIG d   1       8.270   0.032  -3.977  0.00  0.00    -0.392 OA
ATOM      9  H   LIG d   1       8.708  -0.286  -3.175  0.00  0.00     0.209 HD
ENDBRANCH   5   8
ENDBRANCH   3   5
BRANCH   3  10
ATOM     10  O   LIG d   1       5.276   1.447  -2.484  0.00  0.00    -0.387 OA
ATOM     11  H   LIG d   1       5.629   2.340  -2.594  0.00  0.00     0.210 HD
ENDBRANCH   3  10
ENDBRANCH   1   3
BRANCH   1  12
ATOM     12  C   LIG d   1       3.771  -0.418  -3.766  0.00  0.00     0.038 C 
ATOM     13  H   LIG d   1       3.697  -0.110  -2.722  0.00  0.00     0.091 H 
BRANCH  12  14
ATOM     14  C   LIG d   1       2.791   0.400  -4.610  0.00  0.00     0.154 C 
ATOM     15  H   LIG d   1       1.853   0.131  -4.387  0.00  0.00     0.073 H 
BRANCH  14  16
ATOM     16  C   LIG d   1       3.053   0.143  -6.072  0.00  0.00     0.154 C 
ATOM     17  O   LIG d   1       3.034   1.059  -6.857  0.00  0.00    -0.298 OA
ATOM     18  H   LIG d   1       3.258  -0.860  -6.416  0.00  0.00     0.106 H 
ENDBRANCH  14  16
BRANCH  14  19
ATOM     19  O   LIG d   1       2.967   1.790  -4.331  0.00  0.00    -0.379 OA
ATOM     20  H   LIG d   1       3.454   1.968  -3.514  0.00  0.00     0.211 HD
ENDBRANCH  14  19
ENDBRANCH  12  14
BRANCH  12  21
ATOM     21  N   LIG d   1       3.418  -1.845  -3.871  0.00  0.00     0.225 N 
ATOM     22  H   LIG d   1       2.412  -1.949  -3.982  0.00  0.00     0.200 HD
ATOM     23  H   LIG d   1       3.892  -2.263  -4.669  0.00  0.00     0.200 HD
ATOM     24  H   LIG d   1       3.713  -2.329  -3.014  0.00  0.00     0.200 HD
ENDBRANCH  12  21
ENDBRANCH   1  12
BRANCH   1  25
ATOM     25  O   LIG d   1       5.774  -1.427  -4.666  0.00  0.00    -0.383 OA
ATOM     26  H   LIG d   1       5.367  -1.817  -5.451  0.00  0.00     0.210 HD
ENDBRANCH   1  25
TORSDOF 10
ENDMDL
