MODEL 1
REMARK VINA RESULT:      -8.1      0.000      0.000
REMARK  7 active torsions:
REMARK  status: ('A' for Active; 'I' for Inactive)
REMARK    1  A    between atoms: C_1  and  C_2 
REMARK    2  A    between atoms: C_13  and  C_35 
REMARK    3  A    between atoms: N_20  and  C_23 
REMARK    4  A    between atoms: C_23  and  C_24 
REMARK    5  A    between atoms: C_24  and  C_25 
REMARK    6  A    between atoms: C_40  and  O_41 
REMARK    7  A    between atoms: O_41  and  C_42 
ROOT
ATOM      1  C   LIG d   1       8.836   1.371  -4.719  0.00  0.00     0.151 C 
ATOM      2  C   LIG d   1       7.620   0.737  -4.087  0.00  0.00     0.054 A 
ATOM      3  C   LIG d   1       7.401  -0.597  -4.078  0.00  0.00    -0.007 A 
ATOM      4  C   LIG d   1       6.142  -0.814  -3.395  0.00  0.00     0.004 A 
ATOM      5  C   LIG d   1       5.417  -1.970  -3.091  0.00  0.00    -0.052 A 
ATOM      6  C   LIG d   1       4.232  -1.799  -2.418  0.00  0.00    -0.061 A 
ATOM      7  C   LIG d   1       3.767  -0.547  -2.052  0.00  0.00    -0.060 A 
ATOM      8  C   LIG d   1       4.464   0.613  -2.340  0.00  0.00    -0.038 A 
ATOM      9  C   LIG d   1       5.671   0.471  -3.022  0.00  0.00     0.047 A 
ATOM     10  N   LIG d   1       6.590   1.383  -3.455  0.00  0.00    -0.356 N 
ATOM     11  H   LIG d   1       6.524   2.343  -3.334  0.00  0.00     0.166 HD
ATOM     12  C   LIG d   1       8.328  -1.620  -4.681  0.00  0.00     0.031 C 
ATOM     13  H   LIG d   1       8.907  -2.098  -3.891  0.00  0.00     0.041 H 
ATOM     14  C   LIG d   1       9.278  -0.921  -5.661  0.00  0.00     0.027 C 
ATOM     15  N   LIG d   1       9.791   0.310  -5.035  0.00  0.00    -0.280 N 
ATOM     16  C   LIG d   1      11.098   0.417  -4.775  0.00  0.00     0.234 C 
ATOM     17  O   LIG d   1      11.833  -0.449  -5.201  0.00  0.00    -0.274 OA
ATOM     18  C   LIG d   1      11.710   1.535  -3.996  0.00  0.00     0.091 C 
ATOM     19  N   LIG d   1      10.714   2.470  -3.502  0.00  0.00    -0.290 N 
ATOM     20  C   LIG d   1       9.430   2.392  -3.805  0.00  0.00     0.245 C 
ATOM     21  O   LIG d   1       8.692   3.221  -3.318  0.00  0.00    -0.273 OA
ATOM     22  H   LIG d   1       5.771  -2.950  -3.372  0.00  0.00     0.062 H 
ATOM     23  H   LIG d   1       3.644  -2.670  -2.165  0.00  0.00     0.062 H 
ATOM     24  H   LIG d   1       2.827  -0.473  -1.524  0.00  0.00     0.062 H 
ATOM     25  H   LIG d   1       4.090   1.584  -2.050  0.00  0.00     0.064 H 
ATOM     26  H   LIG d   1      10.109  -1.584  -5.900  0.00  0.00     0.047 H 
ATOM     27  H   LIG d   1       8.738  -0.669  -6.575  0.00  0.00     0.047 H 
ATOM     28  H   LIG d   1      12.256   1.119  -3.149  0.00  0.00     0.056 H 
ATOM     29  H   LIG d   1      12.410   2.071  -4.637  0.00  0.00     0.056 H 
ENDROOT
BRANCH  19  30
ATOM     30  C   LIG d   1      11.156   3.544  -2.608  0.00  0.00     0.019 C 
ATOM     31  H   LIG d   1      10.287   4.000  -2.131  0.00  0.00     0.047 H 
ATOM     32  H   LIG d   1      11.814   3.130  -1.843  0.00  0.00     0.047 H 
BRANCH  30  33
ATOM     33  C   LIG d   1      11.910   4.603  -3.414  0.00  0.00    -0.010 C 
ATOM     34  H   LIG d   1      12.772   4.947  -2.842  0.00  0.00     0.033 H 
ATOM     35  H   LIG d   1      12.248   4.170  -4.354  0.00  0.00     0.033 H 
BRANCH  33  36
ATOM     36  C   LIG d   1      10.995   5.766  -3.694  0.00  0.00    -0.021 A 
ATOM     37  C   LIG d   1      10.582   6.250  -5.014  0.00  0.00     0.003 A 
ATOM     38  C   LIG d   1       9.731   7.345  -4.776  0.00  0.00     0.047 A 
ATOM     39  C   LIG d   1      10.858   5.855  -6.323  0.00  0.00    -0.052 A 
ATOM     40  N   LIG d   1       9.642   7.503  -3.411  0.00  0.00    -0.360 N 
ATOM     41  C   LIG d   1       9.173   8.022  -5.857  0.00  0.00    -0.038 A 
ATOM     42  C   LIG d   1      10.398   6.550  -2.784  0.00  0.00     0.006 A 
ATOM     43  H   LIG d   1       9.120   8.185  -2.962  0.00  0.00     0.165 HD
ATOM     44  H   LIG d   1      10.500   6.446  -1.713  0.00  0.00     0.081 H 
ATOM     45  C   LIG d   1       9.460   7.614  -7.141  0.00  0.00    -0.060 A 
ATOM     46  H   LIG d   1       8.518   8.864  -5.688  0.00  0.00     0.064 H 
ATOM     47  C   LIG d   1      10.301   6.534  -7.370  0.00  0.00    -0.061 A 
ATOM     48  H   LIG d   1       9.027   8.141  -7.978  0.00  0.00     0.062 H 
ATOM     49  H   LIG d   1      10.515   6.227  -8.383  0.00  0.00     0.062 H 
ATOM     50  H   LIG d   1      11.510   5.014  -6.509  0.00  0.00     0.062 H 
ENDBRANCH  33  36
ENDBRANCH  30  33
ENDBRANCH  19  30
BRANCH   1  51
ATOM     51  C   LIG d   1       8.416   2.058  -6.020  0.00  0.00    -0.029 C 
ATOM     52  H   LIG d   1       8.222   3.113  -5.827  0.00  0.00     0.026 H 
ATOM     53  H   LIG d   1       9.215   1.964  -6.755  0.00  0.00     0.026 H 
ATOM     54  H   LIG d   1       7.511   1.586  -6.404  0.00  0.00     0.026 H 
ENDBRANCH   1  51
BRANCH  12  55
ATOM     55  C   LIG d   1       7.522  -2.660  -5.415  0.00  0.00     0.003 A 
ATOM     56  C   LIG d   1       7.567  -3.987  -5.009  0.00  0.00     0.124 A 
ATOM     57  C   LIG d   1       6.818  -4.941  -5.683  0.00  0.00    -0.020 A 
ATOM     58  C   LIG d   1       6.041  -4.571  -6.763  0.00  0.00    -0.058 A 
ATOM     59  H   LIG d   1       6.848  -5.974  -5.367  0.00  0.00     0.065 H 
ATOM     60  C   LIG d   1       6.003  -3.250  -7.169  0.00  0.00    -0.061 A 
ATOM     61  H   LIG d   1       5.462  -5.315  -7.292  0.00  0.00     0.062 H 
ATOM     62  C   LIG d   1       6.743  -2.295  -6.496  0.00  0.00    -0.054 A 
ATOM     63  H   LIG d   1       5.394  -2.962  -8.014  0.00  0.00     0.062 H 
ATOM     64  H   LIG d   1       6.712  -1.264  -6.814  0.00  0.00     0.062 H 
BRANCH  56  65
ATOM     65  O   LIG d   1       8.337  -4.349  -3.949  0.00  0.00    -0.495 OA
BRANCH  65  66
ATOM     66  C   LIG d   1       9.061  -5.575  -4.063  0.00  0.00     0.079 C 
ATOM     67  H   LIG d   1       9.145  -6.040  -3.081  0.00  0.00     0.066 H 
ATOM     68  H   LIG d   1       8.533  -6.248  -4.740  0.00  0.00     0.066 H 
ATOM     69  H   LIG d   1      10.058  -5.373  -4.456  0.00  0.00     0.066 H 
ENDBRANCH  65  66
ENDBRANCH  56  65
ENDBRANCH  12  55
TORSDOF 7
ENDMDL
MODEL 2
REMARK VINA RESULT:      -8.1      5.437      9.122
REMARK  7 active torsions:
REMARK  status: ('A' for Active; 'I' for Inactive)
REMARK    1  A    between atoms: C_1  and  C_2 
REMARK    2  A    between atoms: C_13  and  C_35 
REMARK    3  A    between atoms: N_20  and  C_23 
REMARK    4  A    between atoms: C_23  and  C_24 
REMARK    5  A    between atoms: C_24  and  C_25 
REMARK    6  A    between atoms: C_40  and  O_41 
REMARK    7  A    between atoms: O_41  and  C_42 
ROOT
ATOM      1  C   LIG d   1       9.193  -6.930  -4.353  0.00  0.00     0.151 C 
ATOM      2  C   LIG d   1       8.489  -8.009  -3.567  0.00  0.00     0.054 A 
ATOM      3  C   LIG d   1       8.964  -8.506  -2.403  0.00  0.00    -0.007 A 
ATOM      4  C   LIG d   1       8.026  -9.517  -1.961  0.00  0.00     0.004 A 
ATOM      5  C   LIG d   1       7.994 -10.355  -0.842  0.00  0.00    -0.052 A 
ATOM      6  C   LIG d   1       6.927 -11.214  -0.741  0.00  0.00    -0.061 A 
ATOM      7  C   LIG d   1       5.924 -11.257  -1.695  0.00  0.00    -0.060 A 
ATOM      8  C   LIG d   1       5.930 -10.439  -2.810  0.00  0.00    -0.038 A 
ATOM      9  C   LIG d   1       7.000  -9.556  -2.940  0.00  0.00     0.047 A 
ATOM     10  N   LIG d   1       7.313  -8.631  -3.893  0.00  0.00    -0.356 N 
ATOM     11  H   LIG d   1       6.783  -8.442  -4.684  0.00  0.00     0.166 HD
ATOM     12  C   LIG d   1      10.237  -8.055  -1.736  0.00  0.00     0.031 C 
ATOM     13  H   LIG d   1      10.000  -7.386  -0.909  0.00  0.00     0.041 H 
ATOM     14  C   LIG d   1      11.105  -7.313  -2.761  0.00  0.00     0.027 C 
ATOM     15  N   LIG d   1      10.256  -6.374  -3.516  0.00  0.00    -0.280 N 
ATOM     16  C   LIG d   1      10.478  -5.061  -3.413  0.00  0.00     0.234 C 
ATOM     17  O   LIG d   1      11.468  -4.699  -2.811  0.00  0.00    -0.274 OA
ATOM     18  C   LIG d   1       9.587  -4.010  -3.991  0.00  0.00     0.091 C 
ATOM     19  N   LIG d   1       8.415  -4.578  -4.635  0.00  0.00    -0.290 N 
ATOM     20  C   LIG d   1       8.225  -5.877  -4.783  0.00  0.00     0.245 C 
ATOM     21  O   LIG d   1       7.199  -6.231  -5.324  0.00  0.00    -0.273 OA
ATOM     22  H   LIG d   1       8.771 -10.329  -0.094  0.00  0.00     0.062 H 
ATOM     23  H   LIG d   1       6.869 -11.877   0.110  0.00  0.00     0.062 H 
ATOM     24  H   LIG d   1       5.108 -11.954  -1.563  0.00  0.00     0.062 H 
ATOM     25  H   LIG d   1       5.142 -10.483  -3.547  0.00  0.00     0.064 H 
ATOM     26  H   LIG d   1      11.890  -6.761  -2.244  0.00  0.00     0.047 H 
ATOM     27  H   LIG d   1      11.555  -8.031  -3.446  0.00  0.00     0.047 H 
ATOM     28  H   LIG d   1       9.264  -3.342  -3.192  0.00  0.00     0.056 H 
ATOM     29  H   LIG d   1      10.150  -3.434  -4.725  0.00  0.00     0.056 H 
ENDROOT
BRANCH  19  30
ATOM     30  C   LIG d   1       7.385  -3.661  -5.129  0.00  0.00     0.019 C 
ATOM     31  H   LIG d   1       7.665  -3.300  -6.119  0.00  0.00     0.047 H 
ATOM     32  H   LIG d   1       6.431  -4.186  -5.191  0.00  0.00     0.047 H 
BRANCH  30  33
ATOM     33  C   LIG d   1       7.254  -2.474  -4.172  0.00  0.00    -0.010 C 
ATOM     34  H   LIG d   1       7.728  -2.721  -3.222  0.00  0.00     0.033 H 
ATOM     35  H   LIG d   1       7.743  -1.603  -4.606  0.00  0.00     0.033 H 
BRANCH  33  36
ATOM     36  C   LIG d   1       5.796  -2.172  -3.944  0.00  0.00    -0.021 A 
ATOM     37  C   LIG d   1       5.242  -0.956  -3.342  0.00  0.00     0.003 A 
ATOM     38  C   LIG d   1       3.846  -1.125  -3.341  0.00  0.00     0.047 A 
ATOM     39  C   LIG d   1       5.803   0.213  -2.826  0.00  0.00    -0.052 A 
ATOM     40  N   LIG d   1       3.584  -2.355  -3.902  0.00  0.00    -0.360 N 
ATOM     41  C   LIG d   1       3.038  -0.118  -2.822  0.00  0.00    -0.038 A 
ATOM     42  C   LIG d   1       4.758  -2.961  -4.260  0.00  0.00     0.006 A 
ATOM     43  H   LIG d   1       2.701  -2.733  -4.029  0.00  0.00     0.165 HD
ATOM     44  H   LIG d   1       4.837  -3.933  -4.726  0.00  0.00     0.081 H 
ATOM     45  C   LIG d   1       3.613   1.028  -2.317  0.00  0.00    -0.060 A 
ATOM     46  H   LIG d   1       1.964  -0.235  -2.815  0.00  0.00     0.064 H 
ATOM     47  C   LIG d   1       4.991   1.189  -2.320  0.00  0.00    -0.061 A 
ATOM     48  H   LIG d   1       2.984   1.809  -1.915  0.00  0.00     0.062 H 
ATOM     49  H   LIG d   1       5.425   2.094  -1.921  0.00  0.00     0.062 H 
ATOM     50  H   LIG d   1       6.874   0.346  -2.826  0.00  0.00     0.062 H 
ENDBRANCH  33  36
ENDBRANCH  30  33
ENDBRANCH  19  30
BRANCH   1  51
ATOM     51  C   LIG d   1       9.825  -7.557  -5.597  0.00  0.00    -0.029 C 
ATOM     52  H   LIG d   1      10.787  -7.081  -5.795  0.00  0.00     0.026 H 
ATOM     53  H   LIG d   1       9.975  -8.623  -5.432  0.00  0.00     0.026 H 
ATOM     54  H   LIG d   1       9.166  -7.410  -6.453  0.00  0.00     0.026 H 
ENDBRANCH   1  51
BRANCH  12  55
ATOM     55  C   LIG d   1      10.987  -9.254  -1.216  0.00  0.00     0.003 A 
ATOM     56  C   LIG d   1      11.258  -9.369   0.140  0.00  0.00     0.124 A 
ATOM     57  C   LIG d   1      11.942 -10.478   0.617  0.00  0.00    -0.020 A 
ATOM     58  C   LIG d   1      12.363 -11.458  -0.261  0.00  0.00    -0.058 A 
ATOM     59  H   LIG d   1      12.151 -10.572   1.672  0.00  0.00     0.065 H 
ATOM     60  C   LIG d   1      12.098 -11.338  -1.613  0.00  0.00    -0.061 A 
ATOM     61  H   LIG d   1      12.901 -12.319   0.109  0.00  0.00     0.062 H 
ATOM     62  C   LIG d   1      11.410 -10.237  -2.090  0.00  0.00    -0.054 A 
ATOM     63  H   LIG d   1      12.428 -12.105  -2.298  0.00  0.00     0.062 H 
ATOM     64  H   LIG d   1      11.204 -10.145  -3.145  0.00  0.00     0.062 H 
BRANCH  56  65
ATOM     65  O   LIG d   1      10.847  -8.401   1.001  0.00  0.00    -0.495 OA
BRANCH  65  66
ATOM     66  C   LIG d   1      11.228  -8.545   2.370  0.00  0.00     0.079 C 
ATOM     67  H   LIG d   1      10.345  -8.754   2.973  0.00  0.00     0.066 H 
ATOM     68  H   LIG d   1      11.937  -9.369   2.465  0.00  0.00     0.066 H 
ATOM     69  H   LIG d   1      11.696  -7.623   2.716  0.00  0.00     0.066 H 
ENDBRANCH  65  66
ENDBRANCH  56  65
ENDBRANCH  12  55
TORSDOF 7
ENDMDL
MODEL 3
REMARK VINA RESULT:      -8.1      1.145      2.298
REMARK  7 active torsions:
REMARK  status: ('A' for Active; 'I' for Inactive)
REMARK    1  A    between atoms: C_1  and  C_2 
REMARK    2  A    between atoms: C_13  and  C_35 
REMARK    3  A    between atoms: N_20  and  C_23 
REMARK    4  A    between atoms: C_23  and  C_24 
REMARK    5  A    between atoms: C_24  and  C_25 
REMARK    6  A    between atoms: C_40  and  O_41 
REMARK    7  A    between atoms: O_41  and  C_42 
ROOT
ATOM      1  C   LIG d   1       8.793   1.281  -4.731  0.00  0.00     0.151 C 
ATOM      2  C   LIG d   1       7.575   0.636  -4.114  0.00  0.00     0.054 A 
ATOM      3  C   LIG d   1       7.352  -0.697  -4.138  0.00  0.00    -0.007 A 
ATOM      4  C   LIG d   1       6.092  -0.927  -3.460  0.00  0.00     0.004 A 
ATOM      5  C   LIG d   1       5.364  -2.088  -3.184  0.00  0.00    -0.052 A 
ATOM      6  C   LIG d   1       4.180  -1.930  -2.506  0.00  0.00    -0.061 A 
ATOM      7  C   LIG d   1       3.719  -0.686  -2.109  0.00  0.00    -0.060 A 
ATOM      8  C   LIG d   1       4.420   0.479  -2.368  0.00  0.00    -0.038 A 
ATOM      9  C   LIG d   1       5.626   0.350  -3.055  0.00  0.00     0.047 A 
ATOM     10  N   LIG d   1       6.548   1.269  -3.465  0.00  0.00    -0.356 N 
ATOM     11  H   LIG d   1       6.485   2.226  -3.321  0.00  0.00     0.166 HD
ATOM     12  C   LIG d   1       8.275  -1.708  -4.766  0.00  0.00     0.031 C 
ATOM     13  H   LIG d   1       8.853  -2.208  -3.989  0.00  0.00     0.041 H 
ATOM     14  C   LIG d   1       9.226  -0.989  -5.730  0.00  0.00     0.027 C 
ATOM     15  N   LIG d   1       9.745   0.225  -5.073  0.00  0.00    -0.280 N 
ATOM     16  C   LIG d   1      11.051   0.321  -4.813  0.00  0.00     0.234 C 
ATOM     17  O   LIG d   1      11.784  -0.536  -5.260  0.00  0.00    -0.274 OA
ATOM     18  C   LIG d   1      11.668   1.418  -4.006  0.00  0.00     0.091 C 
ATOM     19  N   LIG d   1      10.675   2.344  -3.488  0.00  0.00    -0.290 N 
ATOM     20  C   LIG d   1       9.391   2.277  -3.792  0.00  0.00     0.245 C 
ATOM     21  O   LIG d   1       8.656   3.097  -3.284  0.00  0.00    -0.273 OA
ATOM     22  H   LIG d   1       5.715  -3.062  -3.489  0.00  0.00     0.062 H 
ATOM     23  H   LIG d   1       3.590  -2.804  -2.274  0.00  0.00     0.062 H 
ATOM     24  H   LIG d   1       2.780  -0.621  -1.578  0.00  0.00     0.062 H 
ATOM     25  H   LIG d   1       4.050   1.443  -2.054  0.00  0.00     0.064 H 
ATOM     26  H   LIG d   1      10.056  -1.648  -5.986  0.00  0.00     0.047 H 
ATOM     27  H   LIG d   1       8.687  -0.712  -6.636  0.00  0.00     0.047 H 
ATOM     28  H   LIG d   1      12.213   0.979  -3.170  0.00  0.00     0.056 H 
ATOM     29  H   LIG d   1      12.369   1.967  -4.634  0.00  0.00     0.056 H 
ENDROOT
BRANCH  19  30
ATOM     30  C   LIG d   1      11.121   3.393  -2.568  0.00  0.00     0.019 C 
ATOM     31  H   LIG d   1      10.294   3.683  -1.920  0.00  0.00     0.047 H 
ATOM     32  H   LIG d   1      11.943   3.016  -1.959  0.00  0.00     0.047 H 
BRANCH  30  33
ATOM     33  C   LIG d   1      11.593   4.608  -3.368  0.00  0.00    -0.010 C 
ATOM     34  H   LIG d   1      12.652   4.782  -3.174  0.00  0.00     0.033 H 
ATOM     35  H   LIG d   1      11.446   4.422  -4.431  0.00  0.00     0.033 H 
BRANCH  33  36
ATOM     36  C   LIG d   1      10.800   5.820  -2.955  0.00  0.00    -0.021 A 
ATOM     37  C   LIG d   1      10.962   6.588  -1.717  0.00  0.00     0.003 A 
ATOM     38  C   LIG d   1      10.010   7.622  -1.773  0.00  0.00     0.047 A 
ATOM     39  C   LIG d   1      11.808   6.479  -0.613  0.00  0.00    -0.052 A 
ATOM     40  N   LIG d   1       9.327   7.482  -2.961  0.00  0.00    -0.360 N 
ATOM     41  C   LIG d   1       9.924   8.527  -0.720  0.00  0.00    -0.038 A 
ATOM     42  C   LIG d   1       9.815   6.407  -3.653  0.00  0.00     0.006 A 
ATOM     43  H   LIG d   1       8.611   8.060  -3.263  0.00  0.00     0.165 HD
ATOM     44  H   LIG d   1       9.459   6.077  -4.619  0.00  0.00     0.081 H 
ATOM     45  C   LIG d   1      10.769   8.401   0.361  0.00  0.00    -0.060 A 
ATOM     46  H   LIG d   1       9.197   9.326  -0.751  0.00  0.00     0.064 H 
ATOM     47  C   LIG d   1      11.706   7.379   0.412  0.00  0.00    -0.061 A 
ATOM     48  H   LIG d   1      10.701   9.104   1.177  0.00  0.00     0.062 H 
ATOM     49  H   LIG d   1      12.361   7.294   1.266  0.00  0.00     0.062 H 
ATOM     50  H   LIG d   1      12.540   5.687  -0.566  0.00  0.00     0.062 H 
ENDBRANCH  33  36
ENDBRANCH  30  33
ENDBRANCH  19  30
BRANCH   1  51
ATOM     51  C   LIG d   1       8.375   2.001  -6.014  0.00  0.00    -0.029 C 
ATOM     52  H   LIG d   1       9.134   2.737  -6.281  0.00  0.00     0.026 H 
ATOM     53  H   LIG d   1       8.272   1.276  -6.821  0.00  0.00     0.026 H 
ATOM     54  H   LIG d   1       7.422   2.505  -5.853  0.00  0.00     0.026 H 
ENDBRANCH   1  51
BRANCH  12  55
ATOM     55  C   LIG d   1       7.465  -2.727  -5.525  0.00  0.00     0.003 A 
ATOM     56  C   LIG d   1       7.491  -4.061  -5.141  0.00  0.00     0.124 A 
ATOM     57  C   LIG d   1       6.739  -4.995  -5.838  0.00  0.00    -0.020 A 
ATOM     58  C   LIG d   1       5.977  -4.599  -6.920  0.00  0.00    -0.058 A 
ATOM     59  H   LIG d   1       6.754  -6.033  -5.539  0.00  0.00     0.065 H 
ATOM     60  C   LIG d   1       5.957  -3.271  -7.304  0.00  0.00    -0.061 A 
ATOM     61  H   LIG d   1       5.395  -5.328  -7.466  0.00  0.00     0.062 H 
ATOM     62  C   LIG d   1       6.701  -2.336  -6.608  0.00  0.00    -0.054 A 
ATOM     63  H   LIG d   1       5.361  -2.963  -8.151  0.00  0.00     0.062 H 
ATOM     64  H   LIG d   1       6.685  -1.300  -6.910  0.00  0.00     0.062 H 
BRANCH  56  65
ATOM     65  O   LIG d   1       8.246  -4.449  -4.080  0.00  0.00    -0.495 OA
BRANCH  65  66
ATOM     66  C   LIG d   1       8.985  -5.663  -4.219  0.00  0.00     0.079 C 
ATOM     67  H   LIG d   1       8.897  -6.249  -3.304  0.00  0.00     0.066 H 
ATOM     68  H   LIG d   1       8.587  -6.236  -5.057  0.00  0.00     0.066 H 
ATOM     69  H   LIG d   1      10.034  -5.431  -4.403  0.00  0.00     0.066 H 
ENDBRANCH  65  66
ENDBRANCH  56  65
ENDBRANCH  12  55
TORSDOF 7
ENDMDL
MODEL 4
REMARK VINA RESULT:      -8.0      2.735      9.795
REMARK  7 active torsions:
REMARK  status: ('A' for Active; 'I' for Inactive)
REMARK    1  A    between atoms: C_1  and  C_2 
REMARK    2  A    between atoms: C_13  and  C_35 
REMARK    3  A    between atoms: N_20  and  C_23 
REMARK    4  A    between atoms: C_23  and  C_24 
REMARK    5  A    between atoms: C_24  and  C_25 
REMARK    6  A    between atoms: C_40  and  O_41 
REMARK    7  A    between atoms: O_41  and  C_42 
ROOT
ATOM      1  C   LIG d   1      11.410   4.220  -3.752  0.00  0.00     0.151 C 
ATOM      2  C   LIG d   1      11.306   5.041  -2.489  0.00  0.00     0.054 A 
ATOM      3  C   LIG d   1      11.105   6.377  -2.490  0.00  0.00    -0.007 A 
ATOM      4  C   LIG d   1      11.071   6.800  -1.105  0.00  0.00     0.004 A 
ATOM      5  C   LIG d   1      10.897   8.049  -0.500  0.00  0.00    -0.052 A 
ATOM      6  C   LIG d   1      10.924   8.082   0.873  0.00  0.00    -0.061 A 
ATOM      7  C   LIG d   1      11.113   6.940   1.633  0.00  0.00    -0.060 A 
ATOM      8  C   LIG d   1      11.286   5.692   1.060  0.00  0.00    -0.038 A 
ATOM      9  C   LIG d   1      11.264   5.627  -0.331  0.00  0.00     0.047 A 
ATOM     10  N   LIG d   1      11.401   4.584  -1.201  0.00  0.00    -0.356 N 
ATOM     11  H   LIG d   1      11.544   3.659  -0.946  0.00  0.00     0.166 HD
ATOM     12  C   LIG d   1      10.949   7.219  -3.730  0.00  0.00     0.031 C 
ATOM     13  H   LIG d   1       9.896   7.447  -3.888  0.00  0.00     0.041 H 
ATOM     14  C   LIG d   1      11.491   6.441  -4.936  0.00  0.00     0.027 C 
ATOM     15  N   LIG d   1      10.989   5.056  -4.876  0.00  0.00    -0.280 N 
ATOM     16  C   LIG d   1      10.173   4.613  -5.837  0.00  0.00     0.234 C 
ATOM     17  O   LIG d   1       9.993   5.326  -6.801  0.00  0.00    -0.274 OA
ATOM     18  C   LIG d   1       9.469   3.295  -5.799  0.00  0.00     0.091 C 
ATOM     19  N   LIG d   1       9.729   2.569  -4.568  0.00  0.00    -0.290 N 
ATOM     20  C   LIG d   1      10.578   2.984  -3.645  0.00  0.00     0.245 C 
ATOM     21  O   LIG d   1      10.699   2.299  -2.651  0.00  0.00    -0.273 OA
ATOM     22  H   LIG d   1      10.749   8.944  -1.084  0.00  0.00     0.062 H 
ATOM     23  H   LIG d   1      10.792   9.029   1.375  0.00  0.00     0.062 H 
ATOM     24  H   LIG d   1      11.124   7.025   2.710  0.00  0.00     0.062 H 
ATOM     25  H   LIG d   1      11.434   4.809   1.664  0.00  0.00     0.064 H 
ATOM     26  H   LIG d   1      11.152   6.913  -5.858  0.00  0.00     0.047 H 
ATOM     27  H   LIG d   1      12.581   6.436  -4.908  0.00  0.00     0.047 H 
ATOM     28  H   LIG d   1       8.396   3.465  -5.890  0.00  0.00     0.056 H 
ATOM     29  H   LIG d   1       9.803   2.692  -6.643  0.00  0.00     0.056 H 
ENDROOT
BRANCH  19  30
ATOM     30  C   LIG d   1       8.998   1.321  -4.334  0.00  0.00     0.019 C 
ATOM     31  H   LIG d   1       8.882   0.786  -5.277  0.00  0.00     0.047 H 
ATOM     32  H   LIG d   1       9.556   0.700  -3.631  0.00  0.00     0.047 H 
BRANCH  30  33
ATOM     33  C   LIG d   1       7.618   1.637  -3.753  0.00  0.00    -0.010 C 
ATOM     34  H   LIG d   1       7.735   2.129  -2.788  0.00  0.00     0.033 H 
ATOM     35  H   LIG d   1       7.082   2.298  -4.434  0.00  0.00     0.033 H 
BRANCH  33  36
ATOM     36  C   LIG d   1       6.843   0.358  -3.577  0.00  0.00    -0.021 A 
ATOM     37  C   LIG d   1       5.431   0.240  -3.204  0.00  0.00     0.003 A 
ATOM     38  C   LIG d   1       5.154  -1.139  -3.164  0.00  0.00     0.047 A 
ATOM     39  C   LIG d   1       4.424   1.161  -2.913  0.00  0.00    -0.052 A 
ATOM     40  N   LIG d   1       6.319  -1.797  -3.491  0.00  0.00    -0.360 N 
ATOM     41  C   LIG d   1       3.872  -1.568  -2.833  0.00  0.00    -0.038 A 
ATOM     42  C   LIG d   1       7.312  -0.889  -3.738  0.00  0.00     0.006 A 
ATOM     43  H   LIG d   1       6.419  -2.760  -3.541  0.00  0.00     0.165 HD
ATOM     44  H   LIG d   1       8.325  -1.139  -4.019  0.00  0.00     0.081 H 
ATOM     45  C   LIG d   1       2.893  -0.640  -2.549  0.00  0.00    -0.060 A 
ATOM     46  H   LIG d   1       3.646  -2.623  -2.799  0.00  0.00     0.064 H 
ATOM     47  C   LIG d   1       3.172   0.718  -2.589  0.00  0.00    -0.061 A 
ATOM     48  H   LIG d   1       1.899  -0.975  -2.292  0.00  0.00     0.062 H 
ATOM     49  H   LIG d   1       2.393   1.432  -2.364  0.00  0.00     0.062 H 
ATOM     50  H   LIG d   1       4.633   2.220  -2.942  0.00  0.00     0.062 H 
ENDBRANCH  33  36
ENDBRANCH  30  33
ENDBRANCH  19  30
BRANCH   1  51
ATOM     51  C   LIG d   1      12.871   3.815  -3.962  0.00  0.00    -0.029 C 
ATOM     52  H   LIG d   1      13.187   4.105  -4.964  0.00  0.00     0.026 H 
ATOM     53  H   LIG d   1      13.496   4.316  -3.224  0.00  0.00     0.026 H 
ATOM     54  H   LIG d   1      12.968   2.735  -3.849  0.00  0.00     0.026 H 
ENDBRANCH   1  51
BRANCH  12  55
ATOM     55  C   LIG d   1      11.724   8.501  -3.570  0.00  0.00     0.003 A 
ATOM     56  C   LIG d   1      11.066   9.722  -3.627  0.00  0.00     0.124 A 
ATOM     57  C   LIG d   1      11.781  10.900  -3.472  0.00  0.00    -0.020 A 
ATOM     58  C   LIG d   1      13.147  10.857  -3.274  0.00  0.00    -0.058 A 
ATOM     59  H   LIG d   1      11.271  11.852  -3.512  0.00  0.00     0.065 H 
ATOM     60  C   LIG d   1      13.802   9.640  -3.223  0.00  0.00    -0.061 A 
ATOM     61  H   LIG d   1      13.706  11.775  -3.158  0.00  0.00     0.062 H 
ATOM     62  C   LIG d   1      13.091   8.463  -3.371  0.00  0.00    -0.054 A 
ATOM     63  H   LIG d   1      14.870   9.608  -3.068  0.00  0.00     0.062 H 
ATOM     64  H   LIG d   1      13.604   7.514  -3.331  0.00  0.00     0.062 H 
BRANCH  56  65
ATOM     65  O   LIG d   1       9.723   9.762  -3.828  0.00  0.00    -0.495 OA
BRANCH  65  66
ATOM     66  C   LIG d   1       9.227  10.777  -4.702  0.00  0.00     0.079 C 
ATOM     67  H   LIG d   1       8.300  10.438  -5.164  0.00  0.00     0.066 H 
ATOM     68  H   LIG d   1       9.038  11.687  -4.132  0.00  0.00     0.066 H 
ATOM     69  H   LIG d   1       9.966  10.981  -5.478  0.00  0.00     0.066 H 
ENDBRANCH  65  66
ENDBRANCH  56  65
ENDBRANCH  12  55
TORSDOF 7
ENDMDL
MODEL 5
REMARK VINA RESULT:      -7.7      5.611      9.033
REMARK  7 active torsions:
REMARK  status: ('A' for Active; 'I' for Inactive)
REMARK    1  A    between atoms: C_1  and  C_2 
REMARK    2  A    between atoms: C_13  and  C_35 
REMARK    3  A    between atoms: N_20  and  C_23 
REMARK    4  A    between atoms: C_23  and  C_24 
REMARK    5  A    between atoms: C_24  and  C_25 
REMARK    6  A    between atoms: C_40  and  O_41 
REMARK    7  A    between atoms: O_41  and  C_42 
ROOT
ATOM      1  C   LIG d   1       8.597  -7.019  -4.700  0.00  0.00     0.151 C 
ATOM      2  C   LIG d   1       7.501  -8.026  -4.448  0.00  0.00     0.054 A 
ATOM      3  C   LIG d   1       7.481  -8.843  -3.371  0.00  0.00    -0.007 A 
ATOM      4  C   LIG d   1       6.291  -9.661  -3.484  0.00  0.00     0.004 A 
ATOM      5  C   LIG d   1       5.755 -10.669  -2.676  0.00  0.00    -0.052 A 
ATOM      6  C   LIG d   1       4.581 -11.244  -3.100  0.00  0.00    -0.061 A 
ATOM      7  C   LIG d   1       3.950 -10.852  -4.268  0.00  0.00    -0.060 A 
ATOM      8  C   LIG d   1       4.457  -9.857  -5.085  0.00  0.00    -0.038 A 
ATOM      9  C   LIG d   1       5.647  -9.255  -4.681  0.00  0.00     0.047 A 
ATOM     10  N   LIG d   1       6.406  -8.265  -5.235  0.00  0.00    -0.356 N 
ATOM     11  H   LIG d   1       6.201  -7.801  -6.062  0.00  0.00     0.166 HD
ATOM     12  C   LIG d   1       8.528  -8.857  -2.287  0.00  0.00     0.031 C 
ATOM     13  H   LIG d   1       8.154  -8.327  -1.411  0.00  0.00     0.041 H 
ATOM     14  C   LIG d   1       9.794  -8.163  -2.804  0.00  0.00     0.027 C 
ATOM     15  N   LIG d   1       9.410  -6.916  -3.489  0.00  0.00    -0.280 N 
ATOM     16  C   LIG d   1       9.810  -5.743  -2.988  0.00  0.00     0.234 C 
ATOM     17  O   LIG d   1      10.598  -5.760  -2.066  0.00  0.00    -0.274 OA
ATOM     18  C   LIG d   1       9.349  -4.414  -3.492  0.00  0.00     0.091 C 
ATOM     19  N   LIG d   1       8.370  -4.540  -4.558  0.00  0.00    -0.290 N 
ATOM     20  C   LIG d   1       8.017  -5.698  -5.087  0.00  0.00     0.245 C 
ATOM     21  O   LIG d   1       7.177  -5.678  -5.961  0.00  0.00    -0.273 OA
ATOM     22  H   LIG d   1       6.240 -10.981  -1.764  0.00  0.00     0.062 H 
ATOM     23  H   LIG d   1       4.137 -12.026  -2.502  0.00  0.00     0.062 H 
ATOM     24  H   LIG d   1       3.028 -11.340  -4.552  0.00  0.00     0.062 H 
ATOM     25  H   LIG d   1       3.955  -9.562  -5.994  0.00  0.00     0.064 H 
ATOM     26  H   LIG d   1      10.452  -7.932  -1.966  0.00  0.00     0.047 H 
ATOM     27  H   LIG d   1      10.311  -8.820  -3.503  0.00  0.00     0.047 H 
ATOM     28  H   LIG d   1       8.905  -3.858  -2.666  0.00  0.00     0.056 H 
ATOM     29  H   LIG d   1      10.210  -3.860  -3.867  0.00  0.00     0.056 H 
ENDROOT
BRANCH  19  30
ATOM     30  C   LIG d   1       7.729  -3.320  -5.056  0.00  0.00     0.019 C 
ATOM     31  H   LIG d   1       8.406  -2.809  -5.741  0.00  0.00     0.047 H 
ATOM     32  H   LIG d   1       6.811  -3.582  -5.583  0.00  0.00     0.047 H 
BRANCH  30  33
ATOM     33  C   LIG d   1       7.400  -2.398  -3.881  0.00  0.00    -0.010 C 
ATOM     34  H   LIG d   1       7.743  -2.856  -2.953  0.00  0.00     0.033 H 
ATOM     35  H   LIG d   1       7.902  -1.441  -4.020  0.00  0.00     0.033 H 
BRANCH  33  36
ATOM     36  C   LIG d   1       5.911  -2.181  -3.815  0.00  0.00    -0.021 A 
ATOM     37  C   LIG d   1       5.224  -1.017  -3.250  0.00  0.00     0.003 A 
ATOM     38  C   LIG d   1       3.848  -1.260  -3.415  0.00  0.00     0.047 A 
ATOM     39  C   LIG d   1       5.655   0.164  -2.644  0.00  0.00    -0.052 A 
ATOM     40  N   LIG d   1       3.722  -2.484  -4.034  0.00  0.00    -0.360 N 
ATOM     41  C   LIG d   1       2.930  -0.315  -2.967  0.00  0.00    -0.038 A 
ATOM     42  C   LIG d   1       4.962  -3.015  -4.268  0.00  0.00     0.006 A 
ATOM     43  H   LIG d   1       2.882  -2.905  -4.270  0.00  0.00     0.165 HD
ATOM     44  H   LIG d   1       5.148  -3.965  -4.747  0.00  0.00     0.081 H 
ATOM     45  C   LIG d   1       3.378   0.844  -2.370  0.00  0.00    -0.060 A 
ATOM     46  H   LIG d   1       1.871  -0.489  -3.086  0.00  0.00     0.064 H 
ATOM     47  C   LIG d   1       4.736   1.079  -2.210  0.00  0.00    -0.061 A 
ATOM     48  H   LIG d   1       2.665   1.576  -2.023  0.00  0.00     0.062 H 
ATOM     49  H   LIG d   1       5.070   1.992  -1.741  0.00  0.00     0.062 H 
ATOM     50  H   LIG d   1       6.710   0.354  -2.516  0.00  0.00     0.062 H 
ENDBRANCH  33  36
ENDBRANCH  30  33
ENDBRANCH  19  30
BRANCH   1  51
ATOM     51  C   LIG d   1       9.480  -7.524  -5.843  0.00  0.00    -0.029 C 
ATOM     52  H   LIG d   1      10.376  -6.906  -5.910  0.00  0.00     0.026 H 
ATOM     53  H   LIG d   1       9.766  -8.558  -5.653  0.00  0.00     0.026 H 
ATOM     54  H   LIG d   1       8.928  -7.465  -6.781  0.00  0.00     0.026 H 
ENDBRANCH   1  51
BRANCH  12  55
ATOM     55  C   LIG d   1       8.850 -10.281  -1.915  0.00  0.00     0.003 A 
ATOM     56  C   LIG d   1       9.430 -11.128  -2.848  0.00  0.00     0.124 A 
ATOM     57  C   LIG d   1       9.731 -12.437  -2.501  0.00  0.00    -0.020 A 
ATOM     58  C   LIG d   1       9.442 -12.897  -1.231  0.00  0.00    -0.058 A 
ATOM     59  H   LIG d   1      10.186 -13.098  -3.224  0.00  0.00     0.065 H 
ATOM     60  C   LIG d   1       8.859 -12.052  -0.304  0.00  0.00    -0.061 A 
ATOM     61  H   LIG d   1       9.671 -13.918  -0.961  0.00  0.00     0.062 H 
ATOM     62  C   LIG d   1       8.562 -10.746  -0.646  0.00  0.00    -0.054 A 
ATOM     63  H   LIG d   1       8.633 -12.414   0.689  0.00  0.00     0.062 H 
ATOM     64  H   LIG d   1       8.107 -10.088   0.079  0.00  0.00     0.062 H 
BRANCH  56  65
ATOM     65  O   LIG d   1       9.708 -10.675  -4.099  0.00  0.00    -0.495 OA
BRANCH  65  66
ATOM     66  C   LIG d   1       9.244 -11.466  -5.194  0.00  0.00     0.079 C 
ATOM     67  H   LIG d   1       8.224 -11.797  -4.997  0.00  0.00     0.066 H 
ATOM     68  H   LIG d   1       9.262 -10.869  -6.107  0.00  0.00     0.066 H 
ATOM     69  H   LIG d   1       9.891 -12.335  -5.316  0.00  0.00     0.066 H 
ENDBRANCH  65  66
ENDBRANCH  56  65
ENDBRANCH  12  55
TORSDOF 7
ENDMDL
MODEL 6
REMARK VINA RESULT:      -7.6      5.018      9.980
REMARK  7 active torsions:
REMARK  status: ('A' for Active; 'I' for Inactive)
REMARK    1  A    between atoms: C_1  and  C_2 
REMARK    2  A    between atoms: C_13  and  C_35 
REMARK    3  A    between atoms: N_20  and  C_23 
REMARK    4  A    between atoms: C_23  and  C_24 
REMARK    5  A    between atoms: C_24  and  C_25 
REMARK    6  A    between atoms: C_40  and  O_41 
REMARK    7  A    between atoms: O_41  and  C_42 
ROOT
ATOM      1  C   LIG d   1       7.269  -2.618  -6.259  0.00  0.00     0.151 C 
ATOM      2  C   LIG d   1       6.189  -1.787  -5.609  0.00  0.00     0.054 A 
ATOM      3  C   LIG d   1       5.156  -1.249  -6.295  0.00  0.00    -0.007 A 
ATOM      4  C   LIG d   1       4.346  -0.522  -5.338  0.00  0.00     0.004 A 
ATOM      5  C   LIG d   1       3.171   0.224  -5.465  0.00  0.00    -0.052 A 
ATOM      6  C   LIG d   1       2.668   0.789  -4.319  0.00  0.00    -0.061 A 
ATOM      7  C   LIG d   1       3.286   0.633  -3.089  0.00  0.00    -0.060 A 
ATOM      8  C   LIG d   1       4.449  -0.101  -2.934  0.00  0.00    -0.038 A 
ATOM      9  C   LIG d   1       4.983  -0.686  -4.080  0.00  0.00     0.047 A 
ATOM     10  N   LIG d   1       6.091  -1.456  -4.283  0.00  0.00    -0.356 N 
ATOM     11  H   LIG d   1       6.716  -1.728  -3.593  0.00  0.00     0.166 HD
ATOM     12  C   LIG d   1       4.937  -1.408  -7.777  0.00  0.00     0.031 C 
ATOM     13  H   LIG d   1       4.165  -2.155  -7.954  0.00  0.00     0.041 H 
ATOM     14  C   LIG d   1       6.248  -1.860  -8.432  0.00  0.00     0.027 C 
ATOM     15  N   LIG d   1       6.841  -2.938  -7.620  0.00  0.00    -0.280 N 
ATOM     16  C   LIG d   1       6.966  -4.161  -8.145  0.00  0.00     0.234 C 
ATOM     17  O   LIG d   1       6.718  -4.299  -9.324  0.00  0.00    -0.274 OA
ATOM     18  C   LIG d   1       7.392  -5.367  -7.373  0.00  0.00     0.091 C 
ATOM     19  N   LIG d   1       7.604  -5.072  -5.966  0.00  0.00    -0.290 N 
ATOM     20  C   LIG d   1       7.532  -3.853  -5.461  0.00  0.00     0.245 C 
ATOM     21  O   LIG d   1       7.713  -3.733  -4.267  0.00  0.00    -0.273 OA
ATOM     22  H   LIG d   1       2.682   0.350  -6.419  0.00  0.00     0.062 H 
ATOM     23  H   LIG d   1       1.761   1.372  -4.378  0.00  0.00     0.062 H 
ATOM     24  H   LIG d   1       2.845   1.101  -2.220  0.00  0.00     0.062 H 
ATOM     25  H   LIG d   1       4.922  -0.213  -1.970  0.00  0.00     0.064 H 
ATOM     26  H   LIG d   1       6.046  -2.229  -9.438  0.00  0.00     0.047 H 
ATOM     27  H   LIG d   1       6.940  -1.019  -8.484  0.00  0.00     0.047 H 
ATOM     28  H   LIG d   1       6.622  -6.134  -7.462  0.00  0.00     0.056 H 
ATOM     29  H   LIG d   1       8.320  -5.748  -7.798  0.00  0.00     0.056 H 
ENDROOT
BRANCH  19  30
ATOM     30  C   LIG d   1       7.894  -6.187  -5.061  0.00  0.00     0.019 C 
ATOM     31  H   LIG d   1       8.906  -6.081  -4.668  0.00  0.00     0.047 H 
ATOM     32  H   LIG d   1       7.182  -6.179  -4.236  0.00  0.00     0.047 H 
BRANCH  30  33
ATOM     33  C   LIG d   1       7.779  -7.508  -5.824  0.00  0.00    -0.010 C 
ATOM     34  H   LIG d   1       7.641  -7.303  -6.886  0.00  0.00     0.033 H 
ATOM     35  H   LIG d   1       8.688  -8.089  -5.681  0.00  0.00     0.033 H 
BRANCH  33  36
ATOM     36  C   LIG d   1       6.597  -8.285  -5.305  0.00  0.00    -0.021 A 
ATOM     37  C   LIG d   1       6.535  -9.041  -4.051  0.00  0.00     0.003 A 
ATOM     38  C   LIG d   1       5.241  -9.591  -3.993  0.00  0.00     0.047 A 
ATOM     39  C   LIG d   1       7.440  -9.282  -3.017  0.00  0.00    -0.052 A 
ATOM     40  N   LIG d   1       4.578  -9.192  -5.133  0.00  0.00    -0.360 N 
ATOM     41  C   LIG d   1       4.881 -10.373  -2.900  0.00  0.00    -0.038 A 
ATOM     42  C   LIG d   1       5.401  -8.411  -5.898  0.00  0.00     0.006 A 
ATOM     43  H   LIG d   1       3.665  -9.427  -5.357  0.00  0.00     0.165 HD
ATOM     44  H   LIG d   1       5.127  -7.963  -6.843  0.00  0.00     0.081 H 
ATOM     45  C   LIG d   1       5.792 -10.598  -1.891  0.00  0.00    -0.060 A 
ATOM     46  H   LIG d   1       3.891 -10.802  -2.844  0.00  0.00     0.064 H 
ATOM     47  C   LIG d   1       7.066 -10.054  -1.953  0.00  0.00    -0.061 A 
ATOM     48  H   LIG d   1       5.510 -11.205  -1.043  0.00  0.00     0.062 H 
ATOM     49  H   LIG d   1       7.768 -10.240  -1.153  0.00  0.00     0.062 H 
ATOM     50  H   LIG d   1       8.434  -8.861  -3.058  0.00  0.00     0.062 H 
ENDBRANCH  33  36
ENDBRANCH  30  33
ENDBRANCH  19  30
BRANCH   1  51
ATOM     51  C   LIG d   1       8.555  -1.792  -6.330  0.00  0.00    -0.029 C 
ATOM     52  H   LIG d   1       9.377  -2.362  -5.896  0.00  0.00     0.026 H 
ATOM     53  H   LIG d   1       8.782  -1.561  -7.370  0.00  0.00     0.026 H 
ATOM     54  H   LIG d   1       8.422  -0.865  -5.771  0.00  0.00     0.026 H 
ENDBRANCH   1  51
BRANCH  12  55
ATOM     55  C   LIG d   1       4.508  -0.090  -8.367  0.00  0.00     0.003 A 
ATOM     56  C   LIG d   1       3.198   0.089  -8.788  0.00  0.00     0.124 A 
ATOM     57  C   LIG d   1       2.804   1.306  -9.326  0.00  0.00    -0.020 A 
ATOM     58  C   LIG d   1       3.720   2.333  -9.452  0.00  0.00    -0.058 A 
ATOM     59  H   LIG d   1       1.784   1.449  -9.651  0.00  0.00     0.065 H 
ATOM     60  C   LIG d   1       5.027   2.150  -9.037  0.00  0.00    -0.061 A 
ATOM     61  H   LIG d   1       3.415   3.279  -9.875  0.00  0.00     0.062 H 
ATOM     62  C   LIG d   1       5.420   0.940  -8.496  0.00  0.00    -0.054 A 
ATOM     63  H   LIG d   1       5.742   2.954  -9.137  0.00  0.00     0.062 H 
ATOM     64  H   LIG d   1       6.441   0.800  -8.172  0.00  0.00     0.062 H 
BRANCH  56  65
ATOM     65  O   LIG d   1       2.300  -0.924  -8.668  0.00  0.00    -0.495 OA
BRANCH  65  66
ATOM     66  C   LIG d   1       1.702  -1.407  -9.872  0.00  0.00     0.079 C 
ATOM     67  H   LIG d   1       0.990  -2.197  -9.633  0.00  0.00     0.066 H 
ATOM     68  H   LIG d   1       1.182  -0.588 -10.373  0.00  0.00     0.066 H 
ATOM     69  H   LIG d   1       2.476  -1.802 -10.531  0.00  0.00     0.066 H 
ENDBRANCH  65  66
ENDBRANCH  56  65
ENDBRANCH  12  55
TORSDOF 7
ENDMDL
MODEL 7
REMARK VINA RESULT:      -7.2      6.878     10.388
REMARK  7 active torsions:
REMARK  status: ('A' for Active; 'I' for Inactive)
REMARK    1  A    between atoms: C_1  and  C_2 
REMARK    2  A    between atoms: C_13  and  C_35 
REMARK    3  A    between atoms: N_20  and  C_23 
REMARK    4  A    between atoms: C_23  and  C_24 
REMARK    5  A    between atoms: C_24  and  C_25 
REMARK    6  A    between atoms: C_40  and  O_41 
REMARK    7  A    between atoms: O_41  and  C_42 
ROOT
ATOM      1  C   LIG d   1       3.109  -3.940 -10.479  0.00  0.00     0.151 C 
ATOM      2  C   LIG d   1       1.764  -3.775 -11.144  0.00  0.00     0.054 A 
ATOM      3  C   LIG d   1       0.752  -4.658 -10.995  0.00  0.00    -0.007 A 
ATOM      4  C   LIG d   1      -0.359  -4.166 -11.785  0.00  0.00     0.004 A 
ATOM      5  C   LIG d   1      -1.649  -4.654 -12.012  0.00  0.00    -0.052 A 
ATOM      6  C   LIG d   1      -2.456  -3.911 -12.839  0.00  0.00    -0.061 A 
ATOM      7  C   LIG d   1      -2.023  -2.734 -13.426  0.00  0.00    -0.060 A 
ATOM      8  C   LIG d   1      -0.752  -2.228 -13.217  0.00  0.00    -0.038 A 
ATOM      9  C   LIG d   1       0.089  -2.960 -12.382  0.00  0.00     0.047 A 
ATOM     10  N   LIG d   1       1.375  -2.755 -11.971  0.00  0.00    -0.356 N 
ATOM     11  H   LIG d   1       1.929  -2.001 -12.227  0.00  0.00     0.166 HD
ATOM     12  C   LIG d   1       0.821  -5.904 -10.151  0.00  0.00     0.031 C 
ATOM     13  H   LIG d   1       0.302  -5.736  -9.207  0.00  0.00     0.041 H 
ATOM     14  C   LIG d   1       2.290  -6.243  -9.874  0.00  0.00     0.027 C 
ATOM     15  N   LIG d   1       3.000  -5.010  -9.487  0.00  0.00    -0.280 N 
ATOM     16  C   LIG d   1       3.514  -4.907  -8.258  0.00  0.00     0.234 C 
ATOM     17  O   LIG d   1       3.501  -5.895  -7.555  0.00  0.00    -0.274 OA
ATOM     18  C   LIG d   1       4.103  -3.655  -7.696  0.00  0.00     0.091 C 
ATOM     19  N   LIG d   1       4.005  -2.538  -8.621  0.00  0.00    -0.290 N 
ATOM     20  C   LIG d   1       3.546  -2.655  -9.855  0.00  0.00     0.245 C 
ATOM     21  O   LIG d   1       3.497  -1.648 -10.528  0.00  0.00    -0.273 OA
ATOM     22  H   LIG d   1      -1.994  -5.571 -11.559  0.00  0.00     0.062 H 
ATOM     23  H   LIG d   1      -3.460  -4.257 -13.038  0.00  0.00     0.062 H 
ATOM     24  H   LIG d   1      -2.702  -2.191 -14.068  0.00  0.00     0.062 H 
ATOM     25  H   LIG d   1      -0.427  -1.309 -13.682  0.00  0.00     0.064 H 
ATOM     26  H   LIG d   1       2.352  -6.969  -9.064  0.00  0.00     0.047 H 
ATOM     27  H   LIG d   1       2.745  -6.659 -10.773  0.00  0.00     0.047 H 
ATOM     28  H   LIG d   1       3.578  -3.399  -6.775  0.00  0.00     0.056 H 
ATOM     29  H   LIG d   1       5.154  -3.831  -7.465  0.00  0.00     0.056 H 
ENDROOT
BRANCH  19  30
ATOM     30  C   LIG d   1       4.421  -1.214  -8.153  0.00  0.00     0.019 C 
ATOM     31  H   LIG d   1       5.204  -0.827  -8.806  0.00  0.00     0.047 H 
ATOM     32  H   LIG d   1       3.566  -0.537  -8.173  0.00  0.00     0.047 H 
BRANCH  30  33
ATOM     33  C   LIG d   1       4.955  -1.321  -6.723  0.00  0.00    -0.010 C 
ATOM     34  H   LIG d   1       4.886  -2.355  -6.387  0.00  0.00     0.033 H 
ATOM     35  H   LIG d   1       5.996  -1.000  -6.701  0.00  0.00     0.033 H 
BRANCH  33  36
ATOM     36  C   LIG d   1       4.138  -0.440  -5.815  0.00  0.00    -0.021 A 
ATOM     37  C   LIG d   1       4.397  -0.169  -4.399  0.00  0.00     0.003 A 
ATOM     38  C   LIG d   1       3.377   0.703  -3.976  0.00  0.00     0.047 A 
ATOM     39  C   LIG d   1       5.377  -0.584  -3.496  0.00  0.00    -0.052 A 
ATOM     40  N   LIG d   1       2.565   0.936  -5.064  0.00  0.00    -0.360 N 
ATOM     41  C   LIG d   1       3.359   1.142  -2.656  0.00  0.00    -0.038 A 
ATOM     42  C   LIG d   1       3.037   0.251  -6.151  0.00  0.00     0.006 A 
ATOM     43  H   LIG d   1       1.780   1.504  -5.061  0.00  0.00     0.165 HD
ATOM     44  H   LIG d   1       2.589   0.264  -7.134  0.00  0.00     0.081 H 
ATOM     45  C   LIG d   1       4.336   0.720  -1.782  0.00  0.00    -0.060 A 
ATOM     46  H   LIG d   1       2.582   1.812  -2.319  0.00  0.00     0.064 H 
ATOM     47  C   LIG d   1       5.340  -0.141  -2.203  0.00  0.00    -0.061 A 
ATOM     48  H   LIG d   1       4.321   1.062  -0.757  0.00  0.00     0.062 H 
ATOM     49  H   LIG d   1       6.098  -0.462  -1.505  0.00  0.00     0.062 H 
ATOM     50  H   LIG d   1       6.162  -1.253  -3.816  0.00  0.00     0.062 H 
ENDBRANCH  33  36
ENDBRANCH  30  33
ENDBRANCH  19  30
BRANCH   1  51
ATOM     51  C   LIG d   1       4.137  -4.351 -11.534  0.00  0.00    -0.029 C 
ATOM     52  H   LIG d   1       5.026  -3.727 -11.438  0.00  0.00     0.026 H 
ATOM     53  H   LIG d   1       4.410  -5.396 -11.389  0.00  0.00     0.026 H 
ATOM     54  H   LIG d   1       3.708  -4.221 -12.528  0.00  0.00     0.026 H 
ENDBRANCH   1  51
BRANCH  12  55
ATOM     55  C   LIG d   1       0.171  -7.048 -10.886  0.00  0.00     0.003 A 
ATOM     56  C   LIG d   1      -0.917  -7.704 -10.328  0.00  0.00     0.124 A 
ATOM     57  C   LIG d   1      -1.517  -8.752 -11.010  0.00  0.00    -0.020 A 
ATOM     58  C   LIG d   1      -1.023  -9.148 -12.238  0.00  0.00    -0.058 A 
ATOM     59  H   LIG d   1      -2.366  -9.263 -10.580  0.00  0.00     0.065 H 
ATOM     60  C   LIG d   1       0.065  -8.497 -12.790  0.00  0.00    -0.061 A 
ATOM     61  H   LIG d   1      -1.487  -9.968 -12.768  0.00  0.00     0.062 H 
ATOM     62  C   LIG d   1       0.661  -7.448 -12.115  0.00  0.00    -0.054 A 
ATOM     63  H   LIG d   1       0.450  -8.808 -13.750  0.00  0.00     0.062 H 
ATOM     64  H   LIG d   1       1.510  -6.940 -12.547  0.00  0.00     0.062 H 
BRANCH  56  65
ATOM     65  O   LIG d   1      -1.397  -7.316  -9.117  0.00  0.00    -0.495 OA
BRANCH  65  66
ATOM     66  C   LIG d   1      -2.702  -6.736  -9.093  0.00  0.00     0.079 C 
ATOM     67  H   LIG d   1      -2.723  -5.860  -9.740  0.00  0.00     0.066 H 
ATOM     68  H   LIG d   1      -3.432  -7.466  -9.446  0.00  0.00     0.066 H 
ATOM     69  H   LIG d   1      -2.950  -6.440  -8.073  0.00  0.00     0.066 H 
ENDBRANCH  65  66
ENDBRANCH  56  65
ENDBRANCH  12  55
TORSDOF 7
ENDMDL
MODEL 8
REMARK VINA RESULT:      -7.1      3.117      4.873
REMARK  7 active torsions:
REMARK  status: ('A' for Active; 'I' for Inactive)
REMARK    1  A    between atoms: C_1  and  C_2 
REMARK    2  A    between atoms: C_13  and  C_35 
REMARK    3  A    between atoms: N_20  and  C_23 
REMARK    4  A    between atoms: C_23  and  C_24 
REMARK    5  A    between atoms: C_24  and  C_25 
REMARK    6  A    between atoms: C_40  and  O_41 
REMARK    7  A    between atoms: O_41  and  C_42 
ROOT
ATOM      1  C   LIG d   1       8.452  -0.012  -7.883  0.00  0.00     0.151 C 
ATOM      2  C   LIG d   1       6.951  -0.051  -8.038  0.00  0.00     0.054 A 
ATOM      3  C   LIG d   1       6.098  -0.008  -6.990  0.00  0.00    -0.007 A 
ATOM      4  C   LIG d   1       4.757  -0.074  -7.535  0.00  0.00     0.004 A 
ATOM      5  C   LIG d   1       3.492  -0.069  -6.939  0.00  0.00    -0.052 A 
ATOM      6  C   LIG d   1       2.410  -0.149  -7.781  0.00  0.00    -0.061 A 
ATOM      7  C   LIG d   1       2.552  -0.230  -9.156  0.00  0.00    -0.060 A 
ATOM      8  C   LIG d   1       3.791  -0.236  -9.772  0.00  0.00    -0.038 A 
ATOM      9  C   LIG d   1       4.908  -0.156  -8.943  0.00  0.00     0.047 A 
ATOM     10  N   LIG d   1       6.247  -0.138  -9.210  0.00  0.00    -0.356 N 
ATOM     11  H   LIG d   1       6.640  -0.180 -10.095  0.00  0.00     0.166 HD
ATOM     12  C   LIG d   1       6.519   0.092  -5.547  0.00  0.00     0.031 C 
ATOM     13  H   LIG d   1       6.392   1.117  -5.199  0.00  0.00     0.041 H 
ATOM     14  C   LIG d   1       7.994  -0.310  -5.425  0.00  0.00     0.027 C 
ATOM     15  N   LIG d   1       8.759   0.348  -6.499  0.00  0.00    -0.280 N 
ATOM     16  C   LIG d   1       9.697   1.245  -6.180  0.00  0.00     0.234 C 
ATOM     17  O   LIG d   1       9.982   1.374  -5.008  0.00  0.00    -0.274 OA
ATOM     18  C   LIG d   1      10.418   2.097  -7.174  0.00  0.00     0.091 C 
ATOM     19  N   LIG d   1       9.943   1.879  -8.530  0.00  0.00    -0.290 N 
ATOM     20  C   LIG d   1       9.054   0.954  -8.849  0.00  0.00     0.245 C 
ATOM     21  O   LIG d   1       8.724   0.879 -10.013  0.00  0.00    -0.273 OA
ATOM     22  H   LIG d   1       3.372  -0.006  -5.868  0.00  0.00     0.062 H 
ATOM     23  H   LIG d   1       1.417  -0.148  -7.357  0.00  0.00     0.062 H 
ATOM     24  H   LIG d   1       1.665  -0.291  -9.770  0.00  0.00     0.062 H 
ATOM     25  H   LIG d   1       3.889  -0.301 -10.845  0.00  0.00     0.064 H 
ATOM     26  H   LIG d   1       8.380   0.004  -4.456  0.00  0.00     0.047 H 
ATOM     27  H   LIG d   1       8.086  -1.392  -5.522  0.00  0.00     0.047 H 
ATOM     28  H   LIG d   1      10.273   3.145  -6.912  0.00  0.00     0.056 H 
ATOM     29  H   LIG d   1      11.482   1.866  -7.131  0.00  0.00     0.056 H 
ENDROOT
BRANCH  19  30
ATOM     30  C   LIG d   1      10.465   2.742  -9.593  0.00  0.00     0.019 C 
ATOM     31  H   LIG d   1      11.191   2.188 -10.187  0.00  0.00     0.047 H 
ATOM     32  H   LIG d   1       9.644   3.066 -10.233  0.00  0.00     0.047 H 
BRANCH  30  33
ATOM     33  C   LIG d   1      11.142   3.966  -8.971  0.00  0.00    -0.010 C 
ATOM     34  H   LIG d   1      11.261   3.809  -7.899  0.00  0.00     0.033 H 
ATOM     35  H   LIG d   1      12.120   4.109  -9.428  0.00  0.00     0.033 H 
BRANCH  33  36
ATOM     36  C   LIG d   1      10.291   5.185  -9.210  0.00  0.00    -0.021 A 
ATOM     37  C   LIG d   1      10.031   6.268  -8.257  0.00  0.00     0.003 A 
ATOM     38  C   LIG d   1       9.191   7.179  -8.923  0.00  0.00     0.047 A 
ATOM     39  C   LIG d   1      10.432   6.521  -6.945  0.00  0.00    -0.052 A 
ATOM     40  N   LIG d   1       8.965   6.676 -10.185  0.00  0.00    -0.360 N 
ATOM     41  C   LIG d   1       8.768   8.326  -8.259  0.00  0.00    -0.038 A 
ATOM     42  C   LIG d   1       9.632   5.491 -10.339  0.00  0.00     0.006 A 
ATOM     43  H   LIG d   1       8.417   7.100 -10.863  0.00  0.00     0.165 HD
ATOM     44  H   LIG d   1       9.627   4.889 -11.237  0.00  0.00     0.081 H 
ATOM     45  C   LIG d   1       9.176   8.556  -6.963  0.00  0.00    -0.060 A 
ATOM     46  H   LIG d   1       8.123   9.034  -8.758  0.00  0.00     0.064 H 
ATOM     47  C   LIG d   1      10.004   7.654  -6.311  0.00  0.00    -0.061 A 
ATOM     48  H   LIG d   1       8.847   9.447  -6.450  0.00  0.00     0.062 H 
ATOM     49  H   LIG d   1      10.314   7.849  -5.295  0.00  0.00     0.062 H 
ATOM     50  H   LIG d   1      11.077   5.824  -6.431  0.00  0.00     0.062 H 
ENDBRANCH  33  36
ENDBRANCH  30  33
ENDBRANCH  19  30
BRANCH   1  51
ATOM     51  C   LIG d   1       9.015  -1.407  -8.164  0.00  0.00    -0.029 C 
ATOM     52  H   LIG d   1      10.065  -1.324  -8.448  0.00  0.00     0.026 H 
ATOM     53  H   LIG d   1       8.929  -2.021  -7.268  0.00  0.00     0.026 H 
ATOM     54  H   LIG d   1       8.454  -1.867  -8.977  0.00  0.00     0.026 H 
ENDBRANCH   1  51
BRANCH  12  55
ATOM     55  C   LIG d   1       5.674  -0.832  -4.710  0.00  0.00     0.003 A 
ATOM     56  C   LIG d   1       4.816  -0.312  -3.752  0.00  0.00     0.124 A 
ATOM     57  C   LIG d   1       4.034  -1.166  -2.987  0.00  0.00    -0.020 A 
ATOM     58  C   LIG d   1       4.120  -2.532  -3.173  0.00  0.00    -0.058 A 
ATOM     59  H   LIG d   1       3.362  -0.764  -2.243  0.00  0.00     0.065 H 
ATOM     60  C   LIG d   1       4.981  -3.049  -4.124  0.00  0.00    -0.061 A 
ATOM     61  H   LIG d   1       3.516  -3.198  -2.574  0.00  0.00     0.062 H 
ATOM     62  C   LIG d   1       5.757  -2.200  -4.892  0.00  0.00    -0.054 A 
ATOM     63  H   LIG d   1       5.048  -4.117  -4.268  0.00  0.00     0.062 H 
ATOM     64  H   LIG d   1       6.427  -2.605  -5.634  0.00  0.00     0.062 H 
BRANCH  56  65
ATOM     65  O   LIG d   1       4.736   1.032  -3.567  0.00  0.00    -0.495 OA
BRANCH  65  66
ATOM     66  C   LIG d   1       3.792   1.500  -2.603  0.00  0.00     0.079 C 
ATOM     67  H   LIG d   1       3.916   2.574  -2.464  0.00  0.00     0.066 H 
ATOM     68  H   LIG d   1       2.780   1.293  -2.955  0.00  0.00     0.066 H 
ATOM     69  H   LIG d   1       3.958   0.989  -1.654  0.00  0.00     0.066 H 
ENDBRANCH  65  66
ENDBRANCH  56  65
ENDBRANCH  12  55
TORSDOF 7
ENDMDL
MODEL 9
REMARK VINA RESULT:      -7.0      2.363      9.422
REMARK  7 active torsions:
REMARK  status: ('A' for Active; 'I' for Inactive)
REMARK    1  A    between atoms: C_1  and  C_2 
REMARK    2  A    between atoms: C_13  and  C_35 
REMARK    3  A    between atoms: N_20  and  C_23 
REMARK    4  A    between atoms: C_23  and  C_24 
REMARK    5  A    between atoms: C_24  and  C_25 
REMARK    6  A    between atoms: C_40  and  O_41 
REMARK    7  A    between atoms: O_41  and  C_42 
ROOT
ATOM      1  C   LIG d   1      10.846   3.681  -4.936  0.00  0.00     0.151 C 
ATOM      2  C   LIG d   1      10.632   4.818  -3.966  0.00  0.00     0.054 A 
ATOM      3  C   LIG d   1      10.430   6.096  -4.357  0.00  0.00    -0.007 A 
ATOM      4  C   LIG d   1      10.277   6.887  -3.152  0.00  0.00     0.004 A 
ATOM      5  C   LIG d   1      10.049   8.250  -2.937  0.00  0.00    -0.052 A 
ATOM      6  C   LIG d   1       9.956   8.664  -1.631  0.00  0.00    -0.061 A 
ATOM      7  C   LIG d   1      10.079   7.783  -0.569  0.00  0.00    -0.060 A 
ATOM      8  C   LIG d   1      10.303   6.430  -0.754  0.00  0.00    -0.038 A 
ATOM      9  C   LIG d   1      10.402   5.980  -2.069  0.00  0.00     0.047 A 
ATOM     10  N   LIG d   1      10.615   4.740  -2.598  0.00  0.00    -0.356 N 
ATOM     11  H   LIG d   1      10.735   3.926  -2.084  0.00  0.00     0.166 HD
ATOM     12  C   LIG d   1      10.383   6.555  -5.791  0.00  0.00     0.031 C 
ATOM     13  H   LIG d   1       9.347   6.704  -6.093  0.00  0.00     0.041 H 
ATOM     14  C   LIG d   1      11.028   5.486  -6.682  0.00  0.00     0.027 C 
ATOM     15  N   LIG d   1      10.524   4.161  -6.280  0.00  0.00    -0.280 N 
ATOM     16  C   LIG d   1       9.795   3.448  -7.143  0.00  0.00     0.234 C 
ATOM     17  O   LIG d   1       9.699   3.860  -8.280  0.00  0.00    -0.274 OA
ATOM     18  C   LIG d   1       9.091   2.176  -6.798  0.00  0.00     0.091 C 
ATOM     19  N   LIG d   1       9.244   1.827  -5.396  0.00  0.00    -0.290 N 
ATOM     20  C   LIG d   1      10.009   2.504  -4.557  0.00  0.00     0.245 C 
ATOM     21  O   LIG d   1      10.043   2.125  -3.406  0.00  0.00    -0.273 OA
ATOM     22  H   LIG d   1       9.952   8.943  -3.758  0.00  0.00     0.062 H 
ATOM     23  H   LIG d   1       9.781   9.709  -1.426  0.00  0.00     0.062 H 
ATOM     24  H   LIG d   1       9.997   8.165   0.438  0.00  0.00     0.062 H 
ATOM     25  H   LIG d   1      10.398   5.754   0.083  0.00  0.00     0.064 H 
ATOM     26  H   LIG d   1      10.771   5.675  -7.724  0.00  0.00     0.047 H 
ATOM     27  H   LIG d   1      12.112   5.517  -6.562  0.00  0.00     0.047 H 
ATOM     28  H   LIG d   1       8.030   2.287  -7.022  0.00  0.00     0.056 H 
ATOM     29  H   LIG d   1       9.498   1.370  -7.409  0.00  0.00     0.056 H 
ENDROOT
BRANCH  19  30
ATOM     30  C   LIG d   1       8.496   0.675  -4.884  0.00  0.00     0.019 C 
ATOM     31  H   LIG d   1       9.151  -0.195  -4.847  0.00  0.00     0.047 H 
ATOM     32  H   LIG d   1       8.130   0.897  -3.881  0.00  0.00     0.047 H 
BRANCH  30  33
ATOM     33  C   LIG d   1       7.312   0.383  -5.808  0.00  0.00    -0.010 C 
ATOM     34  H   LIG d   1       6.708   1.284  -5.919  0.00  0.00     0.033 H 
ATOM     35  H   LIG d   1       7.682   0.072  -6.784  0.00  0.00     0.033 H 
BRANCH  33  36
ATOM     36  C   LIG d   1       6.471  -0.716  -5.213  0.00  0.00    -0.021 A 
ATOM     37  C   LIG d   1       5.691  -0.644  -3.975  0.00  0.00     0.003 A 
ATOM     38  C   LIG d   1       5.077  -1.902  -3.829  0.00  0.00     0.047 A 
ATOM     39  C   LIG d   1       5.477   0.350  -3.020  0.00  0.00    -0.052 A 
ATOM     40  N   LIG d   1       5.463  -2.670  -4.905  0.00  0.00    -0.360 N 
ATOM     41  C   LIG d   1       4.260  -2.138  -2.728  0.00  0.00    -0.038 A 
ATOM     42  C   LIG d   1       6.289  -1.945  -5.720  0.00  0.00     0.006 A 
ATOM     43  H   LIG d   1       5.188  -3.586  -5.062  0.00  0.00     0.165 HD
ATOM     44  H   LIG d   1       6.731  -2.310  -6.637  0.00  0.00     0.081 H 
ATOM     45  C   LIG d   1       4.062  -1.141  -1.797  0.00  0.00    -0.060 A 
ATOM     46  H   LIG d   1       3.782  -3.098  -2.604  0.00  0.00     0.064 H 
ATOM     47  C   LIG d   1       4.671   0.097  -1.945  0.00  0.00    -0.061 A 
ATOM     48  H   LIG d   1       3.428  -1.326  -0.943  0.00  0.00     0.062 H 
ATOM     49  H   LIG d   1       4.506   0.867  -1.206  0.00  0.00     0.062 H 
ATOM     50  H   LIG d   1       5.946   1.316  -3.128  0.00  0.00     0.062 H 
ENDBRANCH  33  36
ENDBRANCH  30  33
ENDBRANCH  19  30
BRANCH   1  51
ATOM     51  C   LIG d   1      12.320   3.271  -4.901  0.00  0.00    -0.029 C 
ATOM     52  H   LIG d   1      12.545   2.654  -5.772  0.00  0.00     0.026 H 
ATOM     53  H   LIG d   1      12.946   4.162  -4.916  0.00  0.00     0.026 H 
ATOM     54  H   LIG d   1      12.517   2.702  -3.992  0.00  0.00     0.026 H 
ENDBRANCH   1  51
BRANCH  12  55
ATOM     55  C   LIG d   1      11.140   7.851  -5.931  0.00  0.00     0.003 A 
ATOM     56  C   LIG d   1      10.501   8.979  -6.425  0.00  0.00     0.124 A 
ATOM     57  C   LIG d   1      11.198  10.172  -6.547  0.00  0.00    -0.020 A 
ATOM     58  C   LIG d   1      12.531  10.231  -6.187  0.00  0.00    -0.058 A 
ATOM     59  H   LIG d   1      10.702  11.052  -6.927  0.00  0.00     0.065 H 
ATOM     60  C   LIG d   1      13.168   9.104  -5.700  0.00  0.00    -0.061 A 
ATOM     61  H   LIG d   1      13.076  11.158  -6.286  0.00  0.00     0.062 H 
ATOM     62  C   LIG d   1      12.473   7.915  -5.572  0.00  0.00    -0.054 A 
ATOM     63  H   LIG d   1      14.210   9.152  -5.419  0.00  0.00     0.062 H 
ATOM     64  H   LIG d   1      12.972   7.037  -5.192  0.00  0.00     0.062 H 
BRANCH  56  65
ATOM     65  O   LIG d   1       9.191   8.916  -6.784  0.00  0.00    -0.495 OA
BRANCH  65  66
ATOM     66  C   LIG d   1       8.907   8.684  -8.164  0.00  0.00     0.079 C 
ATOM     67  H   LIG d   1       8.873   9.636  -8.694  0.00  0.00     0.066 H 
ATOM     68  H   LIG d   1       9.687   8.055  -8.595  0.00  0.00     0.066 H 
ATOM     69  H   LIG d   1       7.943   8.181  -8.257  0.00  0.00     0.066 H 
ENDBRANCH  65  66
ENDBRANCH  56  65
ENDBRANCH  12  55
TORSDOF 7
ENDMDL
MODEL 10
REMARK VINA RESULT:      -6.9      2.420      8.996
REMARK  7 active torsions:
REMARK  status: ('A' for Active; 'I' for Inactive)
REMARK    1  A    between atoms: C_1  and  C_2 
REMARK    2  A    between atoms: C_13  and  C_35 
REMARK    3  A    between atoms: N_20  and  C_23 
REMARK    4  A    between atoms: C_23  and  C_24 
REMARK    5  A    between atoms: C_24  and  C_25 
REMARK    6  A    between atoms: C_40  and  O_41 
REMARK    7  A    between atoms: O_41  and  C_42 
ROOT
ATOM      1  C   LIG d   1      10.016   2.815  -6.465  0.00  0.00     0.151 C 
ATOM      2  C   LIG d   1      10.009   3.816  -5.336  0.00  0.00     0.054 A 
ATOM      3  C   LIG d   1       9.768   5.134  -5.517  0.00  0.00    -0.007 A 
ATOM      4  C   LIG d   1       9.855   5.762  -4.214  0.00  0.00     0.004 A 
ATOM      5  C   LIG d   1       9.702   7.086  -3.789  0.00  0.00    -0.052 A 
ATOM      6  C   LIG d   1       9.858   7.327  -2.446  0.00  0.00    -0.061 A 
ATOM      7  C   LIG d   1      10.153   6.317  -1.546  0.00  0.00    -0.060 A 
ATOM      8  C   LIG d   1      10.309   4.999  -1.939  0.00  0.00    -0.038 A 
ATOM      9  C   LIG d   1      10.156   4.723  -3.296  0.00  0.00     0.047 A 
ATOM     10  N   LIG d   1      10.240   3.563  -4.010  0.00  0.00    -0.356 N 
ATOM     11  H   LIG d   1      10.434   2.689  -3.634  0.00  0.00     0.166 HD
ATOM     12  C   LIG d   1       9.470   5.775  -6.847  0.00  0.00     0.031 C 
ATOM     13  H   LIG d   1       8.400   5.960  -6.932  0.00  0.00     0.041 H 
ATOM     14  C   LIG d   1       9.917   4.831  -7.970  0.00  0.00     0.027 C 
ATOM     15  N   LIG d   1       9.465   3.464  -7.654  0.00  0.00    -0.280 N 
ATOM     16  C   LIG d   1       8.574   2.868  -8.452  0.00  0.00     0.234 C 
ATOM     17  O   LIG d   1       8.282   3.423  -9.490  0.00  0.00    -0.274 OA
ATOM     18  C   LIG d   1       7.917   1.561  -8.148  0.00  0.00     0.091 C 
ATOM     19  N   LIG d   1       8.315   1.034  -6.854  0.00  0.00    -0.290 N 
ATOM     20  C   LIG d   1       9.236   1.598  -6.092  0.00  0.00     0.245 C 
ATOM     21  O   LIG d   1       9.472   1.073  -5.024  0.00  0.00    -0.273 OA
ATOM     22  H   LIG d   1       9.472   7.879  -4.483  0.00  0.00     0.062 H 
ATOM     23  H   LIG d   1       9.747   8.337  -2.081  0.00  0.00     0.062 H 
ATOM     24  H   LIG d   1      10.265   6.565  -0.500  0.00  0.00     0.062 H 
ATOM     25  H   LIG d   1      10.540   4.221  -1.228  0.00  0.00     0.064 H 
ATOM     26  H   LIG d   1       9.477   5.152  -8.915  0.00  0.00     0.047 H 
ATOM     27  H   LIG d   1      11.004   4.847  -8.050  0.00  0.00     0.047 H 
ATOM     28  H   LIG d   1       6.835   1.699  -8.157  0.00  0.00     0.056 H 
ATOM     29  H   LIG d   1       8.187   0.841  -8.921  0.00  0.00     0.056 H 
ENDROOT
BRANCH  19  30
ATOM     30  C   LIG d   1       7.648  -0.175  -6.364  0.00  0.00     0.019 C 
ATOM     31  H   LIG d   1       8.104  -1.053  -6.823  0.00  0.00     0.047 H 
ATOM     32  H   LIG d   1       7.755  -0.235  -5.281  0.00  0.00     0.047 H 
BRANCH  30  33
ATOM     33  C   LIG d   1       6.163  -0.123  -6.729  0.00  0.00    -0.010 C 
ATOM     34  H   LIG d   1       5.792   0.894  -6.595  0.00  0.00     0.033 H 
ATOM     35  H   LIG d   1       6.034  -0.422  -7.769  0.00  0.00     0.033 H 
BRANCH  33  36
ATOM     36  C   LIG d   1       5.393  -1.061  -5.836  0.00  0.00    -0.021 A 
ATOM     37  C   LIG d   1       5.104  -0.869  -4.413  0.00  0.00     0.003 A 
ATOM     38  C   LIG d   1       4.364  -1.996  -4.011  0.00  0.00     0.047 A 
ATOM     39  C   LIG d   1       5.405   0.132  -3.489  0.00  0.00    -0.052 A 
ATOM     40  N   LIG d   1       4.221  -2.804  -5.117  0.00  0.00    -0.360 N 
ATOM     41  C   LIG d   1       3.941  -2.097  -2.690  0.00  0.00    -0.038 A 
ATOM     42  C   LIG d   1       4.837  -2.228  -6.195  0.00  0.00     0.006 A 
ATOM     43  H   LIG d   1       3.753  -3.652  -5.130  0.00  0.00     0.165 HD
ATOM     44  H   LIG d   1       4.871  -2.652  -7.189  0.00  0.00     0.081 H 
ATOM     45  C   LIG d   1       4.249  -1.097  -1.794  0.00  0.00    -0.060 A 
ATOM     46  H   LIG d   1       3.372  -2.957  -2.368  0.00  0.00     0.064 H 
ATOM     47  C   LIG d   1       4.980   0.012  -2.195  0.00  0.00    -0.061 A 
ATOM     48  H   LIG d   1       3.919  -1.177  -0.768  0.00  0.00     0.062 H 
ATOM     49  H   LIG d   1       5.213   0.788  -1.480  0.00  0.00     0.062 H 
ATOM     50  H   LIG d   1       5.973   0.999  -3.793  0.00  0.00     0.062 H 
ENDBRANCH  33  36
ENDBRANCH  30  33
ENDBRANCH  19  30
BRANCH   1  51
ATOM     51  C   LIG d   1      11.461   2.405  -6.755  0.00  0.00    -0.029 C 
ATOM     52  H   LIG d   1      11.538   2.049  -7.783  0.00  0.00     0.026 H 
ATOM     53  H   LIG d   1      12.118   3.265  -6.619  0.00  0.00     0.026 H 
ATOM     54  H   LIG d   1      11.757   1.609  -6.072  0.00  0.00     0.026 H 
ENDBRANCH   1  51
BRANCH  12  55
ATOM     55  C   LIG d   1      10.218   7.078  -6.958  0.00  0.00     0.003 A 
ATOM     56  C   LIG d   1      11.605   7.086  -6.954  0.00  0.00     0.124 A 
ATOM     57  C   LIG d   1      12.291   8.287  -7.063  0.00  0.00    -0.020 A 
ATOM     58  C   LIG d   1      11.591   9.474  -7.162  0.00  0.00    -0.058 A 
ATOM     59  H   LIG d   1      13.371   8.296  -7.065  0.00  0.00     0.065 H 
ATOM     60  C   LIG d   1      10.208   9.465  -7.160  0.00  0.00    -0.061 A 
ATOM     61  H   LIG d   1      12.124  10.410  -7.241  0.00  0.00     0.062 H 
ATOM     62  C   LIG d   1       9.522   8.268  -7.057  0.00  0.00    -0.054 A 
ATOM     63  H   LIG d   1       9.662  10.394  -7.237  0.00  0.00     0.062 H 
ATOM     64  H   LIG d   1       8.443   8.263  -7.056  0.00  0.00     0.062 H 
BRANCH  56  65
ATOM     65  O   LIG d   1      12.292   5.917  -6.851  0.00  0.00    -0.495 OA
BRANCH  65  66
ATOM     66  C   LIG d   1      13.553   5.845  -7.518  0.00  0.00     0.079 C 
ATOM     67  H   LIG d   1      13.736   6.778  -8.051  0.00  0.00     0.066 H 
ATOM     68  H   LIG d   1      14.344   5.685  -6.783  0.00  0.00     0.066 H 
ATOM     69  H   LIG d   1      13.543   5.017  -8.227  0.00  0.00     0.066 H 
ENDBRANCH  65  66
ENDBRANCH  56  65
ENDBRANCH  12  55
TORSDOF 7
ENDMDL
