MODEL 1
REMARK VINA RESULT:      -4.9      0.000      0.000
REMARK  5 active torsions:
REMARK  status: ('A' for Active; 'I' for Inactive)
REMARK    1  A    between atoms: C_1  and  C_2 
REMARK    2  A    between atoms: C_4  and  C_10 
REMARK    3  A    between atoms: C_5  and  C_8 
REMARK    4  A    between atoms: C_8  and  O_9 
REMARK    5  A    between atoms: N_11  and  O_12 
ROOT
ATOM      1  C   LIG d   1       4.949  -2.795  -4.069  0.00  0.00     0.172 A 
ATOM      2  C   LIG d   1       5.911  -1.804  -4.200  0.00  0.00    -0.030 A 
ATOM      3  C   LIG d   1       5.810  -0.653  -3.402  0.00  0.00     0.005 A 
ATOM      4  C   LIG d   1       4.737  -0.563  -2.506  0.00  0.00     0.049 A 
ATOM      5  C   LIG d   1       3.828  -1.599  -2.445  0.00  0.00     0.176 A 
ATOM      6  N   LIG d   1       3.954  -2.661  -3.216  0.00  0.00    -0.215 N 
ATOM      7  O   LIG d   1       6.932  -1.944  -5.084  0.00  0.00    -0.869 OA
ATOM      8  H   LIG d   1       2.998  -1.536  -1.756  0.00  0.00     0.138 H 
ATOM      9  H   LIG d   1       3.295  -3.369  -3.150  0.00  0.00     0.453 HD
ENDROOT
BRANCH   3  10
ATOM     10  C   LIG d   1       6.808   0.430  -3.502  0.00  0.00     0.074 C 
ATOM     11  N   LIG d   1       6.721   1.303  -4.453  0.00  0.00    -0.095 NA
ATOM     12  H   LIG d   1       7.610   0.493  -2.783  0.00  0.00     0.087 H 
BRANCH  11  13
ATOM     13  O   LIG d   1       7.678   2.342  -4.549  0.00  0.00    -0.409 OA
ATOM     14  H   LIG d   1       8.505   2.077  -4.974  0.00  0.00     0.328 HD
ENDBRANCH  11  13
ENDBRANCH   3  10
BRANCH   4  15
ATOM     15  C   LIG d   1       4.578   0.647  -1.624  0.00  0.00     0.075 C 
ATOM     16  H   LIG d   1       4.452   0.328  -0.588  0.00  0.00     0.061 H 
ATOM     17  H   LIG d   1       5.464   1.275  -1.704  0.00  0.00     0.061 H 
BRANCH  15  18
ATOM     18  O   LIG d   1       3.428   1.390  -2.036  0.00  0.00    -0.390 OA
ATOM     19  H   LIG d   1       3.637   2.236  -2.455  0.00  0.00     0.210 HD
ENDBRANCH  15  18
ENDBRANCH   4  15
BRANCH   1  20
ATOM     20  C   LIG d   1       5.041  -4.036  -4.919  0.00  0.00     0.020 C 
ATOM     21  H   LIG d   1       4.158  -4.108  -5.554  0.00  0.00     0.034 H 
ATOM     22  H   LIG d   1       5.934  -3.986  -5.541  0.00  0.00     0.034 H 
ATOM     23  H   LIG d   1       5.097  -4.914  -4.274  0.00  0.00     0.034 H 
ENDBRANCH   1  20
TORSDOF 5
ENDMDL
MODEL 2
REMARK VINA RESULT:      -4.8      7.741      9.654
REMARK  5 active torsions:
REMARK  status: ('A' for Active; 'I' for Inactive)
REMARK    1  A    between atoms: C_1  and  C_2 
REMARK    2  A    between atoms: C_4  and  C_10 
REMARK    3  A    between atoms: C_5  and  C_8 
REMARK    4  A    between atoms: C_8  and  O_9 
REMARK    5  A    between atoms: N_11  and  O_12 
ROOT
ATOM      1  C   LIG d   1      10.699   4.793  -1.723  0.00  0.00     0.172 A 
ATOM      2  C   LIG d   1      10.144   6.043  -1.955  0.00  0.00    -0.030 A 
ATOM      3  C   LIG d   1      10.338   7.057  -1.003  0.00  0.00     0.005 A 
ATOM      4  C   LIG d   1      11.088   6.754   0.140  0.00  0.00     0.049 A 
ATOM      5  C   LIG d   1      11.602   5.483   0.286  0.00  0.00     0.176 A 
ATOM      6  N   LIG d   1      11.393   4.555  -0.628  0.00  0.00    -0.215 N 
ATOM      7  O   LIG d   1       9.425   6.281  -3.082  0.00  0.00    -0.869 OA
ATOM      8  H   LIG d   1      12.182   5.242   1.165  0.00  0.00     0.138 H 
ATOM      9  H   LIG d   1      11.765   3.670  -0.492  0.00  0.00     0.453 HD
ENDROOT
BRANCH   3  10
ATOM     10  C   LIG d   1       9.768   8.404  -1.202  0.00  0.00     0.074 C 
ATOM     11  N   LIG d   1       8.551   8.652  -0.840  0.00  0.00    -0.095 NA
ATOM     12  H   LIG d   1      10.367   9.182  -1.650  0.00  0.00     0.087 H 
BRANCH  11  13
ATOM     13  O   LIG d   1       8.005   9.944  -1.031  0.00  0.00    -0.409 OA
ATOM     14  H   LIG d   1       7.121  10.057  -0.655  0.00  0.00     0.328 HD
ENDBRANCH  11  13
ENDBRANCH   3  10
BRANCH   4  15
ATOM     15  C   LIG d   1      11.330   7.802   1.196  0.00  0.00     0.075 C 
ATOM     16  H   LIG d   1      12.282   8.298   1.004  0.00  0.00     0.061 H 
ATOM     17  H   LIG d   1      10.526   8.537   1.169  0.00  0.00     0.061 H 
BRANCH  15  18
ATOM     18  O   LIG d   1      11.367   7.183   2.483  0.00  0.00    -0.390 OA
ATOM     19  H   LIG d   1      10.904   7.679   3.172  0.00  0.00     0.210 HD
ENDBRANCH  15  18
ENDBRANCH   4  15
BRANCH   1  20
ATOM     20  C   LIG d   1      10.500   3.692  -2.733  0.00  0.00     0.020 C 
ATOM     21  H   LIG d   1       9.460   3.370  -2.719  0.00  0.00     0.034 H 
ATOM     22  H   LIG d   1      10.754   4.061  -3.727  0.00  0.00     0.034 H 
ATOM     23  H   LIG d   1      11.146   2.850  -2.482  0.00  0.00     0.034 H 
ENDBRANCH   1  20
TORSDOF 5
ENDMDL
MODEL 3
REMARK VINA RESULT:      -4.6      2.802      4.376
REMARK  5 active torsions:
REMARK  status: ('A' for Active; 'I' for Inactive)
REMARK    1  A    between atoms: C_1  and  C_2 
REMARK    2  A    between atoms: C_4  and  C_10 
REMARK    3  A    between atoms: C_5  and  C_8 
REMARK    4  A    between atoms: C_8  and  O_9 
REMARK    5  A    between atoms: N_11  and  O_12 
ROOT
ATOM      1  C   LIG d   1       4.615  -0.044  -2.809  0.00  0.00     0.172 A 
ATOM      2  C   LIG d   1       3.937   0.347  -3.954  0.00  0.00    -0.030 A 
ATOM      3  C   LIG d   1       3.957  -0.500  -5.075  0.00  0.00     0.005 A 
ATOM      4  C   LIG d   1       4.663  -1.705  -4.978  0.00  0.00     0.049 A 
ATOM      5  C   LIG d   1       5.309  -2.010  -3.798  0.00  0.00     0.176 A 
ATOM      6  N   LIG d   1       5.271  -1.185  -2.770  0.00  0.00    -0.215 N 
ATOM      7  O   LIG d   1       3.267   1.527  -3.992  0.00  0.00    -0.869 OA
ATOM      8  H   LIG d   1       5.855  -2.939  -3.717  0.00  0.00     0.138 H 
ATOM      9  H   LIG d   1       5.739  -1.430  -1.956  0.00  0.00     0.453 HD
ENDROOT
BRANCH   3  10
ATOM     10  C   LIG d   1       3.252  -0.131  -6.318  0.00  0.00     0.074 C 
ATOM     11  N   LIG d   1       3.818   0.658  -7.173  0.00  0.00    -0.095 NA
ATOM     12  H   LIG d   1       2.263  -0.517  -6.512  0.00  0.00     0.087 H 
BRANCH  11  13
ATOM     13  O   LIG d   1       3.141   1.011  -8.365  0.00  0.00    -0.409 OA
ATOM     14  H   LIG d   1       2.780   0.257  -8.851  0.00  0.00     0.328 HD
ENDBRANCH  11  13
ENDBRANCH   3  10
BRANCH   4  15
ATOM     15  C   LIG d   1       4.719  -2.653  -6.148  0.00  0.00     0.075 C 
ATOM     16  H   LIG d   1       4.349  -2.150  -7.042  0.00  0.00     0.061 H 
ATOM     17  H   LIG d   1       5.749  -2.971  -6.309  0.00  0.00     0.061 H 
BRANCH  15  18
ATOM     18  O   LIG d   1       3.905  -3.796  -5.874  0.00  0.00    -0.390 OA
ATOM     19  H   LIG d   1       3.098  -3.595  -5.381  0.00  0.00     0.210 HD
ENDBRANCH  15  18
ENDBRANCH   4  15
BRANCH   1  20
ATOM     20  C   LIG d   1       4.606   0.853  -1.598  0.00  0.00     0.020 C 
ATOM     21  H   LIG d   1       3.988   1.727  -1.797  0.00  0.00     0.034 H 
ATOM     22  H   LIG d   1       4.200   0.308  -0.745  0.00  0.00     0.034 H 
ATOM     23  H   LIG d   1       5.625   1.171  -1.374  0.00  0.00     0.034 H 
ENDBRANCH   1  20
TORSDOF 5
ENDMDL
MODEL 4
REMARK VINA RESULT:      -4.4      2.477      2.897
REMARK  5 active torsions:
REMARK  status: ('A' for Active; 'I' for Inactive)
REMARK    1  A    between atoms: C_1  and  C_2 
REMARK    2  A    between atoms: C_4  and  C_10 
REMARK    3  A    between atoms: C_5  and  C_8 
REMARK    4  A    between atoms: C_8  and  O_9 
REMARK    5  A    between atoms: N_11  and  O_12 
ROOT
ATOM      1  C   LIG d   1       3.495  -0.214  -5.949  0.00  0.00     0.172 A 
ATOM      2  C   LIG d   1       4.791  -0.530  -5.569  0.00  0.00    -0.030 A 
ATOM      3  C   LIG d   1       5.113  -0.538  -4.203  0.00  0.00     0.005 A 
ATOM      4  C   LIG d   1       4.103  -0.227  -3.285  0.00  0.00     0.049 A 
ATOM      5  C   LIG d   1       2.841   0.075  -3.754  0.00  0.00     0.176 A 
ATOM      6  N   LIG d   1       2.580   0.078  -5.047  0.00  0.00    -0.215 N 
ATOM      7  O   LIG d   1       5.732  -0.824  -6.503  0.00  0.00    -0.869 OA
ATOM      8  H   LIG d   1       2.057   0.315  -3.051  0.00  0.00     0.138 H 
ATOM      9  H   LIG d   1       1.683   0.298  -5.343  0.00  0.00     0.453 HD
ENDROOT
BRANCH   3  10
ATOM     10  C   LIG d   1       6.478  -0.867  -3.746  0.00  0.00     0.074 C 
ATOM     11  N   LIG d   1       6.807  -2.099  -3.527  0.00  0.00    -0.095 NA
ATOM     12  H   LIG d   1       7.201  -0.080  -3.594  0.00  0.00     0.087 H 
BRANCH  11  13
ATOM     13  O   LIG d   1       8.116  -2.414  -3.090  0.00  0.00    -0.409 OA
ATOM     14  H   LIG d   1       8.702  -2.725  -3.794  0.00  0.00     0.328 HD
ENDBRANCH  11  13
ENDBRANCH   3  10
BRANCH   4  15
ATOM     15  C   LIG d   1       4.389  -0.221  -1.805  0.00  0.00     0.075 C 
ATOM     16  H   LIG d   1       3.499  -0.539  -1.262  0.00  0.00     0.061 H 
ATOM     17  H   LIG d   1       5.210  -0.905  -1.591  0.00  0.00     0.061 H 
BRANCH  15  18
ATOM     18  O   LIG d   1       4.750   1.100  -1.395  0.00  0.00    -0.390 OA
ATOM     19  H   LIG d   1       4.855   1.200  -0.439  0.00  0.00     0.210 HD
ENDBRANCH  15  18
ENDBRANCH   4  15
BRANCH   1  20
ATOM     20  C   LIG d   1       3.131  -0.199  -7.411  0.00  0.00     0.020 C 
ATOM     21  H   LIG d   1       3.109  -1.220  -7.791  0.00  0.00     0.034 H 
ATOM     22  H   LIG d   1       2.149   0.257  -7.537  0.00  0.00     0.034 H 
ATOM     23  H   LIG d   1       3.873   0.378  -7.964  0.00  0.00     0.034 H 
ENDBRANCH   1  20
TORSDOF 5
ENDMDL
MODEL 5
REMARK VINA RESULT:      -4.3      2.609      5.214
REMARK  5 active torsions:
REMARK  status: ('A' for Active; 'I' for Inactive)
REMARK    1  A    between atoms: C_1  and  C_2 
REMARK    2  A    between atoms: C_4  and  C_10 
REMARK    3  A    between atoms: C_5  and  C_8 
REMARK    4  A    between atoms: C_8  and  O_9 
REMARK    5  A    between atoms: N_11  and  O_12 
ROOT
ATOM      1  C   LIG d   1       5.683  -1.017  -3.076  0.00  0.00     0.172 A 
ATOM      2  C   LIG d   1       4.900  -2.052  -3.565  0.00  0.00    -0.030 A 
ATOM      3  C   LIG d   1       5.521  -3.094  -4.273  0.00  0.00     0.005 A 
ATOM      4  C   LIG d   1       6.908  -3.037  -4.450  0.00  0.00     0.049 A 
ATOM      5  C   LIG d   1       7.606  -1.968  -3.928  0.00  0.00     0.176 A 
ATOM      6  N   LIG d   1       6.986  -1.005  -3.274  0.00  0.00    -0.215 N 
ATOM      7  O   LIG d   1       3.557  -2.057  -3.364  0.00  0.00    -0.869 OA
ATOM      8  H   LIG d   1       8.677  -1.918  -4.060  0.00  0.00     0.138 H 
ATOM      9  H   LIG d   1       7.507  -0.266  -2.923  0.00  0.00     0.453 HD
ENDROOT
BRANCH   3  10
ATOM     10  C   LIG d   1       4.733  -4.219  -4.815  0.00  0.00     0.074 C 
ATOM     11  N   LIG d   1       3.994  -4.045  -5.863  0.00  0.00    -0.095 NA
ATOM     12  H   LIG d   1       4.771  -5.185  -4.335  0.00  0.00     0.087 H 
BRANCH  11  13
ATOM     13  O   LIG d   1       3.239  -5.124  -6.382  0.00  0.00    -0.409 OA
ATOM     14  H   LIG d   1       3.326  -5.944  -5.877  0.00  0.00     0.328 HD
ENDBRANCH  11  13
ENDBRANCH   3  10
BRANCH   4  15
ATOM     15  C   LIG d   1       7.629  -4.127  -5.201  0.00  0.00     0.075 C 
ATOM     16  H   LIG d   1       6.901  -4.825  -5.615  0.00  0.00     0.061 H 
ATOM     17  H   LIG d   1       8.211  -3.687  -6.010  0.00  0.00     0.061 H 
BRANCH  15  18
ATOM     18  O   LIG d   1       8.502  -4.823  -4.309  0.00  0.00    -0.390 OA
ATOM     19  H   LIG d   1       9.065  -5.479  -4.743  0.00  0.00     0.210 HD
ENDBRANCH  15  18
ENDBRANCH   4  15
BRANCH   1  20
ATOM     20  C   LIG d   1       5.035   0.110  -2.315  0.00  0.00     0.020 C 
ATOM     21  H   LIG d   1       5.224  -0.015  -1.249  0.00  0.00     0.034 H 
ATOM     22  H   LIG d   1       5.451   1.061  -2.649  0.00  0.00     0.034 H 
ATOM     23  H   LIG d   1       3.960   0.100  -2.497  0.00  0.00     0.034 H 
ENDBRANCH   1  20
TORSDOF 5
ENDMDL
MODEL 6
REMARK VINA RESULT:      -4.3     11.213     13.178
REMARK  5 active torsions:
REMARK  status: ('A' for Active; 'I' for Inactive)
REMARK    1  A    between atoms: C_1  and  C_2 
REMARK    2  A    between atoms: C_4  and  C_10 
REMARK    3  A    between atoms: C_5  and  C_8 
REMARK    4  A    between atoms: C_8  and  O_9 
REMARK    5  A    between atoms: N_11  and  O_12 
ROOT
ATOM      1  C   LIG d   1       9.463  10.583  -3.939  0.00  0.00     0.172 A 
ATOM      2  C   LIG d   1       9.701  11.577  -4.878  0.00  0.00    -0.030 A 
ATOM      3  C   LIG d   1       9.831  11.215  -6.228  0.00  0.00     0.005 A 
ATOM      4  C   LIG d   1       9.713   9.860  -6.563  0.00  0.00     0.049 A 
ATOM      5  C   LIG d   1       9.477   8.941  -5.562  0.00  0.00     0.176 A 
ATOM      6  N   LIG d   1       9.366   9.320  -4.303  0.00  0.00    -0.215 N 
ATOM      7  O   LIG d   1       9.806  12.876  -4.497  0.00  0.00    -0.869 OA
ATOM      8  H   LIG d   1       9.384   7.895  -5.813  0.00  0.00     0.138 H 
ATOM      9  H   LIG d   1       9.203   8.648  -3.623  0.00  0.00     0.453 HD
ENDROOT
BRANCH   3  10
ATOM     10  C   LIG d   1      10.085  12.233  -7.266  0.00  0.00     0.074 C 
ATOM     11  N   LIG d   1       9.108  12.953  -7.718  0.00  0.00    -0.095 NA
ATOM     12  H   LIG d   1      11.084  12.377  -7.649  0.00  0.00     0.087 H 
BRANCH  11  13
ATOM     13  O   LIG d   1       9.352  13.929  -8.713  0.00  0.00    -0.409 OA
ATOM     14  H   LIG d   1       9.133  13.640  -9.610  0.00  0.00     0.328 HD
ENDBRANCH  11  13
ENDBRANCH   3  10
BRANCH   4  15
ATOM     15  C   LIG d   1       9.844   9.413  -7.996  0.00  0.00     0.075 C 
ATOM     16  H   LIG d   1      10.371  10.177  -8.568  0.00  0.00     0.061 H 
ATOM     17  H   LIG d   1      10.403   8.479  -8.035  0.00  0.00     0.061 H 
BRANCH  15  18
ATOM     18  O   LIG d   1       8.543   9.213  -8.553  0.00  0.00    -0.390 OA
ATOM     19  H   LIG d   1       8.180   8.330  -8.398  0.00  0.00     0.210 HD
ENDBRANCH  15  18
ENDBRANCH   4  15
BRANCH   1  20
ATOM     20  C   LIG d   1       9.321  10.953  -2.485  0.00  0.00     0.020 C 
ATOM     21  H   LIG d   1       8.903  10.110  -1.936  0.00  0.00     0.034 H 
ATOM     22  H   LIG d   1      10.300  11.203  -2.077  0.00  0.00     0.034 H 
ATOM     23  H   LIG d   1       8.658  11.813  -2.393  0.00  0.00     0.034 H 
ENDBRANCH   1  20
TORSDOF 5
ENDMDL
MODEL 7
REMARK VINA RESULT:      -4.2     10.445     11.907
REMARK  5 active torsions:
REMARK  status: ('A' for Active; 'I' for Inactive)
REMARK    1  A    between atoms: C_1  and  C_2 
REMARK    2  A    between atoms: C_4  and  C_10 
REMARK    3  A    between atoms: C_5  and  C_8 
REMARK    4  A    between atoms: C_8  and  O_9 
REMARK    5  A    between atoms: N_11  and  O_12 
ROOT
ATOM      1  C   LIG d   1      10.790   7.033   0.338  0.00  0.00     0.172 A 
ATOM      2  C   LIG d   1      11.211   8.301   0.710  0.00  0.00    -0.030 A 
ATOM      3  C   LIG d   1      10.765   9.407  -0.031  0.00  0.00     0.005 A 
ATOM      4  C   LIG d   1       9.910   9.174  -1.115  0.00  0.00     0.049 A 
ATOM      5  C   LIG d   1       9.544   7.877  -1.412  0.00  0.00     0.176 A 
ATOM      6  N   LIG d   1       9.989   6.864  -0.694  0.00  0.00    -0.215 N 
ATOM      7  O   LIG d   1      12.040   8.470   1.772  0.00  0.00    -0.869 OA
ATOM      8  H   LIG d   1       8.885   7.690  -2.247  0.00  0.00     0.138 H 
ATOM      9  H   LIG d   1       9.715   5.965  -0.933  0.00  0.00     0.453 HD
ENDROOT
BRANCH   3  10
ATOM     10  C   LIG d   1      11.184  10.778   0.323  0.00  0.00     0.074 C 
ATOM     11  N   LIG d   1      10.475  11.477   1.150  0.00  0.00    -0.095 NA
ATOM     12  H   LIG d   1      12.080  11.197  -0.108  0.00  0.00     0.087 H 
BRANCH  11  13
ATOM     13  O   LIG d   1      10.877  12.791   1.489  0.00  0.00    -0.409 OA
ATOM     14  H   LIG d   1      10.273  13.480   1.180  0.00  0.00     0.328 HD
ENDBRANCH  11  13
ENDBRANCH   3  10
BRANCH   4  15
ATOM     15  C   LIG d   1       9.400  10.322  -1.947  0.00  0.00     0.075 C 
ATOM     16  H   LIG d   1       9.941  11.231  -1.683  0.00  0.00     0.061 H 
ATOM     17  H   LIG d   1       9.553  10.102  -3.003  0.00  0.00     0.061 H 
BRANCH  15  18
ATOM     18  O   LIG d   1       8.005  10.509  -1.697  0.00  0.00    -0.390 OA
ATOM     19  H   LIG d   1       7.440  10.315  -2.457  0.00  0.00     0.210 HD
ENDBRANCH  15  18
ENDBRANCH   4  15
BRANCH   1  20
ATOM     20  C   LIG d   1      11.259   5.834   1.122  0.00  0.00     0.020 C 
ATOM     21  H   LIG d   1      10.405   5.358   1.603  0.00  0.00     0.034 H 
ATOM     22  H   LIG d   1      11.738   5.125   0.448  0.00  0.00     0.034 H 
ATOM     23  H   LIG d   1      11.973   6.154   1.881  0.00  0.00     0.034 H 
ENDBRANCH   1  20
TORSDOF 5
ENDMDL
MODEL 8
REMARK VINA RESULT:      -4.2      8.942     10.666
REMARK  5 active torsions:
REMARK  status: ('A' for Active; 'I' for Inactive)
REMARK    1  A    between atoms: C_1  and  C_2 
REMARK    2  A    between atoms: C_4  and  C_10 
REMARK    3  A    between atoms: C_5  and  C_8 
REMARK    4  A    between atoms: C_8  and  O_9 
REMARK    5  A    between atoms: N_11  and  O_12 
ROOT
ATOM      1  C   LIG d   1      10.712   5.853  -1.340  0.00  0.00     0.172 A 
ATOM      2  C   LIG d   1      11.385   6.552  -0.349  0.00  0.00    -0.030 A 
ATOM      3  C   LIG d   1      10.939   7.840  -0.008  0.00  0.00     0.005 A 
ATOM      4  C   LIG d   1       9.830   8.356  -0.689  0.00  0.00     0.049 A 
ATOM      5  C   LIG d   1       9.224   7.587  -1.661  0.00  0.00     0.176 A 
ATOM      6  N   LIG d   1       9.676   6.384  -1.957  0.00  0.00    -0.215 N 
ATOM      7  O   LIG d   1      12.455   6.003   0.280  0.00  0.00    -0.869 OA
ATOM      8  H   LIG d   1       8.367   7.979  -2.189  0.00  0.00     0.138 H 
ATOM      9  H   LIG d   1       9.228   5.872  -2.648  0.00  0.00     0.453 HD
ENDROOT
BRANCH   3  10
ATOM     10  C   LIG d   1      11.620   8.626   1.040  0.00  0.00     0.074 C 
ATOM     11  N   LIG d   1      11.563   8.243   2.275  0.00  0.00    -0.095 NA
ATOM     12  H   LIG d   1      12.163   9.521   0.776  0.00  0.00     0.087 H 
BRANCH  11  13
ATOM     13  O   LIG d   1      12.216   8.998   3.279  0.00  0.00    -0.409 OA
ATOM     14  H   LIG d   1      12.453   9.894   3.005  0.00  0.00     0.328 HD
ENDBRANCH  11  13
ENDBRANCH   3  10
BRANCH   4  15
ATOM     15  C   LIG d   1       9.306   9.731  -0.365  0.00  0.00     0.075 C 
ATOM     16  H   LIG d   1       9.081   9.793   0.700  0.00  0.00     0.061 H 
ATOM     17  H   LIG d   1      10.059  10.476  -0.621  0.00  0.00     0.061 H 
BRANCH  15  18
ATOM     18  O   LIG d   1       8.117   9.978  -1.119  0.00  0.00    -0.390 OA
ATOM     19  H   LIG d   1       8.054  10.877  -1.469  0.00  0.00     0.210 HD
ENDBRANCH  15  18
ENDBRANCH   4  15
BRANCH   1  20
ATOM     20  C   LIG d   1      11.177   4.470  -1.720  0.00  0.00     0.020 C 
ATOM     21  H   LIG d   1      11.009   3.789  -0.887  0.00  0.00     0.034 H 
ATOM     22  H   LIG d   1      10.618   4.126  -2.590  0.00  0.00     0.034 H 
ATOM     23  H   LIG d   1      12.240   4.498  -1.959  0.00  0.00     0.034 H 
ENDBRANCH   1  20
TORSDOF 5
ENDMDL
MODEL 9
REMARK VINA RESULT:      -4.1      2.179      3.450
REMARK  5 active torsions:
REMARK  status: ('A' for Active; 'I' for Inactive)
REMARK    1  A    between atoms: C_1  and  C_2 
REMARK    2  A    between atoms: C_4  and  C_10 
REMARK    3  A    between atoms: C_5  and  C_8 
REMARK    4  A    between atoms: C_8  and  O_9 
REMARK    5  A    between atoms: N_11  and  O_12 
ROOT
ATOM      1  C   LIG d   1       8.069  -0.525  -4.445  0.00  0.00     0.172 A 
ATOM      2  C   LIG d   1       7.180   0.476  -4.081  0.00  0.00    -0.030 A 
ATOM      3  C   LIG d   1       6.036   0.130  -3.343  0.00  0.00     0.005 A 
ATOM      4  C   LIG d   1       5.851  -1.217  -3.007  0.00  0.00     0.049 A 
ATOM      5  C   LIG d   1       6.788  -2.144  -3.412  0.00  0.00     0.176 A 
ATOM      6  N   LIG d   1       7.847  -1.780  -4.110  0.00  0.00    -0.215 N 
ATOM      7  O   LIG d   1       7.410   1.766  -4.434  0.00  0.00    -0.869 OA
ATOM      8  H   LIG d   1       6.652  -3.184  -3.155  0.00  0.00     0.138 H 
ATOM      9  H   LIG d   1       8.485  -2.458  -4.381  0.00  0.00     0.453 HD
ENDROOT
BRANCH   3  10
ATOM     10  C   LIG d   1       5.059   1.156  -2.931  0.00  0.00     0.074 C 
ATOM     11  N   LIG d   1       4.034   1.411  -3.680  0.00  0.00    -0.095 NA
ATOM     12  H   LIG d   1       5.200   1.696  -2.007  0.00  0.00     0.087 H 
BRANCH  11  13
ATOM     13  O   LIG d   1       3.097   2.395  -3.284  0.00  0.00    -0.409 OA
ATOM     14  H   LIG d   1       3.223   3.252  -3.714  0.00  0.00     0.328 HD
ENDBRANCH  11  13
ENDBRANCH   3  10
BRANCH   4  15
ATOM     15  C   LIG d   1       4.643  -1.647  -2.215  0.00  0.00     0.075 C 
ATOM     16  H   LIG d   1       4.965  -2.215  -1.341  0.00  0.00     0.061 H 
ATOM     17  H   LIG d   1       4.088  -0.767  -1.891  0.00  0.00     0.061 H 
BRANCH  15  18
ATOM     18  O   LIG d   1       3.804  -2.466  -3.032  0.00  0.00    -0.390 OA
ATOM     19  H   LIG d   1       3.333  -3.156  -2.545  0.00  0.00     0.210 HD
ENDBRANCH  15  18
ENDBRANCH   4  15
BRANCH   1  20
ATOM     20  C   LIG d   1       9.301  -0.173  -5.239  0.00  0.00     0.020 C 
ATOM     21  H   LIG d   1       9.717  -1.076  -5.683  0.00  0.00     0.034 H 
ATOM     22  H   LIG d   1       9.036   0.531  -6.027  0.00  0.00     0.034 H 
ATOM     23  H   LIG d   1      10.040   0.282  -4.578  0.00  0.00     0.034 H 
ENDBRANCH   1  20
TORSDOF 5
ENDMDL
MODEL 10
REMARK VINA RESULT:      -3.9      8.605     10.417
REMARK  5 active torsions:
REMARK  status: ('A' for Active; 'I' for Inactive)
REMARK    1  A    between atoms: C_1  and  C_2 
REMARK    2  A    between atoms: C_4  and  C_10 
REMARK    3  A    between atoms: C_5  and  C_8 
REMARK    4  A    between atoms: C_8  and  O_9 
REMARK    5  A    between atoms: N_11  and  O_12 
ROOT
ATOM      1  C   LIG d   1      10.747   6.227   0.111  0.00  0.00     0.172 A 
ATOM      2  C   LIG d   1      10.676   7.587  -0.150  0.00  0.00    -0.030 A 
ATOM      3  C   LIG d   1      10.396   8.011  -1.460  0.00  0.00     0.005 A 
ATOM      4  C   LIG d   1      10.197   7.033  -2.441  0.00  0.00     0.049 A 
ATOM      5  C   LIG d   1      10.287   5.702  -2.089  0.00  0.00     0.176 A 
ATOM      6  N   LIG d   1      10.558   5.344  -0.849  0.00  0.00    -0.215 N 
ATOM      7  O   LIG d   1      10.877   8.493   0.841  0.00  0.00    -0.869 OA
ATOM      8  H   LIG d   1      10.134   4.942  -2.841  0.00  0.00     0.138 H 
ATOM      9  H   LIG d   1      10.617   4.400  -0.635  0.00  0.00     0.453 HD
ENDROOT
BRANCH   3  10
ATOM     10  C   LIG d   1      10.310   9.447  -1.791  0.00  0.00     0.074 C 
ATOM     11  N   LIG d   1       9.215  10.099  -1.565  0.00  0.00    -0.095 NA
ATOM     12  H   LIG d   1      11.160   9.953  -2.223  0.00  0.00     0.087 H 
BRANCH  11  13
ATOM     13  O   LIG d   1       9.134  11.476  -1.883  0.00  0.00    -0.409 OA
ATOM     14  H   LIG d   1       9.135  11.661  -2.832  0.00  0.00     0.328 HD
ENDBRANCH  11  13
ENDBRANCH   3  10
BRANCH   4  15
ATOM     15  C   LIG d   1       9.892   7.428  -3.863  0.00  0.00     0.075 C 
ATOM     16  H   LIG d   1       9.763   8.509  -3.920  0.00  0.00     0.061 H 
ATOM     17  H   LIG d   1      10.717   7.126  -4.509  0.00  0.00     0.061 H 
BRANCH  15  18
ATOM     18  O   LIG d   1       8.691   6.782  -4.290  0.00  0.00    -0.390 OA
ATOM     19  H   LIG d   1       8.101   6.530  -3.567  0.00  0.00     0.210 HD
ENDBRANCH  15  18
ENDBRANCH   4  15
BRANCH   1  20
ATOM     20  C   LIG d   1      11.048   5.754   1.510  0.00  0.00     0.020 C 
ATOM     21  H   LIG d   1      11.390   4.720   1.478  0.00  0.00     0.034 H 
ATOM     22  H   LIG d   1      11.826   6.380   1.946  0.00  0.00     0.034 H 
ATOM     23  H   LIG d   1      10.145   5.820   2.118  0.00  0.00     0.034 H 
ENDBRANCH   1  20
TORSDOF 5
ENDMDL
