MODEL 1
REMARK VINA RESULT:      -5.8      0.000      0.000
REMARK  6 active torsions:
REMARK  status: ('A' for Active; 'I' for Inactive)
REMARK    1  A    between atoms: C_1  and  C_2 
REMARK    2  A    between atoms: C_2  and  N_3 
REMARK    3  A    between atoms: N_3  and  C_4 
REMARK    4  A    between atoms: N_3  and  C_6 
REMARK    5  A    between atoms: C_4  and  C_5 
REMARK    6  A    between atoms: C_11  and  C_17 
ROOT
ATOM      1  C   LIG d   1       3.734  -0.298  -5.036  0.00  0.00     0.033 A 
ATOM      2  C   LIG d   1       2.722   0.478  -5.603  0.00  0.00    -0.040 A 
ATOM      3  C   LIG d   1       2.510   0.458  -6.949  0.00  0.00    -0.049 A 
ATOM      4  C   LIG d   1       3.312  -0.348  -7.773  0.00  0.00     0.018 A 
ATOM      5  C   LIG d   1       3.094  -0.371  -9.174  0.00  0.00    -0.036 A 
ATOM      6  C   LIG d   1       3.891  -1.166  -9.954  0.00  0.00     0.067 A 
ATOM      7  C   LIG d   1       4.940  -1.965  -9.316  0.00  0.00     0.345 A 
ATOM      8  O   LIG d   1       5.657  -2.678  -9.995  0.00  0.00    -0.244 OA
ATOM      9  O   LIG d   1       5.113  -1.913  -7.985  0.00  0.00    -0.422 OA
ATOM     10  C   LIG d   1       4.333  -1.132  -7.207  0.00  0.00     0.141 A 
ATOM     11  C   LIG d   1       4.536  -1.100  -5.835  0.00  0.00     0.002 A 
ATOM     12  H   LIG d   1       2.104   1.099  -4.971  0.00  0.00     0.064 H 
ATOM     13  H   LIG d   1       1.725   1.061  -7.382  0.00  0.00     0.062 H 
ATOM     14  H   LIG d   1       2.314   0.228  -9.619  0.00  0.00     0.063 H 
ATOM     15  H   LIG d   1       5.316  -1.698  -5.390  0.00  0.00     0.067 H 
ENDROOT
BRANCH   1  16
ATOM     16  N   LIG d   1       3.936  -0.272  -3.659  0.00  0.00    -0.330 N 
BRANCH  16  17
ATOM     17  C   LIG d   1       3.107  -1.101  -2.782  0.00  0.00     0.009 C 
ATOM     18  H   LIG d   1       2.887  -0.553  -1.865  0.00  0.00     0.046 H 
ATOM     19  H   LIG d   1       2.174  -1.348  -3.290  0.00  0.00     0.046 H 
BRANCH  17  20
ATOM     20  C   LIG d   1       3.857  -2.390  -2.439  0.00  0.00    -0.049 C 
ATOM     21  H   LIG d   1       4.893  -2.154  -2.200  0.00  0.00     0.025 H 
ATOM     22  H   LIG d   1       3.385  -2.866  -1.580  0.00  0.00     0.025 H 
ATOM     23  H   LIG d   1       3.825  -3.067  -3.293  0.00  0.00     0.025 H 
ENDBRANCH  17  20
ENDBRANCH  16  17
BRANCH  16  24
ATOM     24  C   LIG d   1       4.978   0.585  -3.087  0.00  0.00     0.009 C 
ATOM     25  H   LIG d   1       5.908   0.022  -3.008  0.00  0.00     0.046 H 
ATOM     26  H   LIG d   1       5.131   1.450  -3.733  0.00  0.00     0.046 H 
BRANCH  24  27
ATOM     27  C   LIG d   1       4.546   1.056  -1.697  0.00  0.00    -0.049 C 
ATOM     28  H   LIG d   1       5.246   1.808  -1.334  0.00  0.00     0.025 H 
ATOM     29  H   LIG d   1       3.546   1.487  -1.754  0.00  0.00     0.025 H 
ATOM     30  H   LIG d   1       4.538   0.207  -1.014  0.00  0.00     0.025 H 
ENDBRANCH  24  27
ENDBRANCH  16  24
ENDBRANCH   1  16
BRANCH   6  31
ATOM     31  C   LIG d   1       3.694  -1.217 -11.422  0.00  0.00    -0.011 A 
ATOM     32  C   LIG d   1       2.712  -2.043 -11.967  0.00  0.00    -0.052 A 
ATOM     33  C   LIG d   1       2.533  -2.087 -13.334  0.00  0.00    -0.043 A 
ATOM     34  H   LIG d   1       2.093  -2.648 -11.320  0.00  0.00     0.062 H 
ATOM     35  C   LIG d   1       3.325  -1.314 -14.165  0.00  0.00     0.041 A 
ATOM     36  H   LIG d   1       1.772  -2.728 -13.757  0.00  0.00     0.063 H 
ATOM     37  C   LIG d   1       4.301  -0.491 -13.628  0.00  0.00    -0.043 A 
ATOM     38 CL   LIG d   1       3.094  -1.374 -15.884  0.00  0.00    -0.084 Cl
ATOM     39  C   LIG d   1       4.486  -0.435 -12.262  0.00  0.00    -0.052 A 
ATOM     40  H   LIG d   1       4.917   0.111 -14.280  0.00  0.00     0.063 H 
ATOM     41  H   LIG d   1       5.244   0.211 -11.844  0.00  0.00     0.062 H 
ENDBRANCH   6  31
TORSDOF 6
ENDMDL
MODEL 2
REMARK VINA RESULT:      -5.6      4.094      8.389
REMARK  6 active torsions:
REMARK  status: ('A' for Active; 'I' for Inactive)
REMARK    1  A    between atoms: C_1  and  C_2 
REMARK    2  A    between atoms: C_2  and  N_3 
REMARK    3  A    between atoms: N_3  and  C_4 
REMARK    4  A    between atoms: N_3  and  C_6 
REMARK    5  A    between atoms: C_4  and  C_5 
REMARK    6  A    between atoms: C_11  and  C_17 
ROOT
ATOM      1  C   LIG d   1       2.327  -1.985 -12.106  0.00  0.00     0.033 A 
ATOM      2  C   LIG d   1       2.535  -3.111 -11.309  0.00  0.00    -0.040 A 
ATOM      3  C   LIG d   1       2.823  -2.975  -9.984  0.00  0.00    -0.049 A 
ATOM      4  C   LIG d   1       2.911  -1.695  -9.413  0.00  0.00     0.018 A 
ATOM      5  C   LIG d   1       3.211  -1.549  -8.036  0.00  0.00    -0.036 A 
ATOM      6  C   LIG d   1       3.291  -0.289  -7.506  0.00  0.00     0.067 A 
ATOM      7  C   LIG d   1       3.063   0.865  -8.379  0.00  0.00     0.345 A 
ATOM      8  O   LIG d   1       3.130   1.993  -7.923  0.00  0.00    -0.244 OA
ATOM      9  O   LIG d   1       2.782   0.683  -9.680  0.00  0.00    -0.422 OA
ATOM     10  C   LIG d   1       2.702  -0.556 -10.212  0.00  0.00     0.141 A 
ATOM     11  C   LIG d   1       2.409  -0.712 -11.559  0.00  0.00     0.002 A 
ATOM     12  H   LIG d   1       2.468  -4.098 -11.745  0.00  0.00     0.064 H 
ATOM     13  H   LIG d   1       2.983  -3.851  -9.373  0.00  0.00     0.062 H 
ATOM     14  H   LIG d   1       3.374  -2.417  -7.414  0.00  0.00     0.063 H 
ATOM     15  H   LIG d   1       2.247   0.155 -12.181  0.00  0.00     0.067 H 
ENDROOT
BRANCH   1  16
ATOM     16  N   LIG d   1       2.027  -2.139 -13.457  0.00  0.00    -0.330 N 
BRANCH  16  17
ATOM     17  C   LIG d   1       0.794  -2.818 -13.860  0.00  0.00     0.009 C 
ATOM     18  H   LIG d   1       0.740  -2.856 -14.948  0.00  0.00     0.046 H 
ATOM     19  H   LIG d   1       0.791  -3.833 -13.461  0.00  0.00     0.046 H 
BRANCH  17  20
ATOM     20  C   LIG d   1      -0.413  -2.052 -13.315  0.00  0.00    -0.049 C 
ATOM     21  H   LIG d   1      -1.131  -2.755 -12.897  0.00  0.00     0.025 H 
ATOM     22  H   LIG d   1      -0.083  -1.363 -12.537  0.00  0.00     0.025 H 
ATOM     23  H   LIG d   1      -0.882  -1.490 -14.123  0.00  0.00     0.025 H 
ENDBRANCH  17  20
ENDBRANCH  16  17
BRANCH  16  24
ATOM     24  C   LIG d   1       2.946  -1.621 -14.474  0.00  0.00     0.009 C 
ATOM     25  H   LIG d   1       3.015  -0.537 -14.383  0.00  0.00     0.046 H 
ATOM     26  H   LIG d   1       3.933  -2.062 -14.330  0.00  0.00     0.046 H 
BRANCH  24  27
ATOM     27  C   LIG d   1       2.424  -1.985 -15.865  0.00  0.00    -0.049 C 
ATOM     28  H   LIG d   1       1.912  -2.946 -15.821  0.00  0.00     0.025 H 
ATOM     29  H   LIG d   1       1.727  -1.218 -16.204  0.00  0.00     0.025 H 
ATOM     30  H   LIG d   1       3.260  -2.050 -16.561  0.00  0.00     0.025 H 
ENDBRANCH  24  27
ENDBRANCH  16  24
ENDBRANCH   1  16
BRANCH   6  31
ATOM     31  C   LIG d   1       3.602  -0.096  -6.070  0.00  0.00    -0.011 A 
ATOM     32  C   LIG d   1       4.877  -0.386  -5.586  0.00  0.00    -0.052 A 
ATOM     33  C   LIG d   1       5.161  -0.205  -4.248  0.00  0.00    -0.043 A 
ATOM     34  H   LIG d   1       5.640  -0.753  -6.256  0.00  0.00     0.062 H 
ATOM     35  C   LIG d   1       4.185   0.265  -3.387  0.00  0.00     0.041 A 
ATOM     36  H   LIG d   1       6.149  -0.430  -3.872  0.00  0.00     0.063 H 
ATOM     37  C   LIG d   1       2.917   0.555  -3.863  0.00  0.00    -0.043 A 
ATOM     38 CL   LIG d   1       4.549   0.491  -1.705  0.00  0.00    -0.084 Cl
ATOM     39  C   LIG d   1       2.623   0.382  -5.200  0.00  0.00    -0.052 A 
ATOM     40  H   LIG d   1       2.158   0.921  -3.188  0.00  0.00     0.063 H 
ATOM     41  H   LIG d   1       1.636   0.614  -5.572  0.00  0.00     0.062 H 
ENDBRANCH   6  31
TORSDOF 6
ENDMDL
MODEL 3
REMARK VINA RESULT:      -5.6      1.379      2.229
REMARK  6 active torsions:
REMARK  status: ('A' for Active; 'I' for Inactive)
REMARK    1  A    between atoms: C_1  and  C_2 
REMARK    2  A    between atoms: C_2  and  N_3 
REMARK    3  A    between atoms: N_3  and  C_4 
REMARK    4  A    between atoms: N_3  and  C_6 
REMARK    5  A    between atoms: C_4  and  C_5 
REMARK    6  A    between atoms: C_11  and  C_17 
ROOT
ATOM      1  C   LIG d   1       4.575  -0.494  -5.039  0.00  0.00     0.033 A 
ATOM      2  C   LIG d   1       5.748  -0.934  -5.655  0.00  0.00    -0.040 A 
ATOM      3  C   LIG d   1       5.784  -1.140  -7.002  0.00  0.00    -0.049 A 
ATOM      4  C   LIG d   1       4.636  -0.909  -7.778  0.00  0.00     0.018 A 
ATOM      5  C   LIG d   1       4.669  -1.123  -9.179  0.00  0.00    -0.036 A 
ATOM      6  C   LIG d   1       3.536  -0.890  -9.911  0.00  0.00     0.067 A 
ATOM      7  C   LIG d   1       2.328  -0.426  -9.223  0.00  0.00     0.345 A 
ATOM      8  O   LIG d   1       1.312  -0.213  -9.859  0.00  0.00    -0.244 OA
ATOM      9  O   LIG d   1       2.339  -0.237  -7.893  0.00  0.00    -0.422 OA
ATOM     10  C   LIG d   1       3.452  -0.465  -7.162  0.00  0.00     0.141 A 
ATOM     11  C   LIG d   1       3.433  -0.260  -5.790  0.00  0.00     0.002 A 
ATOM     12  H   LIG d   1       6.632  -1.113  -5.061  0.00  0.00     0.064 H 
ATOM     13  H   LIG d   1       6.694  -1.481  -7.473  0.00  0.00     0.062 H 
ATOM     14  H   LIG d   1       5.573  -1.465  -9.661  0.00  0.00     0.063 H 
ATOM     15  H   LIG d   1       2.529   0.081  -5.307  0.00  0.00     0.067 H 
ENDROOT
BRANCH   1  16
ATOM     16  N   LIG d   1       4.555  -0.281  -3.664  0.00  0.00    -0.330 N 
BRANCH  16  17
ATOM     17  C   LIG d   1       4.063   0.989  -3.127  0.00  0.00     0.009 C 
ATOM     18  H   LIG d   1       4.485   1.814  -3.701  0.00  0.00     0.046 H 
ATOM     19  H   LIG d   1       2.975   1.017  -3.196  0.00  0.00     0.046 H 
BRANCH  17  20
ATOM     20  C   LIG d   1       4.484   1.120  -1.661  0.00  0.00    -0.049 C 
ATOM     21  H   LIG d   1       4.960   0.197  -1.336  0.00  0.00     0.025 H 
ATOM     22  H   LIG d   1       5.186   1.947  -1.558  0.00  0.00     0.025 H 
ATOM     23  H   LIG d   1       3.604   1.312  -1.046  0.00  0.00     0.025 H 
ENDBRANCH  17  20
ENDBRANCH  16  17
BRANCH  16  24
ATOM     24  C   LIG d   1       5.026  -1.329  -2.754  0.00  0.00     0.009 C 
ATOM     25  H   LIG d   1       5.851  -1.868  -3.218  0.00  0.00     0.046 H 
ATOM     26  H   LIG d   1       5.365  -0.875  -1.823  0.00  0.00     0.046 H 
BRANCH  24  27
ATOM     27  C   LIG d   1       3.882  -2.302  -2.461  0.00  0.00    -0.049 C 
ATOM     28  H   LIG d   1       3.613  -2.240  -1.407  0.00  0.00     0.025 H 
ATOM     29  H   LIG d   1       3.018  -2.041  -3.072  0.00  0.00     0.025 H 
ATOM     30  H   LIG d   1       4.201  -3.317  -2.695  0.00  0.00     0.025 H 
ENDBRANCH  24  27
ENDBRANCH  16  24
ENDBRANCH   1  16
BRANCH   6  31
ATOM     31  C   LIG d   1       3.532  -1.102 -11.377  0.00  0.00    -0.011 A 
ATOM     32  C   LIG d   1       2.847  -2.186 -11.924  0.00  0.00    -0.052 A 
ATOM     33  C   LIG d   1       2.846  -2.379 -13.291  0.00  0.00    -0.043 A 
ATOM     34  H   LIG d   1       2.319  -2.874 -11.281  0.00  0.00     0.062 H 
ATOM     35  C   LIG d   1       3.522  -1.499 -14.118  0.00  0.00     0.041 A 
ATOM     36  H   LIG d   1       2.316  -3.219 -13.716  0.00  0.00     0.063 H 
ATOM     37  C   LIG d   1       4.203  -0.420 -13.579  0.00  0.00    -0.043 A 
ATOM     38 CL   LIG d   1       3.517  -1.747 -15.836  0.00  0.00    -0.084 Cl
ATOM     39  C   LIG d   1       4.207  -0.214 -12.215  0.00  0.00    -0.052 A 
ATOM     40  H   LIG d   1       4.729   0.264 -14.228  0.00  0.00     0.063 H 
ATOM     41  H   LIG d   1       4.734   0.630 -11.796  0.00  0.00     0.062 H 
ENDBRANCH   6  31
TORSDOF 6
ENDMDL
MODEL 4
REMARK VINA RESULT:      -5.4      1.336      2.038
REMARK  6 active torsions:
REMARK  status: ('A' for Active; 'I' for Inactive)
REMARK    1  A    between atoms: C_1  and  C_2 
REMARK    2  A    between atoms: C_2  and  N_3 
REMARK    3  A    between atoms: N_3  and  C_4 
REMARK    4  A    between atoms: N_3  and  C_6 
REMARK    5  A    between atoms: C_4  and  C_5 
REMARK    6  A    between atoms: C_11  and  C_17 
ROOT
ATOM      1  C   LIG d   1       4.584  -0.594  -4.614  0.00  0.00     0.033 A 
ATOM      2  C   LIG d   1       3.523   0.255  -4.932  0.00  0.00    -0.040 A 
ATOM      3  C   LIG d   1       2.916   0.175  -6.150  0.00  0.00    -0.049 A 
ATOM      4  C   LIG d   1       3.358  -0.767  -7.093  0.00  0.00     0.018 A 
ATOM      5  C   LIG d   1       2.730  -0.852  -8.362  0.00  0.00    -0.036 A 
ATOM      6  C   LIG d   1       3.182  -1.779  -9.262  0.00  0.00     0.067 A 
ATOM      7  C   LIG d   1       4.297  -2.651  -8.886  0.00  0.00     0.345 A 
ATOM      8  O   LIG d   1       4.711  -3.482  -9.675  0.00  0.00    -0.244 OA
ATOM      9  O   LIG d   1       4.865  -2.537  -7.673  0.00  0.00    -0.422 OA
ATOM     10  C   LIG d   1       4.427  -1.625  -6.779  0.00  0.00     0.141 A 
ATOM     11  C   LIG d   1       5.033  -1.531  -5.534  0.00  0.00     0.002 A 
ATOM     12  H   LIG d   1       3.180   0.980  -4.209  0.00  0.00     0.064 H 
ATOM     13  H   LIG d   1       2.096   0.835  -6.390  0.00  0.00     0.062 H 
ATOM     14  H   LIG d   1       1.910  -0.197  -8.614  0.00  0.00     0.063 H 
ATOM     15  H   LIG d   1       5.854  -2.185  -5.282  0.00  0.00     0.067 H 
ENDROOT
BRANCH   1  16
ATOM     16  N   LIG d   1       5.190  -0.506  -3.365  0.00  0.00    -0.330 N 
BRANCH  16  17
ATOM     17  C   LIG d   1       6.617  -0.195  -3.264  0.00  0.00     0.009 C 
ATOM     18  H   LIG d   1       6.963  -0.401  -2.250  0.00  0.00     0.046 H 
ATOM     19  H   LIG d   1       7.174  -0.811  -3.970  0.00  0.00     0.046 H 
BRANCH  17  20
ATOM     20  C   LIG d   1       6.841   1.283  -3.589  0.00  0.00    -0.049 C 
ATOM     21  H   LIG d   1       5.900   1.823  -3.494  0.00  0.00     0.025 H 
ATOM     22  H   LIG d   1       7.572   1.700  -2.896  0.00  0.00     0.025 H 
ATOM     23  H   LIG d   1       7.213   1.378  -4.610  0.00  0.00     0.025 H 
ENDBRANCH  17  20
ENDBRANCH  16  17
BRANCH  16  24
ATOM     24  C   LIG d   1       4.399  -0.725  -2.150  0.00  0.00     0.009 C 
ATOM     25  H   LIG d   1       5.049  -0.662  -1.278  0.00  0.00     0.046 H 
ATOM     26  H   LIG d   1       3.622   0.037  -2.081  0.00  0.00     0.046 H 
BRANCH  24  27
ATOM     27  C   LIG d   1       3.752  -2.110  -2.206  0.00  0.00    -0.049 C 
ATOM     28  H   LIG d   1       3.821  -2.583  -1.226  0.00  0.00     0.025 H 
ATOM     29  H   LIG d   1       2.705  -2.012  -2.489  0.00  0.00     0.025 H 
ATOM     30  H   LIG d   1       4.272  -2.724  -2.942  0.00  0.00     0.025 H 
ENDBRANCH  24  27
ENDBRANCH  16  24
ENDBRANCH   1  16
BRANCH   6  31
ATOM     31  C   LIG d   1       2.551  -1.899 -10.597  0.00  0.00    -0.011 A 
ATOM     32  C   LIG d   1       1.339  -2.573 -10.740  0.00  0.00    -0.052 A 
ATOM     33  C   LIG d   1       0.756  -2.682 -11.985  0.00  0.00    -0.043 A 
ATOM     34  H   LIG d   1       0.858  -3.011  -9.877  0.00  0.00     0.062 H 
ATOM     35  C   LIG d   1       1.370  -2.124 -13.093  0.00  0.00     0.041 A 
ATOM     36  H   LIG d   1      -0.183  -3.205 -12.097  0.00  0.00     0.063 H 
ATOM     37  C   LIG d   1       2.574  -1.453 -12.956  0.00  0.00    -0.043 A 
ATOM     38 CL   LIG d   1       0.631  -2.264 -14.657  0.00  0.00    -0.084 Cl
ATOM     39  C   LIG d   1       3.164  -1.333 -11.715  0.00  0.00    -0.052 A 
ATOM     40  H   LIG d   1       3.050  -1.018 -13.823  0.00  0.00     0.063 H 
ATOM     41  H   LIG d   1       4.100  -0.805 -11.608  0.00  0.00     0.062 H 
ENDBRANCH   6  31
TORSDOF 6
ENDMDL
MODEL 5
REMARK VINA RESULT:      -5.2     12.134     15.868
REMARK  6 active torsions:
REMARK  status: ('A' for Active; 'I' for Inactive)
REMARK    1  A    between atoms: C_1  and  C_2 
REMARK    2  A    between atoms: C_2  and  N_3 
REMARK    3  A    between atoms: N_3  and  C_4 
REMARK    4  A    between atoms: N_3  and  C_6 
REMARK    5  A    between atoms: C_4  and  C_5 
REMARK    6  A    between atoms: C_11  and  C_17 
ROOT
ATOM      1  C   LIG d   1      11.840   8.210   5.890  0.00  0.00     0.033 A 
ATOM      2  C   LIG d   1      11.314   6.917   5.872  0.00  0.00    -0.040 A 
ATOM      3  C   LIG d   1      11.022   6.307   4.689  0.00  0.00    -0.049 A 
ATOM      4  C   LIG d   1      11.251   6.980   3.478  0.00  0.00     0.018 A 
ATOM      5  C   LIG d   1      10.948   6.350   2.244  0.00  0.00    -0.036 A 
ATOM      6  C   LIG d   1      11.180   7.029   1.079  0.00  0.00     0.067 A 
ATOM      7  C   LIG d   1      11.735   8.384   1.145  0.00  0.00     0.345 A 
ATOM      8  O   LIG d   1      11.949   9.002   0.117  0.00  0.00    -0.244 OA
ATOM      9  O   LIG d   1      12.007   8.945   2.334  0.00  0.00    -0.422 OA
ATOM     10  C   LIG d   1      11.781   8.283   3.489  0.00  0.00     0.141 A 
ATOM     11  C   LIG d   1      12.072   8.890   4.703  0.00  0.00     0.002 A 
ATOM     12  H   LIG d   1      11.137   6.396   6.802  0.00  0.00     0.064 H 
ATOM     13  H   LIG d   1      10.616   5.307   4.682  0.00  0.00     0.062 H 
ATOM     14  H   LIG d   1      10.540   5.350   2.225  0.00  0.00     0.063 H 
ATOM     15  H   LIG d   1      12.479   9.889   4.724  0.00  0.00     0.067 H 
ENDROOT
BRANCH   1  16
ATOM     16  N   LIG d   1      12.139   8.818   7.105  0.00  0.00    -0.330 N 
BRANCH  16  17
ATOM     17  C   LIG d   1      12.346   8.000   8.302  0.00  0.00     0.009 C 
ATOM     18  H   LIG d   1      12.302   6.944   8.032  0.00  0.00     0.046 H 
ATOM     19  H   LIG d   1      13.322   8.225   8.732  0.00  0.00     0.046 H 
BRANCH  17  20
ATOM     20  C   LIG d   1      11.253   8.310   9.327  0.00  0.00    -0.049 C 
ATOM     21  H   LIG d   1      10.937   7.387   9.811  0.00  0.00     0.025 H 
ATOM     22  H   LIG d   1      11.644   8.998  10.076  0.00  0.00     0.025 H 
ATOM     23  H   LIG d   1      10.401   8.767   8.823  0.00  0.00     0.025 H 
ENDBRANCH  17  20
ENDBRANCH  16  17
BRANCH  16  24
ATOM     24  C   LIG d   1      12.247  10.277   7.187  0.00  0.00     0.009 C 
ATOM     25  H   LIG d   1      12.028  10.712   6.211  0.00  0.00     0.046 H 
ATOM     26  H   LIG d   1      11.533  10.653   7.920  0.00  0.00     0.046 H 
BRANCH  24  27
ATOM     27  C   LIG d   1      13.666  10.661   7.610  0.00  0.00    -0.049 C 
ATOM     28  H   LIG d   1      14.140  11.235   6.814  0.00  0.00     0.025 H 
ATOM     29  H   LIG d   1      13.624  11.263   8.518  0.00  0.00     0.025 H 
ATOM     30  H   LIG d   1      14.245   9.757   7.799  0.00  0.00     0.025 H 
ENDBRANCH  24  27
ENDBRANCH  16  24
ENDBRANCH   1  16
BRANCH   6  31
ATOM     31  C   LIG d   1      10.877   6.403  -0.229  0.00  0.00    -0.011 A 
ATOM     32  C   LIG d   1      11.558   5.254  -0.629  0.00  0.00    -0.052 A 
ATOM     33  C   LIG d   1      11.272   4.675  -1.848  0.00  0.00    -0.043 A 
ATOM     34  H   LIG d   1      12.309   4.818   0.014  0.00  0.00     0.062 H 
ATOM     35  C   LIG d   1      10.311   5.232  -2.674  0.00  0.00     0.041 A 
ATOM     36  H   LIG d   1      11.799   3.784  -2.159  0.00  0.00     0.063 H 
ATOM     37  C   LIG d   1       9.632   6.373  -2.282  0.00  0.00    -0.043 A 
ATOM     38 CL   LIG d   1       9.955   4.499  -4.207  0.00  0.00    -0.084 Cl
ATOM     39  C   LIG d   1       9.906   6.958  -1.062  0.00  0.00    -0.052 A 
ATOM     40  H   LIG d   1       8.883   6.804  -2.929  0.00  0.00     0.063 H 
ATOM     41  H   LIG d   1       9.372   7.844  -0.754  0.00  0.00     0.062 H 
ENDBRANCH   6  31
TORSDOF 6
ENDMDL
MODEL 6
REMARK VINA RESULT:      -5.1      6.999      9.723
REMARK  6 active torsions:
REMARK  status: ('A' for Active; 'I' for Inactive)
REMARK    1  A    between atoms: C_1  and  C_2 
REMARK    2  A    between atoms: C_2  and  N_3 
REMARK    3  A    between atoms: N_3  and  C_4 
REMARK    4  A    between atoms: N_3  and  C_6 
REMARK    5  A    between atoms: C_4  and  C_5 
REMARK    6  A    between atoms: C_11  and  C_17 
ROOT
ATOM      1  C   LIG d   1      11.331   5.124  -5.132  0.00  0.00     0.033 A 
ATOM      2  C   LIG d   1      11.207   5.027  -3.745  0.00  0.00    -0.040 A 
ATOM      3  C   LIG d   1      10.319   4.155  -3.190  0.00  0.00    -0.049 A 
ATOM      4  C   LIG d   1       9.522   3.346  -4.016  0.00  0.00     0.018 A 
ATOM      5  C   LIG d   1       8.596   2.438  -3.443  0.00  0.00    -0.036 A 
ATOM      6  C   LIG d   1       7.832   1.661  -4.272  0.00  0.00     0.067 A 
ATOM      7  C   LIG d   1       7.996   1.794  -5.721  0.00  0.00     0.345 A 
ATOM      8  O   LIG d   1       7.324   1.110  -6.473  0.00  0.00    -0.244 OA
ATOM      9  O   LIG d   1       8.884   2.668  -6.224  0.00  0.00    -0.422 OA
ATOM     10  C   LIG d   1       9.642   3.438  -5.415  0.00  0.00     0.141 A 
ATOM     11  C   LIG d   1      10.552   4.332  -5.963  0.00  0.00     0.002 A 
ATOM     12  H   LIG d   1      11.819   5.648  -3.107  0.00  0.00     0.064 H 
ATOM     13  H   LIG d   1      10.228   4.085  -2.116  0.00  0.00     0.062 H 
ATOM     14  H   LIG d   1       8.496   2.360  -2.371  0.00  0.00     0.063 H 
ATOM     15  H   LIG d   1      10.652   4.411  -7.034  0.00  0.00     0.067 H 
ENDROOT
BRANCH   1  16
ATOM     16  N   LIG d   1      12.246   6.014  -5.684  0.00  0.00    -0.330 N 
BRANCH  16  17
ATOM     17  C   LIG d   1      11.794   7.037  -6.630  0.00  0.00     0.009 C 
ATOM     18  H   LIG d   1      12.653   7.598  -6.997  0.00  0.00     0.046 H 
ATOM     19  H   LIG d   1      11.287   6.558  -7.468  0.00  0.00     0.046 H 
BRANCH  17  20
ATOM     20  C   LIG d   1      10.825   7.990  -5.926  0.00  0.00    -0.049 C 
ATOM     21  H   LIG d   1      10.609   8.834  -6.579  0.00  0.00     0.025 H 
ATOM     22  H   LIG d   1       9.900   7.462  -5.696  0.00  0.00     0.025 H 
ATOM     23  H   LIG d   1      11.277   8.351  -5.002  0.00  0.00     0.025 H 
ENDBRANCH  17  20
ENDBRANCH  16  17
BRANCH  16  24
ATOM     24  C   LIG d   1      13.663   5.928  -5.320  0.00  0.00     0.009 C 
ATOM     25  H   LIG d   1      14.200   6.773  -5.751  0.00  0.00     0.046 H 
ATOM     26  H   LIG d   1      13.760   5.951  -4.234  0.00  0.00     0.046 H 
BRANCH  24  27
ATOM     27  C   LIG d   1      14.249   4.622  -5.858  0.00  0.00    -0.049 C 
ATOM     28  H   LIG d   1      14.989   4.238  -5.155  0.00  0.00     0.025 H 
ATOM     29  H   LIG d   1      13.452   3.889  -5.983  0.00  0.00     0.025 H 
ATOM     30  H   LIG d   1      14.727   4.808  -6.820  0.00  0.00     0.025 H 
ENDBRANCH  24  27
ENDBRANCH  16  24
ENDBRANCH   1  16
BRANCH   6  31
ATOM     31  C   LIG d   1       6.854   0.700  -3.710  0.00  0.00    -0.011 A 
ATOM     32  C   LIG d   1       7.094  -0.670  -3.794  0.00  0.00    -0.052 A 
ATOM     33  C   LIG d   1       6.180  -1.561  -3.270  0.00  0.00    -0.043 A 
ATOM     34  H   LIG d   1       7.993  -1.035  -4.269  0.00  0.00     0.062 H 
ATOM     35  C   LIG d   1       5.027  -1.097  -2.661  0.00  0.00     0.041 A 
ATOM     36  H   LIG d   1       6.365  -2.624  -3.335  0.00  0.00     0.063 H 
ATOM     37  C   LIG d   1       4.784   0.263  -2.575  0.00  0.00    -0.043 A 
ATOM     38 CL   LIG d   1       3.881  -2.223  -2.003  0.00  0.00    -0.084 Cl
ATOM     39  C   LIG d   1       5.693   1.163  -3.091  0.00  0.00    -0.052 A 
ATOM     40  H   LIG d   1       3.883   0.621  -2.099  0.00  0.00     0.063 H 
ATOM     41  H   LIG d   1       5.506   2.224  -3.019  0.00  0.00     0.062 H 
ENDBRANCH   6  31
TORSDOF 6
ENDMDL
MODEL 7
REMARK VINA RESULT:      -5.1      4.015      8.572
REMARK  6 active torsions:
REMARK  status: ('A' for Active; 'I' for Inactive)
REMARK    1  A    between atoms: C_1  and  C_2 
REMARK    2  A    between atoms: C_2  and  N_3 
REMARK    3  A    between atoms: N_3  and  C_4 
REMARK    4  A    between atoms: N_3  and  C_6 
REMARK    5  A    between atoms: C_4  and  C_5 
REMARK    6  A    between atoms: C_11  and  C_17 
ROOT
ATOM      1  C   LIG d   1       3.520  -1.254 -13.197  0.00  0.00     0.033 A 
ATOM      2  C   LIG d   1       2.880  -2.300 -12.531  0.00  0.00    -0.040 A 
ATOM      3  C   LIG d   1       2.776  -2.293 -11.172  0.00  0.00    -0.049 A 
ATOM      4  C   LIG d   1       3.316  -1.227 -10.434  0.00  0.00     0.018 A 
ATOM      5  C   LIG d   1       3.212  -1.216  -9.020  0.00  0.00    -0.036 A 
ATOM      6  C   LIG d   1       3.748  -0.165  -8.325  0.00  0.00     0.067 A 
ATOM      7  C   LIG d   1       4.410   0.912  -9.065  0.00  0.00     0.345 A 
ATOM      8  O   LIG d   1       4.891   1.855  -8.463  0.00  0.00    -0.244 OA
ATOM      9  O   LIG d   1       4.488   0.863 -10.405  0.00  0.00    -0.422 OA
ATOM     10  C   LIG d   1       3.963  -0.170 -11.099  0.00  0.00     0.141 A 
ATOM     11  C   LIG d   1       4.059  -0.193 -12.484  0.00  0.00     0.002 A 
ATOM     12  H   LIG d   1       2.463  -3.121 -13.097  0.00  0.00     0.064 H 
ATOM     13  H   LIG d   1       2.280  -3.105 -10.663  0.00  0.00     0.062 H 
ATOM     14  H   LIG d   1       2.718  -2.023  -8.500  0.00  0.00     0.063 H 
ATOM     15  H   LIG d   1       4.553   0.613 -13.005  0.00  0.00     0.067 H 
ENDROOT
BRANCH   1  16
ATOM     16  N   LIG d   1       3.613  -1.271 -14.586  0.00  0.00    -0.330 N 
BRANCH  16  17
ATOM     17  C   LIG d   1       4.781  -0.688 -15.249  0.00  0.00     0.009 C 
ATOM     18  H   LIG d   1       5.438  -0.244 -14.502  0.00  0.00     0.046 H 
ATOM     19  H   LIG d   1       5.319  -1.467 -15.789  0.00  0.00     0.046 H 
BRANCH  17  20
ATOM     20  C   LIG d   1       4.323   0.391 -16.233  0.00  0.00    -0.049 C 
ATOM     21  H   LIG d   1       3.994  -0.078 -17.159  0.00  0.00     0.025 H 
ATOM     22  H   LIG d   1       3.497   0.952 -15.796  0.00  0.00     0.025 H 
ATOM     23  H   LIG d   1       5.152   1.068 -16.442  0.00  0.00     0.025 H 
ENDBRANCH  17  20
ENDBRANCH  16  17
BRANCH  16  24
ATOM     24  C   LIG d   1       2.541  -1.873 -15.383  0.00  0.00     0.009 C 
ATOM     25  H   LIG d   1       1.719  -2.161 -14.728  0.00  0.00     0.046 H 
ATOM     26  H   LIG d   1       2.185  -1.150 -16.117  0.00  0.00     0.046 H 
BRANCH  24  27
ATOM     27  C   LIG d   1       3.076  -3.112 -16.104  0.00  0.00    -0.049 C 
ATOM     28  H   LIG d   1       3.887  -2.822 -16.772  0.00  0.00     0.025 H 
ATOM     29  H   LIG d   1       3.448  -3.827 -15.371  0.00  0.00     0.025 H 
ATOM     30  H   LIG d   1       2.274  -3.568 -16.685  0.00  0.00     0.025 H 
ENDBRANCH  24  27
ENDBRANCH  16  24
ENDBRANCH   1  16
BRANCH   6  31
ATOM     31  C   LIG d   1       3.658  -0.117  -6.847  0.00  0.00    -0.011 A 
ATOM     32  C   LIG d   1       4.652  -0.707  -6.068  0.00  0.00    -0.052 A 
ATOM     33  C   LIG d   1       4.564  -0.660  -4.691  0.00  0.00    -0.043 A 
ATOM     34  H   LIG d   1       5.489  -1.200  -6.539  0.00  0.00     0.062 H 
ATOM     35  C   LIG d   1       3.492  -0.029  -4.084  0.00  0.00     0.041 A 
ATOM     36  H   LIG d   1       5.334  -1.117  -4.086  0.00  0.00     0.063 H 
ATOM     37  C   LIG d   1       2.502   0.558  -4.854  0.00  0.00    -0.043 A 
ATOM     38 CL   LIG d   1       3.387   0.027  -2.352  0.00  0.00    -0.084 Cl
ATOM     39  C   LIG d   1       2.583   0.522  -6.231  0.00  0.00    -0.052 A 
ATOM     40  H   LIG d   1       1.668   1.050  -4.377  0.00  0.00     0.063 H 
ATOM     41  H   LIG d   1       1.813   0.985  -6.832  0.00  0.00     0.062 H 
ENDBRANCH   6  31
TORSDOF 6
ENDMDL
MODEL 8
REMARK VINA RESULT:      -5.0     12.415     16.069
REMARK  6 active torsions:
REMARK  status: ('A' for Active; 'I' for Inactive)
REMARK    1  A    between atoms: C_1  and  C_2 
REMARK    2  A    between atoms: C_2  and  N_3 
REMARK    3  A    between atoms: N_3  and  C_4 
REMARK    4  A    between atoms: N_3  and  C_6 
REMARK    5  A    between atoms: C_4  and  C_5 
REMARK    6  A    between atoms: C_11  and  C_17 
ROOT
ATOM      1  C   LIG d   1      12.510  10.068   4.756  0.00  0.00     0.033 A 
ATOM      2  C   LIG d   1      12.628  10.846   3.603  0.00  0.00    -0.040 A 
ATOM      3  C   LIG d   1      12.313  10.324   2.384  0.00  0.00    -0.049 A 
ATOM      4  C   LIG d   1      11.866   8.996   2.283  0.00  0.00     0.018 A 
ATOM      5  C   LIG d   1      11.539   8.450   1.017  0.00  0.00    -0.036 A 
ATOM      6  C   LIG d   1      11.106   7.153   0.948  0.00  0.00     0.067 A 
ATOM      7  C   LIG d   1      10.996   6.374   2.184  0.00  0.00     0.345 A 
ATOM      8  O   LIG d   1      10.612   5.219   2.140  0.00  0.00    -0.244 OA
ATOM      9  O   LIG d   1      11.317   6.930   3.364  0.00  0.00    -0.422 OA
ATOM     10  C   LIG d   1      11.746   8.208   3.442  0.00  0.00     0.141 A 
ATOM     11  C   LIG d   1      12.070   8.755   4.675  0.00  0.00     0.002 A 
ATOM     12  H   LIG d   1      12.971  11.867   3.677  0.00  0.00     0.064 H 
ATOM     13  H   LIG d   1      12.407  10.931   1.496  0.00  0.00     0.062 H 
ATOM     14  H   LIG d   1      11.629   9.047   0.121  0.00  0.00     0.063 H 
ATOM     15  H   LIG d   1      11.981   8.159   5.571  0.00  0.00     0.067 H 
ENDROOT
BRANCH   1  16
ATOM     16  N   LIG d   1      12.829  10.616   5.995  0.00  0.00    -0.330 N 
BRANCH  16  17
ATOM     17  C   LIG d   1      12.138  10.152   7.200  0.00  0.00     0.009 C 
ATOM     18  H   LIG d   1      11.630  10.992   7.673  0.00  0.00     0.046 H 
ATOM     19  H   LIG d   1      11.406   9.390   6.929  0.00  0.00     0.046 H 
BRANCH  17  20
ATOM     20  C   LIG d   1      13.157   9.556   8.175  0.00  0.00    -0.049 C 
ATOM     21  H   LIG d   1      13.402   8.541   7.868  0.00  0.00     0.025 H 
ATOM     22  H   LIG d   1      14.060  10.166   8.172  0.00  0.00     0.025 H 
ATOM     23  H   LIG d   1      12.732   9.540   9.179  0.00  0.00     0.025 H 
ENDBRANCH  17  20
ENDBRANCH  16  17
BRANCH  16  24
ATOM     24  C   LIG d   1      13.856  11.656   6.093  0.00  0.00     0.009 C 
ATOM     25  H   LIG d   1      14.625  11.342   6.798  0.00  0.00     0.046 H 
ATOM     26  H   LIG d   1      14.305  11.817   5.113  0.00  0.00     0.046 H 
BRANCH  24  27
ATOM     27  C   LIG d   1      13.217  12.958   6.582  0.00  0.00    -0.049 C 
ATOM     28  H   LIG d   1      12.886  12.835   7.613  0.00  0.00     0.025 H 
ATOM     29  H   LIG d   1      13.949  13.764   6.529  0.00  0.00     0.025 H 
ATOM     30  H   LIG d   1      12.361  13.200   5.953  0.00  0.00     0.025 H 
ENDBRANCH  24  27
ENDBRANCH  16  24
ENDBRANCH   1  16
BRANCH   6  31
ATOM     31  C   LIG d   1      10.754   6.547  -0.357  0.00  0.00    -0.011 A 
ATOM     32  C   LIG d   1       9.794   7.148  -1.170  0.00  0.00    -0.052 A 
ATOM     33  C   LIG d   1       9.469   6.579  -2.385  0.00  0.00    -0.043 A 
ATOM     34  H   LIG d   1       9.305   8.056  -0.851  0.00  0.00     0.062 H 
ATOM     35  C   LIG d   1      10.094   5.415  -2.797  0.00  0.00     0.041 A 
ATOM     36  H   LIG d   1       8.725   7.044  -3.016  0.00  0.00     0.063 H 
ATOM     37  C   LIG d   1      11.048   4.814  -1.993  0.00  0.00    -0.043 A 
ATOM     38 CL   LIG d   1       9.682   4.705  -4.327  0.00  0.00    -0.084 Cl
ATOM     39  C   LIG d   1      11.385   5.377  -0.779  0.00  0.00    -0.052 A 
ATOM     40  H   LIG d   1      11.534   3.907  -2.319  0.00  0.00     0.063 H 
ATOM     41  H   LIG d   1      12.133   4.911  -0.155  0.00  0.00     0.062 H 
ENDBRANCH   6  31
TORSDOF 6
ENDMDL
MODEL 9
REMARK VINA RESULT:      -5.0     10.225     13.849
REMARK  6 active torsions:
REMARK  status: ('A' for Active; 'I' for Inactive)
REMARK    1  A    between atoms: C_1  and  C_2 
REMARK    2  A    between atoms: C_2  and  N_3 
REMARK    3  A    between atoms: N_3  and  C_4 
REMARK    4  A    between atoms: N_3  and  C_6 
REMARK    5  A    between atoms: C_4  and  C_5 
REMARK    6  A    between atoms: C_11  and  C_17 
ROOT
ATOM      1  C   LIG d   1       9.458   4.215  -4.245  0.00  0.00     0.033 A 
ATOM      2  C   LIG d   1       9.432   5.358  -5.046  0.00  0.00    -0.040 A 
ATOM      3  C   LIG d   1       9.685   6.584  -4.507  0.00  0.00    -0.049 A 
ATOM      4  C   LIG d   1       9.974   6.702  -3.137  0.00  0.00     0.018 A 
ATOM      5  C   LIG d   1      10.237   7.975  -2.573  0.00  0.00    -0.036 A 
ATOM      6  C   LIG d   1      10.516   8.061  -1.235  0.00  0.00     0.067 A 
ATOM      7  C   LIG d   1      10.535   6.836  -0.433  0.00  0.00     0.345 A 
ATOM      8  O   LIG d   1      10.782   6.894   0.758  0.00  0.00    -0.244 OA
ATOM      9  O   LIG d   1      10.279   5.648  -1.007  0.00  0.00    -0.422 OA
ATOM     10  C   LIG d   1      10.002   5.553  -2.325  0.00  0.00     0.141 A 
ATOM     11  C   LIG d   1       9.743   4.313  -2.890  0.00  0.00     0.002 A 
ATOM     12  H   LIG d   1       9.210   5.270  -6.099  0.00  0.00     0.064 H 
ATOM     13  H   LIG d   1       9.663   7.464  -5.132  0.00  0.00     0.062 H 
ATOM     14  H   LIG d   1      10.217   8.863  -3.187  0.00  0.00     0.063 H 
ATOM     15  H   LIG d   1       9.762   3.425  -2.277  0.00  0.00     0.067 H 
ENDROOT
BRANCH   1  16
ATOM     16  N   LIG d   1       9.205   2.968  -4.810  0.00  0.00    -0.330 N 
BRANCH  16  17
ATOM     17  C   LIG d   1       9.189   2.814  -6.266  0.00  0.00     0.009 C 
ATOM     18  H   LIG d   1       8.288   2.278  -6.564  0.00  0.00     0.046 H 
ATOM     19  H   LIG d   1       9.198   3.798  -6.735  0.00  0.00     0.046 H 
BRANCH  17  20
ATOM     20  C   LIG d   1      10.423   2.026  -6.709  0.00  0.00    -0.049 C 
ATOM     21  H   LIG d   1      10.121   1.228  -7.386  0.00  0.00     0.025 H 
ATOM     22  H   LIG d   1      11.116   2.694  -7.220  0.00  0.00     0.025 H 
ATOM     23  H   LIG d   1      10.912   1.595  -5.835  0.00  0.00     0.025 H 
ENDBRANCH  17  20
ENDBRANCH  16  17
BRANCH  16  24
ATOM     24  C   LIG d   1       8.953   1.811  -3.947  0.00  0.00     0.009 C 
ATOM     25  H   LIG d   1       9.436   0.931  -4.371  0.00  0.00     0.046 H 
ATOM     26  H   LIG d   1       9.356   2.005  -2.953  0.00  0.00     0.046 H 
BRANCH  24  27
ATOM     27  C   LIG d   1       7.446   1.568  -3.848  0.00  0.00    -0.049 C 
ATOM     28  H   LIG d   1       7.000   1.640  -4.840  0.00  0.00     0.025 H 
ATOM     29  H   LIG d   1       7.264   0.574  -3.439  0.00  0.00     0.025 H 
ATOM     30  H   LIG d   1       6.999   2.318  -3.194  0.00  0.00     0.025 H 
ENDBRANCH  24  27
ENDBRANCH  16  24
ENDBRANCH   1  16
BRANCH   6  31
ATOM     31  C   LIG d   1      10.796   9.374  -0.609  0.00  0.00    -0.011 A 
ATOM     32  C   LIG d   1       9.761  10.110  -0.034  0.00  0.00    -0.052 A 
ATOM     33  C   LIG d   1      10.027  11.332   0.548  0.00  0.00    -0.043 A 
ATOM     34  H   LIG d   1       8.752   9.724  -0.045  0.00  0.00     0.062 H 
ATOM     35  C   LIG d   1      11.319  11.829   0.562  0.00  0.00     0.041 A 
ATOM     36  H   LIG d   1       9.225  11.903   0.994  0.00  0.00     0.063 H 
ATOM     37  C   LIG d   1      12.351  11.102  -0.007  0.00  0.00    -0.043 A 
ATOM     38 CL   LIG d   1      11.647  13.367   1.297  0.00  0.00    -0.084 Cl
ATOM     39  C   LIG d   1      12.097   9.876  -0.587  0.00  0.00    -0.052 A 
ATOM     40  H   LIG d   1      13.357  11.493   0.007  0.00  0.00     0.063 H 
ATOM     41  H   LIG d   1      12.903   9.307  -1.026  0.00  0.00     0.062 H 
ENDBRANCH   6  31
TORSDOF 6
ENDMDL
MODEL 10
REMARK VINA RESULT:      -5.0      6.732      9.105
REMARK  6 active torsions:
REMARK  status: ('A' for Active; 'I' for Inactive)
REMARK    1  A    between atoms: C_1  and  C_2 
REMARK    2  A    between atoms: C_2  and  N_3 
REMARK    3  A    between atoms: N_3  and  C_4 
REMARK    4  A    between atoms: N_3  and  C_6 
REMARK    5  A    between atoms: C_4  and  C_5 
REMARK    6  A    between atoms: C_11  and  C_17 
ROOT
ATOM      1  C   LIG d   1       5.882  -0.068  -4.230  0.00  0.00     0.033 A 
ATOM      2  C   LIG d   1       6.590  -0.901  -5.099  0.00  0.00    -0.040 A 
ATOM      3  C   LIG d   1       7.912  -0.677  -5.345  0.00  0.00    -0.049 A 
ATOM      4  C   LIG d   1       8.569   0.397  -4.722  0.00  0.00     0.018 A 
ATOM      5  C   LIG d   1       9.944   0.634  -4.976  0.00  0.00    -0.036 A 
ATOM      6  C   LIG d   1      10.559   1.688  -4.356  0.00  0.00     0.067 A 
ATOM      7  C   LIG d   1       9.778   2.535  -3.451  0.00  0.00     0.345 A 
ATOM      8  O   LIG d   1      10.310   3.476  -2.891  0.00  0.00    -0.244 OA
ATOM      9  O   LIG d   1       8.476   2.276  -3.239  0.00  0.00    -0.422 OA
ATOM     10  C   LIG d   1       7.861   1.240  -3.846  0.00  0.00     0.141 A 
ATOM     11  C   LIG d   1       6.515   0.997  -3.607  0.00  0.00     0.002 A 
ATOM     12  H   LIG d   1       6.088  -1.727  -5.579  0.00  0.00     0.064 H 
ATOM     13  H   LIG d   1       8.454  -1.324  -6.017  0.00  0.00     0.062 H 
ATOM     14  H   LIG d   1      10.496  -0.006  -5.647  0.00  0.00     0.063 H 
ATOM     15  H   LIG d   1       5.962   1.637  -2.936  0.00  0.00     0.067 H 
ENDROOT
BRANCH   1  16
ATOM     16  N   LIG d   1       4.534  -0.312  -3.984  0.00  0.00    -0.330 N 
BRANCH  16  17
ATOM     17  C   LIG d   1       4.068  -0.527  -2.612  0.00  0.00     0.009 C 
ATOM     18  H   LIG d   1       4.783  -0.091  -1.914  0.00  0.00     0.046 H 
ATOM     19  H   LIG d   1       3.095  -0.053  -2.480  0.00  0.00     0.046 H 
BRANCH  17  20
ATOM     20  C   LIG d   1       3.945  -2.029  -2.345  0.00  0.00    -0.049 C 
ATOM     21  H   LIG d   1       3.616  -2.533  -3.252  0.00  0.00     0.025 H 
ATOM     22  H   LIG d   1       4.914  -2.423  -2.041  0.00  0.00     0.025 H 
ATOM     23  H   LIG d   1       3.218  -2.198  -1.551  0.00  0.00     0.025 H 
ENDBRANCH  17  20
ENDBRANCH  16  17
BRANCH  16  24
ATOM     24  C   LIG d   1       3.582  -0.354  -5.097  0.00  0.00     0.009 C 
ATOM     25  H   LIG d   1       4.091  -0.077  -6.020  0.00  0.00     0.046 H 
ATOM     26  H   LIG d   1       3.180  -1.363  -5.192  0.00  0.00     0.046 H 
BRANCH  24  27
ATOM     27  C   LIG d   1       2.441   0.628  -4.829  0.00  0.00    -0.049 C 
ATOM     28  H   LIG d   1       2.430   1.394  -5.605  0.00  0.00     0.025 H 
ATOM     29  H   LIG d   1       1.491   0.093  -4.833  0.00  0.00     0.025 H 
ATOM     30  H   LIG d   1       2.589   1.100  -3.857  0.00  0.00     0.025 H 
ENDBRANCH  24  27
ENDBRANCH  16  24
ENDBRANCH   1  16
BRANCH   6  31
ATOM     31  C   LIG d   1      11.994   1.967  -4.595  0.00  0.00    -0.011 A 
ATOM     32  C   LIG d   1      12.966   1.361  -3.800  0.00  0.00    -0.052 A 
ATOM     33  C   LIG d   1      14.301   1.624  -4.027  0.00  0.00    -0.043 A 
ATOM     34  H   LIG d   1      12.675   0.688  -3.007  0.00  0.00     0.062 H 
ATOM     35  C   LIG d   1      14.677   2.487  -5.042  0.00  0.00     0.041 A 
ATOM     36  H   LIG d   1      15.055   1.156  -3.411  0.00  0.00     0.063 H 
ATOM     37  C   LIG d   1      13.716   3.091  -5.835  0.00  0.00    -0.043 A 
ATOM     38 CL   LIG d   1      16.359   2.814  -5.323  0.00  0.00    -0.084 Cl
ATOM     39  C   LIG d   1      12.378   2.831  -5.621  0.00  0.00    -0.052 A 
ATOM     40  H   LIG d   1      14.013   3.763  -6.626  0.00  0.00     0.063 H 
ATOM     41  H   LIG d   1      11.629   3.298  -6.242  0.00  0.00     0.062 H 
ENDBRANCH   6  31
TORSDOF 6
ENDMDL
