MODEL 1
REMARK VINA RESULT:      -6.9      0.000      0.000
REMARK  8 active torsions:
REMARK  status: ('A' for Active; 'I' for Inactive)
REMARK    1  A    between atoms: C_1  and  C_2 
REMARK    2  A    between atoms: C_17  and  C_20 
REMARK    3  A    between atoms: C_20  and  C_21 
REMARK    4  A    between atoms: C_21  and  S_22 
REMARK    5  A    between atoms: S_22  and  C_23 
REMARK    6  A    between atoms: N_26  and  C_29 
REMARK    7  A    between atoms: C_29  and  C_30 
REMARK    8  A    between atoms: C_30  and  C_31 
ROOT
ATOM      1  C   LIG d   1       2.867  -0.134  -8.498  0.00  0.00    -0.049 A 
ATOM      2  C   LIG d   1       3.542  -1.150  -7.844  0.00  0.00    -0.048 A 
ATOM      3  C   LIG d   1       3.468  -2.442  -8.315  0.00  0.00     0.036 A 
ATOM      4  C   LIG d   1       2.720  -2.742  -9.450  0.00  0.00     0.061 A 
ATOM      5  C   LIG d   1       2.043  -1.713 -10.103  0.00  0.00     0.063 A 
ATOM      6  C   LIG d   1       2.117  -0.421  -9.624  0.00  0.00    -0.039 A 
ATOM      7 CL   LIG d   1       1.103  -2.059 -11.520  0.00  0.00    -0.082 Cl
ATOM      8  N   LIG d   1       2.796  -4.107  -9.732  0.00  0.00    -0.279 N 
ATOM      9  C   LIG d   1       3.562  -4.768  -8.842  0.00  0.00     0.274 A 
ATOM     10  O   LIG d   1       3.806  -5.956  -8.837  0.00  0.00    -0.269 OA
ATOM     11  C   LIG d   1       4.059  -3.746  -7.857  0.00  0.00     0.106 A 
ATOM     12  C   LIG d   1       5.591  -3.693  -7.829  0.00  0.00     0.111 A 
ATOM     13  H   LIG d   1       6.039  -4.040  -8.760  0.00  0.00     0.047 H 
ATOM     14  C   LIG d   1       5.989  -4.564  -6.605  0.00  0.00     0.096 A 
ATOM     15  H   LIG d   1       6.671  -5.374  -6.867  0.00  0.00     0.046 H 
ATOM     16  C   LIG d   1       4.651  -5.078  -6.032  0.00  0.00    -0.008 C 
ATOM     17  H   LIG d   1       4.690  -5.098  -4.942  0.00  0.00     0.086 H 
ATOM     18  N   LIG d   1       3.640  -4.076  -6.482  0.00  0.00     0.245 N 
ATOM     19  C   LIG d   1       6.609  -3.567  -5.653  0.00  0.00     0.231 A 
ATOM     20  O   LIG d   1       7.052  -3.828  -4.555  0.00  0.00    -0.275 OA
ATOM     21  N   LIG d   1       6.591  -2.351  -6.210  0.00  0.00    -0.241 N 
ATOM     22  C   LIG d   1       6.045  -2.302  -7.447  0.00  0.00     0.232 A 
ATOM     23  O   LIG d   1       5.932  -1.314  -8.140  0.00  0.00    -0.275 OA
ATOM     24  H   LIG d   1       4.126  -0.930  -6.963  0.00  0.00     0.063 H 
ATOM     25  H   LIG d   1       1.587   0.372 -10.132  0.00  0.00     0.064 H 
ATOM     26  H   LIG d   1       2.348  -4.532 -10.480  0.00  0.00     0.155 HD
ATOM     27  H   LIG d   1       3.660  -3.252  -5.900  0.00  0.00     0.203 HD
ATOM     28  H   LIG d   1       2.718  -4.487  -6.483  0.00  0.00     0.203 HD
ENDROOT
BRANCH  16  29
ATOM     29  C   LIG d   1       4.337  -6.472  -6.578  0.00  0.00     0.000 C 
ATOM     30  H   LIG d   1       3.261  -6.641  -6.545  0.00  0.00     0.033 H 
ATOM     31  H   LIG d   1       4.686  -6.544  -7.609  0.00  0.00     0.033 H 
BRANCH  29  32
ATOM     32  C   LIG d   1       5.046  -7.526  -5.725  0.00  0.00    -0.002 C 
ATOM     33  H   LIG d   1       6.074  -7.214  -5.543  0.00  0.00     0.038 H 
ATOM     34  H   LIG d   1       4.524  -7.635  -4.775  0.00  0.00     0.038 H 
BRANCH  32  35
ATOM     35  S   LIG d   1       5.043  -9.114  -6.601  0.00  0.00    -0.164 SA
BRANCH  35  36
ATOM     36  C   LIG d   1       4.669 -10.329  -5.307  0.00  0.00    -0.018 C 
ATOM     37  H   LIG d   1       3.890  -9.936  -4.654  0.00  0.00     0.034 H 
ATOM     38  H   LIG d   1       4.327 -11.256  -5.766  0.00  0.00     0.034 H 
ATOM     39  H   LIG d   1       5.570 -10.524  -4.722  0.00  0.00     0.034 H 
ENDBRANCH  35  36
ENDBRANCH  32  35
ENDBRANCH  29  32
ENDBRANCH  16  29
BRANCH   1  40
ATOM     40  C   LIG d   1       2.947   1.279  -7.983  0.00  0.00    -0.040 C 
ATOM     41  H   LIG d   1       3.661   1.326  -7.161  0.00  0.00     0.028 H 
ATOM     42  H   LIG d   1       3.272   1.941  -8.785  0.00  0.00     0.028 H 
ATOM     43  H   LIG d   1       1.965   1.593  -7.629  0.00  0.00     0.028 H 
ENDBRANCH   1  40
BRANCH  21  44
ATOM     44  C   LIG d   1       7.126  -1.164  -5.538  0.00  0.00     0.026 C 
ATOM     45  H   LIG d   1       7.499  -1.441  -4.553  0.00  0.00     0.047 H 
ATOM     46  H   LIG d   1       7.940  -0.746  -6.131  0.00  0.00     0.047 H 
BRANCH  44  47
ATOM     47  C   LIG d   1       6.017  -0.120  -5.387  0.00  0.00    -0.011 C 
ATOM     48  H   LIG d   1       6.456   0.842  -5.122  0.00  0.00     0.033 H 
ATOM     49  H   LIG d   1       5.477  -0.025  -6.330  0.00  0.00     0.033 H 
BRANCH  47  50
ATOM     50  C   LIG d   1       5.064  -0.553  -4.304  0.00  0.00    -0.046 A 
ATOM     51  C   LIG d   1       5.553  -1.071  -3.119  0.00  0.00    -0.059 A 
ATOM     52  C   LIG d   1       4.679  -1.465  -2.123  0.00  0.00    -0.061 A 
ATOM     53  H   LIG d   1       6.619  -1.165  -2.971  0.00  0.00     0.062 H 
ATOM     54  C   LIG d   1       3.315  -1.349  -2.316  0.00  0.00    -0.062 A 
ATOM     55  H   LIG d   1       5.061  -1.865  -1.196  0.00  0.00     0.062 H 
ATOM     56  C   LIG d   1       2.825  -0.836  -3.502  0.00  0.00    -0.061 A 
ATOM     57  H   LIG d   1       2.632  -1.659  -1.538  0.00  0.00     0.062 H 
ATOM     58  C   LIG d   1       3.699  -0.439  -4.496  0.00  0.00    -0.059 A 
ATOM     59  H   LIG d   1       1.759  -0.746  -3.653  0.00  0.00     0.062 H 
ATOM     60  H   LIG d   1       3.317  -0.038  -5.424  0.00  0.00     0.062 H 
ENDBRANCH  47  50
ENDBRANCH  44  47
ENDBRANCH  21  44
TORSDOF 8
ENDMDL
MODEL 2
REMARK VINA RESULT:      -6.9      3.789      5.848
REMARK  8 active torsions:
REMARK  status: ('A' for Active; 'I' for Inactive)
REMARK    1  A    between atoms: C_1  and  C_2 
REMARK    2  A    between atoms: C_17  and  C_20 
REMARK    3  A    between atoms: C_20  and  C_21 
REMARK    4  A    between atoms: C_21  and  S_22 
REMARK    5  A    between atoms: S_22  and  C_23 
REMARK    6  A    between atoms: N_26  and  C_29 
REMARK    7  A    between atoms: C_29  and  C_30 
REMARK    8  A    between atoms: C_30  and  C_31 
ROOT
ATOM      1  C   LIG d   1       8.988   2.142  -5.216  0.00  0.00    -0.049 A 
ATOM      2  C   LIG d   1       8.007   1.266  -5.647  0.00  0.00    -0.048 A 
ATOM      3  C   LIG d   1       7.626   1.255  -6.970  0.00  0.00     0.036 A 
ATOM      4  C   LIG d   1       8.219   2.119  -7.887  0.00  0.00     0.061 A 
ATOM      5  C   LIG d   1       9.206   2.998  -7.445  0.00  0.00     0.063 A 
ATOM      6  C   LIG d   1       9.581   3.008  -6.116  0.00  0.00    -0.039 A 
ATOM      7 CL   LIG d   1       9.962   4.085  -8.566  0.00  0.00    -0.082 Cl
ATOM      8  N   LIG d   1       7.672   1.924  -9.157  0.00  0.00    -0.279 N 
ATOM      9  C   LIG d   1       6.725   0.966  -9.162  0.00  0.00     0.274 A 
ATOM     10  O   LIG d   1       6.083   0.586 -10.118  0.00  0.00    -0.269 OA
ATOM     11  C   LIG d   1       6.620   0.456  -7.750  0.00  0.00     0.106 A 
ATOM     12  C   LIG d   1       6.912  -1.047  -7.675  0.00  0.00     0.111 A 
ATOM     13  H   LIG d   1       7.537  -1.395  -8.497  0.00  0.00     0.047 H 
ATOM     14  C   LIG d   1       5.509  -1.717  -7.657  0.00  0.00     0.096 A 
ATOM     15  H   LIG d   1       5.379  -2.444  -8.459  0.00  0.00     0.046 H 
ATOM     16  C   LIG d   1       4.510  -0.545  -7.751  0.00  0.00    -0.008 C 
ATOM     17  H   LIG d   1       3.637  -0.742  -7.127  0.00  0.00     0.086 H 
ATOM     18  N   LIG d   1       5.257   0.631  -7.215  0.00  0.00     0.245 N 
ATOM     19  C   LIG d   1       5.439  -2.346  -6.284  0.00  0.00     0.231 A 
ATOM     20  O   LIG d   1       4.497  -2.970  -5.847  0.00  0.00    -0.275 OA
ATOM     21  N   LIG d   1       6.580  -2.106  -5.628  0.00  0.00    -0.241 N 
ATOM     22  C   LIG d   1       7.492  -1.385  -6.320  0.00  0.00     0.232 A 
ATOM     23  O   LIG d   1       8.592  -1.059  -5.927  0.00  0.00    -0.275 OA
ATOM     24  H   LIG d   1       7.541   0.591  -4.946  0.00  0.00     0.063 H 
ATOM     25  H   LIG d   1      10.344   3.695  -5.778  0.00  0.00     0.064 H 
ATOM     26  H   LIG d   1       7.941   2.422  -9.945  0.00  0.00     0.155 HD
ATOM     27  H   LIG d   1       5.271   0.624  -6.206  0.00  0.00     0.203 HD
ATOM     28  H   LIG d   1       4.851   1.488  -7.558  0.00  0.00     0.203 HD
ENDROOT
BRANCH  16  29
ATOM     29  C   LIG d   1       4.085  -0.321  -9.204  0.00  0.00     0.000 C 
ATOM     30  H   LIG d   1       4.716   0.446  -9.652  0.00  0.00     0.033 H 
ATOM     31  H   LIG d   1       4.193  -1.252  -9.760  0.00  0.00     0.033 H 
BRANCH  29  32
ATOM     32  C   LIG d   1       2.624   0.130  -9.244  0.00  0.00    -0.002 C 
ATOM     33  H   LIG d   1       2.186   0.034  -8.251  0.00  0.00     0.038 H 
ATOM     34  H   LIG d   1       2.574   1.171  -9.565  0.00  0.00     0.038 H 
BRANCH  32  35
ATOM     35  S   LIG d   1       1.704  -0.906 -10.414  0.00  0.00    -0.164 SA
BRANCH  35  36
ATOM     36  C   LIG d   1       2.114  -2.602  -9.917  0.00  0.00    -0.018 C 
ATOM     37  H   LIG d   1       3.149  -2.818 -10.183  0.00  0.00     0.034 H 
ATOM     38  H   LIG d   1       1.987  -2.705  -8.839  0.00  0.00     0.034 H 
ATOM     39  H   LIG d   1       1.452  -3.301 -10.430  0.00  0.00     0.034 H 
ENDBRANCH  35  36
ENDBRANCH  32  35
ENDBRANCH  29  32
ENDBRANCH  16  29
BRANCH   1  40
ATOM     40  C   LIG d   1       9.405   2.155  -3.768  0.00  0.00    -0.040 C 
ATOM     41  H   LIG d   1       9.148   3.117  -3.325  0.00  0.00     0.028 H 
ATOM     42  H   LIG d   1       8.887   1.359  -3.234  0.00  0.00     0.028 H 
ATOM     43  H   LIG d   1      10.481   1.998  -3.699  0.00  0.00     0.028 H 
ENDBRANCH   1  40
BRANCH  21  44
ATOM     44  C   LIG d   1       6.826  -2.589  -4.266  0.00  0.00     0.026 C 
ATOM     45  H   LIG d   1       5.952  -3.132  -3.909  0.00  0.00     0.047 H 
ATOM     46  H   LIG d   1       7.691  -3.253  -4.267  0.00  0.00     0.047 H 
BRANCH  44  47
ATOM     47  C   LIG d   1       7.098  -1.398  -3.344  0.00  0.00    -0.011 C 
ATOM     48  H   LIG d   1       7.571  -1.749  -2.426  0.00  0.00     0.033 H 
ATOM     49  H   LIG d   1       7.760  -0.693  -3.847  0.00  0.00     0.033 H 
BRANCH  47  50
ATOM     50  C   LIG d   1       5.796  -0.716  -3.009  0.00  0.00    -0.046 A 
ATOM     51  C   LIG d   1       5.720   0.664  -3.007  0.00  0.00    -0.059 A 
ATOM     52  C   LIG d   1       4.525   1.290  -2.703  0.00  0.00    -0.061 A 
ATOM     53  H   LIG d   1       6.593   1.254  -3.245  0.00  0.00     0.062 H 
ATOM     54  C   LIG d   1       3.409   0.535  -2.394  0.00  0.00    -0.062 A 
ATOM     55  H   LIG d   1       4.464   2.368  -2.706  0.00  0.00     0.062 H 
ATOM     56  C   LIG d   1       3.487  -0.844  -2.391  0.00  0.00    -0.061 A 
ATOM     57  H   LIG d   1       2.476   1.025  -2.155  0.00  0.00     0.062 H 
ATOM     58  C   LIG d   1       4.680  -1.470  -2.698  0.00  0.00    -0.059 A 
ATOM     59  H   LIG d   1       2.615  -1.434  -2.149  0.00  0.00     0.062 H 
ATOM     60  H   LIG d   1       4.742  -2.549  -2.696  0.00  0.00     0.062 H 
ENDBRANCH  47  50
ENDBRANCH  44  47
ENDBRANCH  21  44
TORSDOF 8
ENDMDL
MODEL 3
REMARK VINA RESULT:      -6.7      1.637      2.044
REMARK  8 active torsions:
REMARK  status: ('A' for Active; 'I' for Inactive)
REMARK    1  A    between atoms: C_1  and  C_2 
REMARK    2  A    between atoms: C_17  and  C_20 
REMARK    3  A    between atoms: C_20  and  C_21 
REMARK    4  A    between atoms: C_21  and  S_22 
REMARK    5  A    between atoms: S_22  and  C_23 
REMARK    6  A    between atoms: N_26  and  C_29 
REMARK    7  A    between atoms: C_29  and  C_30 
REMARK    8  A    between atoms: C_30  and  C_31 
ROOT
ATOM      1  C   LIG d   1       3.150  -0.265  -6.689  0.00  0.00    -0.049 A 
ATOM      2  C   LIG d   1       4.138  -1.235  -6.684  0.00  0.00    -0.048 A 
ATOM      3  C   LIG d   1       4.392  -1.966  -7.823  0.00  0.00     0.036 A 
ATOM      4  C   LIG d   1       3.665  -1.741  -8.988  0.00  0.00     0.061 A 
ATOM      5  C   LIG d   1       2.672  -0.762  -8.985  0.00  0.00     0.063 A 
ATOM      6  C   LIG d   1       2.418  -0.036  -7.839  0.00  0.00    -0.039 A 
ATOM      7 CL   LIG d   1       1.751  -0.460 -10.424  0.00  0.00    -0.082 Cl
ATOM      8  N   LIG d   1       4.099  -2.597 -10.002  0.00  0.00    -0.279 N 
ATOM      9  C   LIG d   1       5.094  -3.408  -9.591  0.00  0.00     0.274 A 
ATOM     10  O   LIG d   1       5.663  -4.249 -10.254  0.00  0.00    -0.269 OA
ATOM     11  C   LIG d   1       5.364  -3.065  -8.152  0.00  0.00     0.106 A 
ATOM     12  C   LIG d   1       6.815  -2.615  -7.946  0.00  0.00     0.111 A 
ATOM     13  H   LIG d   1       7.262  -2.212  -8.855  0.00  0.00     0.047 H 
ATOM     14  C   LIG d   1       7.547  -3.883  -7.424  0.00  0.00     0.096 A 
ATOM     15  H   LIG d   1       8.404  -4.159  -8.038  0.00  0.00     0.046 H 
ATOM     16  C   LIG d   1       6.462  -4.981  -7.393  0.00  0.00    -0.008 C 
ATOM     17  H   LIG d   1       6.598  -5.622  -6.521  0.00  0.00     0.086 H 
ATOM     18  N   LIG d   1       5.175  -4.235  -7.275  0.00  0.00     0.245 N 
ATOM     19  C   LIG d   1       7.938  -3.506  -6.014  0.00  0.00     0.231 A 
ATOM     20  O   LIG d   1       8.529  -4.223  -5.235  0.00  0.00    -0.275 OA
ATOM     21  N   LIG d   1       7.530  -2.257  -5.759  0.00  0.00    -0.241 N 
ATOM     22  C   LIG d   1       6.889  -1.651  -6.784  0.00  0.00     0.232 A 
ATOM     23  O   LIG d   1       6.443  -0.523  -6.780  0.00  0.00    -0.275 OA
ATOM     24  H   LIG d   1       4.710  -1.419  -5.786  0.00  0.00     0.063 H 
ATOM     25  H   LIG d   1       1.644   0.719  -7.841  0.00  0.00     0.064 H 
ATOM     26  H   LIG d   1       3.727  -2.609 -10.897  0.00  0.00     0.155 HD
ATOM     27  H   LIG d   1       5.011  -3.941  -6.324  0.00  0.00     0.203 HD
ATOM     28  H   LIG d   1       4.410  -4.804  -7.607  0.00  0.00     0.203 HD
ENDROOT
BRANCH  16  29
ATOM     29  C   LIG d   1       6.509  -5.813  -8.676  0.00  0.00     0.000 C 
ATOM     30  H   LIG d   1       5.803  -5.406  -9.399  0.00  0.00     0.033 H 
ATOM     31  H   LIG d   1       7.516  -5.780  -9.093  0.00  0.00     0.033 H 
BRANCH  29  32
ATOM     32  C   LIG d   1       6.136  -7.262  -8.359  0.00  0.00    -0.002 C 
ATOM     33  H   LIG d   1       5.061  -7.396  -8.477  0.00  0.00     0.038 H 
ATOM     34  H   LIG d   1       6.664  -7.931  -9.039  0.00  0.00     0.038 H 
BRANCH  32  35
ATOM     35  S   LIG d   1       6.608  -7.647  -6.650  0.00  0.00    -0.164 SA
BRANCH  35  36
ATOM     36  C   LIG d   1       5.043  -8.106  -5.855  0.00  0.00    -0.018 C 
ATOM     37  H   LIG d   1       4.382  -7.240  -5.826  0.00  0.00     0.034 H 
ATOM     38  H   LIG d   1       4.568  -8.907  -6.422  0.00  0.00     0.034 H 
ATOM     39  H   LIG d   1       5.240  -8.447  -4.838  0.00  0.00     0.034 H 
ENDBRANCH  35  36
ENDBRANCH  32  35
ENDBRANCH  29  32
ENDBRANCH  16  29
BRANCH   1  40
ATOM     40  C   LIG d   1       2.872   0.534  -5.443  0.00  0.00    -0.040 C 
ATOM     41  H   LIG d   1       2.886  -0.127  -4.577  0.00  0.00     0.028 H 
ATOM     42  H   LIG d   1       3.635   1.303  -5.326  0.00  0.00     0.028 H 
ATOM     43  H   LIG d   1       1.892   1.005  -5.525  0.00  0.00     0.028 H 
ENDBRANCH   1  40
BRANCH  21  44
ATOM     44  C   LIG d   1       7.763  -1.595  -4.472  0.00  0.00     0.026 C 
ATOM     45  H   LIG d   1       8.780  -1.798  -4.139  0.00  0.00     0.047 H 
ATOM     46  H   LIG d   1       7.625  -0.520  -4.587  0.00  0.00     0.047 H 
BRANCH  44  47
ATOM     47  C   LIG d   1       6.771  -2.130  -3.437  0.00  0.00    -0.011 C 
ATOM     48  H   LIG d   1       6.170  -2.922  -3.885  0.00  0.00     0.033 H 
ATOM     49  H   LIG d   1       7.318  -2.530  -2.582  0.00  0.00     0.033 H 
BRANCH  47  50
ATOM     50  C   LIG d   1       5.871  -1.012  -2.980  0.00  0.00    -0.046 A 
ATOM     51  C   LIG d   1       6.246   0.303  -3.179  0.00  0.00    -0.059 A 
ATOM     52  C   LIG d   1       5.418   1.329  -2.763  0.00  0.00    -0.061 A 
ATOM     53  H   LIG d   1       7.186   0.529  -3.662  0.00  0.00     0.062 H 
ATOM     54  C   LIG d   1       4.218   1.040  -2.141  0.00  0.00    -0.062 A 
ATOM     55  H   LIG d   1       5.709   2.357  -2.923  0.00  0.00     0.062 H 
ATOM     56  C   LIG d   1       3.845  -0.275  -1.937  0.00  0.00    -0.061 A 
ATOM     57  H   LIG d   1       3.573   1.842  -1.814  0.00  0.00     0.062 H 
ATOM     58  C   LIG d   1       4.671  -1.301  -2.356  0.00  0.00    -0.059 A 
ATOM     59  H   LIG d   1       2.908  -0.502  -1.450  0.00  0.00     0.062 H 
ATOM     60  H   LIG d   1       4.380  -2.329  -2.197  0.00  0.00     0.062 H 
ENDBRANCH  47  50
ENDBRANCH  44  47
ENDBRANCH  21  44
TORSDOF 8
ENDMDL
MODEL 4
REMARK VINA RESULT:      -6.4      3.642      5.786
REMARK  8 active torsions:
REMARK  status: ('A' for Active; 'I' for Inactive)
REMARK    1  A    between atoms: C_1  and  C_2 
REMARK    2  A    between atoms: C_17  and  C_20 
REMARK    3  A    between atoms: C_20  and  C_21 
REMARK    4  A    between atoms: C_21  and  S_22 
REMARK    5  A    between atoms: S_22  and  C_23 
REMARK    6  A    between atoms: N_26  and  C_29 
REMARK    7  A    between atoms: C_29  and  C_30 
REMARK    8  A    between atoms: C_30  and  C_31 
ROOT
ATOM      1  C   LIG d   1       3.538  -3.322  -8.930  0.00  0.00    -0.049 A 
ATOM      2  C   LIG d   1       4.581  -2.506  -8.525  0.00  0.00    -0.048 A 
ATOM      3  C   LIG d   1       4.654  -1.206  -8.974  0.00  0.00     0.036 A 
ATOM      4  C   LIG d   1       3.685  -0.698  -9.835  0.00  0.00     0.061 A 
ATOM      5  C   LIG d   1       2.638  -1.525 -10.237  0.00  0.00     0.063 A 
ATOM      6  C   LIG d   1       2.573  -2.829  -9.788  0.00  0.00    -0.039 A 
ATOM      7 CL   LIG d   1       1.417  -0.916 -11.309  0.00  0.00    -0.082 Cl
ATOM      8  N   LIG d   1       3.970   0.633 -10.150  0.00  0.00    -0.279 N 
ATOM      9  C   LIG d   1       5.093   1.069  -9.548  0.00  0.00     0.274 A 
ATOM     10  O   LIG d   1       5.581   2.175  -9.638  0.00  0.00    -0.269 OA
ATOM     11  C   LIG d   1       5.625  -0.083  -8.739  0.00  0.00     0.106 A 
ATOM     12  C   LIG d   1       5.724   0.275  -7.252  0.00  0.00     0.111 A 
ATOM     13  H   LIG d   1       5.035   1.070  -6.965  0.00  0.00     0.047 H 
ATOM     14  C   LIG d   1       7.215   0.663  -7.043  0.00  0.00     0.096 A 
ATOM     15  H   LIG d   1       7.336   1.662  -6.623  0.00  0.00     0.046 H 
ATOM     16  C   LIG d   1       7.860   0.524  -8.438  0.00  0.00    -0.008 C 
ATOM     17  H   LIG d   1       8.869   0.121  -8.349  0.00  0.00     0.086 H 
ATOM     18  N   LIG d   1       6.989  -0.451  -9.159  0.00  0.00     0.245 N 
ATOM     19  C   LIG d   1       7.733  -0.420  -6.125  0.00  0.00     0.231 A 
ATOM     20  O   LIG d   1       8.870  -0.505  -5.713  0.00  0.00    -0.275 OA
ATOM     21  N   LIG d   1       6.741  -1.271  -5.839  0.00  0.00    -0.241 N 
ATOM     22  C   LIG d   1       5.554  -0.973  -6.416  0.00  0.00     0.232 A 
ATOM     23  O   LIG d   1       4.522  -1.596  -6.290  0.00  0.00    -0.275 OA
ATOM     24  H   LIG d   1       5.338  -2.889  -7.857  0.00  0.00     0.063 H 
ATOM     25  H   LIG d   1       1.761  -3.467 -10.107  0.00  0.00     0.064 H 
ATOM     26  H   LIG d   1       3.423   1.180 -10.735  0.00  0.00     0.155 HD
ATOM     27  H   LIG d   1       7.200  -1.399  -8.884  0.00  0.00     0.203 HD
ATOM     28  H   LIG d   1       7.093  -0.341 -10.157  0.00  0.00     0.203 HD
ENDROOT
BRANCH  16  29
ATOM     29  C   LIG d   1       7.889   1.878  -9.150  0.00  0.00     0.000 C 
ATOM     30  H   LIG d   1       7.795   1.725 -10.225  0.00  0.00     0.033 H 
ATOM     31  H   LIG d   1       7.060   2.491  -8.796  0.00  0.00     0.033 H 
BRANCH  29  32
ATOM     32  C   LIG d   1       9.211   2.585  -8.847  0.00  0.00    -0.002 C 
ATOM     33  H   LIG d   1       9.467   2.445  -7.797  0.00  0.00     0.038 H 
ATOM     34  H   LIG d   1       9.999   2.166  -9.473  0.00  0.00     0.038 H 
BRANCH  32  35
ATOM     35  S   LIG d   1       9.043   4.357  -9.196  0.00  0.00    -0.164 SA
BRANCH  35  36
ATOM     36  C   LIG d   1       9.765   5.162  -7.740  0.00  0.00    -0.018 C 
ATOM     37  H   LIG d   1      10.769   5.510  -7.978  0.00  0.00     0.034 H 
ATOM     38  H   LIG d   1       9.145   6.011  -7.449  0.00  0.00     0.034 H 
ATOM     39  H   LIG d   1       9.813   4.448  -6.917  0.00  0.00     0.034 H 
ENDBRANCH  35  36
ENDBRANCH  32  35
ENDBRANCH  29  32
ENDBRANCH  16  29
BRANCH   1  40
ATOM     40  C   LIG d   1       3.459  -4.744  -8.439  0.00  0.00    -0.040 C 
ATOM     41  H   LIG d   1       4.385  -5.003  -7.926  0.00  0.00     0.028 H 
ATOM     42  H   LIG d   1       2.621  -4.844  -7.750  0.00  0.00     0.028 H 
ATOM     43  H   LIG d   1       3.314  -5.413  -9.288  0.00  0.00     0.028 H 
ENDBRANCH   1  40
BRANCH  21  44
ATOM     44  C   LIG d   1       6.922  -2.433  -4.965  0.00  0.00     0.026 C 
ATOM     45  H   LIG d   1       6.036  -3.065  -5.012  0.00  0.00     0.047 H 
ATOM     46  H   LIG d   1       7.793  -3.002  -5.293  0.00  0.00     0.047 H 
BRANCH  44  47
ATOM     47  C   LIG d   1       7.135  -1.960  -3.525  0.00  0.00    -0.011 C 
ATOM     48  H   LIG d   1       7.288  -2.823  -2.877  0.00  0.00     0.033 H 
ATOM     49  H   LIG d   1       8.012  -1.314  -3.481  0.00  0.00     0.033 H 
BRANCH  47  50
ATOM     50  C   LIG d   1       5.922  -1.194  -3.064  0.00  0.00    -0.046 A 
ATOM     51  C   LIG d   1       4.734  -1.858  -2.828  0.00  0.00    -0.059 A 
ATOM     52  C   LIG d   1       3.622  -1.155  -2.402  0.00  0.00    -0.061 A 
ATOM     53  H   LIG d   1       4.674  -2.927  -2.974  0.00  0.00     0.062 H 
ATOM     54  C   LIG d   1       3.697   0.213  -2.220  0.00  0.00    -0.062 A 
ATOM     55  H   LIG d   1       2.694  -1.676  -2.212  0.00  0.00     0.062 H 
ATOM     56  C   LIG d   1       4.884   0.878  -2.462  0.00  0.00    -0.061 A 
ATOM     57  H   LIG d   1       2.827   0.762  -1.889  0.00  0.00     0.062 H 
ATOM     58  C   LIG d   1       5.997   0.175  -2.884  0.00  0.00    -0.059 A 
ATOM     59  H   LIG d   1       4.942   1.948  -2.320  0.00  0.00     0.062 H 
ATOM     60  H   LIG d   1       6.924   0.695  -3.073  0.00  0.00     0.062 H 
ENDBRANCH  47  50
ENDBRANCH  44  47
ENDBRANCH  21  44
TORSDOF 8
ENDMDL
MODEL 5
REMARK VINA RESULT:      -6.4      2.827      3.173
REMARK  8 active torsions:
REMARK  status: ('A' for Active; 'I' for Inactive)
REMARK    1  A    between atoms: C_1  and  C_2 
REMARK    2  A    between atoms: C_17  and  C_20 
REMARK    3  A    between atoms: C_20  and  C_21 
REMARK    4  A    between atoms: C_21  and  S_22 
REMARK    5  A    between atoms: S_22  and  C_23 
REMARK    6  A    between atoms: N_26  and  C_29 
REMARK    7  A    between atoms: C_29  and  C_30 
REMARK    8  A    between atoms: C_30  and  C_31 
ROOT
ATOM      1  C   LIG d   1       3.083  -0.116  -6.973  0.00  0.00    -0.049 A 
ATOM      2  C   LIG d   1       4.298  -0.775  -6.901  0.00  0.00    -0.048 A 
ATOM      3  C   LIG d   1       4.848  -1.331  -8.033  0.00  0.00     0.036 A 
ATOM      4  C   LIG d   1       4.196  -1.238  -9.259  0.00  0.00     0.061 A 
ATOM      5  C   LIG d   1       2.973  -0.573  -9.324  0.00  0.00     0.063 A 
ATOM      6  C   LIG d   1       2.423  -0.021  -8.184  0.00  0.00    -0.039 A 
ATOM      7 CL   LIG d   1       2.138  -0.442 -10.839  0.00  0.00    -0.082 Cl
ATOM      8  N   LIG d   1       4.943  -1.874 -10.253  0.00  0.00    -0.279 N 
ATOM      9  C   LIG d   1       6.084  -2.405  -9.772  0.00  0.00     0.274 A 
ATOM     10  O   LIG d   1       6.923  -3.012 -10.402  0.00  0.00    -0.269 OA
ATOM     11  C   LIG d   1       6.115  -2.096  -8.299  0.00  0.00     0.106 A 
ATOM     12  C   LIG d   1       7.357  -1.279  -7.925  0.00  0.00     0.111 A 
ATOM     13  H   LIG d   1       7.754  -0.710  -8.765  0.00  0.00     0.047 H 
ATOM     14  C   LIG d   1       8.364  -2.329  -7.377  0.00  0.00     0.096 A 
ATOM     15  H   LIG d   1       9.317  -2.317  -7.908  0.00  0.00     0.046 H 
ATOM     16  C   LIG d   1       7.633  -3.683  -7.502  0.00  0.00    -0.008 C 
ATOM     17  H   LIG d   1       7.863  -4.317  -6.646  0.00  0.00     0.086 H 
ATOM     18  N   LIG d   1       6.183  -3.328  -7.493  0.00  0.00     0.245 N 
ATOM     19  C   LIG d   1       8.505  -1.952  -5.920  0.00  0.00     0.231 A 
ATOM     20  O   LIG d   1       9.200  -2.529  -5.111  0.00  0.00    -0.275 OA
ATOM     21  N   LIG d   1       7.742  -0.883  -5.663  0.00  0.00    -0.241 N 
ATOM     22  C   LIG d   1       7.052  -0.410  -6.726  0.00  0.00     0.232 A 
ATOM     23  O   LIG d   1       6.309   0.548  -6.726  0.00  0.00    -0.275 OA
ATOM     24  H   LIG d   1       4.814  -0.852  -5.956  0.00  0.00     0.063 H 
ATOM     25  H   LIG d   1       1.472   0.490  -8.240  0.00  0.00     0.064 H 
ATOM     26  H   LIG d   1       4.672  -1.928 -11.183  0.00  0.00     0.155 HD
ATOM     27  H   LIG d   1       5.857  -3.154  -6.554  0.00  0.00     0.203 HD
ATOM     28  H   LIG d   1       5.641  -4.063  -7.924  0.00  0.00     0.203 HD
ENDROOT
BRANCH  16  29
ATOM     29  C   LIG d   1       8.027  -4.383  -8.804  0.00  0.00     0.000 C 
ATOM     30  H   LIG d   1       7.337  -5.204  -8.998  0.00  0.00     0.033 H 
ATOM     31  H   LIG d   1       7.984  -3.670  -9.627  0.00  0.00     0.033 H 
BRANCH  29  32
ATOM     32  C   LIG d   1       9.450  -4.930  -8.678  0.00  0.00    -0.002 C 
ATOM     33  H   LIG d   1       9.683  -5.544  -9.548  0.00  0.00     0.038 H 
ATOM     34  H   LIG d   1      10.155  -4.101  -8.618  0.00  0.00     0.038 H 
BRANCH  32  35
ATOM     35  S   LIG d   1       9.578  -5.939  -7.175  0.00  0.00    -0.164 SA
BRANCH  35  36
ATOM     36  C   LIG d   1      11.050  -5.292  -6.336  0.00  0.00    -0.018 C 
ATOM     37  H   LIG d   1      11.800  -6.080  -6.259  0.00  0.00     0.034 H 
ATOM     38  H   LIG d   1      11.457  -4.457  -6.906  0.00  0.00     0.034 H 
ATOM     39  H   LIG d   1      10.778  -4.951  -5.336  0.00  0.00     0.034 H 
ENDBRANCH  35  36
ENDBRANCH  32  35
ENDBRANCH  29  32
ENDBRANCH  16  29
BRANCH   1  40
ATOM     40  C   LIG d   1       2.479   0.493  -5.734  0.00  0.00    -0.040 C 
ATOM     41  H   LIG d   1       2.829   1.519  -5.627  0.00  0.00     0.028 H 
ATOM     42  H   LIG d   1       1.393   0.485  -5.818  0.00  0.00     0.028 H 
ATOM     43  H   LIG d   1       2.780  -0.087  -4.861  0.00  0.00     0.028 H 
ENDBRANCH   1  40
BRANCH  21  44
ATOM     44  C   LIG d   1       7.663  -0.269  -4.335  0.00  0.00     0.026 C 
ATOM     45  H   LIG d   1       8.663   0.003  -4.000  0.00  0.00     0.047 H 
ATOM     46  H   LIG d   1       7.040   0.625  -4.384  0.00  0.00     0.047 H 
BRANCH  44  47
ATOM     47  C   LIG d   1       7.048  -1.264  -3.348  0.00  0.00    -0.011 C 
ATOM     48  H   LIG d   1       7.012  -2.254  -3.805  0.00  0.00     0.033 H 
ATOM     49  H   LIG d   1       7.657  -1.304  -2.445  0.00  0.00     0.033 H 
BRANCH  47  50
ATOM     50  C   LIG d   1       5.651  -0.824  -2.995  0.00  0.00    -0.046 A 
ATOM     51  C   LIG d   1       4.602  -1.719  -3.077  0.00  0.00    -0.059 A 
ATOM     52  C   LIG d   1       3.321  -1.316  -2.750  0.00  0.00    -0.061 A 
ATOM     53  H   LIG d   1       4.783  -2.736  -3.395  0.00  0.00     0.062 H 
ATOM     54  C   LIG d   1       3.088  -0.014  -2.348  0.00  0.00    -0.062 A 
ATOM     55  H   LIG d   1       2.502  -2.018  -2.809  0.00  0.00     0.062 H 
ATOM     56  C   LIG d   1       4.136   0.883  -2.271  0.00  0.00    -0.061 A 
ATOM     57  H   LIG d   1       2.087   0.302  -2.094  0.00  0.00     0.062 H 
ATOM     58  C   LIG d   1       5.417   0.479  -2.595  0.00  0.00    -0.059 A 
ATOM     59  H   LIG d   1       3.954   1.901  -1.958  0.00  0.00     0.062 H 
ATOM     60  H   LIG d   1       6.237   1.180  -2.535  0.00  0.00     0.062 H 
ENDBRANCH  47  50
ENDBRANCH  44  47
ENDBRANCH  21  44
TORSDOF 8
ENDMDL
MODEL 6
REMARK VINA RESULT:      -6.3      3.192      6.397
REMARK  8 active torsions:
REMARK  status: ('A' for Active; 'I' for Inactive)
REMARK    1  A    between atoms: C_1  and  C_2 
REMARK    2  A    between atoms: C_17  and  C_20 
REMARK    3  A    between atoms: C_20  and  C_21 
REMARK    4  A    between atoms: C_21  and  S_22 
REMARK    5  A    between atoms: S_22  and  C_23 
REMARK    6  A    between atoms: N_26  and  C_29 
REMARK    7  A    between atoms: C_29  and  C_30 
REMARK    8  A    between atoms: C_30  and  C_31 
ROOT
ATOM      1  C   LIG d   1       4.832  -4.421  -9.691  0.00  0.00    -0.049 A 
ATOM      2  C   LIG d   1       4.601  -3.531  -8.656  0.00  0.00    -0.048 A 
ATOM      3  C   LIG d   1       5.341  -3.613  -7.499  0.00  0.00     0.036 A 
ATOM      4  C   LIG d   1       6.328  -4.584  -7.354  0.00  0.00     0.061 A 
ATOM      5  C   LIG d   1       6.555  -5.476  -8.401  0.00  0.00     0.063 A 
ATOM      6  C   LIG d   1       5.806  -5.394  -9.557  0.00  0.00    -0.039 A 
ATOM      7 CL   LIG d   1       7.779  -6.696  -8.247  0.00  0.00    -0.082 Cl
ATOM      8  N   LIG d   1       6.940  -4.468  -6.104  0.00  0.00    -0.279 N 
ATOM      9  C   LIG d   1       6.420  -3.462  -5.375  0.00  0.00     0.274 A 
ATOM     10  O   LIG d   1       6.754  -3.131  -4.257  0.00  0.00    -0.269 OA
ATOM     11  C   LIG d   1       5.347  -2.828  -6.217  0.00  0.00     0.106 A 
ATOM     12  C   LIG d   1       5.635  -1.343  -6.465  0.00  0.00     0.111 A 
ATOM     13  H   LIG d   1       6.696  -1.103  -6.390  0.00  0.00     0.047 H 
ATOM     14  C   LIG d   1       4.771  -0.596  -5.412  0.00  0.00     0.096 A 
ATOM     15  H   LIG d   1       5.359   0.066  -4.775  0.00  0.00     0.046 H 
ATOM     16  C   LIG d   1       4.066  -1.713  -4.613  0.00  0.00    -0.008 C 
ATOM     17  H   LIG d   1       3.048  -1.414  -4.364  0.00  0.00     0.086 H 
ATOM     18  N   LIG d   1       4.036  -2.879  -5.545  0.00  0.00     0.245 N 
ATOM     19  C   LIG d   1       3.762   0.152  -6.253  0.00  0.00     0.231 A 
ATOM     20  O   LIG d   1       2.880   0.863  -5.822  0.00  0.00    -0.275 OA
ATOM     21  N   LIG d   1       3.994  -0.095  -7.547  0.00  0.00    -0.241 N 
ATOM     22  C   LIG d   1       5.036  -0.923  -7.789  0.00  0.00     0.232 A 
ATOM     23  O   LIG d   1       5.431  -1.276  -8.880  0.00  0.00    -0.275 OA
ATOM     24  H   LIG d   1       3.839  -2.773  -8.757  0.00  0.00     0.063 H 
ATOM     25  H   LIG d   1       5.983  -6.091 -10.364  0.00  0.00     0.064 H 
ATOM     26  H   LIG d   1       7.655  -5.047  -5.796  0.00  0.00     0.155 HD
ATOM     27  H   LIG d   1       3.290  -2.786  -6.219  0.00  0.00     0.203 HD
ATOM     28  H   LIG d   1       3.939  -3.738  -5.026  0.00  0.00     0.203 HD
ENDROOT
BRANCH  16  29
ATOM     29  C   LIG d   1       4.852  -2.036  -3.341  0.00  0.00     0.000 C 
ATOM     30  H   LIG d   1       4.925  -3.117  -3.225  0.00  0.00     0.033 H 
ATOM     31  H   LIG d   1       5.853  -1.610  -3.415  0.00  0.00     0.033 H 
BRANCH  29  32
ATOM     32  C   LIG d   1       4.132  -1.439  -2.131  0.00  0.00    -0.002 C 
ATOM     33  H   LIG d   1       3.062  -1.386  -2.334  0.00  0.00     0.038 H 
ATOM     34  H   LIG d   1       4.306  -2.068  -1.258  0.00  0.00     0.038 H 
BRANCH  32  35
ATOM     35  S   LIG d   1       4.769   0.228  -1.811  0.00  0.00    -0.164 SA
BRANCH  35  36
ATOM     36  C   LIG d   1       3.475   1.325  -2.454  0.00  0.00    -0.018 C 
ATOM     37  H   LIG d   1       2.521   1.071  -1.992  0.00  0.00     0.034 H 
ATOM     38  H   LIG d   1       3.727   2.360  -2.223  0.00  0.00     0.034 H 
ATOM     39  H   LIG d   1       3.399   1.201  -3.536  0.00  0.00     0.034 H 
ENDBRANCH  35  36
ENDBRANCH  32  35
ENDBRANCH  29  32
ENDBRANCH  16  29
BRANCH   1  40
ATOM     40  C   LIG d   1       4.021  -4.334 -10.957  0.00  0.00    -0.040 C 
ATOM     41  H   LIG d   1       4.433  -5.015 -11.701  0.00  0.00     0.028 H 
ATOM     42  H   LIG d   1       2.987  -4.608 -10.747  0.00  0.00     0.028 H 
ATOM     43  H   LIG d   1       4.054  -3.314 -11.341  0.00  0.00     0.028 H 
ENDBRANCH   1  40
BRANCH  21  44
ATOM     44  C   LIG d   1       3.186   0.489  -8.622  0.00  0.00     0.026 C 
ATOM     45  H   LIG d   1       2.747   1.425  -8.279  0.00  0.00     0.047 H 
ATOM     46  H   LIG d   1       3.818   0.680  -9.489  0.00  0.00     0.047 H 
BRANCH  44  47
ATOM     47  C   LIG d   1       2.071  -0.486  -9.008  0.00  0.00    -0.011 C 
ATOM     48  H   LIG d   1       2.132  -1.375  -8.380  0.00  0.00     0.033 H 
ATOM     49  H   LIG d   1       1.103  -0.006  -8.864  0.00  0.00     0.033 H 
BRANCH  47  50
ATOM     50  C   LIG d   1       2.228  -0.881 -10.454  0.00  0.00    -0.046 A 
ATOM     51  C   LIG d   1       1.276  -1.679 -11.059  0.00  0.00    -0.059 A 
ATOM     52  C   LIG d   1       1.418  -2.038 -12.387  0.00  0.00    -0.061 A 
ATOM     53  H   LIG d   1       0.419  -2.020 -10.496  0.00  0.00     0.062 H 
ATOM     54  C   LIG d   1       2.516  -1.606 -13.106  0.00  0.00    -0.062 A 
ATOM     55  H   LIG d   1       0.671  -2.658 -12.861  0.00  0.00     0.062 H 
ATOM     56  C   LIG d   1       3.471  -0.812 -12.499  0.00  0.00    -0.061 A 
ATOM     57  H   LIG d   1       2.628  -1.888 -14.143  0.00  0.00     0.062 H 
ATOM     58  C   LIG d   1       3.327  -0.450 -11.173  0.00  0.00    -0.059 A 
ATOM     59  H   LIG d   1       4.330  -0.474 -13.061  0.00  0.00     0.062 H 
ATOM     60  H   LIG d   1       4.073   0.170 -10.698  0.00  0.00     0.062 H 
ENDBRANCH  47  50
ENDBRANCH  44  47
ENDBRANCH  21  44
TORSDOF 8
ENDMDL
MODEL 7
REMARK VINA RESULT:      -6.2     12.591     15.672
REMARK  8 active torsions:
REMARK  status: ('A' for Active; 'I' for Inactive)
REMARK    1  A    between atoms: C_1  and  C_2 
REMARK    2  A    between atoms: C_17  and  C_20 
REMARK    3  A    between atoms: C_20  and  C_21 
REMARK    4  A    between atoms: C_21  and  S_22 
REMARK    5  A    between atoms: S_22  and  C_23 
REMARK    6  A    between atoms: N_26  and  C_29 
REMARK    7  A    between atoms: C_29  and  C_30 
REMARK    8  A    between atoms: C_30  and  C_31 
ROOT
ATOM      1  C   LIG d   1       9.795   9.941  -4.235  0.00  0.00    -0.049 A 
ATOM      2  C   LIG d   1      10.315   9.508  -3.027  0.00  0.00    -0.048 A 
ATOM      3  C   LIG d   1      10.289  10.338  -1.929  0.00  0.00     0.036 A 
ATOM      4  C   LIG d   1       9.740  11.614  -2.016  0.00  0.00     0.061 A 
ATOM      5  C   LIG d   1       9.218  12.042  -3.236  0.00  0.00     0.063 A 
ATOM      6  C   LIG d   1       9.252  11.208  -4.335  0.00  0.00    -0.039 A 
ATOM      7 CL   LIG d   1       8.528  13.628  -3.373  0.00  0.00    -0.082 Cl
ATOM      8  N   LIG d   1       9.826  12.262  -0.782  0.00  0.00    -0.279 N 
ATOM      9  C   LIG d   1      10.411  11.493   0.157  0.00  0.00     0.274 A 
ATOM     10  O   LIG d   1      10.618  11.793   1.313  0.00  0.00    -0.269 OA
ATOM     11  C   LIG d   1      10.756  10.188  -0.508  0.00  0.00     0.106 A 
ATOM     12  C   LIG d   1      10.072   9.006   0.190  0.00  0.00     0.111 A 
ATOM     13  H   LIG d   1       9.168   9.301   0.723  0.00  0.00     0.047 H 
ATOM     14  C   LIG d   1      11.164   8.423   1.129  0.00  0.00     0.096 A 
ATOM     15  H   LIG d   1      10.846   8.381   2.171  0.00  0.00     0.046 H 
ATOM     16  C   LIG d   1      12.393   9.333   0.921  0.00  0.00    -0.008 C 
ATOM     17  H   LIG d   1      13.309   8.741   0.944  0.00  0.00     0.086 H 
ATOM     18  N   LIG d   1      12.203   9.916  -0.440  0.00  0.00     0.245 N 
ATOM     19  C   LIG d   1      11.431   7.054   0.547  0.00  0.00     0.231 A 
ATOM     20  O   LIG d   1      12.235   6.254   0.977  0.00  0.00    -0.275 OA
ATOM     21  N   LIG d   1      10.643   6.863  -0.517  0.00  0.00    -0.241 N 
ATOM     22  C   LIG d   1       9.825   7.899  -0.810  0.00  0.00     0.232 A 
ATOM     23  O   LIG d   1       9.025   7.943  -1.720  0.00  0.00    -0.275 OA
ATOM     24  H   LIG d   1      10.743   8.520  -2.947  0.00  0.00     0.063 H 
ATOM     25  H   LIG d   1       8.850  11.547  -5.280  0.00  0.00     0.064 H 
ATOM     26  H   LIG d   1       9.503  13.162  -0.619  0.00  0.00     0.155 HD
ATOM     27  H   LIG d   1      12.473   9.259  -1.157  0.00  0.00     0.203 HD
ATOM     28  H   LIG d   1      12.728  10.773  -0.529  0.00  0.00     0.203 HD
ENDROOT
BRANCH  16  29
ATOM     29  C   LIG d   1      12.438  10.423   1.994  0.00  0.00     0.000 C 
ATOM     30  H   LIG d   1      13.306  11.061   1.827  0.00  0.00     0.033 H 
ATOM     31  H   LIG d   1      11.529  11.022   1.939  0.00  0.00     0.033 H 
BRANCH  29  32
ATOM     32  C   LIG d   1      12.538   9.775   3.375  0.00  0.00    -0.002 C 
ATOM     33  H   LIG d   1      11.538   9.563   3.752  0.00  0.00     0.038 H 
ATOM     34  H   LIG d   1      13.103   8.845   3.300  0.00  0.00     0.038 H 
BRANCH  32  35
ATOM     35  S   LIG d   1      13.386  10.905   4.513  0.00  0.00    -0.164 SA
BRANCH  35  36
ATOM     36  C   LIG d   1      12.695  10.493   6.139  0.00  0.00    -0.018 C 
ATOM     37  H   LIG d   1      11.885  11.183   6.374  0.00  0.00     0.034 H 
ATOM     38  H   LIG d   1      12.311   9.473   6.123  0.00  0.00     0.034 H 
ATOM     39  H   LIG d   1      13.475  10.576   6.896  0.00  0.00     0.034 H 
ENDBRANCH  35  36
ENDBRANCH  32  35
ENDBRANCH  29  32
ENDBRANCH  16  29
BRANCH   1  40
ATOM     40  C   LIG d   1       9.825   9.034  -5.438  0.00  0.00    -0.040 C 
ATOM     41  H   LIG d   1      10.694   9.273  -6.051  0.00  0.00     0.028 H 
ATOM     42  H   LIG d   1       9.887   7.996  -5.110  0.00  0.00     0.028 H 
ATOM     43  H   LIG d   1       8.917   9.176  -6.023  0.00  0.00     0.028 H 
ENDBRANCH   1  40
BRANCH  21  44
ATOM     44  C   LIG d   1      10.661   5.626  -1.303  0.00  0.00     0.026 C 
ATOM     45  H   LIG d   1      10.861   4.781  -0.646  0.00  0.00     0.047 H 
ATOM     46  H   LIG d   1       9.693   5.489  -1.787  0.00  0.00     0.047 H 
BRANCH  44  47
ATOM     47  C   LIG d   1      11.756   5.715  -2.369  0.00  0.00    -0.011 C 
ATOM     48  H   LIG d   1      12.280   6.666  -2.273  0.00  0.00     0.033 H 
ATOM     49  H   LIG d   1      12.462   4.895  -2.233  0.00  0.00     0.033 H 
BRANCH  47  50
ATOM     50  C   LIG d   1      11.133   5.620  -3.738  0.00  0.00    -0.046 A 
ATOM     51  C   LIG d   1      11.888   5.900  -4.861  0.00  0.00    -0.059 A 
ATOM     52  C   LIG d   1      11.317   5.810  -6.117  0.00  0.00    -0.061 A 
ATOM     53  H   LIG d   1      12.924   6.187  -4.758  0.00  0.00     0.062 H 
ATOM     54  C   LIG d   1       9.990   5.448  -6.249  0.00  0.00    -0.062 A 
ATOM     55  H   LIG d   1      11.908   6.024  -6.995  0.00  0.00     0.062 H 
ATOM     56  C   LIG d   1       9.234   5.174  -5.125  0.00  0.00    -0.061 A 
ATOM     57  H   LIG d   1       9.544   5.380  -7.230  0.00  0.00     0.062 H 
ATOM     58  C   LIG d   1       9.805   5.259  -3.870  0.00  0.00    -0.059 A 
ATOM     59  H   LIG d   1       8.196   4.891  -5.228  0.00  0.00     0.062 H 
ATOM     60  H   LIG d   1       9.214   5.045  -2.991  0.00  0.00     0.062 H 
ENDBRANCH  47  50
ENDBRANCH  44  47
ENDBRANCH  21  44
TORSDOF 8
ENDMDL
MODEL 8
REMARK VINA RESULT:      -6.2      2.302      3.669
REMARK  8 active torsions:
REMARK  status: ('A' for Active; 'I' for Inactive)
REMARK    1  A    between atoms: C_1  and  C_2 
REMARK    2  A    between atoms: C_17  and  C_20 
REMARK    3  A    between atoms: C_20  and  C_21 
REMARK    4  A    between atoms: C_21  and  S_22 
REMARK    5  A    between atoms: S_22  and  C_23 
REMARK    6  A    between atoms: N_26  and  C_29 
REMARK    7  A    between atoms: C_29  and  C_30 
REMARK    8  A    between atoms: C_30  and  C_31 
ROOT
ATOM      1  C   LIG d   1       2.984   0.371  -6.902  0.00  0.00    -0.049 A 
ATOM      2  C   LIG d   1       3.118  -0.927  -7.365  0.00  0.00    -0.048 A 
ATOM      3  C   LIG d   1       3.337  -1.162  -8.704  0.00  0.00     0.036 A 
ATOM      4  C   LIG d   1       3.426  -0.105  -9.605  0.00  0.00     0.061 A 
ATOM      5  C   LIG d   1       3.290   1.199  -9.131  0.00  0.00     0.063 A 
ATOM      6  C   LIG d   1       3.066   1.429  -7.788  0.00  0.00    -0.039 A 
ATOM      7 CL   LIG d   1       3.398   2.535 -10.232  0.00  0.00    -0.082 Cl
ATOM      8  N   LIG d   1       3.649  -0.588 -10.896  0.00  0.00    -0.279 N 
ATOM      9  C   LIG d   1       3.717  -1.933 -10.931  0.00  0.00     0.274 A 
ATOM     10  O   LIG d   1       3.900  -2.624 -11.910  0.00  0.00    -0.269 OA
ATOM     11  C   LIG d   1       3.521  -2.412  -9.518  0.00  0.00     0.106 A 
ATOM     12  C   LIG d   1       4.724  -3.230  -9.032  0.00  0.00     0.111 A 
ATOM     13  H   LIG d   1       5.642  -2.980  -9.564  0.00  0.00     0.047 H 
ATOM     14  C   LIG d   1       4.294  -4.711  -9.230  0.00  0.00     0.096 A 
ATOM     15  H   LIG d   1       4.991  -5.272  -9.853  0.00  0.00     0.046 H 
ATOM     16  C   LIG d   1       2.879  -4.634  -9.842  0.00  0.00    -0.008 C 
ATOM     17  H   LIG d   1       2.250  -5.428  -9.439  0.00  0.00     0.086 H 
ATOM     18  N   LIG d   1       2.354  -3.306  -9.409  0.00  0.00     0.245 N 
ATOM     19  C   LIG d   1       4.217  -5.243  -7.818  0.00  0.00     0.231 A 
ATOM     20  O   LIG d   1       3.903  -6.374  -7.512  0.00  0.00    -0.275 OA
ATOM     21  N   LIG d   1       4.548  -4.273  -6.958  0.00  0.00    -0.241 N 
ATOM     22  C   LIG d   1       4.862  -3.090  -7.533  0.00  0.00     0.232 A 
ATOM     23  O   LIG d   1       5.198  -2.080  -6.952  0.00  0.00    -0.275 OA
ATOM     24  H   LIG d   1       3.051  -1.755  -6.675  0.00  0.00     0.063 H 
ATOM     25  H   LIG d   1       2.957   2.442  -7.427  0.00  0.00     0.064 H 
ATOM     26  H   LIG d   1       3.744  -0.022 -11.678  0.00  0.00     0.155 HD
ATOM     27  H   LIG d   1       2.022  -3.339  -8.457  0.00  0.00     0.203 HD
ATOM     28  H   LIG d   1       1.618  -3.003 -10.030  0.00  0.00     0.203 HD
ENDROOT
BRANCH  16  29
ATOM     29  C   LIG d   1       2.952  -4.736 -11.367  0.00  0.00     0.000 C 
ATOM     30  H   LIG d   1       2.580  -3.812 -11.810  0.00  0.00     0.033 H 
ATOM     31  H   LIG d   1       3.987  -4.894 -11.671  0.00  0.00     0.033 H 
BRANCH  29  32
ATOM     32  C   LIG d   1       2.096  -5.912 -11.841  0.00  0.00    -0.002 C 
ATOM     33  H   LIG d   1       1.335  -5.552 -12.534  0.00  0.00     0.038 H 
ATOM     34  H   LIG d   1       2.730  -6.643 -12.344  0.00  0.00     0.038 H 
BRANCH  32  35
ATOM     35  S   LIG d   1       1.294  -6.689 -10.413  0.00  0.00    -0.164 SA
BRANCH  35  36
ATOM     36  C   LIG d   1      -0.428  -6.128 -10.516  0.00  0.00    -0.018 C 
ATOM     37  H   LIG d   1      -0.729  -5.701  -9.560  0.00  0.00     0.034 H 
ATOM     38  H   LIG d   1      -0.518  -5.373 -11.297  0.00  0.00     0.034 H 
ATOM     39  H   LIG d   1      -1.072  -6.976 -10.754  0.00  0.00     0.034 H 
ENDBRANCH  35  36
ENDBRANCH  32  35
ENDBRANCH  29  32
ENDBRANCH  16  29
BRANCH   1  40
ATOM     40  C   LIG d   1       2.744   0.629  -5.438  0.00  0.00    -0.040 C 
ATOM     41  H   LIG d   1       3.303  -0.095  -4.845  0.00  0.00     0.028 H 
ATOM     42  H   LIG d   1       3.074   1.637  -5.187  0.00  0.00     0.028 H 
ATOM     43  H   LIG d   1       1.680   0.531  -5.221  0.00  0.00     0.028 H 
ENDBRANCH   1  40
BRANCH  21  44
ATOM     44  C   LIG d   1       4.574  -4.475  -5.507  0.00  0.00     0.026 C 
ATOM     45  H   LIG d   1       3.673  -4.052  -5.065  0.00  0.00     0.047 H 
ATOM     46  H   LIG d   1       4.619  -5.543  -5.290  0.00  0.00     0.047 H 
BRANCH  44  47
ATOM     47  C   LIG d   1       5.805  -3.782  -4.918  0.00  0.00    -0.011 C 
ATOM     48  H   LIG d   1       6.424  -4.517  -4.402  0.00  0.00     0.033 H 
ATOM     49  H   LIG d   1       6.381  -3.321  -5.720  0.00  0.00     0.033 H 
BRANCH  47  50
ATOM     50  C   LIG d   1       5.365  -2.722  -3.941  0.00  0.00    -0.046 A 
ATOM     51  C   LIG d   1       6.188  -1.646  -3.672  0.00  0.00    -0.059 A 
ATOM     52  C   LIG d   1       5.783  -0.672  -2.778  0.00  0.00    -0.061 A 
ATOM     53  H   LIG d   1       7.149  -1.565  -4.161  0.00  0.00     0.062 H 
ATOM     54  C   LIG d   1       4.557  -0.778  -2.149  0.00  0.00    -0.062 A 
ATOM     55  H   LIG d   1       6.425   0.172  -2.572  0.00  0.00     0.062 H 
ATOM     56  C   LIG d   1       3.736  -1.857  -2.415  0.00  0.00    -0.061 A 
ATOM     57  H   LIG d   1       4.242  -0.018  -1.450  0.00  0.00     0.062 H 
ATOM     58  C   LIG d   1       4.139  -2.829  -3.311  0.00  0.00    -0.059 A 
ATOM     59  H   LIG d   1       2.777  -1.941  -1.923  0.00  0.00     0.062 H 
ATOM     60  H   LIG d   1       3.497  -3.673  -3.518  0.00  0.00     0.062 H 
ENDBRANCH  47  50
ENDBRANCH  44  47
ENDBRANCH  21  44
TORSDOF 8
ENDMDL
MODEL 9
REMARK VINA RESULT:      -6.1      1.766      2.064
REMARK  8 active torsions:
REMARK  status: ('A' for Active; 'I' for Inactive)
REMARK    1  A    between atoms: C_1  and  C_2 
REMARK    2  A    between atoms: C_17  and  C_20 
REMARK    3  A    between atoms: C_20  and  C_21 
REMARK    4  A    between atoms: C_21  and  S_22 
REMARK    5  A    between atoms: S_22  and  C_23 
REMARK    6  A    between atoms: N_26  and  C_29 
REMARK    7  A    between atoms: C_29  and  C_30 
REMARK    8  A    between atoms: C_30  and  C_31 
ROOT
ATOM      1  C   LIG d   1       3.030  -0.314  -7.722  0.00  0.00    -0.049 A 
ATOM      2  C   LIG d   1       3.510  -1.589  -7.476  0.00  0.00    -0.048 A 
ATOM      3  C   LIG d   1       3.659  -2.481  -8.513  0.00  0.00     0.036 A 
ATOM      4  C   LIG d   1       3.333  -2.116  -9.816  0.00  0.00     0.061 A 
ATOM      5  C   LIG d   1       2.850  -0.831 -10.056  0.00  0.00     0.063 A 
ATOM      6  C   LIG d   1       2.697   0.058  -9.012  0.00  0.00    -0.039 A 
ATOM      7 CL   LIG d   1       2.436  -0.350 -11.671  0.00  0.00    -0.082 Cl
ATOM      8  N   LIG d   1       3.567  -3.181 -10.689  0.00  0.00    -0.279 N 
ATOM      9  C   LIG d   1       4.040  -4.269 -10.050  0.00  0.00     0.274 A 
ATOM     10  O   LIG d   1       4.331  -5.334 -10.550  0.00  0.00    -0.269 OA
ATOM     11  C   LIG d   1       4.139  -3.904  -8.594  0.00  0.00     0.106 A 
ATOM     12  C   LIG d   1       5.575  -4.046  -8.077  0.00  0.00     0.111 A 
ATOM     13  H   LIG d   1       6.317  -3.956  -8.871  0.00  0.00     0.047 H 
ATOM     14  C   LIG d   1       5.603  -5.434  -7.378  0.00  0.00     0.096 A 
ATOM     15  H   LIG d   1       6.374  -6.093  -7.779  0.00  0.00     0.046 H 
ATOM     16  C   LIG d   1       4.181  -6.002  -7.569  0.00  0.00    -0.008 C 
ATOM     17  H   LIG d   1       3.868  -6.544  -6.676  0.00  0.00     0.086 H 
ATOM     18  N   LIG d   1       3.318  -4.799  -7.758  0.00  0.00     0.245 N 
ATOM     19  C   LIG d   1       5.830  -5.090  -5.924  0.00  0.00     0.231 A 
ATOM     20  O   LIG d   1       5.909  -5.891  -5.018  0.00  0.00    -0.275 OA
ATOM     21  N   LIG d   1       5.929  -3.762  -5.793  0.00  0.00    -0.241 N 
ATOM     22  C   LIG d   1       5.808  -3.068  -6.948  0.00  0.00     0.232 A 
ATOM     23  O   LIG d   1       5.873  -1.863  -7.067  0.00  0.00    -0.275 OA
ATOM     24  H   LIG d   1       3.768  -1.883  -6.470  0.00  0.00     0.063 H 
ATOM     25  H   LIG d   1       2.319   1.052  -9.203  0.00  0.00     0.064 H 
ATOM     26  H   LIG d   1       3.407  -3.143 -11.645  0.00  0.00     0.155 HD
ATOM     27  H   LIG d   1       3.106  -4.361  -6.874  0.00  0.00     0.203 HD
ATOM     28  H   LIG d   1       2.468  -5.052  -8.241  0.00  0.00     0.203 HD
ENDROOT
BRANCH  16  29
ATOM     29  C   LIG d   1       4.133  -6.921  -8.791  0.00  0.00     0.000 C 
ATOM     30  H   LIG d   1       3.235  -6.707  -9.371  0.00  0.00     0.033 H 
ATOM     31  H   LIG d   1       5.015  -6.749  -9.409  0.00  0.00     0.033 H 
BRANCH  29  32
ATOM     32  C   LIG d   1       4.109  -8.380  -8.332  0.00  0.00    -0.002 C 
ATOM     33  H   LIG d   1       5.020  -8.602  -7.777  0.00  0.00     0.038 H 
ATOM     34  H   LIG d   1       3.243  -8.545  -7.692  0.00  0.00     0.038 H 
BRANCH  32  35
ATOM     35  S   LIG d   1       4.005  -9.467  -9.780  0.00  0.00    -0.164 SA
BRANCH  35  36
ATOM     36  C   LIG d   1       5.324  -8.871 -10.873  0.00  0.00    -0.018 C 
ATOM     37  H   LIG d   1       6.199  -9.513 -10.770  0.00  0.00     0.034 H 
ATOM     38  H   LIG d   1       4.978  -8.892 -11.907  0.00  0.00     0.034 H 
ATOM     39  H   LIG d   1       5.588  -7.849 -10.599  0.00  0.00     0.034 H 
ENDBRANCH  35  36
ENDBRANCH  32  35
ENDBRANCH  29  32
ENDBRANCH  16  29
BRANCH   1  40
ATOM     40  C   LIG d   1       2.865   0.663  -6.587  0.00  0.00    -0.040 C 
ATOM     41  H   LIG d   1       3.367   1.597  -6.837  0.00  0.00     0.028 H 
ATOM     42  H   LIG d   1       1.805   0.853  -6.422  0.00  0.00     0.028 H 
ATOM     43  H   LIG d   1       3.305   0.245  -5.681  0.00  0.00     0.028 H 
ENDBRANCH   1  40
BRANCH  21  44
ATOM     44  C   LIG d   1       6.157  -3.109  -4.501  0.00  0.00     0.026 C 
ATOM     45  H   LIG d   1       6.760  -3.757  -3.867  0.00  0.00     0.047 H 
ATOM     46  H   LIG d   1       6.679  -2.165  -4.658  0.00  0.00     0.047 H 
BRANCH  44  47
ATOM     47  C   LIG d   1       4.811  -2.841  -3.822  0.00  0.00    -0.011 C 
ATOM     48  H   LIG d   1       4.004  -3.014  -4.534  0.00  0.00     0.033 H 
ATOM     49  H   LIG d   1       4.694  -3.512  -2.971  0.00  0.00     0.033 H 
BRANCH  47  50
ATOM     50  C   LIG d   1       4.764  -1.412  -3.347  0.00  0.00    -0.046 A 
ATOM     51  C   LIG d   1       5.879  -0.605  -3.473  0.00  0.00    -0.059 A 
ATOM     52  C   LIG d   1       5.834   0.708  -3.040  0.00  0.00    -0.061 A 
ATOM     53  H   LIG d   1       6.784  -0.998  -3.911  0.00  0.00     0.062 H 
ATOM     54  C   LIG d   1       4.677   1.210  -2.475  0.00  0.00    -0.062 A 
ATOM     55  H   LIG d   1       6.704   1.340  -3.143  0.00  0.00     0.062 H 
ATOM     56  C   LIG d   1       3.564   0.401  -2.344  0.00  0.00    -0.061 A 
ATOM     57  H   LIG d   1       4.643   2.235  -2.135  0.00  0.00     0.062 H 
ATOM     58  C   LIG d   1       3.607  -0.909  -2.780  0.00  0.00    -0.059 A 
ATOM     59  H   LIG d   1       2.660   0.794  -1.902  0.00  0.00     0.062 H 
ATOM     60  H   LIG d   1       2.738  -1.542  -2.678  0.00  0.00     0.062 H 
ENDBRANCH  47  50
ENDBRANCH  44  47
ENDBRANCH  21  44
TORSDOF 8
ENDMDL
