MODEL 1
REMARK VINA RESULT:      -5.6      0.000      0.000
REMARK  3 active torsions:
REMARK  status: ('A' for Active; 'I' for Inactive)
REMARK    1  A    between atoms: C_1  and  C_2 
REMARK    2  A    between atoms: C_2  and  C_16 
REMARK    3  A    between atoms: C_7  and  C_8 
ROOT
ATOM      1  C   LIG d   1       3.462   1.040  -8.643  0.00  0.00     0.255 C 
ATOM      2  O   LIG d   1       4.646   0.219  -8.848  0.00  0.00    -0.419 OA
ATOM      3  C   LIG d   1       4.683  -0.941  -8.136  0.00  0.00     0.349 C 
ATOM      4  O   LIG d   1       4.997  -2.004  -8.637  0.00  0.00    -0.245 OA
ATOM      5  C   LIG d   1       4.312  -0.816  -6.704  0.00  0.00     0.144 C 
ATOM      6  C   LIG d   1       4.906  -1.577  -5.704  0.00  0.00    -0.027 C 
ATOM      7  C   LIG d   1       3.249   0.183  -6.429  0.00  0.00     0.349 C 
ATOM      8  O   LIG d   1       2.413   0.022  -5.561  0.00  0.00    -0.245 OA
ATOM      9  O   LIG d   1       3.284   1.295  -7.220  0.00  0.00    -0.419 OA
ATOM     10  H   LIG d   1       5.532  -2.417  -5.965  0.00  0.00     0.064 H 
ENDROOT
BRANCH   6  11
ATOM     11  C   LIG d   1       4.692  -1.252  -4.355  0.00  0.00     0.013 A 
ATOM     12  S   LIG d   1       5.237   0.180  -3.442  0.00  0.00    -0.097 SA
ATOM     13  C   LIG d   1       4.549  -0.216  -1.901  0.00  0.00    -0.024 A 
ATOM     14  C   LIG d   1       3.942  -1.415  -2.127  0.00  0.00    -0.054 A 
ATOM     15  H   LIG d   1       4.594   0.350  -0.982  0.00  0.00     0.069 H 
ATOM     16  C   LIG d   1       3.998  -1.968  -3.377  0.00  0.00    -0.048 A 
ATOM     17  H   LIG d   1       3.419  -1.921  -1.329  0.00  0.00     0.062 H 
ATOM     18  H   LIG d   1       3.526  -2.914  -3.598  0.00  0.00     0.063 H 
ENDBRANCH   6  11
BRANCH   1  19
ATOM     19  C   LIG d   1       3.631   2.370  -9.381  0.00  0.00     0.013 C 
ATOM     20  H   LIG d   1       2.650   2.789  -9.602  0.00  0.00     0.030 H 
ATOM     21  H   LIG d   1       4.189   3.065  -8.753  0.00  0.00     0.030 H 
ATOM     22  H   LIG d   1       4.173   2.203 -10.310  0.00  0.00     0.030 H 
ENDBRANCH   1  19
BRANCH   1  23
ATOM     23  C   LIG d   1       2.234   0.309  -9.188  0.00  0.00     0.013 C 
ATOM     24  H   LIG d   1       1.582   0.027  -8.360  0.00  0.00     0.030 H 
ATOM     25  H   LIG d   1       1.693   0.966  -9.868  0.00  0.00     0.030 H 
ATOM     26  H   LIG d   1       2.551  -0.586  -9.721  0.00  0.00     0.030 H 
ENDBRANCH   1  23
TORSDOF 3
ENDMDL
MODEL 2
REMARK VINA RESULT:      -5.4      2.321      5.289
REMARK  3 active torsions:
REMARK  status: ('A' for Active; 'I' for Inactive)
REMARK    1  A    between atoms: C_1  and  C_2 
REMARK    2  A    between atoms: C_2  and  C_16 
REMARK    3  A    between atoms: C_7  and  C_8 
ROOT
ATOM      1  C   LIG d   1       4.940  -1.710  -3.451  0.00  0.00     0.255 C 
ATOM      2  O   LIG d   1       4.193  -2.714  -4.194  0.00  0.00    -0.419 OA
ATOM      3  C   LIG d   1       4.494  -2.802  -5.520  0.00  0.00     0.349 C 
ATOM      4  O   LIG d   1       4.676  -3.869  -6.077  0.00  0.00    -0.245 OA
ATOM      5  C   LIG d   1       4.583  -1.506  -6.237  0.00  0.00     0.144 C 
ATOM      6  C   LIG d   1       4.182  -1.347  -7.558  0.00  0.00    -0.027 C 
ATOM      7  C   LIG d   1       5.142  -0.394  -5.428  0.00  0.00     0.349 C 
ATOM      8  O   LIG d   1       5.844   0.473  -5.911  0.00  0.00    -0.245 OA
ATOM      9  O   LIG d   1       4.805  -0.415  -4.105  0.00  0.00    -0.419 OA
ATOM     10  H   LIG d   1       3.961  -2.215  -8.162  0.00  0.00     0.064 H 
ENDROOT
BRANCH   6  11
ATOM     11  C   LIG d   1       4.064  -0.060  -8.106  0.00  0.00     0.013 A 
ATOM     12  S   LIG d   1       5.197   0.818  -9.168  0.00  0.00    -0.097 SA
ATOM     13  C   LIG d   1       4.290   2.283  -9.362  0.00  0.00    -0.024 A 
ATOM     14  C   LIG d   1       3.172   2.060  -8.615  0.00  0.00    -0.054 A 
ATOM     15  H   LIG d   1       4.550   3.160  -9.935  0.00  0.00     0.069 H 
ATOM     16  C   LIG d   1       3.030   0.867  -7.962  0.00  0.00    -0.048 A 
ATOM     17  H   LIG d   1       2.405   2.817  -8.542  0.00  0.00     0.062 H 
ATOM     18  H   LIG d   1       2.157   0.650  -7.364  0.00  0.00     0.063 H 
ENDBRANCH   6  11
BRANCH   1  19
ATOM     19  C   LIG d   1       4.392  -1.619  -2.025  0.00  0.00     0.013 C 
ATOM     20  H   LIG d   1       4.017  -0.612  -1.844  0.00  0.00     0.030 H 
ATOM     21  H   LIG d   1       3.580  -2.336  -1.903  0.00  0.00     0.030 H 
ATOM     22  H   LIG d   1       5.187  -1.845  -1.315  0.00  0.00     0.030 H 
ENDBRANCH   1  19
BRANCH   1  23
ATOM     23  C   LIG d   1       6.417  -2.105  -3.403  0.00  0.00     0.013 C 
ATOM     24  H   LIG d   1       6.662  -2.475  -2.407  0.00  0.00     0.030 H 
ATOM     25  H   LIG d   1       6.607  -2.888  -4.138  0.00  0.00     0.030 H 
ATOM     26  H   LIG d   1       7.034  -1.236  -3.630  0.00  0.00     0.030 H 
ENDBRANCH   1  23
TORSDOF 3
ENDMDL
MODEL 3
REMARK VINA RESULT:      -5.3      2.329      5.386
REMARK  3 active torsions:
REMARK  status: ('A' for Active; 'I' for Inactive)
REMARK    1  A    between atoms: C_1  and  C_2 
REMARK    2  A    between atoms: C_2  and  C_16 
REMARK    3  A    between atoms: C_7  and  C_8 
ROOT
ATOM      1  C   LIG d   1       4.305  -1.178  -3.078  0.00  0.00     0.255 C 
ATOM      2  O   LIG d   1       5.527  -1.639  -3.720  0.00  0.00    -0.419 OA
ATOM      3  C   LIG d   1       6.000  -0.840  -4.717  0.00  0.00     0.349 C 
ATOM      4  O   LIG d   1       7.173  -0.532  -4.804  0.00  0.00    -0.245 OA
ATOM      5  C   LIG d   1       4.981  -0.374  -5.691  0.00  0.00     0.144 C 
ATOM      6  C   LIG d   1       5.256  -0.199  -7.042  0.00  0.00    -0.027 C 
ATOM      7  C   LIG d   1       3.646  -0.103  -5.101  0.00  0.00     0.349 C 
ATOM      8  O   LIG d   1       2.931   0.798  -5.495  0.00  0.00    -0.245 OA
ATOM      9  O   LIG d   1       3.281  -0.942  -4.087  0.00  0.00    -0.419 OA
ATOM     10  H   LIG d   1       6.277  -0.225  -7.392  0.00  0.00     0.064 H 
ENDROOT
BRANCH   6  11
ATOM     11  C   LIG d   1       4.206   0.011  -7.950  0.00  0.00     0.013 A 
ATOM     12  S   LIG d   1       3.035  -1.164  -8.606  0.00  0.00    -0.097 SA
ATOM     13  C   LIG d   1       2.123  -0.087  -9.614  0.00  0.00    -0.024 A 
ATOM     14  C   LIG d   1       2.738   1.114  -9.426  0.00  0.00    -0.054 A 
ATOM     15  H   LIG d   1       1.274  -0.316 -10.242  0.00  0.00     0.069 H 
ATOM     16  C   LIG d   1       3.807   1.193  -8.576  0.00  0.00    -0.048 A 
ATOM     17  H   LIG d   1       2.382   1.995  -9.940  0.00  0.00     0.062 H 
ATOM     18  H   LIG d   1       4.318   2.128  -8.397  0.00  0.00     0.063 H 
ENDBRANCH   6  11
BRANCH   1  19
ATOM     19  C   LIG d   1       3.813  -2.243  -2.095  0.00  0.00     0.013 C 
ATOM     20  H   LIG d   1       2.743  -2.397  -2.231  0.00  0.00     0.030 H 
ATOM     21  H   LIG d   1       4.341  -3.179  -2.281  0.00  0.00     0.030 H 
ATOM     22  H   LIG d   1       4.006  -1.913  -1.075  0.00  0.00     0.030 H 
ENDBRANCH   1  19
BRANCH   1  23
ATOM     23  C   LIG d   1       4.585   0.121  -2.321  0.00  0.00     0.013 C 
ATOM     24  H   LIG d   1       5.652   0.196  -2.111  0.00  0.00     0.030 H 
ATOM     25  H   LIG d   1       4.274   0.970  -2.930  0.00  0.00     0.030 H 
ATOM     26  H   LIG d   1       4.029   0.123  -1.384  0.00  0.00     0.030 H 
ENDBRANCH   1  23
TORSDOF 3
ENDMDL
MODEL 4
REMARK VINA RESULT:      -5.2      2.268      5.532
REMARK  3 active torsions:
REMARK  status: ('A' for Active; 'I' for Inactive)
REMARK    1  A    between atoms: C_1  and  C_2 
REMARK    2  A    between atoms: C_2  and  C_16 
REMARK    3  A    between atoms: C_7  and  C_8 
ROOT
ATOM      1  C   LIG d   1       5.486  -0.092  -4.281  0.00  0.00     0.255 C 
ATOM      2  O   LIG d   1       4.201   0.534  -4.007  0.00  0.00    -0.419 OA
ATOM      3  C   LIG d   1       3.170   0.117  -4.794  0.00  0.00     0.349 C 
ATOM      4  O   LIG d   1       2.078  -0.168  -4.340  0.00  0.00    -0.245 OA
ATOM      5  C   LIG d   1       3.473   0.039  -6.245  0.00  0.00     0.144 C 
ATOM      6  C   LIG d   1       2.535   0.334  -7.227  0.00  0.00    -0.027 C 
ATOM      7  C   LIG d   1       4.859  -0.389  -6.561  0.00  0.00     0.349 C 
ATOM      8  O   LIG d   1       5.123  -1.082  -7.524  0.00  0.00    -0.245 OA
ATOM      9  O   LIG d   1       5.813   0.057  -5.692  0.00  0.00    -0.419 OA
ATOM     10  H   LIG d   1       1.496   0.456  -6.961  0.00  0.00     0.064 H 
ENDROOT
BRANCH   6  11
ATOM     11  C   LIG d   1       2.939   0.474  -8.564  0.00  0.00     0.013 A 
ATOM     12  S   LIG d   1       3.905   1.771  -9.318  0.00  0.00    -0.097 SA
ATOM     13  C   LIG d   1       3.932   1.165 -10.942  0.00  0.00    -0.024 A 
ATOM     14  C   LIG d   1       3.208   0.014 -10.859  0.00  0.00    -0.054 A 
ATOM     15  H   LIG d   1       4.408   1.598 -11.810  0.00  0.00     0.069 H 
ATOM     16  C   LIG d   1       2.689  -0.366  -9.652  0.00  0.00    -0.048 A 
ATOM     17  H   LIG d   1       3.049  -0.595 -11.737  0.00  0.00     0.062 H 
ATOM     18  H   LIG d   1       2.114  -1.273  -9.544  0.00  0.00     0.063 H 
ENDBRANCH   6  11
BRANCH   1  19
ATOM     19  C   LIG d   1       6.569   0.580  -3.434  0.00  0.00     0.013 C 
ATOM     20  H   LIG d   1       7.552   0.280  -3.797  0.00  0.00     0.030 H 
ATOM     21  H   LIG d   1       6.469   1.663  -3.509  0.00  0.00     0.030 H 
ATOM     22  H   LIG d   1       6.458   0.276  -2.394  0.00  0.00     0.030 H 
ENDBRANCH   1  19
BRANCH   1  23
ATOM     23  C   LIG d   1       5.414  -1.579  -3.928  0.00  0.00     0.013 C 
ATOM     24  H   LIG d   1       6.418  -1.952  -3.721  0.00  0.00     0.030 H 
ATOM     25  H   LIG d   1       4.788  -1.712  -3.046  0.00  0.00     0.030 H 
ATOM     26  H   LIG d   1       4.987  -2.130  -4.764  0.00  0.00     0.030 H 
ENDBRANCH   1  23
TORSDOF 3
ENDMDL
MODEL 5
REMARK VINA RESULT:      -5.2      3.170      5.068
REMARK  3 active torsions:
REMARK  status: ('A' for Active; 'I' for Inactive)
REMARK    1  A    between atoms: C_1  and  C_2 
REMARK    2  A    between atoms: C_2  and  C_16 
REMARK    3  A    between atoms: C_7  and  C_8 
ROOT
ATOM      1  C   LIG d   1       4.201  -0.211  -2.930  0.00  0.00     0.255 C 
ATOM      2  O   LIG d   1       4.722   0.398  -4.146  0.00  0.00    -0.419 OA
ATOM      3  C   LIG d   1       4.568  -0.341  -5.280  0.00  0.00     0.349 C 
ATOM      4  O   LIG d   1       4.164   0.141  -6.321  0.00  0.00    -0.245 OA
ATOM      5  C   LIG d   1       4.930  -1.775  -5.155  0.00  0.00     0.144 C 
ATOM      6  C   LIG d   1       5.513  -2.497  -6.190  0.00  0.00    -0.027 C 
ATOM      7  C   LIG d   1       4.610  -2.377  -3.837  0.00  0.00     0.349 C 
ATOM      8  O   LIG d   1       4.239  -3.529  -3.720  0.00  0.00    -0.245 OA
ATOM      9  O   LIG d   1       4.767  -1.543  -2.768  0.00  0.00    -0.419 OA
ATOM     10  H   LIG d   1       5.554  -2.077  -7.184  0.00  0.00     0.064 H 
ENDROOT
BRANCH   6  11
ATOM     11  C   LIG d   1       6.048  -3.771  -5.943  0.00  0.00     0.013 A 
ATOM     12  S   LIG d   1       5.357  -5.373  -6.315  0.00  0.00    -0.097 SA
ATOM     13  C   LIG d   1       6.641  -6.360  -5.695  0.00  0.00    -0.024 A 
ATOM     14  C   LIG d   1       7.538  -5.448  -5.225  0.00  0.00    -0.054 A 
ATOM     15  H   LIG d   1       6.711  -7.438  -5.683  0.00  0.00     0.069 H 
ATOM     16  C   LIG d   1       7.261  -4.114  -5.341  0.00  0.00    -0.048 A 
ATOM     17  H   LIG d   1       8.460  -5.777  -4.768  0.00  0.00     0.062 H 
ATOM     18  H   LIG d   1       7.948  -3.361  -4.985  0.00  0.00     0.063 H 
ENDBRANCH   6  11
BRANCH   1  19
ATOM     19  C   LIG d   1       4.579   0.653  -1.726  0.00  0.00     0.013 C 
ATOM     20  H   LIG d   1       3.676   0.958  -1.199  0.00  0.00     0.030 H 
ATOM     21  H   LIG d   1       5.216   0.079  -1.053  0.00  0.00     0.030 H 
ATOM     22  H   LIG d   1       5.117   1.537  -2.068  0.00  0.00     0.030 H 
ENDBRANCH   1  19
BRANCH   1  23
ATOM     23  C   LIG d   1       2.677  -0.313  -3.024  0.00  0.00     0.013 C 
ATOM     24  H   LIG d   1       2.409  -1.114  -3.714  0.00  0.00     0.030 H 
ATOM     25  H   LIG d   1       2.267  -0.530  -2.038  0.00  0.00     0.030 H 
ATOM     26  H   LIG d   1       2.272   0.631  -3.388  0.00  0.00     0.030 H 
ENDBRANCH   1  23
TORSDOF 3
ENDMDL
MODEL 6
REMARK VINA RESULT:      -5.2      1.826      2.899
REMARK  3 active torsions:
REMARK  status: ('A' for Active; 'I' for Inactive)
REMARK    1  A    between atoms: C_1  and  C_2 
REMARK    2  A    between atoms: C_2  and  C_16 
REMARK    3  A    between atoms: C_7  and  C_8 
ROOT
ATOM      1  C   LIG d   1       5.099  -1.596  -8.475  0.00  0.00     0.255 C 
ATOM      2  O   LIG d   1       3.645  -1.542  -8.510  0.00  0.00    -0.419 OA
ATOM      3  C   LIG d   1       3.084  -0.501  -7.833  0.00  0.00     0.349 C 
ATOM      4  O   LIG d   1       2.193   0.179  -8.306  0.00  0.00    -0.245 OA
ATOM      5  C   LIG d   1       3.635  -0.258  -6.476  0.00  0.00     0.144 C 
ATOM      6  C   LIG d   1       2.855   0.185  -5.415  0.00  0.00    -0.027 C 
ATOM      7  C   LIG d   1       5.091  -0.519  -6.349  0.00  0.00     0.349 C 
ATOM      8  O   LIG d   1       5.812   0.148  -5.632  0.00  0.00    -0.245 OA
ATOM      9  O   LIG d   1       5.558  -1.564  -7.093  0.00  0.00    -0.419 OA
ATOM     10  H   LIG d   1       1.851   0.540  -5.595  0.00  0.00     0.064 H 
ENDROOT
BRANCH   6  11
ATOM     11  C   LIG d   1       3.371   0.169  -4.110  0.00  0.00     0.013 A 
ATOM     12  S   LIG d   1       3.805  -1.228  -3.089  0.00  0.00    -0.097 SA
ATOM     13  C   LIG d   1       4.348  -0.366  -1.685  0.00  0.00    -0.024 A 
ATOM     14  C   LIG d   1       4.176   0.939  -2.034  0.00  0.00    -0.054 A 
ATOM     15  H   LIG d   1       4.729  -0.769  -0.758  0.00  0.00     0.069 H 
ATOM     16  C   LIG d   1       3.679   1.243  -3.272  0.00  0.00    -0.048 A 
ATOM     17  H   LIG d   1       4.433   1.727  -1.341  0.00  0.00     0.062 H 
ATOM     18  H   LIG d   1       3.533   2.265  -3.587  0.00  0.00     0.063 H 
ENDBRANCH   6  11
BRANCH   1  19
ATOM     19  C   LIG d   1       5.576  -2.890  -9.140  0.00  0.00     0.013 C 
ATOM     20  H   LIG d   1       6.259  -3.411  -8.470  0.00  0.00     0.030 H 
ATOM     21  H   LIG d   1       4.717  -3.527  -9.351  0.00  0.00     0.030 H 
ATOM     22  H   LIG d   1       6.090  -2.652 -10.070  0.00  0.00     0.030 H 
ENDBRANCH   1  19
BRANCH   1  23
ATOM     23  C   LIG d   1       5.672  -0.395  -9.231  0.00  0.00     0.013 C 
ATOM     24  H   LIG d   1       5.284  -0.389 -10.250  0.00  0.00     0.030 H 
ATOM     25  H   LIG d   1       5.380   0.525  -8.725  0.00  0.00     0.030 H 
ATOM     26  H   LIG d   1       6.759  -0.467  -9.256  0.00  0.00     0.030 H 
ENDBRANCH   1  23
TORSDOF 3
ENDMDL
MODEL 7
REMARK VINA RESULT:      -5.1      3.515      4.637
REMARK  3 active torsions:
REMARK  status: ('A' for Active; 'I' for Inactive)
REMARK    1  A    between atoms: C_1  and  C_2 
REMARK    2  A    between atoms: C_2  and  C_16 
REMARK    3  A    between atoms: C_7  and  C_8 
ROOT
ATOM      1  C   LIG d   1       7.311  -3.700  -5.845  0.00  0.00     0.255 C 
ATOM      2  O   LIG d   1       6.467  -4.616  -5.090  0.00  0.00    -0.419 OA
ATOM      3  C   LIG d   1       5.177  -4.213  -4.919  0.00  0.00     0.349 C 
ATOM      4  O   LIG d   1       4.233  -4.960  -5.093  0.00  0.00    -0.245 OA
ATOM      5  C   LIG d   1       5.006  -2.799  -4.502  0.00  0.00     0.144 C 
ATOM      6  C   LIG d   1       3.996  -2.385  -3.642  0.00  0.00    -0.027 C 
ATOM      7  C   LIG d   1       5.997  -1.861  -5.088  0.00  0.00     0.349 C 
ATOM      8  O   LIG d   1       5.710  -0.722  -5.398  0.00  0.00    -0.245 OA
ATOM      9  O   LIG d   1       7.252  -2.374  -5.246  0.00  0.00    -0.419 OA
ATOM     10  H   LIG d   1       3.190  -3.059  -3.392  0.00  0.00     0.064 H 
ENDROOT
BRANCH   6  11
ATOM     11  C   LIG d   1       4.024  -1.091  -3.098  0.00  0.00     0.013 A 
ATOM     12  S   LIG d   1       3.160   0.374  -3.634  0.00  0.00    -0.097 SA
ATOM     13  C   LIG d   1       3.748   1.478  -2.433  0.00  0.00    -0.024 A 
ATOM     14  C   LIG d   1       4.578   0.705  -1.678  0.00  0.00    -0.054 A 
ATOM     15  H   LIG d   1       3.513   2.526  -2.315  0.00  0.00     0.069 H 
ATOM     16  C   LIG d   1       4.736  -0.616  -1.995  0.00  0.00    -0.048 A 
ATOM     17  H   LIG d   1       5.103   1.132  -0.835  0.00  0.00     0.062 H 
ATOM     18  H   LIG d   1       5.382  -1.262  -1.418  0.00  0.00     0.063 H 
ENDBRANCH   6  11
BRANCH   1  19
ATOM     19  C   LIG d   1       8.755  -4.205  -5.824  0.00  0.00     0.013 C 
ATOM     20  H   LIG d   1       9.383  -3.486  -5.300  0.00  0.00     0.030 H 
ATOM     21  H   LIG d   1       8.796  -5.166  -5.310  0.00  0.00     0.030 H 
ATOM     22  H   LIG d   1       9.113  -4.323  -6.846  0.00  0.00     0.030 H 
ENDBRANCH   1  19
BRANCH   1  23
ATOM     23  C   LIG d   1       6.818  -3.629  -7.292  0.00  0.00     0.013 C 
ATOM     24  H   LIG d   1       7.582  -4.034  -7.955  0.00  0.00     0.030 H 
ATOM     25  H   LIG d   1       5.903  -4.212  -7.392  0.00  0.00     0.030 H 
ATOM     26  H   LIG d   1       6.619  -2.591  -7.557  0.00  0.00     0.030 H 
ENDBRANCH   1  23
TORSDOF 3
ENDMDL
MODEL 8
REMARK VINA RESULT:      -5.0      3.933      5.329
REMARK  3 active torsions:
REMARK  status: ('A' for Active; 'I' for Inactive)
REMARK    1  A    between atoms: C_1  and  C_2 
REMARK    2  A    between atoms: C_2  and  C_16 
REMARK    3  A    between atoms: C_7  and  C_8 
ROOT
ATOM      1  C   LIG d   1       4.121   0.680  -3.023  0.00  0.00     0.255 C 
ATOM      2  O   LIG d   1       3.319  -0.526  -3.174  0.00  0.00    -0.419 OA
ATOM      3  C   LIG d   1       3.993  -1.699  -3.013  0.00  0.00     0.349 C 
ATOM      4  O   LIG d   1       3.559  -2.613  -2.338  0.00  0.00    -0.245 OA
ATOM      5  C   LIG d   1       5.295  -1.782  -3.723  0.00  0.00     0.144 C 
ATOM      6  C   LIG d   1       5.773  -2.962  -4.280  0.00  0.00    -0.027 C 
ATOM      7  C   LIG d   1       6.047  -0.504  -3.780  0.00  0.00     0.349 C 
ATOM      8  O   LIG d   1       7.260  -0.459  -3.720  0.00  0.00    -0.245 OA
ATOM      9  O   LIG d   1       5.274   0.615  -3.910  0.00  0.00    -0.419 OA
ATOM     10  H   LIG d   1       5.290  -3.901  -4.053  0.00  0.00     0.064 H 
ENDROOT
BRANCH   6  11
ATOM     11  C   LIG d   1       6.884  -2.933  -5.137  0.00  0.00     0.013 A 
ATOM     12  S   LIG d   1       7.000  -2.317  -6.808  0.00  0.00    -0.097 SA
ATOM     13  C   LIG d   1       8.676  -2.657  -7.094  0.00  0.00    -0.024 A 
ATOM     14  C   LIG d   1       9.084  -3.227  -5.927  0.00  0.00    -0.054 A 
ATOM     15  H   LIG d   1       9.255  -2.464  -7.986  0.00  0.00     0.069 H 
ATOM     16  C   LIG d   1       8.187  -3.379  -4.906  0.00  0.00    -0.048 A 
ATOM     17  H   LIG d   1      10.108  -3.553  -5.807  0.00  0.00     0.062 H 
ATOM     18  H   LIG d   1       8.473  -3.823  -3.963  0.00  0.00     0.063 H 
ENDBRANCH   6  11
BRANCH   1  19
ATOM     19  C   LIG d   1       3.273   1.903  -3.380  0.00  0.00     0.013 C 
ATOM     20  H   LIG d   1       2.300   1.824  -2.896  0.00  0.00     0.030 H 
ATOM     21  H   LIG d   1       3.777   2.806  -3.037  0.00  0.00     0.030 H 
ATOM     22  H   LIG d   1       3.139   1.949  -4.460  0.00  0.00     0.030 H 
ENDBRANCH   1  19
BRANCH   1  23
ATOM     23  C   LIG d   1       4.598   0.797  -1.574  0.00  0.00     0.013 C 
ATOM     24  H   LIG d   1       5.224  -0.061  -1.328  0.00  0.00     0.030 H 
ATOM     25  H   LIG d   1       5.175   1.714  -1.455  0.00  0.00     0.030 H 
ATOM     26  H   LIG d   1       3.736   0.821  -0.909  0.00  0.00     0.030 H 
ENDBRANCH   1  23
TORSDOF 3
ENDMDL
MODEL 9
REMARK VINA RESULT:      -4.9      4.320      5.142
REMARK  3 active torsions:
REMARK  status: ('A' for Active; 'I' for Inactive)
REMARK    1  A    between atoms: C_1  and  C_2 
REMARK    2  A    between atoms: C_2  and  C_16 
REMARK    3  A    between atoms: C_7  and  C_8 
ROOT
ATOM      1  C   LIG d   1       9.364   2.132  -3.992  0.00  0.00     0.255 C 
ATOM      2  O   LIG d   1       9.751   0.934  -4.722  0.00  0.00    -0.419 OA
ATOM      3  C   LIG d   1       8.761   0.351  -5.454  0.00  0.00     0.349 C 
ATOM      4  O   LIG d   1       8.931  -0.022  -6.599  0.00  0.00    -0.245 OA
ATOM      5  C   LIG d   1       7.461   0.202  -4.754  0.00  0.00     0.144 C 
ATOM      6  C   LIG d   1       6.617  -0.884  -4.957  0.00  0.00    -0.027 C 
ATOM      7  C   LIG d   1       7.132   1.312  -3.824  0.00  0.00     0.349 C 
ATOM      8  O   LIG d   1       5.996   1.710  -3.662  0.00  0.00    -0.245 OA
ATOM      9  O   LIG d   1       8.201   1.847  -3.164  0.00  0.00    -0.419 OA
ATOM     10  H   LIG d   1       6.803  -1.566  -5.773  0.00  0.00     0.064 H 
ENDROOT
BRANCH   6  11
ATOM     11  C   LIG d   1       5.524  -1.093  -4.101  0.00  0.00     0.013 A 
ATOM     12  S   LIG d   1       3.799  -0.726  -4.368  0.00  0.00    -0.097 SA
ATOM     13  C   LIG d   1       3.175  -1.295  -2.854  0.00  0.00    -0.024 A 
ATOM     14  C   LIG d   1       4.287  -1.733  -2.201  0.00  0.00    -0.054 A 
ATOM     15  H   LIG d   1       2.150  -1.298  -2.511  0.00  0.00     0.069 H 
ATOM     16  C   LIG d   1       5.505  -1.644  -2.817  0.00  0.00    -0.048 A 
ATOM     17  H   LIG d   1       4.207  -2.149  -1.207  0.00  0.00     0.062 H 
ATOM     18  H   LIG d   1       6.409  -1.984  -2.335  0.00  0.00     0.063 H 
ENDBRANCH   6  11
BRANCH   1  19
ATOM     19  C   LIG d   1      10.524   2.584  -3.103  0.00  0.00     0.013 C 
ATOM     20  H   LIG d   1      10.755   1.800  -2.382  0.00  0.00     0.030 H 
ATOM     21  H   LIG d   1      11.401   2.779  -3.721  0.00  0.00     0.030 H 
ATOM     22  H   LIG d   1      10.243   3.493  -2.573  0.00  0.00     0.030 H 
ENDBRANCH   1  19
BRANCH   1  23
ATOM     23  C   LIG d   1       9.022   3.245  -4.985  0.00  0.00     0.013 C 
ATOM     24  H   LIG d   1       8.666   4.120  -4.441  0.00  0.00     0.030 H 
ATOM     25  H   LIG d   1       9.912   3.509  -5.555  0.00  0.00     0.030 H 
ATOM     26  H   LIG d   1       8.244   2.899  -5.665  0.00  0.00     0.030 H 
ENDBRANCH   1  23
TORSDOF 3
ENDMDL
MODEL 10
REMARK VINA RESULT:      -4.8     10.652     11.875
REMARK  3 active torsions:
REMARK  status: ('A' for Active; 'I' for Inactive)
REMARK    1  A    between atoms: C_1  and  C_2 
REMARK    2  A    between atoms: C_2  and  C_16 
REMARK    3  A    between atoms: C_7  and  C_8 
ROOT
ATOM      1  C   LIG d   1       4.141 -11.822  -5.565  0.00  0.00     0.255 C 
ATOM      2  O   LIG d   1       3.219 -11.424  -4.511  0.00  0.00    -0.419 OA
ATOM      3  C   LIG d   1       3.701 -10.499  -3.634  0.00  0.00     0.349 C 
ATOM      4  O   LIG d   1       3.052  -9.531  -3.288  0.00  0.00    -0.245 OA
ATOM      5  C   LIG d   1       5.072 -10.760  -3.130  0.00  0.00     0.144 C 
ATOM      6  C   LIG d   1       5.471 -10.446  -1.836  0.00  0.00    -0.027 C 
ATOM      7  C   LIG d   1       5.986 -11.376  -4.124  0.00  0.00     0.349 C 
ATOM      8  O   LIG d   1       7.171 -11.109  -4.172  0.00  0.00    -0.245 OA
ATOM      9  O   LIG d   1       5.397 -12.264  -4.977  0.00  0.00    -0.419 OA
ATOM     10  H   LIG d   1       4.839  -9.833  -1.211  0.00  0.00     0.064 H 
ENDROOT
BRANCH   6  11
ATOM     11  C   LIG d   1       6.693 -10.927  -1.341  0.00  0.00     0.013 A 
ATOM     12  S   LIG d   1       7.165 -12.601  -0.944  0.00  0.00    -0.097 SA
ATOM     13  C   LIG d   1       8.791 -12.296  -0.425  0.00  0.00    -0.024 A 
ATOM     14  C   LIG d   1       8.916 -10.947  -0.562  0.00  0.00    -0.054 A 
ATOM     15  H   LIG d   1       9.526 -13.006  -0.075  0.00  0.00     0.069 H 
ATOM     16  C   LIG d   1       7.857 -10.220  -1.032  0.00  0.00    -0.048 A 
ATOM     17  H   LIG d   1       9.844 -10.456  -0.306  0.00  0.00     0.062 H 
ATOM     18  H   LIG d   1       7.918  -9.149  -1.159  0.00  0.00     0.063 H 
ENDBRANCH   6  11
BRANCH   1  19
ATOM     19  C   LIG d   1       3.526 -12.966  -6.374  0.00  0.00     0.013 C 
ATOM     20  H   LIG d   1       3.777 -13.917  -5.905  0.00  0.00     0.030 H 
ATOM     21  H   LIG d   1       2.442 -12.850  -6.401  0.00  0.00     0.030 H 
ATOM     22  H   LIG d   1       3.919 -12.946  -7.389  0.00  0.00     0.030 H 
ENDBRANCH   1  19
BRANCH   1  23
ATOM     23  C   LIG d   1       4.403 -10.631  -6.490  0.00  0.00     0.013 C 
ATOM     24  H   LIG d   1       5.007 -10.955  -7.337  0.00  0.00     0.030 H 
ATOM     25  H   LIG d   1       3.453 -10.236  -6.850  0.00  0.00     0.030 H 
ATOM     26  H   LIG d   1       4.935  -9.855  -5.940  0.00  0.00     0.030 H 
ENDBRANCH   1  23
TORSDOF 3
ENDMDL
