MODEL 1
REMARK VINA RESULT:      -6.4      0.000      0.000
REMARK  9 active torsions:
REMARK  status: ('A' for Active; 'I' for Inactive)
REMARK    1  A    between atoms: C_1  and  C_2 
REMARK    2  A    between atoms: C_4  and  N_30 
REMARK    3  A    between atoms: C_8  and  C_29 
REMARK    4  A    between atoms: C_11  and  O_28 
REMARK    5  A    between atoms: C_13  and  C_17 
REMARK    6  A    between atoms: C_17  and  C_19 
REMARK    7  A    between atoms: C_17  and  C_20 
REMARK       I    between atoms: C_20  and  N_22 
REMARK    8  A    between atoms: N_22  and  C_23 
REMARK       I    between atoms: N_30  and  C_31 
REMARK    9  A    between atoms: C_31  and  C_33 
ROOT
ATOM      1  C   LIG d   1       9.058   2.252  -5.834  0.00  0.00    -0.020 C 
ATOM      2  H   LIG d   1       9.887   1.531  -5.785  0.00  0.00     0.032 H 
ATOM      3  C   LIG d   1       8.375   2.338  -4.468  0.00  0.00     0.026 C 
ATOM      4  H   LIG d   1       7.518   3.026  -4.506  0.00  0.00     0.050 H 
ATOM      5  C   LIG d   1       9.390   2.798  -3.419  0.00  0.00    -0.034 C 
ATOM      6  C   LIG d   1       9.934   4.175  -3.805  0.00  0.00    -0.046 C 
ATOM      7  C   LIG d   1      10.617   4.088  -5.171  0.00  0.00    -0.026 C 
ATOM      8  C   LIG d   1       9.602   3.629  -6.221  0.00  0.00    -0.005 C 
ATOM      9  H   LIG d   1       8.773   4.350  -6.270  0.00  0.00     0.033 H 
ATOM     10  C   LIG d   1      10.285   3.543  -7.586  0.00  0.00     0.062 C 
ATOM     11  H   LIG d   1      11.082   2.784  -7.588  0.00  0.00     0.060 H 
ATOM     12  C   LIG d   1      10.829   4.919  -7.972  0.00  0.00    -0.004 C 
ATOM     13  H   LIG d   1      11.320   4.857  -8.955  0.00  0.00     0.033 H 
ATOM     14  C   LIG d   1      11.844   5.379  -6.923  0.00  0.00    -0.047 C 
ATOM     15  C   LIG d   1      11.162   5.464  -5.557  0.00  0.00    -0.047 C 
ATOM     16  H   LIG d   1       8.898   2.860  -2.436  0.00  0.00     0.028 H 
ATOM     17  H   LIG d   1      10.218   2.076  -3.370  0.00  0.00     0.028 H 
ATOM     18  H   LIG d   1       9.105   4.896  -3.854  0.00  0.00     0.027 H 
ATOM     19  H   LIG d   1      10.664   4.505  -3.051  0.00  0.00     0.027 H 
ATOM     20  H   LIG d   1      12.673   4.657  -6.874  0.00  0.00     0.027 H 
ATOM     21  H   LIG d   1      12.236   6.368  -7.201  0.00  0.00     0.027 H 
ATOM     22  H   LIG d   1      10.332   6.186  -5.607  0.00  0.00     0.027 H 
ATOM     23  H   LIG d   1      11.890   5.795  -4.803  0.00  0.00     0.027 H 
ENDROOT
BRANCH  12  24
ATOM     24  C   LIG d   1       9.677   5.922  -8.041  0.00  0.00     0.038 C 
ATOM     25  H   LIG d   1       9.033   5.814  -7.156  0.00  0.00     0.040 H 
BRANCH  24  26
ATOM     26  C   LIG d   1       8.861   5.676  -9.312  0.00  0.00    -0.054 C 
ATOM     27  H   LIG d   1       8.207   6.540  -9.501  0.00  0.00     0.024 H 
ATOM     28  H   LIG d   1       8.247   4.772  -9.184  0.00  0.00     0.024 H 
ATOM     29  H   LIG d   1       9.543   5.539 -10.164  0.00  0.00     0.024 H 
ENDBRANCH  24  26
BRANCH  24  30
ATOM     30  C   LIG d   1      10.231   7.324  -8.064  0.00  0.00     0.216 C 
ATOM     31  O   LIG d   1      10.896   7.697  -9.006  0.00  0.00    -0.276 OA
ATOM     32  N   LIG d   1       9.987   8.162  -7.037  0.00  0.00    -0.312 N 
ATOM     33  H   LIG d   1       9.385   7.823  -6.181  0.00  0.00     0.149 HD
BRANCH  32  34
ATOM     34  C   LIG d   1      10.526   9.524  -7.059  0.00  0.00     0.023 C 
ATOM     35  C   LIG d   1      11.954   9.552  -6.457  0.00  0.00    -0.035 C 
ATOM     36  C   LIG d   1      12.105  11.026  -6.002  0.00  0.00    -0.051 C 
ATOM     37  H   LIG d   1      12.012   8.841  -5.618  0.00  0.00     0.028 H 
ATOM     38  H   LIG d   1      12.683   9.269  -7.229  0.00  0.00     0.028 H 
ATOM     39  C   LIG d   1      10.709  11.399  -5.461  0.00  0.00    -0.051 C 
ATOM     40  H   LIG d   1      12.363  11.691  -6.840  0.00  0.00     0.027 H 
ATOM     41  H   LIG d   1      12.851  11.137  -5.202  0.00  0.00     0.027 H 
ATOM     42  C   LIG d   1       9.706  10.444  -6.132  0.00  0.00    -0.035 C 
ATOM     43  H   LIG d   1      10.455  12.438  -5.718  0.00  0.00     0.027 H 
ATOM     44  H   LIG d   1      10.665  11.269  -4.369  0.00  0.00     0.027 H 
ATOM     45  H   LIG d   1       8.971  11.004  -6.728  0.00  0.00     0.028 H 
ATOM     46  H   LIG d   1       9.183   9.835  -5.381  0.00  0.00     0.028 H 
ATOM     47  H   LIG d   1      10.481   9.807  -8.120  0.00  0.00     0.050 H 
ENDBRANCH  32  34
ENDBRANCH  24  30
ENDBRANCH  12  24
BRANCH  10  48
ATOM     48  O   LIG d   1       9.337   3.113  -8.566  0.00  0.00    -0.391 OA
ATOM     49  H   LIG d   1       8.630   3.834  -9.001  0.00  0.00     0.210 HD
ENDBRANCH  10  48
BRANCH   1  50
ATOM     50  C   LIG d   1       8.043   1.792  -6.884  0.00  0.00    -0.060 C 
ATOM     51  H   LIG d   1       8.037   0.693  -6.929  0.00  0.00     0.023 H 
ATOM     52  H   LIG d   1       8.323   2.198  -7.867  0.00  0.00     0.023 H 
ATOM     53  H   LIG d   1       7.042   2.154  -6.608  0.00  0.00     0.023 H 
ENDBRANCH   1  50
BRANCH   7  54
ATOM     54  C   LIG d   1      11.769   3.085  -5.102  0.00  0.00    -0.059 C 
ATOM     55  H   LIG d   1      11.931   2.783  -4.057  0.00  0.00     0.024 H 
ATOM     56  H   LIG d   1      12.685   3.550  -5.495  0.00  0.00     0.024 H 
ATOM     57  H   LIG d   1      11.521   2.199  -5.705  0.00  0.00     0.024 H 
ENDBRANCH   7  54
BRANCH   3  58
ATOM     58  N   LIG d   1       7.853   1.020  -4.098  0.00  0.00    -0.312 N 
ATOM     59  C   LIG d   1       6.670   0.918  -3.462  0.00  0.00     0.216 C 
ATOM     60  O   LIG d   1       6.036   1.916  -3.195  0.00  0.00    -0.276 OA
ATOM     61  H   LIG d   1       8.428   0.113  -4.340  0.00  0.00     0.149 HD
BRANCH  59  62
ATOM     62  C   LIG d   1       6.134  -0.439  -3.082  0.00  0.00     0.036 C 
ATOM     63  C   LIG d   1       4.848  -0.269  -2.271  0.00  0.00    -0.042 C 
ATOM     64  C   LIG d   1       4.303  -1.647  -1.885  0.00  0.00    -0.052 C 
ATOM     65  H   LIG d   1       5.062   0.309  -1.360  0.00  0.00     0.027 H 
ATOM     66  H   LIG d   1       4.100   0.263  -2.877  0.00  0.00     0.027 H 
ATOM     67  C   LIG d   1       4.005  -2.450  -3.152  0.00  0.00    -0.053 C 
ATOM     68  H   LIG d   1       3.378  -1.524  -1.302  0.00  0.00     0.026 H 
ATOM     69  H   LIG d   1       5.051  -2.180  -1.280  0.00  0.00     0.026 H 
ATOM     70  C   LIG d   1       5.292  -2.620  -3.963  0.00  0.00    -0.052 C 
ATOM     71  H   LIG d   1       3.257  -1.918  -3.758  0.00  0.00     0.026 H 
ATOM     72  H   LIG d   1       3.614  -3.440  -2.874  0.00  0.00     0.026 H 
ATOM     73  C   LIG d   1       5.836  -1.243  -4.349  0.00  0.00    -0.042 C 
ATOM     74  H   LIG d   1       5.078  -3.198  -4.874  0.00  0.00     0.026 H 
ATOM     75  H   LIG d   1       6.039  -3.153  -3.357  0.00  0.00     0.026 H 
ATOM     76  H   LIG d   1       5.088  -0.710  -4.955  0.00  0.00     0.027 H 
ATOM     77  H   LIG d   1       6.761  -1.364  -4.931  0.00  0.00     0.027 H 
ATOM     78  H   LIG d   1       6.891  -0.960  -2.477  0.00  0.00     0.039 H 
ENDBRANCH  59  62
ENDBRANCH   3  58
TORSDOF 9
ENDMDL
MODEL 2
REMARK VINA RESULT:      -6.2      7.274     11.154
REMARK  9 active torsions:
REMARK  status: ('A' for Active; 'I' for Inactive)
REMARK    1  A    between atoms: C_1  and  C_2 
REMARK    2  A    between atoms: C_4  and  N_30 
REMARK    3  A    between atoms: C_8  and  C_29 
REMARK    4  A    between atoms: C_11  and  O_28 
REMARK    5  A    between atoms: C_13  and  C_17 
REMARK    6  A    between atoms: C_17  and  C_19 
REMARK    7  A    between atoms: C_17  and  C_20 
REMARK       I    between atoms: C_20  and  N_22 
REMARK    8  A    between atoms: N_22  and  C_23 
REMARK       I    between atoms: N_30  and  C_31 
REMARK    9  A    between atoms: C_31  and  C_33 
ROOT
ATOM      1  C   LIG d   1       9.108  -7.339  -3.782  0.00  0.00    -0.020 C 
ATOM      2  H   LIG d   1      10.080  -7.358  -4.296  0.00  0.00     0.032 H 
ATOM      3  C   LIG d   1       9.311  -7.621  -2.292  0.00  0.00     0.026 C 
ATOM      4  H   LIG d   1       8.346  -7.644  -1.767  0.00  0.00     0.050 H 
ATOM      5  C   LIG d   1      10.227  -6.553  -1.692  0.00  0.00    -0.034 C 
ATOM      6  C   LIG d   1       9.587  -5.175  -1.867  0.00  0.00    -0.046 C 
ATOM      7  C   LIG d   1       9.383  -4.892  -3.356  0.00  0.00    -0.026 C 
ATOM      8  C   LIG d   1       8.466  -5.960  -3.957  0.00  0.00    -0.005 C 
ATOM      9  H   LIG d   1       7.494  -5.941  -3.444  0.00  0.00     0.033 H 
ATOM     10  C   LIG d   1       8.262  -5.678  -5.446  0.00  0.00     0.062 C 
ATOM     11  H   LIG d   1       9.210  -5.751  -6.000  0.00  0.00     0.060 H 
ATOM     12  C   LIG d   1       7.621  -4.300  -5.621  0.00  0.00    -0.004 C 
ATOM     13  H   LIG d   1       7.474  -4.097  -6.693  0.00  0.00     0.033 H 
ATOM     14  C   LIG d   1       8.537  -3.231  -5.020  0.00  0.00    -0.047 C 
ATOM     15  C   LIG d   1       8.742  -3.514  -3.531  0.00  0.00    -0.047 C 
ATOM     16  H   LIG d   1      10.374  -6.756  -0.620  0.00  0.00     0.028 H 
ATOM     17  H   LIG d   1      11.200  -6.573  -2.206  0.00  0.00     0.028 H 
ATOM     18  H   LIG d   1       8.614  -5.155  -1.353  0.00  0.00     0.027 H 
ATOM     19  H   LIG d   1      10.245  -4.406  -1.435  0.00  0.00     0.027 H 
ATOM     20  H   LIG d   1       9.510  -3.252  -5.534  0.00  0.00     0.027 H 
ATOM     21  H   LIG d   1       8.077  -2.241  -5.147  0.00  0.00     0.027 H 
ATOM     22  H   LIG d   1       7.769  -3.494  -3.018  0.00  0.00     0.027 H 
ATOM     23  H   LIG d   1       9.400  -2.746  -3.099  0.00  0.00     0.027 H 
ENDROOT
BRANCH  12  24
ATOM     24  C   LIG d   1       6.269  -4.272  -4.907  0.00  0.00     0.038 C 
ATOM     25  H   LIG d   1       6.378  -4.660  -3.884  0.00  0.00     0.040 H 
BRANCH  24  26
ATOM     26  C   LIG d   1       5.264  -5.127  -5.683  0.00  0.00    -0.054 C 
ATOM     27  H   LIG d   1       4.804  -5.859  -5.004  0.00  0.00     0.024 H 
ATOM     28  H   LIG d   1       5.784  -5.656  -6.496  0.00  0.00     0.024 H 
ATOM     29  H   LIG d   1       4.484  -4.479  -6.108  0.00  0.00     0.024 H 
ENDBRANCH  24  26
BRANCH  24  30
ATOM     30  C   LIG d   1       5.769  -2.852  -4.833  0.00  0.00     0.216 C 
ATOM     31  O   LIG d   1       5.612  -2.212  -5.850  0.00  0.00    -0.276 OA
ATOM     32  N   LIG d   1       5.496  -2.295  -3.636  0.00  0.00    -0.312 N 
ATOM     33  H   LIG d   1       5.640  -2.876  -2.713  0.00  0.00     0.149 HD
BRANCH  32  34
ATOM     34  C   LIG d   1       5.011  -0.915  -3.564  0.00  0.00     0.023 C 
ATOM     35  C   LIG d   1       6.192   0.066  -3.359  0.00  0.00    -0.035 C 
ATOM     36  C   LIG d   1       5.507   1.297  -2.714  0.00  0.00    -0.051 C 
ATOM     37  H   LIG d   1       6.942  -0.397  -2.700  0.00  0.00     0.028 H 
ATOM     38  H   LIG d   1       6.651   0.295  -4.331  0.00  0.00     0.028 H 
ATOM     39  C   LIG d   1       4.447   0.690  -1.772  0.00  0.00    -0.051 C 
ATOM     40  H   LIG d   1       5.011   1.932  -3.464  0.00  0.00     0.027 H 
ATOM     41  H   LIG d   1       6.214   1.904  -2.129  0.00  0.00     0.027 H 
ATOM     42  C   LIG d   1       4.132  -0.717  -2.312  0.00  0.00    -0.035 C 
ATOM     43  H   LIG d   1       3.530   1.296  -1.772  0.00  0.00     0.027 H 
ATOM     44  H   LIG d   1       4.835   0.610  -0.746  0.00  0.00     0.027 H 
ATOM     45  H   LIG d   1       3.071  -0.801  -2.592  0.00  0.00     0.028 H 
ATOM     46  H   LIG d   1       4.378  -1.487  -1.567  0.00  0.00     0.028 H 
ATOM     47  H   LIG d   1       4.472  -0.777  -4.513  0.00  0.00     0.050 H 
ENDBRANCH  32  34
ENDBRANCH  24  30
ENDBRANCH  12  24
BRANCH  10  48
ATOM     48  O   LIG d   1       7.407  -6.676  -6.008  0.00  0.00    -0.391 OA
ATOM     49  H   LIG d   1       7.841  -7.547  -6.522  0.00  0.00     0.210 HD
ENDBRANCH  10  48
BRANCH   1  50
ATOM     50  C   LIG d   1       8.191  -8.407  -4.383  0.00  0.00    -0.060 C 
ATOM     51  H   LIG d   1       8.792  -9.112  -4.976  0.00  0.00     0.023 H 
ATOM     52  H   LIG d   1       7.444  -7.926  -5.032  0.00  0.00     0.023 H 
ATOM     53  H   LIG d   1       7.681  -8.949  -3.574  0.00  0.00     0.023 H 
ENDBRANCH   1  50
BRANCH   7  54
ATOM     54  C   LIG d   1      10.735  -4.920  -4.070  0.00  0.00    -0.059 C 
ATOM     55  H   LIG d   1      11.509  -5.278  -3.375  0.00  0.00     0.024 H 
ATOM     56  H   LIG d   1      10.990  -3.907  -4.412  0.00  0.00     0.024 H 
ATOM     57  H   LIG d   1      10.679  -5.596  -4.936  0.00  0.00     0.024 H 
ENDBRANCH   7  54
BRANCH   3  58
ATOM     58  N   LIG d   1       9.925  -8.941  -2.125  0.00  0.00    -0.312 N 
ATOM     59  C   LIG d   1       9.293  -9.892  -1.409  0.00  0.00     0.216 C 
ATOM     60  O   LIG d   1       8.217  -9.656  -0.904  0.00  0.00    -0.276 OA
ATOM     61  H   LIG d   1      10.902  -9.156  -2.583  0.00  0.00     0.149 HD
BRANCH  59  62
ATOM     62  C   LIG d   1       9.925 -11.250  -1.237  0.00  0.00     0.036 C 
ATOM     63  C   LIG d   1       9.805 -11.686   0.224  0.00  0.00    -0.042 C 
ATOM     64  C   LIG d   1      10.446 -13.065   0.398  0.00  0.00    -0.052 C 
ATOM     65  H   LIG d   1      10.319 -10.958   0.868  0.00  0.00     0.027 H 
ATOM     66  H   LIG d   1       8.743 -11.739   0.504  0.00  0.00     0.027 H 
ATOM     67  C   LIG d   1       9.729 -14.078  -0.497  0.00  0.00    -0.053 C 
ATOM     68  H   LIG d   1      10.359 -13.378   1.449  0.00  0.00     0.026 H 
ATOM     69  H   LIG d   1      11.507 -13.013   0.117  0.00  0.00     0.026 H 
ATOM     70  C   LIG d   1       9.850 -13.641  -1.958  0.00  0.00    -0.052 C 
ATOM     71  H   LIG d   1       8.667 -14.130  -0.216  0.00  0.00     0.026 H 
ATOM     72  H   LIG d   1      10.191 -15.068  -0.371  0.00  0.00     0.026 H 
ATOM     73  C   LIG d   1       9.209 -12.263  -2.133  0.00  0.00    -0.042 C 
ATOM     74  H   LIG d   1       9.335 -14.369  -2.602  0.00  0.00     0.026 H 
ATOM     75  H   LIG d   1      10.912 -13.589  -2.239  0.00  0.00     0.026 H 
ATOM     76  H   LIG d   1       8.146 -12.314  -1.853  0.00  0.00     0.027 H 
ATOM     77  H   LIG d   1       9.295 -11.948  -3.183  0.00  0.00     0.027 H 
ATOM     78  H   LIG d   1      10.986 -11.183  -1.521  0.00  0.00     0.039 H 
ENDBRANCH  59  62
ENDBRANCH   3  58
TORSDOF 9
ENDMDL
MODEL 3
REMARK VINA RESULT:      -6.2      8.210     12.101
REMARK  9 active torsions:
REMARK  status: ('A' for Active; 'I' for Inactive)
REMARK    1  A    between atoms: C_1  and  C_2 
REMARK    2  A    between atoms: C_4  and  N_30 
REMARK    3  A    between atoms: C_8  and  C_29 
REMARK    4  A    between atoms: C_11  and  O_28 
REMARK    5  A    between atoms: C_13  and  C_17 
REMARK    6  A    between atoms: C_17  and  C_19 
REMARK    7  A    between atoms: C_17  and  C_20 
REMARK       I    between atoms: C_20  and  N_22 
REMARK    8  A    between atoms: N_22  and  C_23 
REMARK       I    between atoms: N_30  and  C_31 
REMARK    9  A    between atoms: C_31  and  C_33 
ROOT
ATOM      1  C   LIG d   1       3.553  -1.935  -8.816  0.00  0.00    -0.020 C 
ATOM      2  H   LIG d   1       4.537  -1.567  -9.142  0.00  0.00     0.032 H 
ATOM      3  C   LIG d   1       2.911  -0.911  -7.879  0.00  0.00     0.026 C 
ATOM      4  H   LIG d   1       1.941  -1.277  -7.511  0.00  0.00     0.050 H 
ATOM      5  C   LIG d   1       2.740   0.419  -8.617  0.00  0.00    -0.034 C 
ATOM      6  C   LIG d   1       1.843   0.213  -9.839  0.00  0.00    -0.046 C 
ATOM      7  C   LIG d   1       2.486  -0.811 -10.776  0.00  0.00    -0.026 C 
ATOM      8  C   LIG d   1       2.655  -2.141 -10.039  0.00  0.00    -0.005 C 
ATOM      9  H   LIG d   1       1.671  -2.509  -9.713  0.00  0.00     0.033 H 
ATOM     10  C   LIG d   1       3.297  -3.165 -10.976  0.00  0.00     0.062 C 
ATOM     11  H   LIG d   1       4.311  -2.855 -11.272  0.00  0.00     0.060 H 
ATOM     12  C   LIG d   1       2.400  -3.371 -12.198  0.00  0.00    -0.004 C 
ATOM     13  H   LIG d   1       2.862  -4.108 -12.872  0.00  0.00     0.033 H 
ATOM     14  C   LIG d   1       2.230  -2.041 -12.936  0.00  0.00    -0.047 C 
ATOM     15  C   LIG d   1       1.589  -1.016 -11.998  0.00  0.00    -0.047 C 
ATOM     16  H   LIG d   1       2.279   1.156  -7.942  0.00  0.00     0.028 H 
ATOM     17  H   LIG d   1       3.725   0.786  -8.942  0.00  0.00     0.028 H 
ATOM     18  H   LIG d   1       0.859  -0.154  -9.513  0.00  0.00     0.027 H 
ATOM     19  H   LIG d   1       1.721   1.169 -10.369  0.00  0.00     0.027 H 
ATOM     20  H   LIG d   1       3.215  -1.674 -13.261  0.00  0.00     0.027 H 
ATOM     21  H   LIG d   1       1.586  -2.189 -13.814  0.00  0.00     0.027 H 
ATOM     22  H   LIG d   1       0.604  -1.385 -11.673  0.00  0.00     0.027 H 
ATOM     23  H   LIG d   1       1.466  -0.061 -12.528  0.00  0.00     0.027 H 
ENDROOT
BRANCH  12  24
ATOM     24  C   LIG d   1       1.031  -3.882 -11.746  0.00  0.00     0.038 C 
ATOM     25  H   LIG d   1       0.736  -3.383 -10.811  0.00  0.00     0.040 H 
BRANCH  24  26
ATOM     26  C   LIG d   1       1.097  -5.395 -11.530  0.00  0.00    -0.054 C 
ATOM     27  H   LIG d   1       0.100  -5.770 -11.255  0.00  0.00     0.024 H 
ATOM     28  H   LIG d   1       1.810  -5.620 -10.722  0.00  0.00     0.024 H 
ATOM     29  H   LIG d   1       1.429  -5.883 -12.458  0.00  0.00     0.024 H 
ENDBRANCH  24  26
BRANCH  24  30
ATOM     30  C   LIG d   1       0.004  -3.570 -12.803  0.00  0.00     0.216 C 
ATOM     31  O   LIG d   1       0.184  -3.928 -13.947  0.00  0.00    -0.276 OA
ATOM     32  N   LIG d   1      -1.115  -2.892 -12.477  0.00  0.00    -0.312 N 
ATOM     33  H   LIG d   1      -1.278  -2.567 -11.439  0.00  0.00     0.149 HD
BRANCH  32  34
ATOM     34  C   LIG d   1      -2.114  -2.589 -13.504  0.00  0.00     0.023 C 
ATOM     35  C   LIG d   1      -2.015  -1.104 -13.935  0.00  0.00    -0.035 C 
ATOM     36  C   LIG d   1      -3.430  -0.815 -14.497  0.00  0.00    -0.051 C 
ATOM     37  H   LIG d   1      -1.772  -0.484 -13.058  0.00  0.00     0.028 H 
ATOM     38  H   LIG d   1      -1.226  -0.993 -14.692  0.00  0.00     0.028 H 
ATOM     39  C   LIG d   1      -4.375  -1.596 -13.561  0.00  0.00    -0.051 C 
ATOM     40  H   LIG d   1      -3.547  -1.184 -15.527  0.00  0.00     0.027 H 
ATOM     41  H   LIG d   1      -3.679   0.256 -14.461  0.00  0.00     0.027 H 
ATOM     42  C   LIG d   1      -3.539  -2.723 -12.929  0.00  0.00    -0.035 C 
ATOM     43  H   LIG d   1      -5.212  -2.033 -14.125  0.00  0.00     0.027 H 
ATOM     44  H   LIG d   1      -4.768  -0.943 -12.768  0.00  0.00     0.027 H 
ATOM     45  H   LIG d   1      -3.948  -3.709 -13.192  0.00  0.00     0.028 H 
ATOM     46  H   LIG d   1      -3.503  -2.619 -11.835  0.00  0.00     0.028 H 
ATOM     47  H   LIG d   1      -1.889  -3.305 -14.308  0.00  0.00     0.050 H 
ENDBRANCH  32  34
ENDBRANCH  24  30
ENDBRANCH  12  24
BRANCH  10  48
ATOM     48  O   LIG d   1       3.456  -4.407 -10.287  0.00  0.00    -0.391 OA
ATOM     49  H   LIG d   1       3.325  -5.357 -10.827  0.00  0.00     0.210 HD
ENDBRANCH  10  48
BRANCH   1  50
ATOM     50  C   LIG d   1       3.723  -3.265  -8.079  0.00  0.00    -0.060 C 
ATOM     51  H   LIG d   1       2.733  -3.700  -7.878  0.00  0.00     0.023 H 
ATOM     52  H   LIG d   1       4.247  -3.093  -7.128  0.00  0.00     0.023 H 
ATOM     53  H   LIG d   1       4.308  -3.957  -8.702  0.00  0.00     0.023 H 
ENDBRANCH   1  50
BRANCH   7  54
ATOM     54  C   LIG d   1       3.854  -0.300 -11.229  0.00  0.00    -0.059 C 
ATOM     55  H   LIG d   1       3.864   0.800 -11.199  0.00  0.00     0.024 H 
ATOM     56  H   LIG d   1       4.052  -0.640 -12.255  0.00  0.00     0.024 H 
ATOM     57  H   LIG d   1       4.632  -0.691 -10.556  0.00  0.00     0.024 H 
ENDBRANCH   7  54
BRANCH   3  58
ATOM     58  N   LIG d   1       3.770  -0.714  -6.709  0.00  0.00    -0.312 N 
ATOM     59  C   LIG d   1       3.255  -0.201  -5.574  0.00  0.00     0.216 C 
ATOM     60  O   LIG d   1       2.081   0.098  -5.521  0.00  0.00    -0.276 OA
ATOM     61  H   LIG d   1       4.835  -0.984  -6.756  0.00  0.00     0.149 HD
BRANCH  59  62
ATOM     62  C   LIG d   1       4.139   0.002  -4.370  0.00  0.00     0.036 C 
ATOM     63  C   LIG d   1       3.430   0.910  -3.364  0.00  0.00    -0.042 C 
ATOM     64  C   LIG d   1       4.327   1.115  -2.141  0.00  0.00    -0.052 C 
ATOM     65  H   LIG d   1       3.219   1.883  -3.833  0.00  0.00     0.027 H 
ATOM     66  H   LIG d   1       2.485   0.441  -3.050  0.00  0.00     0.027 H 
ATOM     67  C   LIG d   1       4.619  -0.238  -1.490  0.00  0.00    -0.053 C 
ATOM     68  H   LIG d   1       3.816   1.768  -1.418  0.00  0.00     0.026 H 
ATOM     69  H   LIG d   1       5.272   1.583  -2.455  0.00  0.00     0.026 H 
ATOM     70  C   LIG d   1       5.329  -1.146  -2.497  0.00  0.00    -0.052 C 
ATOM     71  H   LIG d   1       3.675  -0.706  -1.176  0.00  0.00     0.026 H 
ATOM     72  H   LIG d   1       5.265  -0.090  -0.612  0.00  0.00     0.026 H 
ATOM     73  C   LIG d   1       4.432  -1.351  -3.719  0.00  0.00    -0.042 C 
ATOM     74  H   LIG d   1       5.539  -2.118  -2.028  0.00  0.00     0.026 H 
ATOM     75  H   LIG d   1       6.274  -0.677  -2.810  0.00  0.00     0.026 H 
ATOM     76  H   LIG d   1       3.487  -1.820  -3.405  0.00  0.00     0.027 H 
ATOM     77  H   LIG d   1       4.941  -2.004  -4.442  0.00  0.00     0.027 H 
ATOM     78  H   LIG d   1       5.079   0.471  -4.698  0.00  0.00     0.039 H 
ENDBRANCH  59  62
ENDBRANCH   3  58
TORSDOF 9
ENDMDL
MODEL 4
REMARK VINA RESULT:      -6.1      1.376      1.605
REMARK  9 active torsions:
REMARK  status: ('A' for Active; 'I' for Inactive)
REMARK    1  A    between atoms: C_1  and  C_2 
REMARK    2  A    between atoms: C_4  and  N_30 
REMARK    3  A    between atoms: C_8  and  C_29 
REMARK    4  A    between atoms: C_11  and  O_28 
REMARK    5  A    between atoms: C_13  and  C_17 
REMARK    6  A    between atoms: C_17  and  C_19 
REMARK    7  A    between atoms: C_17  and  C_20 
REMARK       I    between atoms: C_20  and  N_22 
REMARK    8  A    between atoms: N_22  and  C_23 
REMARK       I    between atoms: N_30  and  C_31 
REMARK    9  A    between atoms: C_31  and  C_33 
ROOT
ATOM      1  C   LIG d   1       9.409   2.688  -5.373  0.00  0.00    -0.020 C 
ATOM      2  H   LIG d   1      10.272   2.012  -5.468  0.00  0.00     0.032 H 
ATOM      3  C   LIG d   1       8.755   2.491  -4.004  0.00  0.00     0.026 C 
ATOM      4  H   LIG d   1       7.867   3.131  -3.903  0.00  0.00     0.050 H 
ATOM      5  C   LIG d   1       9.772   2.802  -2.903  0.00  0.00    -0.034 C 
ATOM      6  C   LIG d   1      10.243   4.251  -3.039  0.00  0.00    -0.046 C 
ATOM      7  C   LIG d   1      10.897   4.448  -4.408  0.00  0.00    -0.026 C 
ATOM      8  C   LIG d   1       9.880   4.138  -5.509  0.00  0.00    -0.005 C 
ATOM      9  H   LIG d   1       9.018   4.814  -5.414  0.00  0.00     0.033 H 
ATOM     10  C   LIG d   1      10.534   4.336  -6.878  0.00  0.00     0.062 C 
ATOM     11  H   LIG d   1      11.364   3.630  -7.029  0.00  0.00     0.060 H 
ATOM     12  C   LIG d   1      11.005   5.785  -7.013  0.00  0.00    -0.004 C 
ATOM     13  H   LIG d   1      11.475   5.927  -7.998  0.00  0.00     0.033 H 
ATOM     14  C   LIG d   1      12.022   6.096  -5.913  0.00  0.00    -0.047 C 
ATOM     15  C   LIG d   1      11.368   5.898  -4.544  0.00  0.00    -0.047 C 
ATOM     16  H   LIG d   1       9.302   2.660  -1.919  0.00  0.00     0.028 H 
ATOM     17  H   LIG d   1      10.634   2.126  -3.000  0.00  0.00     0.028 H 
ATOM     18  H   LIG d   1       9.381   4.927  -2.944  0.00  0.00     0.027 H 
ATOM     19  H   LIG d   1      10.974   4.475  -2.249  0.00  0.00     0.027 H 
ATOM     20  H   LIG d   1      12.884   5.419  -6.009  0.00  0.00     0.027 H 
ATOM     21  H   LIG d   1      12.360   7.137  -6.011  0.00  0.00     0.027 H 
ATOM     22  H   LIG d   1      10.506   6.574  -4.449  0.00  0.00     0.027 H 
ATOM     23  H   LIG d   1      12.099   6.122  -3.753  0.00  0.00     0.027 H 
ENDROOT
BRANCH  12  24
ATOM     24  C   LIG d   1       9.806   6.725  -6.881  0.00  0.00     0.038 C 
ATOM     25  H   LIG d   1       9.048   6.274  -6.223  0.00  0.00     0.040 H 
BRANCH  24  26
ATOM     26  C   LIG d   1       9.206   6.986  -8.264  0.00  0.00    -0.054 C 
ATOM     27  H   LIG d   1      10.017   7.108  -8.998  0.00  0.00     0.024 H 
ATOM     28  H   LIG d   1       8.598   7.903  -8.234  0.00  0.00     0.024 H 
ATOM     29  H   LIG d   1       8.573   6.136  -8.555  0.00  0.00     0.024 H 
ENDBRANCH  24  26
BRANCH  24  30
ATOM     30  C   LIG d   1      10.255   8.030  -6.274  0.00  0.00     0.216 C 
ATOM     31  O   LIG d   1      11.151   8.661  -6.791  0.00  0.00    -0.276 OA
ATOM     32  N   LIG d   1       9.661   8.493  -5.156  0.00  0.00    -0.312 N 
ATOM     33  H   LIG d   1       8.849   7.919  -4.686  0.00  0.00     0.149 HD
BRANCH  32  34
ATOM     34  C   LIG d   1      10.098   9.760  -4.566  0.00  0.00     0.023 C 
ATOM     35  C   LIG d   1      10.094   9.669  -3.020  0.00  0.00    -0.035 C 
ATOM     36  C   LIG d   1       9.967  11.152  -2.589  0.00  0.00    -0.051 C 
ATOM     37  H   LIG d   1       9.240   9.057  -2.692  0.00  0.00     0.028 H 
ATOM     38  H   LIG d   1      11.030   9.206  -2.677  0.00  0.00     0.028 H 
ATOM     39  C   LIG d   1       9.003  11.766  -3.626  0.00  0.00    -0.051 C 
ATOM     40  H   LIG d   1      10.933  11.678  -2.631  0.00  0.00     0.027 H 
ATOM     41  H   LIG d   1       9.536  11.255  -1.582  0.00  0.00     0.027 H 
ATOM     42  C   LIG d   1       9.086  10.881  -4.882  0.00  0.00    -0.035 C 
ATOM     43  H   LIG d   1       9.303  12.792  -3.880  0.00  0.00     0.027 H 
ATOM     44  H   LIG d   1       7.970  11.768  -3.247  0.00  0.00     0.027 H 
ATOM     45  H   LIG d   1       9.439  11.460  -5.747  0.00  0.00     0.028 H 
ATOM     46  H   LIG d   1       8.108  10.435  -5.113  0.00  0.00     0.028 H 
ATOM     47  H   LIG d   1      11.094   9.924  -5.004  0.00  0.00     0.050 H 
ENDBRANCH  32  34
ENDBRANCH  24  30
ENDBRANCH  12  24
BRANCH  10  48
ATOM     48  O   LIG d   1       9.584   4.044  -7.905  0.00  0.00    -0.391 OA
ATOM     49  H   LIG d   1       8.633   3.553  -7.652  0.00  0.00     0.210 HD
ENDBRANCH  10  48
BRANCH   1  50
ATOM     50  C   LIG d   1       8.392   2.377  -6.473  0.00  0.00    -0.060 C 
ATOM     51  H   LIG d   1       7.408   2.192  -6.019  0.00  0.00     0.023 H 
ATOM     52  H   LIG d   1       8.714   1.484  -7.028  0.00  0.00     0.023 H 
ATOM     53  H   LIG d   1       8.324   3.233  -7.162  0.00  0.00     0.023 H 
ENDBRANCH   1  50
BRANCH   7  54
ATOM     54  C   LIG d   1      12.096   3.508  -4.541  0.00  0.00    -0.059 C 
ATOM     55  H   LIG d   1      12.825   3.940  -5.243  0.00  0.00     0.024 H 
ATOM     56  H   LIG d   1      11.757   2.533  -4.919  0.00  0.00     0.024 H 
ATOM     57  H   LIG d   1      12.569   3.376  -3.557  0.00  0.00     0.024 H 
ENDBRANCH   7  54
BRANCH   3  58
ATOM     58  N   LIG d   1       8.304   1.103  -3.874  0.00  0.00    -0.312 N 
ATOM     59  C   LIG d   1       7.049   0.838  -3.460  0.00  0.00     0.216 C 
ATOM     60  O   LIG d   1       6.293   1.748  -3.195  0.00  0.00    -0.276 OA
ATOM     61  H   LIG d   1       8.990   0.277  -4.113  0.00  0.00     0.149 HD
BRANCH  59  62
ATOM     62  C   LIG d   1       6.585  -0.590  -3.326  0.00  0.00     0.036 C 
ATOM     63  C   LIG d   1       5.142  -0.611  -2.822  0.00  0.00    -0.042 C 
ATOM     64  C   LIG d   1       4.670  -2.061  -2.686  0.00  0.00    -0.052 C 
ATOM     65  H   LIG d   1       5.088  -0.114  -1.842  0.00  0.00     0.027 H 
ATOM     66  H   LIG d   1       4.496  -0.082  -3.537  0.00  0.00     0.027 H 
ATOM     67  C   LIG d   1       4.745  -2.751  -4.050  0.00  0.00    -0.053 C 
ATOM     68  H   LIG d   1       3.632  -2.076  -2.324  0.00  0.00     0.026 H 
ATOM     69  H   LIG d   1       5.317  -2.591  -1.971  0.00  0.00     0.026 H 
ATOM     70  C   LIG d   1       6.190  -2.729  -4.553  0.00  0.00    -0.052 C 
ATOM     71  H   LIG d   1       4.099  -2.222  -4.765  0.00  0.00     0.026 H 
ATOM     72  H   LIG d   1       4.407  -3.793  -3.951  0.00  0.00     0.026 H 
ATOM     73  C   LIG d   1       6.661  -1.280  -4.689  0.00  0.00    -0.042 C 
ATOM     74  H   LIG d   1       6.244  -3.226  -5.533  0.00  0.00     0.026 H 
ATOM     75  H   LIG d   1       6.836  -3.259  -3.838  0.00  0.00     0.026 H 
ATOM     76  H   LIG d   1       6.015  -0.750  -5.405  0.00  0.00     0.027 H 
ATOM     77  H   LIG d   1       7.699  -1.264  -5.051  0.00  0.00     0.027 H 
ATOM     78  H   LIG d   1       7.240  -1.107  -2.608  0.00  0.00     0.039 H 
ENDBRANCH  59  62
ENDBRANCH   3  58
TORSDOF 9
ENDMDL
MODEL 5
REMARK VINA RESULT:      -6.0      7.596     10.714
REMARK  9 active torsions:
REMARK  status: ('A' for Active; 'I' for Inactive)
REMARK    1  A    between atoms: C_1  and  C_2 
REMARK    2  A    between atoms: C_4  and  N_30 
REMARK    3  A    between atoms: C_8  and  C_29 
REMARK    4  A    between atoms: C_11  and  O_28 
REMARK    5  A    between atoms: C_13  and  C_17 
REMARK    6  A    between atoms: C_17  and  C_19 
REMARK    7  A    between atoms: C_17  and  C_20 
REMARK       I    between atoms: C_20  and  N_22 
REMARK    8  A    between atoms: N_22  and  C_23 
REMARK       I    between atoms: N_30  and  C_31 
REMARK    9  A    between atoms: C_31  and  C_33 
ROOT
ATOM      1  C   LIG d   1       4.155  -1.161  -8.230  0.00  0.00    -0.020 C 
ATOM      2  H   LIG d   1       5.151  -0.710  -8.107  0.00  0.00     0.032 H 
ATOM      3  C   LIG d   1       3.123  -0.343  -7.452  0.00  0.00     0.026 C 
ATOM      4  H   LIG d   1       2.126  -0.799  -7.532  0.00  0.00     0.050 H 
ATOM      5  C   LIG d   1       3.104   1.092  -7.985  0.00  0.00    -0.034 C 
ATOM      6  C   LIG d   1       2.731   1.080  -9.468  0.00  0.00    -0.046 C 
ATOM      7  C   LIG d   1       3.763   0.261 -10.247  0.00  0.00    -0.026 C 
ATOM      8  C   LIG d   1       3.782  -1.174  -9.715  0.00  0.00    -0.005 C 
ATOM      9  H   LIG d   1       2.787  -1.625  -9.839  0.00  0.00     0.033 H 
ATOM     10  C   LIG d   1       4.813  -1.992 -10.493  0.00  0.00     0.062 C 
ATOM     11  H   LIG d   1       5.831  -1.602 -10.340  0.00  0.00     0.060 H 
ATOM     12  C   LIG d   1       4.441  -2.004 -11.977  0.00  0.00    -0.004 C 
ATOM     13  H   LIG d   1       5.183  -2.593 -12.537  0.00  0.00     0.033 H 
ATOM     14  C   LIG d   1       4.421  -0.570 -12.509  0.00  0.00    -0.047 C 
ATOM     15  C   LIG d   1       3.390   0.249 -11.730  0.00  0.00    -0.047 C 
ATOM     16  H   LIG d   1       2.362   1.680  -7.425  0.00  0.00     0.028 H 
ATOM     17  H   LIG d   1       4.099   1.542  -7.861  0.00  0.00     0.028 H 
ATOM     18  H   LIG d   1       1.735   0.628  -9.592  0.00  0.00     0.027 H 
ATOM     19  H   LIG d   1       2.717   2.110  -9.852  0.00  0.00     0.027 H 
ATOM     20  H   LIG d   1       5.417  -0.119 -12.384  0.00  0.00     0.027 H 
ATOM     21  H   LIG d   1       4.154  -0.579 -13.576  0.00  0.00     0.027 H 
ATOM     22  H   LIG d   1       2.395  -0.203 -11.855  0.00  0.00     0.027 H 
ATOM     23  H   LIG d   1       3.375   1.280 -12.113  0.00  0.00     0.027 H 
ENDROOT
BRANCH  12  24
ATOM     24  C   LIG d   1       3.057  -2.631 -12.150  0.00  0.00     0.038 C 
ATOM     25  H   LIG d   1       2.351  -2.184 -11.434  0.00  0.00     0.040 H 
BRANCH  24  26
ATOM     26  C   LIG d   1       3.148  -4.141 -11.916  0.00  0.00    -0.054 C 
ATOM     27  H   LIG d   1       4.048  -4.535 -12.411  0.00  0.00     0.024 H 
ATOM     28  H   LIG d   1       2.256  -4.631 -12.334  0.00  0.00     0.024 H 
ATOM     29  H   LIG d   1       3.205  -4.342 -10.837  0.00  0.00     0.024 H 
ENDBRANCH  24  26
BRANCH  24  30
ATOM     30  C   LIG d   1       2.557  -2.368 -13.547  0.00  0.00     0.216 C 
ATOM     31  O   LIG d   1       1.425  -1.971 -13.721  0.00  0.00    -0.276 OA
ATOM     32  N   LIG d   1       3.369  -2.576 -14.603  0.00  0.00    -0.312 N 
ATOM     33  H   LIG d   1       4.395  -2.938 -14.445  0.00  0.00     0.149 HD
BRANCH  32  34
ATOM     34  C   LIG d   1       2.883  -2.321 -15.961  0.00  0.00     0.023 C 
ATOM     35  C   LIG d   1       3.522  -3.316 -16.962  0.00  0.00    -0.035 C 
ATOM     36  C   LIG d   1       3.413  -2.563 -18.312  0.00  0.00    -0.051 C 
ATOM     37  H   LIG d   1       4.565  -3.511 -16.668  0.00  0.00     0.028 H 
ATOM     38  H   LIG d   1       2.957  -4.259 -16.954  0.00  0.00     0.028 H 
ATOM     39  C   LIG d   1       3.688  -1.090 -17.946  0.00  0.00    -0.051 C 
ATOM     40  H   LIG d   1       2.407  -2.650 -18.751  0.00  0.00     0.027 H 
ATOM     41  H   LIG d   1       4.162  -2.907 -19.039  0.00  0.00     0.027 H 
ATOM     42  C   LIG d   1       3.352  -0.936 -16.452  0.00  0.00    -0.035 C 
ATOM     43  H   LIG d   1       3.052  -0.414 -18.536  0.00  0.00     0.027 H 
ATOM     44  H   LIG d   1       4.746  -0.837 -18.111  0.00  0.00     0.027 H 
ATOM     45  H   LIG d   1       2.546  -0.203 -16.305  0.00  0.00     0.028 H 
ATOM     46  H   LIG d   1       4.239  -0.627 -15.880  0.00  0.00     0.028 H 
ATOM     47  H   LIG d   1       1.790  -2.415 -15.871  0.00  0.00     0.050 H 
ENDBRANCH  32  34
ENDBRANCH  24  30
ENDBRANCH  12  24
BRANCH  10  48
ATOM     48  O   LIG d   1       4.832  -3.332  -9.995  0.00  0.00    -0.391 OA
ATOM     49  H   LIG d   1       4.312  -3.578  -9.058  0.00  0.00     0.210 HD
ENDBRANCH  10  48
BRANCH   1  50
ATOM     50  C   LIG d   1       4.175  -2.596  -7.698  0.00  0.00    -0.060 C 
ATOM     51  H   LIG d   1       3.586  -3.242  -8.367  0.00  0.00     0.023 H 
ATOM     52  H   LIG d   1       3.739  -2.619  -6.689  0.00  0.00     0.023 H 
ATOM     53  H   LIG d   1       5.213  -2.958  -7.659  0.00  0.00     0.023 H 
ENDBRANCH   1  50
BRANCH   7  54
ATOM     54  C   LIG d   1       5.147   0.888 -10.074  0.00  0.00    -0.059 C 
ATOM     55  H   LIG d   1       5.328   1.089  -9.007  0.00  0.00     0.024 H 
ATOM     56  H   LIG d   1       5.196   1.831 -10.638  0.00  0.00     0.024 H 
ATOM     57  H   LIG d   1       5.913   0.195 -10.450  0.00  0.00     0.024 H 
ENDBRANCH   7  54
BRANCH   3  58
ATOM     58  N   LIG d   1       3.480  -0.331  -6.031  0.00  0.00    -0.312 N 
ATOM     59  C   LIG d   1       2.547  -0.037  -5.104  0.00  0.00     0.216 C 
ATOM     60  O   LIG d   1       1.412   0.218  -5.446  0.00  0.00    -0.276 OA
ATOM     61  H   LIG d   1       4.510  -0.562  -5.721  0.00  0.00     0.149 HD
BRANCH  59  62
ATOM     62  C   LIG d   1       2.915  -0.025  -3.643  0.00  0.00     0.036 C 
ATOM     63  C   LIG d   1       3.827  -1.214  -3.337  0.00  0.00    -0.042 C 
ATOM     64  C   LIG d   1       4.200  -1.202  -1.852  0.00  0.00    -0.052 C 
ATOM     65  H   LIG d   1       3.301  -2.151  -3.576  0.00  0.00     0.027 H 
ATOM     66  H   LIG d   1       4.741  -1.141  -3.944  0.00  0.00     0.027 H 
ATOM     67  C   LIG d   1       4.932   0.100  -1.522  0.00  0.00    -0.053 C 
ATOM     68  H   LIG d   1       4.857  -2.057  -1.633  0.00  0.00     0.026 H 
ATOM     69  H   LIG d   1       3.287  -1.275  -1.245  0.00  0.00     0.026 H 
ATOM     70  C   LIG d   1       4.019   1.289  -1.828  0.00  0.00    -0.052 C 
ATOM     71  H   LIG d   1       5.845   0.173  -2.129  0.00  0.00     0.026 H 
ATOM     72  H   LIG d   1       5.199   0.109  -0.455  0.00  0.00     0.026 H 
ATOM     73  C   LIG d   1       3.645   1.278  -3.311  0.00  0.00    -0.042 C 
ATOM     74  H   LIG d   1       4.544   2.226  -1.589  0.00  0.00     0.026 H 
ATOM     75  H   LIG d   1       3.105   1.216  -1.219  0.00  0.00     0.026 H 
ATOM     76  H   LIG d   1       4.559   1.351  -3.920  0.00  0.00     0.027 H 
ATOM     77  H   LIG d   1       2.989   2.132  -3.531  0.00  0.00     0.027 H 
ATOM     78  H   LIG d   1       1.992  -0.099  -3.047  0.00  0.00     0.039 H 
ENDBRANCH  59  62
ENDBRANCH   3  58
TORSDOF 9
ENDMDL
MODEL 6
REMARK VINA RESULT:      -5.9      8.292     11.850
REMARK  9 active torsions:
REMARK  status: ('A' for Active; 'I' for Inactive)
REMARK    1  A    between atoms: C_1  and  C_2 
REMARK    2  A    between atoms: C_4  and  N_30 
REMARK    3  A    between atoms: C_8  and  C_29 
REMARK    4  A    between atoms: C_11  and  O_28 
REMARK    5  A    between atoms: C_13  and  C_17 
REMARK    6  A    between atoms: C_17  and  C_19 
REMARK    7  A    between atoms: C_17  and  C_20 
REMARK       I    between atoms: C_20  and  N_22 
REMARK    8  A    between atoms: N_22  and  C_23 
REMARK       I    between atoms: N_30  and  C_31 
REMARK    9  A    between atoms: C_31  and  C_33 
ROOT
ATOM      1  C   LIG d   1       1.803  -2.446 -11.289  0.00  0.00    -0.020 C 
ATOM      2  H   LIG d   1       2.476  -2.694 -12.124  0.00  0.00     0.032 H 
ATOM      3  C   LIG d   1       0.872  -3.629 -11.016  0.00  0.00     0.026 C 
ATOM      4  H   LIG d   1       0.165  -3.388 -10.210  0.00  0.00     0.050 H 
ATOM      5  C   LIG d   1       1.705  -4.860 -10.652  0.00  0.00    -0.034 C 
ATOM      6  C   LIG d   1       2.534  -4.563  -9.401  0.00  0.00    -0.046 C 
ATOM      7  C   LIG d   1       3.464  -3.380  -9.674  0.00  0.00    -0.026 C 
ATOM      8  C   LIG d   1       2.631  -2.149 -10.037  0.00  0.00    -0.005 C 
ATOM      9  H   LIG d   1       1.958  -1.901  -9.203  0.00  0.00     0.033 H 
ATOM     10  C   LIG d   1       3.561  -0.966 -10.310  0.00  0.00     0.062 C 
ATOM     11  H   LIG d   1       4.207  -1.158 -11.180  0.00  0.00     0.060 H 
ATOM     12  C   LIG d   1       4.390  -0.669  -9.058  0.00  0.00    -0.004 C 
ATOM     13  H   LIG d   1       5.059   0.182  -9.254  0.00  0.00     0.033 H 
ATOM     14  C   LIG d   1       5.223  -1.900  -8.694  0.00  0.00    -0.047 C 
ATOM     15  C   LIG d   1       4.293  -3.083  -8.422  0.00  0.00    -0.047 C 
ATOM     16  H   LIG d   1       1.036  -5.711 -10.456  0.00  0.00     0.028 H 
ATOM     17  H   LIG d   1       2.378  -5.107 -11.487  0.00  0.00     0.028 H 
ATOM     18  H   LIG d   1       1.861  -4.316  -8.566  0.00  0.00     0.027 H 
ATOM     19  H   LIG d   1       3.133  -5.447  -9.139  0.00  0.00     0.027 H 
ATOM     20  H   LIG d   1       5.895  -2.147  -9.530  0.00  0.00     0.027 H 
ATOM     21  H   LIG d   1       5.818  -1.686  -7.795  0.00  0.00     0.027 H 
ATOM     22  H   LIG d   1       3.620  -2.835  -7.587  0.00  0.00     0.027 H 
ATOM     23  H   LIG d   1       4.891  -3.968  -8.160  0.00  0.00     0.027 H 
ENDROOT
BRANCH  12  24
ATOM     24  C   LIG d   1       3.455  -0.325  -7.898  0.00  0.00     0.038 C 
ATOM     25  H   LIG d   1       2.663  -1.084  -7.818  0.00  0.00     0.040 H 
BRANCH  24  26
ATOM     26  C   LIG d   1       2.832   1.053  -8.135  0.00  0.00    -0.054 C 
ATOM     27  H   LIG d   1       3.170   1.747  -7.352  0.00  0.00     0.024 H 
ATOM     28  H   LIG d   1       1.736   0.970  -8.104  0.00  0.00     0.024 H 
ATOM     29  H   LIG d   1       3.144   1.430  -9.120  0.00  0.00     0.024 H 
ENDBRANCH  24  26
BRANCH  24  30
ATOM     30  C   LIG d   1       4.237  -0.307  -6.610  0.00  0.00     0.216 C 
ATOM     31  O   LIG d   1       5.326   0.225  -6.570  0.00  0.00    -0.276 OA
ATOM     32  N   LIG d   1       3.727  -0.883  -5.503  0.00  0.00    -0.312 N 
ATOM     33  H   LIG d   1       2.740  -1.367  -5.540  0.00  0.00     0.149 HD
BRANCH  32  34
ATOM     34  C   LIG d   1       4.488  -0.866  -4.252  0.00  0.00     0.023 C 
ATOM     35  C   LIG d   1       4.064  -2.047  -3.343  0.00  0.00    -0.035 C 
ATOM     36  C   LIG d   1       4.459  -1.551  -1.929  0.00  0.00    -0.051 C 
ATOM     37  H   LIG d   1       2.981  -2.217  -3.446  0.00  0.00     0.028 H 
ATOM     38  H   LIG d   1       4.607  -2.954  -3.642  0.00  0.00     0.028 H 
ATOM     39  C   LIG d   1       4.124  -0.045  -1.950  0.00  0.00    -0.051 C 
ATOM     40  H   LIG d   1       5.533  -1.685  -1.730  0.00  0.00     0.027 H 
ATOM     41  H   LIG d   1       3.875  -2.045  -1.139  0.00  0.00     0.027 H 
ATOM     42  C   LIG d   1       4.142   0.390  -3.426  0.00  0.00    -0.035 C 
ATOM     43  H   LIG d   1       4.874   0.531  -1.390  0.00  0.00     0.027 H 
ATOM     44  H   LIG d   1       3.126   0.141  -1.526  0.00  0.00     0.027 H 
ATOM     45  H   LIG d   1       4.906   1.163  -3.598  0.00  0.00     0.028 H 
ATOM     46  H   LIG d   1       3.158   0.771  -3.735  0.00  0.00     0.028 H 
ATOM     47  H   LIG d   1       5.536  -0.908  -4.582  0.00  0.00     0.050 H 
ENDBRANCH  32  34
ENDBRANCH  24  30
ENDBRANCH  12  24
BRANCH  10  48
ATOM     48  O   LIG d   1       2.783   0.183 -10.650  0.00  0.00    -0.391 OA
ATOM     49  H   LIG d   1       2.910   1.120 -10.088  0.00  0.00     0.210 HD
ENDBRANCH  10  48
BRANCH   1  50
ATOM     50  C   LIG d   1       0.970  -1.215 -11.653  0.00  0.00    -0.060 C 
ATOM     51  H   LIG d   1       1.637  -0.410 -11.996  0.00  0.00     0.023 H 
ATOM     52  H   LIG d   1       0.411  -0.876 -10.768  0.00  0.00     0.023 H 
ATOM     53  H   LIG d   1       0.264  -1.474 -12.456  0.00  0.00     0.023 H 
ENDBRANCH   1  50
BRANCH   7  54
ATOM     54  C   LIG d   1       4.399  -3.724 -10.834  0.00  0.00    -0.059 C 
ATOM     55  H   LIG d   1       4.121  -4.704 -11.251  0.00  0.00     0.024 H 
ATOM     56  H   LIG d   1       5.437  -3.762 -10.471  0.00  0.00     0.024 H 
ATOM     57  H   LIG d   1       4.312  -2.955 -11.616  0.00  0.00     0.024 H 
ENDBRANCH   7  54
BRANCH   3  58
ATOM     58  N   LIG d   1       0.079  -3.914 -12.215  0.00  0.00    -0.312 N 
ATOM     59  C   LIG d   1      -1.174  -4.395 -12.095  0.00  0.00     0.216 C 
ATOM     60  O   LIG d   1      -1.646  -4.593 -10.996  0.00  0.00    -0.276 OA
ATOM     61  H   LIG d   1       0.506  -3.734 -13.212  0.00  0.00     0.149 HD
BRANCH  59  62
ATOM     62  C   LIG d   1      -1.990  -4.687 -13.328  0.00  0.00     0.036 C 
ATOM     63  C   LIG d   1      -3.470  -4.770 -12.952  0.00  0.00    -0.042 C 
ATOM     64  C   LIG d   1      -4.299  -5.066 -14.205  0.00  0.00    -0.052 C 
ATOM     65  H   LIG d   1      -3.618  -5.573 -12.216  0.00  0.00     0.027 H 
ATOM     66  H   LIG d   1      -3.792  -3.811 -12.520  0.00  0.00     0.027 H 
ATOM     67  C   LIG d   1      -4.094  -3.947 -15.228  0.00  0.00    -0.053 C 
ATOM     68  H   LIG d   1      -5.363  -5.125 -13.934  0.00  0.00     0.026 H 
ATOM     69  H   LIG d   1      -3.977  -6.024 -14.638  0.00  0.00     0.026 H 
ATOM     70  C   LIG d   1      -2.612  -3.866 -15.604  0.00  0.00    -0.052 C 
ATOM     71  H   LIG d   1      -4.416  -2.990 -14.795  0.00  0.00     0.026 H 
ATOM     72  H   LIG d   1      -4.689  -4.162 -16.128  0.00  0.00     0.026 H 
ATOM     73  C   LIG d   1      -1.784  -3.570 -14.353  0.00  0.00    -0.042 C 
ATOM     74  H   LIG d   1      -2.465  -3.063 -16.341  0.00  0.00     0.026 H 
ATOM     75  H   LIG d   1      -2.291  -4.825 -16.038  0.00  0.00     0.026 H 
ATOM     76  H   LIG d   1      -2.106  -2.611 -13.919  0.00  0.00     0.027 H 
ATOM     77  H   LIG d   1      -0.720  -3.511 -14.622  0.00  0.00     0.027 H 
ATOM     78  H   LIG d   1      -1.658  -5.648 -13.751  0.00  0.00     0.039 H 
ENDBRANCH  59  62
ENDBRANCH   3  58
TORSDOF 9
ENDMDL
MODEL 7
REMARK VINA RESULT:      -5.8      6.794     12.256
REMARK  9 active torsions:
REMARK  status: ('A' for Active; 'I' for Inactive)
REMARK    1  A    between atoms: C_1  and  C_2 
REMARK    2  A    between atoms: C_4  and  N_30 
REMARK    3  A    between atoms: C_8  and  C_29 
REMARK    4  A    between atoms: C_11  and  O_28 
REMARK    5  A    between atoms: C_13  and  C_17 
REMARK    6  A    between atoms: C_17  and  C_19 
REMARK    7  A    between atoms: C_17  and  C_20 
REMARK       I    between atoms: C_20  and  N_22 
REMARK    8  A    between atoms: N_22  and  C_23 
REMARK       I    between atoms: N_30  and  C_31 
REMARK    9  A    between atoms: C_31  and  C_33 
ROOT
ATOM      1  C   LIG d   1       5.091  -1.101  -8.940  0.00  0.00    -0.020 C 
ATOM      2  H   LIG d   1       5.345  -0.327  -9.678  0.00  0.00     0.032 H 
ATOM      3  C   LIG d   1       4.811  -0.445  -7.587  0.00  0.00     0.026 C 
ATOM      4  H   LIG d   1       4.591  -1.207  -6.825  0.00  0.00     0.050 H 
ATOM      5  C   LIG d   1       3.641   0.531  -7.727  0.00  0.00    -0.034 C 
ATOM      6  C   LIG d   1       2.396  -0.227  -8.193  0.00  0.00    -0.046 C 
ATOM      7  C   LIG d   1       2.677  -0.883  -9.546  0.00  0.00    -0.026 C 
ATOM      8  C   LIG d   1       3.846  -1.860  -9.407  0.00  0.00    -0.005 C 
ATOM      9  H   LIG d   1       3.591  -2.635  -8.669  0.00  0.00     0.033 H 
ATOM     10  C   LIG d   1       4.126  -2.517 -10.759  0.00  0.00     0.062 C 
ATOM     11  H   LIG d   1       4.444  -1.774 -11.506  0.00  0.00     0.060 H 
ATOM     12  C   LIG d   1       2.882  -3.275 -11.226  0.00  0.00    -0.004 C 
ATOM     13  H   LIG d   1       3.083  -3.747 -12.199  0.00  0.00     0.033 H 
ATOM     14  C   LIG d   1       1.712  -2.298 -11.365  0.00  0.00    -0.047 C 
ATOM     15  C   LIG d   1       1.432  -1.641 -10.013  0.00  0.00    -0.047 C 
ATOM     16  H   LIG d   1       3.439   1.004  -6.753  0.00  0.00     0.028 H 
ATOM     17  H   LIG d   1       3.896   1.306  -8.465  0.00  0.00     0.028 H 
ATOM     18  H   LIG d   1       2.142  -1.001  -7.455  0.00  0.00     0.027 H 
ATOM     19  H   LIG d   1       1.556   0.475  -8.294  0.00  0.00     0.027 H 
ATOM     20  H   LIG d   1       1.968  -1.523 -12.103  0.00  0.00     0.027 H 
ATOM     21  H   LIG d   1       0.818  -2.843 -11.701  0.00  0.00     0.027 H 
ATOM     22  H   LIG d   1       1.177  -2.417  -9.275  0.00  0.00     0.027 H 
ATOM     23  H   LIG d   1       0.591  -0.940 -10.112  0.00  0.00     0.027 H 
ENDROOT
BRANCH  12  24
ATOM     24  C   LIG d   1       2.527  -4.352 -10.200  0.00  0.00     0.038 C 
ATOM     25  H   LIG d   1       2.333  -3.888  -9.222  0.00  0.00     0.040 H 
BRANCH  24  26
ATOM     26  C   LIG d   1       3.684  -5.347 -10.083  0.00  0.00    -0.054 C 
ATOM     27  H   LIG d   1       4.179  -5.449 -11.060  0.00  0.00     0.024 H 
ATOM     28  H   LIG d   1       3.296  -6.326  -9.765  0.00  0.00     0.024 H 
ATOM     29  H   LIG d   1       4.408  -4.981  -9.341  0.00  0.00     0.024 H 
ENDBRANCH  24  26
BRANCH  24  30
ATOM     30  C   LIG d   1       1.283  -5.079 -10.644  0.00  0.00     0.216 C 
ATOM     31  O   LIG d   1       1.268  -5.660 -11.707  0.00  0.00    -0.276 OA
ATOM     32  N   LIG d   1       0.188  -5.082  -9.858  0.00  0.00    -0.312 N 
ATOM     33  H   LIG d   1       0.201  -4.553  -8.894  0.00  0.00     0.149 HD
BRANCH  32  34
ATOM     34  C   LIG d   1      -1.021  -5.787 -10.290  0.00  0.00     0.023 C 
ATOM     35  C   LIG d   1      -2.078  -4.783 -10.813  0.00  0.00    -0.035 C 
ATOM     36  C   LIG d   1      -3.407  -5.560 -10.636  0.00  0.00    -0.051 C 
ATOM     37  H   LIG d   1      -2.040  -3.864 -10.209  0.00  0.00     0.028 H 
ATOM     38  H   LIG d   1      -1.865  -4.540 -11.864  0.00  0.00     0.028 H 
ATOM     39  C   LIG d   1      -3.224  -6.324  -9.308  0.00  0.00    -0.051 C 
ATOM     40  H   LIG d   1      -3.576  -6.279 -11.452  0.00  0.00     0.027 H 
ATOM     41  H   LIG d   1      -4.272  -4.886 -10.556  0.00  0.00     0.027 H 
ATOM     42  C   LIG d   1      -1.708  -6.467  -9.088  0.00  0.00    -0.035 C 
ATOM     43  H   LIG d   1      -3.683  -7.321  -9.364  0.00  0.00     0.027 H 
ATOM     44  H   LIG d   1      -3.665  -5.763  -8.470  0.00  0.00     0.027 H 
ATOM     45  H   LIG d   1      -1.416  -7.527  -9.051  0.00  0.00     0.028 H 
ATOM     46  H   LIG d   1      -1.398  -5.968  -8.159  0.00  0.00     0.028 H 
ATOM     47  H   LIG d   1      -0.656  -6.492 -11.051  0.00  0.00     0.050 H 
ENDBRANCH  32  34
ENDBRANCH  24  30
ENDBRANCH  12  24
BRANCH  10  48
ATOM     48  O   LIG d   1       5.219  -3.429 -10.629  0.00  0.00    -0.391 OA
ATOM     49  H   LIG d   1       5.729  -3.542  -9.661  0.00  0.00     0.210 HD
ENDBRANCH  10  48
BRANCH   1  50
ATOM     50  C   LIG d   1       6.260  -2.079  -8.801  0.00  0.00    -0.060 C 
ATOM     51  H   LIG d   1       6.769  -1.905  -7.841  0.00  0.00     0.023 H 
ATOM     52  H   LIG d   1       6.970  -1.921  -9.626  0.00  0.00     0.023 H 
ATOM     53  H   LIG d   1       5.881  -3.111  -8.834  0.00  0.00     0.023 H 
ENDBRANCH   1  50
BRANCH   7  54
ATOM     54  C   LIG d   1       3.032   0.194 -10.572  0.00  0.00    -0.059 C 
ATOM     55  H   LIG d   1       4.022   0.612 -10.337  0.00  0.00     0.024 H 
ATOM     56  H   LIG d   1       2.279   0.995 -10.539  0.00  0.00     0.024 H 
ATOM     57  H   LIG d   1       3.051  -0.250 -11.578  0.00  0.00     0.024 H 
ENDBRANCH   7  54
BRANCH   3  58
ATOM     58  N   LIG d   1       6.002   0.281  -7.140  0.00  0.00    -0.312 N 
ATOM     59  C   LIG d   1       6.556  -0.004  -5.945  0.00  0.00     0.216 C 
ATOM     60  O   LIG d   1       6.069  -0.861  -5.239  0.00  0.00    -0.276 OA
ATOM     61  H   LIG d   1       6.445   1.059  -7.780  0.00  0.00     0.149 HD
BRANCH  59  62
ATOM     62  C   LIG d   1       7.782   0.743  -5.486  0.00  0.00     0.036 C 
ATOM     63  C   LIG d   1       8.145   1.811  -6.519  0.00  0.00    -0.042 C 
ATOM     64  C   LIG d   1       9.390   2.570  -6.053  0.00  0.00    -0.052 C 
ATOM     65  H   LIG d   1       8.349   1.330  -7.487  0.00  0.00     0.027 H 
ATOM     66  H   LIG d   1       7.307   2.515  -6.629  0.00  0.00     0.027 H 
ATOM     67  C   LIG d   1       9.104   3.239  -4.707  0.00  0.00    -0.053 C 
ATOM     68  H   LIG d   1       9.650   3.338  -6.796  0.00  0.00     0.026 H 
ATOM     69  H   LIG d   1      10.227   1.866  -5.943  0.00  0.00     0.026 H 
ATOM     70  C   LIG d   1       8.741   2.170  -3.673  0.00  0.00    -0.052 C 
ATOM     71  H   LIG d   1       8.266   3.942  -4.817  0.00  0.00     0.026 H 
ATOM     72  H   LIG d   1       9.999   3.783  -4.372  0.00  0.00     0.026 H 
ATOM     73  C   LIG d   1       7.497   1.412  -4.139  0.00  0.00    -0.042 C 
ATOM     74  H   LIG d   1       8.537   2.651  -2.705  0.00  0.00     0.026 H 
ATOM     75  H   LIG d   1       9.580   1.467  -3.564  0.00  0.00     0.026 H 
ATOM     76  H   LIG d   1       6.659   2.115  -4.249  0.00  0.00     0.027 H 
ATOM     77  H   LIG d   1       7.236   0.644  -3.397  0.00  0.00     0.027 H 
ATOM     78  H   LIG d   1       8.612   0.028  -5.381  0.00  0.00     0.039 H 
ENDBRANCH  59  62
ENDBRANCH   3  58
TORSDOF 9
ENDMDL
MODEL 8
REMARK VINA RESULT:      -5.8      3.899      8.656
REMARK  9 active torsions:
REMARK  status: ('A' for Active; 'I' for Inactive)
REMARK    1  A    between atoms: C_1  and  C_2 
REMARK    2  A    between atoms: C_4  and  N_30 
REMARK    3  A    between atoms: C_8  and  C_29 
REMARK    4  A    between atoms: C_11  and  O_28 
REMARK    5  A    between atoms: C_13  and  C_17 
REMARK    6  A    between atoms: C_17  and  C_19 
REMARK    7  A    between atoms: C_17  and  C_20 
REMARK       I    between atoms: C_20  and  N_22 
REMARK    8  A    between atoms: N_22  and  C_23 
REMARK       I    between atoms: N_30  and  C_31 
REMARK    9  A    between atoms: C_31  and  C_33 
ROOT
ATOM      1  C   LIG d   1      10.640   5.819  -3.122  0.00  0.00    -0.020 C 
ATOM      2  H   LIG d   1      11.699   6.060  -3.298  0.00  0.00     0.032 H 
ATOM      3  C   LIG d   1       9.822   7.111  -3.084  0.00  0.00     0.026 C 
ATOM      4  H   LIG d   1       8.765   6.894  -2.872  0.00  0.00     0.050 H 
ATOM      5  C   LIG d   1       9.964   7.843  -4.420  0.00  0.00    -0.034 C 
ATOM      6  C   LIG d   1       9.451   6.948  -5.550  0.00  0.00    -0.046 C 
ATOM      7  C   LIG d   1      10.270   5.656  -5.588  0.00  0.00    -0.026 C 
ATOM      8  C   LIG d   1      10.127   4.923  -4.253  0.00  0.00    -0.005 C 
ATOM      9  H   LIG d   1       9.068   4.682  -4.077  0.00  0.00     0.033 H 
ATOM     10  C   LIG d   1      10.945   3.631  -4.290  0.00  0.00     0.062 C 
ATOM     11  H   LIG d   1      12.019   3.841  -4.404  0.00  0.00     0.060 H 
ATOM     12  C   LIG d   1      10.432   2.736  -5.420  0.00  0.00    -0.004 C 
ATOM     13  H   LIG d   1      11.020   1.806  -5.448  0.00  0.00     0.033 H 
ATOM     14  C   LIG d   1      10.574   3.469  -6.756  0.00  0.00    -0.047 C 
ATOM     15  C   LIG d   1       9.757   4.761  -6.718  0.00  0.00    -0.047 C 
ATOM     16  H   LIG d   1       9.375   8.773  -4.393  0.00  0.00     0.028 H 
ATOM     17  H   LIG d   1      11.023   8.084  -4.595  0.00  0.00     0.028 H 
ATOM     18  H   LIG d   1       8.392   6.707  -5.374  0.00  0.00     0.027 H 
ATOM     19  H   LIG d   1       9.553   7.475  -6.510  0.00  0.00     0.027 H 
ATOM     20  H   LIG d   1      11.634   3.710  -6.931  0.00  0.00     0.027 H 
ATOM     21  H   LIG d   1      10.206   2.825  -7.568  0.00  0.00     0.027 H 
ATOM     22  H   LIG d   1       8.698   4.519  -6.543  0.00  0.00     0.027 H 
ATOM     23  H   LIG d   1       9.859   5.288  -7.678  0.00  0.00     0.027 H 
ENDROOT
BRANCH  12  24
ATOM     24  C   LIG d   1       8.960   2.400  -5.177  0.00  0.00     0.038 C 
ATOM     25  H   LIG d   1       8.359   3.321  -5.192  0.00  0.00     0.040 H 
BRANCH  24  26
ATOM     26  C   LIG d   1       8.812   1.705  -3.822  0.00  0.00    -0.054 C 
ATOM     27  H   LIG d   1       8.118   2.277  -3.190  0.00  0.00     0.024 H 
ATOM     28  H   LIG d   1       9.795   1.648  -3.330  0.00  0.00     0.024 H 
ATOM     29  H   LIG d   1       8.419   0.689  -3.973  0.00  0.00     0.024 H 
ENDBRANCH  24  26
BRANCH  24  30
ATOM     30  C   LIG d   1       8.466   1.485  -6.268  0.00  0.00     0.216 C 
ATOM     31  O   LIG d   1       9.085   0.479  -6.541  0.00  0.00    -0.276 OA
ATOM     32  N   LIG d   1       7.337   1.785  -6.939  0.00  0.00    -0.312 N 
ATOM     33  H   LIG d   1       6.775   2.698  -6.692  0.00  0.00     0.149 HD
BRANCH  32  34
ATOM     34  C   LIG d   1       6.857   0.895  -7.999  0.00  0.00     0.023 C 
ATOM     35  C   LIG d   1       6.191   1.713  -9.134  0.00  0.00    -0.035 C 
ATOM     36  C   LIG d   1       5.251   0.676  -9.799  0.00  0.00    -0.051 C 
ATOM     37  H   LIG d   1       5.644   2.564  -8.699  0.00  0.00     0.028 H 
ATOM     38  H   LIG d   1       6.964   2.087  -9.820  0.00  0.00     0.028 H 
ATOM     39  C   LIG d   1       4.706  -0.152  -8.617  0.00  0.00    -0.051 C 
ATOM     40  H   LIG d   1       5.793   0.014 -10.491  0.00  0.00     0.027 H 
ATOM     41  H   LIG d   1       4.414   1.155 -10.328  0.00  0.00     0.027 H 
ATOM     42  C   LIG d   1       5.726  -0.012  -7.473  0.00  0.00    -0.035 C 
ATOM     43  H   LIG d   1       4.608  -1.212  -8.893  0.00  0.00     0.027 H 
ATOM     44  H   LIG d   1       3.730   0.233  -8.286  0.00  0.00     0.027 H 
ATOM     45  H   LIG d   1       6.142  -0.993  -7.196  0.00  0.00     0.028 H 
ATOM     46  H   LIG d   1       5.264   0.453  -6.590  0.00  0.00     0.028 H 
ATOM     47  H   LIG d   1       7.759   0.348  -8.311  0.00  0.00     0.050 H 
ENDBRANCH  32  34
ENDBRANCH  24  30
ENDBRANCH  12  24
BRANCH  10  48
ATOM     48  O   LIG d   1      10.812   2.947  -3.043  0.00  0.00    -0.391 OA
ATOM     49  H   LIG d   1       9.939   2.303  -2.858  0.00  0.00     0.210 HD
ENDBRANCH  10  48
BRANCH   1  50
ATOM     50  C   LIG d   1      10.498   5.085  -1.787  0.00  0.00    -0.060 C 
ATOM     51  H   LIG d   1       9.470   4.706  -1.686  0.00  0.00     0.023 H 
ATOM     52  H   LIG d   1      10.714   5.780  -0.962  0.00  0.00     0.023 H 
ATOM     53  H   LIG d   1      11.205   4.243  -1.754  0.00  0.00     0.023 H 
ENDBRANCH   1  50
BRANCH   7  54
ATOM     54  C   LIG d   1      11.742   5.992  -5.831  0.00  0.00    -0.059 C 
ATOM     55  H   LIG d   1      11.907   7.065  -5.655  0.00  0.00     0.024 H 
ATOM     56  H   LIG d   1      12.008   5.746  -6.870  0.00  0.00     0.024 H 
ATOM     57  H   LIG d   1      12.369   5.407  -5.143  0.00  0.00     0.024 H 
ENDBRANCH   7  54
BRANCH   3  58
ATOM     58  N   LIG d   1      10.312   7.968  -2.003  0.00  0.00    -0.312 N 
ATOM     59  C   LIG d   1       9.504   8.278  -0.970  0.00  0.00     0.216 C 
ATOM     60  O   LIG d   1       8.371   7.849  -0.935  0.00  0.00    -0.276 OA
ATOM     61  H   LIG d   1      11.340   8.358  -2.033  0.00  0.00     0.149 HD
BRANCH  59  62
ATOM     62  C   LIG d   1      10.009   9.160   0.143  0.00  0.00     0.036 C 
ATOM     63  C   LIG d   1      11.340   8.613   0.663  0.00  0.00    -0.042 C 
ATOM     64  C   LIG d   1      11.853   9.509   1.793  0.00  0.00    -0.052 C 
ATOM     65  H   LIG d   1      11.193   7.591   1.043  0.00  0.00     0.027 H 
ATOM     66  H   LIG d   1      12.075   8.599  -0.155  0.00  0.00     0.027 H 
ATOM     67  C   LIG d   1      12.058  10.930   1.264  0.00  0.00    -0.053 C 
ATOM     68  H   LIG d   1      12.810   9.115   2.166  0.00  0.00     0.026 H 
ATOM     69  H   LIG d   1      11.118   9.524   2.611  0.00  0.00     0.026 H 
ATOM     70  C   LIG d   1      10.726  11.477   0.745  0.00  0.00    -0.052 C 
ATOM     71  H   LIG d   1      12.793  10.915   0.446  0.00  0.00     0.026 H 
ATOM     72  H   LIG d   1      12.426  11.573   2.077  0.00  0.00     0.026 H 
ATOM     73  C   LIG d   1      10.213  10.582  -0.385  0.00  0.00    -0.042 C 
ATOM     74  H   LIG d   1      10.873  12.499   0.365  0.00  0.00     0.026 H 
ATOM     75  H   LIG d   1       9.991  11.492   1.563  0.00  0.00     0.026 H 
ATOM     76  H   LIG d   1      10.948  10.567  -1.203  0.00  0.00     0.027 H 
ATOM     77  H   LIG d   1       9.257  10.975  -0.759  0.00  0.00     0.027 H 
ATOM     78  H   LIG d   1       9.265   9.166   0.954  0.00  0.00     0.039 H 
ENDBRANCH  59  62
ENDBRANCH   3  58
TORSDOF 9
ENDMDL
MODEL 9
REMARK VINA RESULT:      -5.8      3.750      8.408
REMARK  9 active torsions:
REMARK  status: ('A' for Active; 'I' for Inactive)
REMARK    1  A    between atoms: C_1  and  C_2 
REMARK    2  A    between atoms: C_4  and  N_30 
REMARK    3  A    between atoms: C_8  and  C_29 
REMARK    4  A    between atoms: C_11  and  O_28 
REMARK    5  A    between atoms: C_13  and  C_17 
REMARK    6  A    between atoms: C_17  and  C_19 
REMARK    7  A    between atoms: C_17  and  C_20 
REMARK       I    between atoms: C_20  and  N_22 
REMARK    8  A    between atoms: N_22  and  C_23 
REMARK       I    between atoms: N_30  and  C_31 
REMARK    9  A    between atoms: C_31  and  C_33 
ROOT
ATOM      1  C   LIG d   1      10.521   3.820  -4.233  0.00  0.00    -0.020 C 
ATOM      2  H   LIG d   1      11.590   3.688  -4.455  0.00  0.00     0.032 H 
ATOM      3  C   LIG d   1      10.176   5.310  -4.252  0.00  0.00     0.026 C 
ATOM      4  H   LIG d   1       9.118   5.467  -3.995  0.00  0.00     0.050 H 
ATOM      5  C   LIG d   1      10.485   5.887  -5.636  0.00  0.00    -0.034 C 
ATOM      6  C   LIG d   1       9.651   5.157  -6.691  0.00  0.00    -0.046 C 
ATOM      7  C   LIG d   1       9.997   3.666  -6.671  0.00  0.00    -0.026 C 
ATOM      8  C   LIG d   1       9.687   3.089  -5.288  0.00  0.00    -0.005 C 
ATOM      9  H   LIG d   1       8.618   3.221  -5.066  0.00  0.00     0.033 H 
ATOM     10  C   LIG d   1      10.032   1.599  -5.268  0.00  0.00     0.062 C 
ATOM     11  H   LIG d   1      11.108   1.436  -5.427  0.00  0.00     0.060 H 
ATOM     12  C   LIG d   1       9.198   0.869  -6.323  0.00  0.00    -0.004 C 
ATOM     13  H   LIG d   1       9.446  -0.203  -6.309  0.00  0.00     0.033 H 
ATOM     14  C   LIG d   1       9.507   1.446  -7.706  0.00  0.00    -0.047 C 
ATOM     15  C   LIG d   1       9.163   2.936  -7.726  0.00  0.00    -0.047 C 
ATOM     16  H   LIG d   1      10.237   6.959  -5.650  0.00  0.00     0.028 H 
ATOM     17  H   LIG d   1      11.554   5.755  -5.857  0.00  0.00     0.028 H 
ATOM     18  H   LIG d   1       8.582   5.289  -6.468  0.00  0.00     0.027 H 
ATOM     19  H   LIG d   1       9.874   5.571  -7.685  0.00  0.00     0.027 H 
ATOM     20  H   LIG d   1      10.577   1.314  -7.928  0.00  0.00     0.027 H 
ATOM     21  H   LIG d   1       8.909   0.920  -8.464  0.00  0.00     0.027 H 
ATOM     22  H   LIG d   1       8.094   3.067  -7.504  0.00  0.00     0.027 H 
ATOM     23  H   LIG d   1       9.385   3.351  -8.720  0.00  0.00     0.027 H 
ENDROOT
BRANCH  12  24
ATOM     24  C   LIG d   1       7.712   1.052  -6.015  0.00  0.00     0.038 C 
ATOM     25  H   LIG d   1       7.470   2.124  -5.961  0.00  0.00     0.040 H 
BRANCH  24  26
ATOM     26  C   LIG d   1       7.379   0.376  -4.683  0.00  0.00    -0.054 C 
ATOM     27  H   LIG d   1       8.260  -0.176  -4.322  0.00  0.00     0.024 H 
ATOM     28  H   LIG d   1       6.542  -0.323  -4.825  0.00  0.00     0.024 H 
ATOM     29  H   LIG d   1       7.098   1.140  -3.944  0.00  0.00     0.024 H 
ENDBRANCH  24  26
BRANCH  24  30
ATOM     30  C   LIG d   1       6.890   0.428  -7.114  0.00  0.00     0.216 C 
ATOM     31  O   LIG d   1       7.104  -0.715  -7.455  0.00  0.00    -0.276 OA
ATOM     32  N   LIG d   1       5.917   1.141  -7.716  0.00  0.00    -0.312 N 
ATOM     33  H   LIG d   1       5.724   2.179  -7.406  0.00  0.00     0.149 HD
BRANCH  32  34
ATOM     34  C   LIG d   1       5.119   0.535  -8.784  0.00  0.00     0.023 C 
ATOM     35  C   LIG d   1       4.897   1.546  -9.936  0.00  0.00    -0.035 C 
ATOM     36  C   LIG d   1       3.613   1.012 -10.619  0.00  0.00    -0.051 C 
ATOM     37  H   LIG d   1       4.767   2.556  -9.517  0.00  0.00     0.028 H 
ATOM     38  H   LIG d   1       5.770   1.537 -10.605  0.00  0.00     0.028 H 
ATOM     39  C   LIG d   1       2.739   0.519  -9.447  0.00  0.00    -0.051 C 
ATOM     40  H   LIG d   1       3.826   0.172 -11.296  0.00  0.00     0.027 H 
ATOM     41  H   LIG d   1       3.079   1.801 -11.169  0.00  0.00     0.027 H 
ATOM     42  C   LIG d   1       3.696   0.217  -8.281  0.00  0.00    -0.035 C 
ATOM     43  H   LIG d   1       2.196  -0.396  -9.722  0.00  0.00     0.027 H 
ATOM     44  H   LIG d   1       2.022   1.295  -9.141  0.00  0.00     0.027 H 
ATOM     45  H   LIG d   1       3.639  -0.843  -7.991  0.00  0.00     0.028 H 
ATOM     46  H   LIG d   1       3.466   0.849  -7.410  0.00  0.00     0.028 H 
ATOM     47  H   LIG d   1       5.699  -0.354  -9.072  0.00  0.00     0.050 H 
ENDBRANCH  32  34
ENDBRANCH  24  30
ENDBRANCH  12  24
BRANCH  10  48
ATOM     48  O   LIG d   1       9.743   1.061  -3.976  0.00  0.00    -0.391 OA
ATOM     49  H   LIG d   1       8.888   0.382  -3.841  0.00  0.00     0.210 HD
ENDBRANCH  10  48
BRANCH   1  50
ATOM     50  C   LIG d   1      10.211   3.243  -2.850  0.00  0.00    -0.060 C 
ATOM     51  H   LIG d   1       9.477   2.430  -2.949  0.00  0.00     0.023 H 
ATOM     52  H   LIG d   1       9.798   4.034  -2.206  0.00  0.00     0.023 H 
ATOM     53  H   LIG d   1      11.136   2.850  -2.401  0.00  0.00     0.023 H 
ENDBRANCH   1  50
BRANCH   7  54
ATOM     54  C   LIG d   1      11.483   3.483  -6.979  0.00  0.00    -0.059 C 
ATOM     55  H   LIG d   1      11.836   2.539  -6.537  0.00  0.00     0.024 H 
ATOM     56  H   LIG d   1      12.053   4.322  -6.553  0.00  0.00     0.024 H 
ATOM     57  H   LIG d   1      11.631   3.455  -8.069  0.00  0.00     0.024 H 
ENDBRANCH   7  54
BRANCH   3  58
ATOM     58  N   LIG d   1      10.974   6.010  -3.243  0.00  0.00    -0.312 N 
ATOM     59  C   LIG d   1      10.363   6.742  -2.290  0.00  0.00     0.216 C 
ATOM     60  O   LIG d   1       9.154   6.822  -2.268  0.00  0.00    -0.276 OA
ATOM     61  H   LIG d   1      12.071   5.938  -3.262  0.00  0.00     0.149 HD
BRANCH  59  62
ATOM     62  C   LIG d   1      11.184   7.461  -1.251  0.00  0.00     0.036 C 
ATOM     63  C   LIG d   1      11.058   8.971  -1.458  0.00  0.00    -0.042 C 
ATOM     64  C   LIG d   1      11.892   9.702  -0.402  0.00  0.00    -0.052 C 
ATOM     65  H   LIG d   1      11.423   9.236  -2.461  0.00  0.00     0.027 H 
ATOM     66  H   LIG d   1      10.003   9.268  -1.360  0.00  0.00     0.027 H 
ATOM     67  C   LIG d   1      11.383   9.334   0.993  0.00  0.00    -0.053 C 
ATOM     68  H   LIG d   1      11.800  10.788  -0.551  0.00  0.00     0.026 H 
ATOM     69  H   LIG d   1      12.946   9.406  -0.499  0.00  0.00     0.026 H 
ATOM     70  C   LIG d   1      11.511   7.823   1.200  0.00  0.00    -0.052 C 
ATOM     71  H   LIG d   1      10.329   9.631   1.090  0.00  0.00     0.026 H 
ATOM     72  H   LIG d   1      11.984   9.859   1.751  0.00  0.00     0.026 H 
ATOM     73  C   LIG d   1      10.677   7.093   0.145  0.00  0.00    -0.042 C 
ATOM     74  H   LIG d   1      11.146   7.559   2.203  0.00  0.00     0.026 H 
ATOM     75  H   LIG d   1      12.566   7.527   1.103  0.00  0.00     0.026 H 
ATOM     76  H   LIG d   1       9.622   7.389   0.242  0.00  0.00     0.027 H 
ATOM     77  H   LIG d   1      10.768   6.007   0.293  0.00  0.00     0.027 H 
ATOM     78  H   LIG d   1      12.236   7.156  -1.359  0.00  0.00     0.039 H 
ENDBRANCH  59  62
ENDBRANCH   3  58
TORSDOF 9
ENDMDL
