MODEL 1
REMARK VINA RESULT:      -6.9      0.000      0.000
REMARK  9 active torsions:
REMARK  status: ('A' for Active; 'I' for Inactive)
REMARK    1  A    between atoms: C_1  and  C_2 
REMARK    2  A    between atoms: C_2  and  C_3 
REMARK    3  A    between atoms: C_3  and  O_4 
REMARK    4  A    between atoms: O_4  and  C_5 
REMARK    5  A    between atoms: C_8  and  C_14 
REMARK    6  A    between atoms: C_10  and  O_11 
REMARK    7  A    between atoms: O_11  and  C_12 
REMARK    8  A    between atoms: C_12  and  C_13 
REMARK    9  A    between atoms: C_24  and  C_35 
ROOT
ATOM      1  C   LIG d   1       5.473  -2.239  -7.085  0.00  0.00     0.028 C 
ATOM      2  H   LIG d   1       6.493  -1.857  -7.040  0.00  0.00     0.041 H 
ATOM      3  C   LIG d   1       4.975  -2.198  -8.534  0.00  0.00     0.027 C 
ATOM      4  N   LIG d   1       4.668  -0.800  -8.892  0.00  0.00    -0.280 N 
ATOM      5  C   LIG d   1       5.381  -0.198  -9.848  0.00  0.00     0.234 C 
ATOM      6  O   LIG d   1       6.163  -0.873 -10.483  0.00  0.00    -0.274 OA
ATOM      7  C   LIG d   1       5.278   1.254 -10.184  0.00  0.00     0.088 C 
ATOM      8  N   LIG d   1       4.346   1.954  -9.315  0.00  0.00    -0.305 N 
ATOM      9  C   LIG d   1       3.583   1.344  -8.407  0.00  0.00     0.243 C 
ATOM     10  O   LIG d   1       2.844   2.028  -7.731  0.00  0.00    -0.273 OA
ATOM     11  C   LIG d   1       3.583  -0.129  -8.176  0.00  0.00     0.151 C 
ATOM     12  C   LIG d   1       3.734  -0.436  -6.705  0.00  0.00     0.054 A 
ATOM     13  C   LIG d   1       4.576  -1.381  -6.229  0.00  0.00    -0.008 A 
ATOM     14  C   LIG d   1       4.438  -1.382  -4.788  0.00  0.00     0.004 A 
ATOM     15  C   LIG d   1       5.044  -2.137  -3.779  0.00  0.00    -0.052 A 
ATOM     16  C   LIG d   1       4.671  -1.859  -2.487  0.00  0.00    -0.061 A 
ATOM     17  C   LIG d   1       3.735  -0.883  -2.185  0.00  0.00    -0.060 A 
ATOM     18  C   LIG d   1       3.114  -0.128  -3.163  0.00  0.00    -0.038 A 
ATOM     19  C   LIG d   1       3.473  -0.388  -4.485  0.00  0.00     0.047 A 
ATOM     20  N   LIG d   1       3.065   0.158  -5.668  0.00  0.00    -0.356 N 
ATOM     21  H   LIG d   1       2.409   0.866  -5.760  0.00  0.00     0.166 HD
ATOM     22  H   LIG d   1       5.748  -2.583  -9.198  0.00  0.00     0.047 H 
ATOM     23  H   LIG d   1       4.075  -2.807  -8.628  0.00  0.00     0.047 H 
ATOM     24  H   LIG d   1       6.262   1.711 -10.088  0.00  0.00     0.056 H 
ATOM     25  H   LIG d   1       4.942   1.355 -11.217  0.00  0.00     0.056 H 
ATOM     26  H   LIG d   1       4.277   2.918  -9.399  0.00  0.00     0.149 HD
ATOM     27  H   LIG d   1       5.776  -2.899  -4.004  0.00  0.00     0.062 H 
ATOM     28  H   LIG d   1       5.123  -2.418  -1.680  0.00  0.00     0.062 H 
ATOM     29  H   LIG d   1       3.481  -0.707  -1.149  0.00  0.00     0.062 H 
ATOM     30  H   LIG d   1       2.386   0.630  -2.915  0.00  0.00     0.064 H 
ENDROOT
BRANCH   1  31
ATOM     31  C   LIG d   1       5.443  -3.659  -6.581  0.00  0.00    -0.035 A 
ATOM     32  C   LIG d   1       4.268  -4.386  -6.636  0.00  0.00    -0.054 A 
ATOM     33  C   LIG d   1       4.238  -5.691  -6.179  0.00  0.00    -0.016 A 
ATOM     34  H   LIG d   1       3.375  -3.935  -7.041  0.00  0.00     0.062 H 
ATOM     35  C   LIG d   1       5.383  -6.268  -5.655  0.00  0.00     0.162 A 
ATOM     36  H   LIG d   1       3.320  -6.258  -6.228  0.00  0.00     0.066 H 
ATOM     37  C   LIG d   1       6.564  -5.534  -5.593  0.00  0.00     0.162 A 
ATOM     38  C   LIG d   1       6.589  -4.229  -6.058  0.00  0.00    -0.013 A 
ATOM     39  H   LIG d   1       7.505  -3.657  -6.011  0.00  0.00     0.066 H 
BRANCH  35  40
ATOM     40  O   LIG d   1       5.353  -7.549  -5.200  0.00  0.00    -0.488 OA
BRANCH  40  41
ATOM     41  C   LIG d   1       4.755  -8.527  -6.053  0.00  0.00     0.089 C 
ATOM     42  H   LIG d   1       3.733  -8.229  -6.287  0.00  0.00     0.070 H 
ATOM     43  H   LIG d   1       5.331  -8.605  -6.975  0.00  0.00     0.070 H 
BRANCH  41  44
ATOM     44  C   LIG d   1       4.741  -9.882  -5.344  0.00  0.00    -0.021 C 
ATOM     45  H   LIG d   1       4.107 -10.575  -5.896  0.00  0.00     0.029 H 
ATOM     46  H   LIG d   1       5.757 -10.278  -5.296  0.00  0.00     0.029 H 
BRANCH  44  47
ATOM     47  C   LIG d   1       4.194  -9.710  -3.925  0.00  0.00    -0.062 C 
ATOM     48  H   LIG d   1       4.806  -8.988  -3.385  0.00  0.00     0.023 H 
ATOM     49  H   LIG d   1       3.166  -9.353  -3.973  0.00  0.00     0.023 H 
ATOM     50  H   LIG d   1       4.221 -10.669  -3.407  0.00  0.00     0.023 H 
ENDBRANCH  44  47
ENDBRANCH  41  44
ENDBRANCH  40  41
ENDBRANCH  35  40
BRANCH  37  51
ATOM     51  O   LIG d   1       7.690  -6.097  -5.079  0.00  0.00    -0.489 OA
BRANCH  51  52
ATOM     52  C   LIG d   1       8.847  -5.264  -4.989  0.00  0.00     0.087 C 
ATOM     53  H   LIG d   1       9.674  -5.729  -5.527  0.00  0.00     0.069 H 
ATOM     54  H   LIG d   1       8.630  -4.290  -5.428  0.00  0.00     0.069 H 
BRANCH  52  55
ATOM     55  C   LIG d   1       9.234  -5.085  -3.519  0.00  0.00    -0.031 C 
ATOM     56  H   LIG d   1       8.649  -4.275  -3.086  0.00  0.00     0.026 H 
ATOM     57  H   LIG d   1       9.034  -6.009  -2.976  0.00  0.00     0.026 H 
ATOM     58  H   LIG d   1      10.295  -4.845  -3.449  0.00  0.00     0.026 H 
ENDBRANCH  52  55
ENDBRANCH  51  52
ENDBRANCH  37  51
ENDBRANCH   1  31
BRANCH  11  59
ATOM     59  C   LIG d   1       2.248  -0.706  -8.650  0.00  0.00    -0.029 C 
ATOM     60  H   LIG d   1       2.422  -1.396  -9.476  0.00  0.00     0.026 H 
ATOM     61  H   LIG d   1       1.769  -1.238  -7.827  0.00  0.00     0.026 H 
ATOM     62  H   LIG d   1       1.600   0.105  -8.983  0.00  0.00     0.026 H 
ENDBRANCH  11  59
TORSDOF 9
ENDMDL
MODEL 2
REMARK VINA RESULT:      -6.8      3.818      5.293
REMARK  9 active torsions:
REMARK  status: ('A' for Active; 'I' for Inactive)
REMARK    1  A    between atoms: C_1  and  C_2 
REMARK    2  A    between atoms: C_2  and  C_3 
REMARK    3  A    between atoms: C_3  and  O_4 
REMARK    4  A    between atoms: O_4  and  C_5 
REMARK    5  A    between atoms: C_8  and  C_14 
REMARK    6  A    between atoms: C_10  and  O_11 
REMARK    7  A    between atoms: O_11  and  C_12 
REMARK    8  A    between atoms: C_12  and  C_13 
REMARK    9  A    between atoms: C_24  and  C_35 
ROOT
ATOM      1  C   LIG d   1       7.711  -2.037  -4.829  0.00  0.00     0.028 C 
ATOM      2  H   LIG d   1       8.221  -2.624  -4.065  0.00  0.00     0.041 H 
ATOM      3  C   LIG d   1       8.710  -1.642  -5.923  0.00  0.00     0.027 C 
ATOM      4  N   LIG d   1       9.579  -0.566  -5.408  0.00  0.00    -0.280 N 
ATOM      5  C   LIG d   1      10.886  -0.795  -5.260  0.00  0.00     0.234 C 
ATOM      6  O   LIG d   1      11.332  -1.838  -5.690  0.00  0.00    -0.274 OA
ATOM      7  C   LIG d   1      11.835   0.150  -4.599  0.00  0.00     0.088 C 
ATOM      8  N   LIG d   1      11.163   1.332  -4.085  0.00  0.00    -0.305 N 
ATOM      9  C   LIG d   1       9.872   1.596  -4.290  0.00  0.00     0.243 C 
ATOM     10  O   LIG d   1       9.414   2.610  -3.809  0.00  0.00    -0.273 OA
ATOM     11  C   LIG d   1       8.961   0.718  -5.079  0.00  0.00     0.151 C 
ATOM     12  C   LIG d   1       7.691   0.442  -4.308  0.00  0.00     0.054 A 
ATOM     13  C   LIG d   1       7.140  -0.789  -4.207  0.00  0.00    -0.008 A 
ATOM     14  C   LIG d   1       5.944  -0.650  -3.402  0.00  0.00     0.004 A 
ATOM     15  C   LIG d   1       4.981  -1.568  -2.972  0.00  0.00    -0.052 A 
ATOM     16  C   LIG d   1       3.960  -1.077  -2.196  0.00  0.00    -0.061 A 
ATOM     17  C   LIG d   1       3.873   0.262  -1.854  0.00  0.00    -0.060 A 
ATOM     18  C   LIG d   1       4.808   1.192  -2.271  0.00  0.00    -0.038 A 
ATOM     19  C   LIG d   1       5.857   0.723  -3.061  0.00  0.00     0.047 A 
ATOM     20  N   LIG d   1       6.926   1.353  -3.632  0.00  0.00    -0.356 N 
ATOM     21  H   LIG d   1       7.118   2.301  -3.559  0.00  0.00     0.166 HD
ATOM     22  H   LIG d   1       9.319  -2.505  -6.191  0.00  0.00     0.047 H 
ATOM     23  H   LIG d   1       8.169  -1.288  -6.801  0.00  0.00     0.047 H 
ATOM     24  H   LIG d   1      12.329  -0.362  -3.774  0.00  0.00     0.056 H 
ATOM     25  H   LIG d   1      12.589   0.459  -5.324  0.00  0.00     0.056 H 
ATOM     26  H   LIG d   1      11.682   1.964  -3.562  0.00  0.00     0.149 HD
ATOM     27  H   LIG d   1       5.040  -2.615  -3.233  0.00  0.00     0.062 H 
ATOM     28  H   LIG d   1       3.199  -1.758  -1.841  0.00  0.00     0.062 H 
ATOM     29  H   LIG d   1       3.047   0.591  -1.240  0.00  0.00     0.062 H 
ATOM     30  H   LIG d   1       4.730   2.234  -1.998  0.00  0.00     0.064 H 
ENDROOT
BRANCH   1  31
ATOM     31  C   LIG d   1       6.598  -2.854  -5.433  0.00  0.00    -0.035 A 
ATOM     32  C   LIG d   1       6.395  -4.157  -5.018  0.00  0.00    -0.054 A 
ATOM     33  C   LIG d   1       5.372  -4.908  -5.566  0.00  0.00    -0.016 A 
ATOM     34  H   LIG d   1       7.033  -4.586  -4.261  0.00  0.00     0.062 H 
ATOM     35  C   LIG d   1       4.554  -4.359  -6.542  0.00  0.00     0.162 A 
ATOM     36  H   LIG d   1       5.212  -5.924  -5.237  0.00  0.00     0.066 H 
ATOM     37  C   LIG d   1       4.763  -3.050  -6.964  0.00  0.00     0.162 A 
ATOM     38  C   LIG d   1       5.787  -2.300  -6.406  0.00  0.00    -0.013 A 
ATOM     39  H   LIG d   1       5.951  -1.283  -6.733  0.00  0.00     0.066 H 
BRANCH  35  40
ATOM     40  O   LIG d   1       3.552  -5.099  -7.086  0.00  0.00    -0.488 OA
BRANCH  40  41
ATOM     41  C   LIG d   1       3.933  -6.201  -7.911  0.00  0.00     0.089 C 
ATOM     42  H   LIG d   1       4.936  -6.528  -7.641  0.00  0.00     0.070 H 
ATOM     43  H   LIG d   1       3.232  -7.023  -7.765  0.00  0.00     0.070 H 
BRANCH  41  44
ATOM     44  C   LIG d   1       3.914  -5.770  -9.378  0.00  0.00    -0.021 C 
ATOM     45  H   LIG d   1       4.679  -5.012  -9.545  0.00  0.00     0.029 H 
ATOM     46  H   LIG d   1       4.114  -6.634 -10.014  0.00  0.00     0.029 H 
BRANCH  44  47
ATOM     47  C   LIG d   1       2.540  -5.192  -9.723  0.00  0.00    -0.062 C 
ATOM     48  H   LIG d   1       1.784  -5.646  -9.082  0.00  0.00     0.023 H 
ATOM     49  H   LIG d   1       2.550  -4.114  -9.568  0.00  0.00     0.023 H 
ATOM     50  H   LIG d   1       2.307  -5.407 -10.766  0.00  0.00     0.023 H 
ENDBRANCH  44  47
ENDBRANCH  41  44
ENDBRANCH  40  41
ENDBRANCH  35  40
BRANCH  37  51
ATOM     51  O   LIG d   1       3.964  -2.507  -7.921  0.00  0.00    -0.489 OA
BRANCH  51  52
ATOM     52  C   LIG d   1       3.726  -1.099  -7.844  0.00  0.00     0.087 C 
ATOM     53  H   LIG d   1       3.559  -0.814  -6.805  0.00  0.00     0.069 H 
ATOM     54  H   LIG d   1       4.590  -0.563  -8.235  0.00  0.00     0.069 H 
BRANCH  52  55
ATOM     55  C   LIG d   1       2.489  -0.746  -8.673  0.00  0.00    -0.031 C 
ATOM     56  H   LIG d   1       1.880  -1.638  -8.815  0.00  0.00     0.026 H 
ATOM     57  H   LIG d   1       1.907   0.014  -8.152  0.00  0.00     0.026 H 
ATOM     58  H   LIG d   1       2.801  -0.361  -9.644  0.00  0.00     0.026 H 
ENDBRANCH  52  55
ENDBRANCH  51  52
ENDBRANCH  37  51
ENDBRANCH   1  31
BRANCH  11  59
ATOM     59  C   LIG d   1       8.585   1.433  -6.379  0.00  0.00    -0.029 C 
ATOM     60  H   LIG d   1       7.861   0.831  -6.929  0.00  0.00     0.026 H 
ATOM     61  H   LIG d   1       8.147   2.404  -6.145  0.00  0.00     0.026 H 
ATOM     62  H   LIG d   1       9.478   1.574  -6.987  0.00  0.00     0.026 H 
ENDBRANCH  11  59
TORSDOF 9
ENDMDL
MODEL 3
REMARK VINA RESULT:      -6.7      3.677      4.762
REMARK  9 active torsions:
REMARK  status: ('A' for Active; 'I' for Inactive)
REMARK    1  A    between atoms: C_1  and  C_2 
REMARK    2  A    between atoms: C_2  and  C_3 
REMARK    3  A    between atoms: C_3  and  O_4 
REMARK    4  A    between atoms: O_4  and  C_5 
REMARK    5  A    between atoms: C_8  and  C_14 
REMARK    6  A    between atoms: C_10  and  O_11 
REMARK    7  A    between atoms: O_11  and  C_12 
REMARK    8  A    between atoms: C_12  and  C_13 
REMARK    9  A    between atoms: C_24  and  C_35 
ROOT
ATOM      1  C   LIG d   1       7.590  -2.168  -4.981  0.00  0.00     0.028 C 
ATOM      2  H   LIG d   1       8.087  -2.785  -4.231  0.00  0.00     0.041 H 
ATOM      3  C   LIG d   1       8.595  -1.778  -6.070  0.00  0.00     0.027 C 
ATOM      4  N   LIG d   1       9.494  -0.737  -5.536  0.00  0.00    -0.280 N 
ATOM      5  C   LIG d   1      10.796  -1.004  -5.398  0.00  0.00     0.234 C 
ATOM      6  O   LIG d   1      11.212  -2.050  -5.852  0.00  0.00    -0.274 OA
ATOM      7  C   LIG d   1      11.773  -0.099  -4.721  0.00  0.00     0.088 C 
ATOM      8  N   LIG d   1      11.135   1.090  -4.180  0.00  0.00    -0.305 N 
ATOM      9  C   LIG d   1       9.851   1.393  -4.375  0.00  0.00     0.243 C 
ATOM     10  O   LIG d   1       9.422   2.409  -3.871  0.00  0.00    -0.273 OA
ATOM     11  C   LIG d   1       8.913   0.556  -5.178  0.00  0.00     0.151 C 
ATOM     12  C   LIG d   1       7.639   0.298  -4.408  0.00  0.00     0.054 A 
ATOM     13  C   LIG d   1       7.055  -0.918  -4.330  0.00  0.00    -0.008 A 
ATOM     14  C   LIG d   1       5.866  -0.765  -3.518  0.00  0.00     0.004 A 
ATOM     15  C   LIG d   1       4.880  -1.665  -3.103  0.00  0.00    -0.052 A 
ATOM     16  C   LIG d   1       3.875  -1.163  -2.313  0.00  0.00    -0.061 A 
ATOM     17  C   LIG d   1       3.826   0.171  -1.942  0.00  0.00    -0.060 A 
ATOM     18  C   LIG d   1       4.785   1.084  -2.344  0.00  0.00    -0.038 A 
ATOM     19  C   LIG d   1       5.817   0.603  -3.148  0.00  0.00     0.047 A 
ATOM     20  N   LIG d   1       6.901   1.216  -3.709  0.00  0.00    -0.356 N 
ATOM     21  H   LIG d   1       7.120   2.157  -3.618  0.00  0.00     0.166 HD
ATOM     22  H   LIG d   1       9.179  -2.651  -6.359  0.00  0.00     0.047 H 
ATOM     23  H   LIG d   1       8.061  -1.391  -6.938  0.00  0.00     0.047 H 
ATOM     24  H   LIG d   1      12.256  -0.642  -3.910  0.00  0.00     0.056 H 
ATOM     25  H   LIG d   1      12.532   0.205  -5.443  0.00  0.00     0.056 H 
ATOM     26  H   LIG d   1      11.673   1.695  -3.646  0.00  0.00     0.149 HD
ATOM     27  H   LIG d   1       4.909  -2.707  -3.386  0.00  0.00     0.062 H 
ATOM     28  H   LIG d   1       3.097  -1.830  -1.969  0.00  0.00     0.062 H 
ATOM     29  H   LIG d   1       3.012   0.509  -1.318  0.00  0.00     0.062 H 
ATOM     30  H   LIG d   1       4.736   2.121  -2.048  0.00  0.00     0.064 H 
ENDROOT
BRANCH   1  31
ATOM     31  C   LIG d   1       6.453  -2.941  -5.597  0.00  0.00    -0.035 A 
ATOM     32  C   LIG d   1       5.726  -2.389  -6.636  0.00  0.00    -0.054 A 
ATOM     33  C   LIG d   1       4.685  -3.097  -7.208  0.00  0.00    -0.016 A 
ATOM     34  H   LIG d   1       5.976  -1.405  -7.004  0.00  0.00     0.062 H 
ATOM     35  C   LIG d   1       4.361  -4.358  -6.733  0.00  0.00     0.162 A 
ATOM     36  H   LIG d   1       4.122  -2.665  -8.022  0.00  0.00     0.066 H 
ATOM     37  C   LIG d   1       5.088  -4.911  -5.684  0.00  0.00     0.162 A 
ATOM     38  C   LIG d   1       6.134  -4.198  -5.119  0.00  0.00    -0.013 A 
ATOM     39  H   LIG d   1       6.700  -4.626  -4.304  0.00  0.00     0.066 H 
BRANCH  35  40
ATOM     40  O   LIG d   1       3.334  -5.052  -7.291  0.00  0.00    -0.488 OA
BRANCH  40  41
ATOM     41  C   LIG d   1       3.356  -5.216  -8.711  0.00  0.00     0.089 C 
ATOM     42  H   LIG d   1       2.360  -5.489  -9.059  0.00  0.00     0.070 H 
ATOM     43  H   LIG d   1       3.660  -4.280  -9.180  0.00  0.00     0.070 H 
BRANCH  41  44
ATOM     44  C   LIG d   1       4.348  -6.319  -9.082  0.00  0.00    -0.021 C 
ATOM     45  H   LIG d   1       4.499  -6.323 -10.161  0.00  0.00     0.029 H 
ATOM     46  H   LIG d   1       5.299  -6.136  -8.582  0.00  0.00     0.029 H 
BRANCH  44  47
ATOM     47  C   LIG d   1       3.792  -7.674  -8.640  0.00  0.00    -0.062 C 
ATOM     48  H   LIG d   1       3.021  -7.997  -9.339  0.00  0.00     0.023 H 
ATOM     49  H   LIG d   1       4.597  -8.409  -8.623  0.00  0.00     0.023 H 
ATOM     50  H   LIG d   1       3.363  -7.583  -7.642  0.00  0.00     0.023 H 
ENDBRANCH  44  47
ENDBRANCH  41  44
ENDBRANCH  40  41
ENDBRANCH  35  40
BRANCH  37  51
ATOM     51  O   LIG d   1       4.774  -6.148  -5.215  0.00  0.00    -0.489 OA
BRANCH  51  52
ATOM     52  C   LIG d   1       5.688  -7.206  -5.514  0.00  0.00     0.087 C 
ATOM     53  H   LIG d   1       5.928  -7.189  -6.577  0.00  0.00     0.069 H 
ATOM     54  H   LIG d   1       6.600  -7.073  -4.932  0.00  0.00     0.069 H 
BRANCH  52  55
ATOM     55  C   LIG d   1       5.047  -8.549  -5.157  0.00  0.00    -0.031 C 
ATOM     56  H   LIG d   1       5.062  -8.683  -4.076  0.00  0.00     0.026 H 
ATOM     57  H   LIG d   1       4.016  -8.565  -5.511  0.00  0.00     0.026 H 
ATOM     58  H   LIG d   1       5.606  -9.355  -5.631  0.00  0.00     0.026 H 
ENDBRANCH  52  55
ENDBRANCH  51  52
ENDBRANCH  37  51
ENDBRANCH   1  31
BRANCH  11  59
ATOM     59  C   LIG d   1       8.552   1.308  -6.461  0.00  0.00    -0.029 C 
ATOM     60  H   LIG d   1       9.402   1.292  -7.143  0.00  0.00     0.026 H 
ATOM     61  H   LIG d   1       7.696   0.827  -6.935  0.00  0.00     0.026 H 
ATOM     62  H   LIG d   1       8.299   2.340  -6.218  0.00  0.00     0.026 H 
ENDBRANCH  11  59
TORSDOF 9
ENDMDL
MODEL 4
REMARK VINA RESULT:      -6.5      3.824      6.341
REMARK  9 active torsions:
REMARK  status: ('A' for Active; 'I' for Inactive)
REMARK    1  A    between atoms: C_1  and  C_2 
REMARK    2  A    between atoms: C_2  and  C_3 
REMARK    3  A    between atoms: C_3  and  O_4 
REMARK    4  A    between atoms: O_4  and  C_5 
REMARK    5  A    between atoms: C_8  and  C_14 
REMARK    6  A    between atoms: C_10  and  O_11 
REMARK    7  A    between atoms: O_11  and  C_12 
REMARK    8  A    between atoms: C_12  and  C_13 
REMARK    9  A    between atoms: C_24  and  C_35 
ROOT
ATOM      1  C   LIG d   1       6.202  -1.298  -6.869  0.00  0.00     0.028 C 
ATOM      2  H   LIG d   1       5.528  -0.628  -7.403  0.00  0.00     0.041 H 
ATOM      3  C   LIG d   1       6.671  -2.411  -7.812  0.00  0.00     0.027 C 
ATOM      4  N   LIG d   1       5.565  -3.370  -8.002  0.00  0.00    -0.280 N 
ATOM      5  C   LIG d   1       5.026  -3.515  -9.216  0.00  0.00     0.234 C 
ATOM      6  O   LIG d   1       5.564  -2.953 -10.147  0.00  0.00    -0.274 OA
ATOM      7  C   LIG d   1       3.804  -4.325  -9.501  0.00  0.00     0.088 C 
ATOM      8  N   LIG d   1       3.232  -4.899  -8.294  0.00  0.00    -0.305 N 
ATOM      9  C   LIG d   1       3.805  -4.814  -7.093  0.00  0.00     0.243 C 
ATOM     10  O   LIG d   1       3.236  -5.326  -6.152  0.00  0.00    -0.273 OA
ATOM     11  C   LIG d   1       5.104  -4.127  -6.839  0.00  0.00     0.151 C 
ATOM     12  C   LIG d   1       4.981  -3.170  -5.677  0.00  0.00     0.054 A 
ATOM     13  C   LIG d   1       5.478  -1.913  -5.699  0.00  0.00    -0.008 A 
ATOM     14  C   LIG d   1       5.169  -1.315  -4.416  0.00  0.00     0.004 A 
ATOM     15  C   LIG d   1       5.432  -0.055  -3.871  0.00  0.00    -0.052 A 
ATOM     16  C   LIG d   1       4.974   0.178  -2.597  0.00  0.00    -0.061 A 
ATOM     17  C   LIG d   1       4.289  -0.784  -1.874  0.00  0.00    -0.060 A 
ATOM     18  C   LIG d   1       4.022  -2.041  -2.386  0.00  0.00    -0.038 A 
ATOM     19  C   LIG d   1       4.475  -2.307  -3.678  0.00  0.00     0.047 A 
ATOM     20  N   LIG d   1       4.386  -3.416  -4.469  0.00  0.00    -0.356 N 
ATOM     21  H   LIG d   1       3.957  -4.249  -4.217  0.00  0.00     0.166 HD
ATOM     22  H   LIG d   1       6.951  -1.982  -8.774  0.00  0.00     0.047 H 
ATOM     23  H   LIG d   1       7.529  -2.923  -7.376  0.00  0.00     0.047 H 
ATOM     24  H   LIG d   1       3.059  -3.687  -9.977  0.00  0.00     0.056 H 
ATOM     25  H   LIG d   1       4.066  -5.131 -10.187  0.00  0.00     0.056 H 
ATOM     26  H   LIG d   1       2.387  -5.370  -8.367  0.00  0.00     0.149 HD
ATOM     27  H   LIG d   1       5.965   0.703  -4.427  0.00  0.00     0.062 H 
ATOM     28  H   LIG d   1       5.154   1.143  -2.145  0.00  0.00     0.062 H 
ATOM     29  H   LIG d   1       3.952  -0.545  -0.876  0.00  0.00     0.062 H 
ATOM     30  H   LIG d   1       3.486  -2.784  -1.813  0.00  0.00     0.064 H 
ENDROOT
BRANCH   1  31
ATOM     31  C   LIG d   1       7.395  -0.522  -6.372  0.00  0.00    -0.035 A 
ATOM     32  C   LIG d   1       7.401   0.858  -6.450  0.00  0.00    -0.054 A 
ATOM     33  C   LIG d   1       8.491   1.575  -5.991  0.00  0.00    -0.016 A 
ATOM     34  H   LIG d   1       6.551   1.378  -6.865  0.00  0.00     0.062 H 
ATOM     35  C   LIG d   1       9.585   0.908  -5.462  0.00  0.00     0.162 A 
ATOM     36  H   LIG d   1       8.491   2.653  -6.048  0.00  0.00     0.066 H 
ATOM     37  C   LIG d   1       9.581  -0.482  -5.390  0.00  0.00     0.162 A 
ATOM     38  C   LIG d   1       8.483  -1.193  -5.847  0.00  0.00    -0.013 A 
ATOM     39  H   LIG d   1       8.478  -2.272  -5.791  0.00  0.00     0.066 H 
BRANCH  35  40
ATOM     40  O   LIG d   1      10.660   1.611  -5.016  0.00  0.00    -0.488 OA
BRANCH  40  41
ATOM     41  C   LIG d   1      10.417   2.936  -4.539  0.00  0.00     0.089 C 
ATOM     42  H   LIG d   1      11.173   3.610  -4.941  0.00  0.00     0.070 H 
ATOM     43  H   LIG d   1       9.430   3.264  -4.863  0.00  0.00     0.070 H 
BRANCH  41  44
ATOM     44  C   LIG d   1      10.483   2.949  -3.011  0.00  0.00    -0.021 C 
ATOM     45  H   LIG d   1       9.709   2.296  -2.608  0.00  0.00     0.029 H 
ATOM     46  H   LIG d   1      11.462   2.595  -2.686  0.00  0.00     0.029 H 
BRANCH  44  47
ATOM     47  C   LIG d   1      10.262   4.375  -2.503  0.00  0.00    -0.062 C 
ATOM     48  H   LIG d   1      10.017   4.349  -1.442  0.00  0.00     0.023 H 
ATOM     49  H   LIG d   1      11.170   4.958  -2.652  0.00  0.00     0.023 H 
ATOM     50  H   LIG d   1       9.441   4.834  -3.055  0.00  0.00     0.023 H 
ENDBRANCH  44  47
ENDBRANCH  41  44
ENDBRANCH  40  41
ENDBRANCH  35  40
BRANCH  37  51
ATOM     51  O   LIG d   1      10.652  -1.139  -4.871  0.00  0.00    -0.489 OA
BRANCH  51  52
ATOM     52  C   LIG d   1      10.590  -2.567  -4.854  0.00  0.00     0.087 C 
ATOM     53  H   LIG d   1       9.606  -2.884  -4.508  0.00  0.00     0.069 H 
ATOM     54  H   LIG d   1      10.763  -2.951  -5.860  0.00  0.00     0.069 H 
BRANCH  52  55
ATOM     55  C   LIG d   1      11.662  -3.113  -3.909  0.00  0.00    -0.031 C 
ATOM     56  H   LIG d   1      11.874  -2.376  -3.136  0.00  0.00     0.026 H 
ATOM     57  H   LIG d   1      11.304  -4.033  -3.446  0.00  0.00     0.026 H 
ATOM     58  H   LIG d   1      12.571  -3.321  -4.473  0.00  0.00     0.026 H 
ENDBRANCH  52  55
ENDBRANCH  51  52
ENDBRANCH  37  51
ENDBRANCH   1  31
BRANCH  11  59
ATOM     59  C   LIG d   1       6.159  -5.177  -6.484  0.00  0.00    -0.029 C 
ATOM     60  H   LIG d   1       6.066  -5.445  -5.432  0.00  0.00     0.026 H 
ATOM     61  H   LIG d   1       6.009  -6.065  -7.100  0.00  0.00     0.026 H 
ATOM     62  H   LIG d   1       7.153  -4.771  -6.670  0.00  0.00     0.026 H 
ENDBRANCH  11  59
TORSDOF 9
ENDMDL
MODEL 5
REMARK VINA RESULT:      -6.5      3.851      6.867
REMARK  9 active torsions:
REMARK  status: ('A' for Active; 'I' for Inactive)
REMARK    1  A    between atoms: C_1  and  C_2 
REMARK    2  A    between atoms: C_2  and  C_3 
REMARK    3  A    between atoms: C_3  and  O_4 
REMARK    4  A    between atoms: O_4  and  C_5 
REMARK    5  A    between atoms: C_8  and  C_14 
REMARK    6  A    between atoms: C_10  and  O_11 
REMARK    7  A    between atoms: O_11  and  C_12 
REMARK    8  A    between atoms: C_12  and  C_13 
REMARK    9  A    between atoms: C_24  and  C_35 
ROOT
ATOM      1  C   LIG d   1       6.166  -1.286  -6.858  0.00  0.00     0.028 C 
ATOM      2  H   LIG d   1       5.461  -0.659  -7.405  0.00  0.00     0.041 H 
ATOM      3  C   LIG d   1       6.649  -2.424  -7.765  0.00  0.00     0.027 C 
ATOM      4  N   LIG d   1       5.569  -3.421  -7.892  0.00  0.00    -0.280 N 
ATOM      5  C   LIG d   1       5.011  -3.632  -9.087  0.00  0.00     0.234 C 
ATOM      6  O   LIG d   1       5.513  -3.094 -10.051  0.00  0.00    -0.274 OA
ATOM      7  C   LIG d   1       3.808  -4.489  -9.313  0.00  0.00     0.088 C 
ATOM      8  N   LIG d   1       3.279  -5.030  -8.072  0.00  0.00    -0.305 N 
ATOM      9  C   LIG d   1       3.872  -4.877  -6.887  0.00  0.00     0.243 C 
ATOM     10  O   LIG d   1       3.338  -5.367  -5.915  0.00  0.00    -0.273 OA
ATOM     11  C   LIG d   1       5.155  -4.143  -6.690  0.00  0.00     0.151 C 
ATOM     12  C   LIG d   1       5.027  -3.142  -5.565  0.00  0.00     0.054 A 
ATOM     13  C   LIG d   1       5.485  -1.873  -5.649  0.00  0.00    -0.008 A 
ATOM     14  C   LIG d   1       5.184  -1.232  -4.385  0.00  0.00     0.004 A 
ATOM     15  C   LIG d   1       5.419   0.057  -3.898  0.00  0.00    -0.052 A 
ATOM     16  C   LIG d   1       4.980   0.329  -2.625  0.00  0.00    -0.061 A 
ATOM     17  C   LIG d   1       4.339  -0.623  -1.849  0.00  0.00    -0.060 A 
ATOM     18  C   LIG d   1       4.100  -1.907  -2.304  0.00  0.00    -0.038 A 
ATOM     19  C   LIG d   1       4.535  -2.212  -3.592  0.00  0.00     0.047 A 
ATOM     20  N   LIG d   1       4.463  -3.356  -4.336  0.00  0.00    -0.356 N 
ATOM     21  H   LIG d   1       4.065  -4.189  -4.040  0.00  0.00     0.166 HD
ATOM     22  H   LIG d   1       6.897  -2.027  -8.749  0.00  0.00     0.047 H 
ATOM     23  H   LIG d   1       7.531  -2.891  -7.326  0.00  0.00     0.047 H 
ATOM     24  H   LIG d   1       3.035  -3.894  -9.798  0.00  0.00     0.056 H 
ATOM     25  H   LIG d   1       4.081  -5.315  -9.971  0.00  0.00     0.056 H 
ATOM     26  H   LIG d   1       2.446  -5.527  -8.107  0.00  0.00     0.149 HD
ATOM     27  H   LIG d   1       5.918   0.806  -4.496  0.00  0.00     0.062 H 
ATOM     28  H   LIG d   1       5.140   1.316  -2.217  0.00  0.00     0.062 H 
ATOM     29  H   LIG d   1       4.015  -0.352  -0.854  0.00  0.00     0.062 H 
ATOM     30  H   LIG d   1       3.599  -2.640  -1.689  0.00  0.00     0.064 H 
ENDROOT
BRANCH   1  31
ATOM     31  C   LIG d   1       7.344  -0.456  -6.419  0.00  0.00    -0.035 A 
ATOM     32  C   LIG d   1       8.261  -0.977  -5.525  0.00  0.00    -0.054 A 
ATOM     33  C   LIG d   1       9.346  -0.221  -5.123  0.00  0.00    -0.016 A 
ATOM     34  H   LIG d   1       8.131  -1.979  -5.143  0.00  0.00     0.062 H 
ATOM     35  C   LIG d   1       9.512   1.067  -5.608  0.00  0.00     0.162 A 
ATOM     36  H   LIG d   1      10.063  -0.632  -4.428  0.00  0.00     0.066 H 
ATOM     37  C   LIG d   1       8.585   1.594  -6.503  0.00  0.00     0.162 A 
ATOM     38  C   LIG d   1       7.503   0.828  -6.906  0.00  0.00    -0.013 A 
ATOM     39  H   LIG d   1       6.783   1.235  -7.602  0.00  0.00     0.066 H 
BRANCH  35  40
ATOM     40  O   LIG d   1      10.575   1.813  -5.209  0.00  0.00    -0.488 OA
BRANCH  40  41
ATOM     41  C   LIG d   1      10.721   2.038  -3.806  0.00  0.00     0.089 C 
ATOM     42  H   LIG d   1      10.649   1.088  -3.276  0.00  0.00     0.070 H 
ATOM     43  H   LIG d   1      11.693   2.490  -3.609  0.00  0.00     0.070 H 
BRANCH  41  44
ATOM     44  C   LIG d   1       9.615   2.978  -3.322  0.00  0.00    -0.021 C 
ATOM     45  H   LIG d   1       8.645   2.581  -3.620  0.00  0.00     0.029 H 
ATOM     46  H   LIG d   1       9.657   3.058  -2.235  0.00  0.00     0.029 H 
BRANCH  44  47
ATOM     47  C   LIG d   1       9.813   4.362  -3.943  0.00  0.00    -0.062 C 
ATOM     48  H   LIG d   1       8.943   4.983  -3.731  0.00  0.00     0.023 H 
ATOM     49  H   LIG d   1      10.704   4.826  -3.520  0.00  0.00     0.023 H 
ATOM     50  H   LIG d   1       9.934   4.261  -5.022  0.00  0.00     0.023 H 
ENDBRANCH  44  47
ENDBRANCH  41  44
ENDBRANCH  40  41
ENDBRANCH  35  40
BRANCH  37  51
ATOM     51  O   LIG d   1       8.744   2.857  -6.982  0.00  0.00    -0.489 OA
BRANCH  51  52
ATOM     52  C   LIG d   1       8.858   3.002  -8.399  0.00  0.00     0.087 C 
ATOM     53  H   LIG d   1       9.659   2.362  -8.768  0.00  0.00     0.069 H 
ATOM     54  H   LIG d   1       7.917   2.717  -8.871  0.00  0.00     0.069 H 
BRANCH  52  55
ATOM     55  C   LIG d   1       9.176   4.460  -8.738  0.00  0.00    -0.031 C 
ATOM     56  H   LIG d   1       9.079   4.614  -9.812  0.00  0.00     0.026 H 
ATOM     57  H   LIG d   1       8.480   5.115  -8.213  0.00  0.00     0.026 H 
ATOM     58  H   LIG d   1      10.195   4.691  -8.428  0.00  0.00     0.026 H 
ENDBRANCH  52  55
ENDBRANCH  51  52
ENDBRANCH  37  51
ENDBRANCH   1  31
BRANCH  11  59
ATOM     59  C   LIG d   1       6.248  -5.146  -6.314  0.00  0.00    -0.029 C 
ATOM     60  H   LIG d   1       6.207  -5.999  -6.992  0.00  0.00     0.026 H 
ATOM     61  H   LIG d   1       7.224  -4.666  -6.393  0.00  0.00     0.026 H 
ATOM     62  H   LIG d   1       6.093  -5.486  -5.291  0.00  0.00     0.026 H 
ENDBRANCH  11  59
TORSDOF 9
ENDMDL
MODEL 6
REMARK VINA RESULT:      -6.3      1.373      2.973
REMARK  9 active torsions:
REMARK  status: ('A' for Active; 'I' for Inactive)
REMARK    1  A    between atoms: C_1  and  C_2 
REMARK    2  A    between atoms: C_2  and  C_3 
REMARK    3  A    between atoms: C_3  and  O_4 
REMARK    4  A    between atoms: O_4  and  C_5 
REMARK    5  A    between atoms: C_8  and  C_14 
REMARK    6  A    between atoms: C_10  and  O_11 
REMARK    7  A    between atoms: O_11  and  C_12 
REMARK    8  A    between atoms: C_12  and  C_13 
REMARK    9  A    between atoms: C_24  and  C_35 
ROOT
ATOM      1  C   LIG d   1       6.876  -1.222  -6.285  0.00  0.00     0.028 C 
ATOM      2  H   LIG d   1       7.554  -0.452  -5.916  0.00  0.00     0.041 H 
ATOM      3  C   LIG d   1       6.878  -1.213  -7.817  0.00  0.00     0.027 C 
ATOM      4  N   LIG d   1       6.109  -0.045  -8.287  0.00  0.00    -0.280 N 
ATOM      5  C   LIG d   1       6.734   0.919  -8.969  0.00  0.00     0.234 C 
ATOM      6  O   LIG d   1       7.886   0.726  -9.298  0.00  0.00    -0.274 OA
ATOM      7  C   LIG d   1       6.107   2.219  -9.353  0.00  0.00     0.088 C 
ATOM      8  N   LIG d   1       4.747   2.341  -8.853  0.00  0.00    -0.305 N 
ATOM      9  C   LIG d   1       4.097   1.355  -8.233  0.00  0.00     0.243 C 
ATOM     10  O   LIG d   1       2.966   1.569  -7.852  0.00  0.00    -0.273 OA
ATOM     11  C   LIG d   1       4.679   0.005  -7.982  0.00  0.00     0.151 C 
ATOM     12  C   LIG d   1       4.496  -0.392  -6.536  0.00  0.00     0.054 A 
ATOM     13  C   LIG d   1       5.480  -0.942  -5.790  0.00  0.00    -0.008 A 
ATOM     14  C   LIG d   1       4.926  -1.184  -4.474  0.00  0.00     0.004 A 
ATOM     15  C   LIG d   1       5.466  -1.731  -3.305  0.00  0.00    -0.052 A 
ATOM     16  C   LIG d   1       4.635  -1.803  -2.214  0.00  0.00    -0.061 A 
ATOM     17  C   LIG d   1       3.322  -1.365  -2.258  0.00  0.00    -0.060 A 
ATOM     18  C   LIG d   1       2.761  -0.827  -3.402  0.00  0.00    -0.038 A 
ATOM     19  C   LIG d   1       3.580  -0.741  -4.526  0.00  0.00     0.047 A 
ATOM     20  N   LIG d   1       3.354  -0.275  -5.790  0.00  0.00    -0.356 N 
ATOM     21  H   LIG d   1       2.515   0.093  -6.107  0.00  0.00     0.166 HD
ATOM     22  H   LIG d   1       7.903  -1.146  -8.182  0.00  0.00     0.047 H 
ATOM     23  H   LIG d   1       6.417  -2.129  -8.188  0.00  0.00     0.047 H 
ATOM     24  H   LIG d   1       6.706   3.034  -8.949  0.00  0.00     0.056 H 
ATOM     25  H   LIG d   1       6.092   2.298 -10.441  0.00  0.00     0.056 H 
ATOM     26  H   LIG d   1       4.287   3.186  -8.977  0.00  0.00     0.149 HD
ATOM     27  H   LIG d   1       6.489  -2.075  -3.261  0.00  0.00     0.062 H 
ATOM     28  H   LIG d   1       5.019  -2.216  -1.291  0.00  0.00     0.062 H 
ATOM     29  H   LIG d   1       2.715  -1.446  -1.367  0.00  0.00     0.062 H 
ATOM     30  H   LIG d   1       1.736  -0.488  -3.424  0.00  0.00     0.064 H 
ENDROOT
BRANCH   1  31
ATOM     31  C   LIG d   1       7.326  -2.571  -5.787  0.00  0.00    -0.035 A 
ATOM     32  C   LIG d   1       8.387  -2.662  -4.905  0.00  0.00    -0.054 A 
ATOM     33  C   LIG d   1       8.801  -3.898  -4.442  0.00  0.00    -0.016 A 
ATOM     34  H   LIG d   1       8.890  -1.766  -4.573  0.00  0.00     0.062 H 
ATOM     35  C   LIG d   1       8.158  -5.049  -4.870  0.00  0.00     0.162 A 
ATOM     36  H   LIG d   1       9.626  -3.966  -3.749  0.00  0.00     0.066 H 
ATOM     37  C   LIG d   1       7.095  -4.957  -5.764  0.00  0.00     0.162 A 
ATOM     38  C   LIG d   1       6.683  -3.715  -6.219  0.00  0.00    -0.013 A 
ATOM     39  H   LIG d   1       5.857  -3.642  -6.913  0.00  0.00     0.066 H 
BRANCH  35  40
ATOM     40  O   LIG d   1       8.568  -6.264  -4.421  0.00  0.00    -0.488 OA
BRANCH  40  41
ATOM     41  C   LIG d   1       9.853  -6.328  -3.800  0.00  0.00     0.089 C 
ATOM     42  H   LIG d   1      10.505  -6.981  -4.381  0.00  0.00     0.070 H 
ATOM     43  H   LIG d   1      10.286  -5.329  -3.757  0.00  0.00     0.070 H 
BRANCH  41  44
ATOM     44  C   LIG d   1       9.709  -6.883  -2.382  0.00  0.00    -0.021 C 
ATOM     45  H   LIG d   1       8.772  -7.434  -2.301  0.00  0.00     0.029 H 
ATOM     46  H   LIG d   1      10.544  -7.550  -2.166  0.00  0.00     0.029 H 
BRANCH  44  47
ATOM     47  C   LIG d   1       9.708  -5.727  -1.380  0.00  0.00    -0.062 C 
ATOM     48  H   LIG d   1       9.784  -6.124  -0.367  0.00  0.00     0.023 H 
ATOM     49  H   LIG d   1      10.557  -5.073  -1.579  0.00  0.00     0.023 H 
ATOM     50  H   LIG d   1       8.782  -5.160  -1.480  0.00  0.00     0.023 H 
ENDBRANCH  44  47
ENDBRANCH  41  44
ENDBRANCH  40  41
ENDBRANCH  35  40
BRANCH  37  51
ATOM     51  O   LIG d   1       6.463  -6.084  -6.187  0.00  0.00    -0.489 OA
BRANCH  51  52
ATOM     52  C   LIG d   1       5.147  -6.317  -5.680  0.00  0.00     0.087 C 
ATOM     53  H   LIG d   1       5.012  -5.765  -4.749  0.00  0.00     0.069 H 
ATOM     54  H   LIG d   1       4.411  -5.983  -6.411  0.00  0.00     0.069 H 
BRANCH  52  55
ATOM     55  C   LIG d   1       4.960  -7.813  -5.416  0.00  0.00    -0.031 C 
ATOM     56  H   LIG d   1       3.911  -8.076  -5.543  0.00  0.00     0.026 H 
ATOM     57  H   LIG d   1       5.566  -8.384  -6.119  0.00  0.00     0.026 H 
ATOM     58  H   LIG d   1       5.272  -8.044  -4.398  0.00  0.00     0.026 H 
ENDBRANCH  52  55
ENDBRANCH  51  52
ENDBRANCH  37  51
ENDBRANCH   1  31
BRANCH  11  59
ATOM     59  C   LIG d   1       3.952  -1.019  -8.855  0.00  0.00    -0.029 C 
ATOM     60  H   LIG d   1       4.654  -1.789  -9.175  0.00  0.00     0.026 H 
ATOM     61  H   LIG d   1       3.146  -1.478  -8.281  0.00  0.00     0.026 H 
ATOM     62  H   LIG d   1       3.535  -0.520  -9.730  0.00  0.00     0.026 H 
ENDBRANCH  11  59
TORSDOF 9
ENDMDL
MODEL 7
REMARK VINA RESULT:      -6.1      7.027      8.858
REMARK  9 active torsions:
REMARK  status: ('A' for Active; 'I' for Inactive)
REMARK    1  A    between atoms: C_1  and  C_2 
REMARK    2  A    between atoms: C_2  and  C_3 
REMARK    3  A    between atoms: C_3  and  O_4 
REMARK    4  A    between atoms: O_4  and  C_5 
REMARK    5  A    between atoms: C_8  and  C_14 
REMARK    6  A    between atoms: C_10  and  O_11 
REMARK    7  A    between atoms: O_11  and  C_12 
REMARK    8  A    between atoms: C_12  and  C_13 
REMARK    9  A    between atoms: C_24  and  C_35 
ROOT
ATOM      1  C   LIG d   1       9.724   3.089  -5.355  0.00  0.00     0.028 C 
ATOM      2  H   LIG d   1      10.031   3.320  -6.375  0.00  0.00     0.041 H 
ATOM      3  C   LIG d   1       9.178   4.355  -4.685  0.00  0.00     0.027 C 
ATOM      4  N   LIG d   1      10.310   5.239  -4.346  0.00  0.00    -0.280 N 
ATOM      5  C   LIG d   1      10.411   6.431  -4.942  0.00  0.00     0.234 C 
ATOM      6  O   LIG d   1       9.486   6.798  -5.637  0.00  0.00    -0.274 OA
ATOM      7  C   LIG d   1      11.588   7.340  -4.808  0.00  0.00     0.088 C 
ATOM      8  N   LIG d   1      12.641   6.758  -3.993  0.00  0.00    -0.305 N 
ATOM      9  C   LIG d   1      12.516   5.601  -3.341  0.00  0.00     0.243 C 
ATOM     10  O   LIG d   1      13.463   5.206  -2.694  0.00  0.00    -0.273 OA
ATOM     11  C   LIG d   1      11.281   4.766  -3.360  0.00  0.00     0.151 C 
ATOM     12  C   LIG d   1      11.615   3.329  -3.687  0.00  0.00     0.054 A 
ATOM     13  C   LIG d   1      10.912   2.589  -4.573  0.00  0.00    -0.008 A 
ATOM     14  C   LIG d   1      11.528   1.279  -4.611  0.00  0.00     0.004 A 
ATOM     15  C   LIG d   1      11.236   0.116  -5.331  0.00  0.00    -0.052 A 
ATOM     16  C   LIG d   1      12.054  -0.966  -5.118  0.00  0.00    -0.061 A 
ATOM     17  C   LIG d   1      13.118  -0.922  -4.232  0.00  0.00    -0.060 A 
ATOM     18  C   LIG d   1      13.424   0.212  -3.502  0.00  0.00    -0.038 A 
ATOM     19  C   LIG d   1      12.611   1.327  -3.696  0.00  0.00     0.047 A 
ATOM     20  N   LIG d   1      12.628   2.579  -3.152  0.00  0.00    -0.356 N 
ATOM     21  H   LIG d   1      13.269   2.893  -2.494  0.00  0.00     0.166 HD
ATOM     22  H   LIG d   1       8.505   4.870  -5.370  0.00  0.00     0.047 H 
ATOM     23  H   LIG d   1       8.639   4.084  -3.777  0.00  0.00     0.047 H 
ATOM     24  H   LIG d   1      11.985   7.554  -5.799  0.00  0.00     0.056 H 
ATOM     25  H   LIG d   1      11.263   8.275  -4.350  0.00  0.00     0.056 H 
ATOM     26  H   LIG d   1      13.482   7.236  -3.920  0.00  0.00     0.149 HD
ATOM     27  H   LIG d   1      10.409   0.072  -6.024  0.00  0.00     0.062 H 
ATOM     28  H   LIG d   1      11.863  -1.881  -5.661  0.00  0.00     0.062 H 
ATOM     29  H   LIG d   1      13.729  -1.805  -4.106  0.00  0.00     0.062 H 
ATOM     30  H   LIG d   1      14.256   0.234  -2.814  0.00  0.00     0.064 H 
ENDROOT
BRANCH   1  31
ATOM     31  C   LIG d   1       8.654   2.028  -5.378  0.00  0.00    -0.035 A 
ATOM     32  C   LIG d   1       8.331   1.400  -6.566  0.00  0.00    -0.054 A 
ATOM     33  C   LIG d   1       7.353   0.422  -6.591  0.00  0.00    -0.016 A 
ATOM     34  H   LIG d   1       8.847   1.669  -7.475  0.00  0.00     0.062 H 
ATOM     35  C   LIG d   1       6.687   0.079  -5.424  0.00  0.00     0.162 A 
ATOM     36  H   LIG d   1       7.106  -0.070  -7.519  0.00  0.00     0.066 H 
ATOM     37  C   LIG d   1       7.008   0.717  -4.230  0.00  0.00     0.162 A 
ATOM     38  C   LIG d   1       7.993   1.691  -4.211  0.00  0.00    -0.013 A 
ATOM     39  H   LIG d   1       8.244   2.187  -3.285  0.00  0.00     0.066 H 
BRANCH  35  40
ATOM     40  O   LIG d   1       5.721  -0.877  -5.448  0.00  0.00    -0.488 OA
BRANCH  40  41
ATOM     41  C   LIG d   1       4.447  -0.501  -5.975  0.00  0.00     0.089 C 
ATOM     42  H   LIG d   1       4.493   0.526  -6.336  0.00  0.00     0.070 H 
ATOM     43  H   LIG d   1       4.184  -1.164  -6.799  0.00  0.00     0.070 H 
BRANCH  41  44
ATOM     44  C   LIG d   1       3.389  -0.608  -4.876  0.00  0.00    -0.021 C 
ATOM     45  H   LIG d   1       2.798  -1.512  -5.027  0.00  0.00     0.029 H 
ATOM     46  H   LIG d   1       3.878  -0.652  -3.903  0.00  0.00     0.029 H 
BRANCH  44  47
ATOM     47  C   LIG d   1       2.471   0.615  -4.931  0.00  0.00    -0.062 C 
ATOM     48  H   LIG d   1       1.808   0.610  -4.065  0.00  0.00     0.023 H 
ATOM     49  H   LIG d   1       3.074   1.522  -4.922  0.00  0.00     0.023 H 
ATOM     50  H   LIG d   1       1.876   0.582  -5.844  0.00  0.00     0.023 H 
ENDBRANCH  44  47
ENDBRANCH  41  44
ENDBRANCH  40  41
ENDBRANCH  35  40
BRANCH  37  51
ATOM     51  O   LIG d   1       6.357   0.383  -3.084  0.00  0.00    -0.489 OA
BRANCH  51  52
ATOM     52  C   LIG d   1       5.371   1.302  -2.607  0.00  0.00     0.087 C 
ATOM     53  H   LIG d   1       5.864   2.154  -2.138  0.00  0.00     0.069 H 
ATOM     54  H   LIG d   1       4.762   1.648  -3.443  0.00  0.00     0.069 H 
BRANCH  52  55
ATOM     55  C   LIG d   1       4.477   0.603  -1.581  0.00  0.00    -0.031 C 
ATOM     56  H   LIG d   1       4.242   1.295  -0.772  0.00  0.00     0.026 H 
ATOM     57  H   LIG d   1       3.554   0.281  -2.063  0.00  0.00     0.026 H 
ATOM     58  H   LIG d   1       4.997  -0.265  -1.177  0.00  0.00     0.026 H 
ENDBRANCH  52  55
ENDBRANCH  51  52
ENDBRANCH  37  51
ENDBRANCH   1  31
BRANCH  11  59
ATOM     59  C   LIG d   1      10.635   4.803  -1.974  0.00  0.00    -0.029 C 
ATOM     60  H   LIG d   1      11.271   4.276  -1.262  0.00  0.00     0.026 H 
ATOM     61  H   LIG d   1      10.517   5.840  -1.656  0.00  0.00     0.026 H 
ATOM     62  H   LIG d   1       9.658   4.323  -2.015  0.00  0.00     0.026 H 
ENDBRANCH  11  59
TORSDOF 9
ENDMDL
MODEL 8
REMARK VINA RESULT:      -6.0      3.905      7.925
REMARK  9 active torsions:
REMARK  status: ('A' for Active; 'I' for Inactive)
REMARK    1  A    between atoms: C_1  and  C_2 
REMARK    2  A    between atoms: C_2  and  C_3 
REMARK    3  A    between atoms: C_3  and  O_4 
REMARK    4  A    between atoms: O_4  and  C_5 
REMARK    5  A    between atoms: C_8  and  C_14 
REMARK    6  A    between atoms: C_10  and  O_11 
REMARK    7  A    between atoms: O_11  and  C_12 
REMARK    8  A    between atoms: C_12  and  C_13 
REMARK    9  A    between atoms: C_24  and  C_35 
ROOT
ATOM      1  C   LIG d   1       8.745  -3.088  -5.115  0.00  0.00     0.028 C 
ATOM      2  H   LIG d   1       9.131  -2.777  -6.085  0.00  0.00     0.041 H 
ATOM      3  C   LIG d   1       9.913  -3.464  -4.195  0.00  0.00     0.027 C 
ATOM      4  N   LIG d   1      10.445  -4.775  -4.615  0.00  0.00    -0.280 N 
ATOM      5  C   LIG d   1      11.693  -4.854  -5.086  0.00  0.00     0.234 C 
ATOM      6  O   LIG d   1      12.389  -3.863  -5.017  0.00  0.00    -0.274 OA
ATOM      7  C   LIG d   1      12.286  -6.084  -5.692  0.00  0.00     0.088 C 
ATOM      8  N   LIG d   1      11.331  -7.178  -5.759  0.00  0.00    -0.305 N 
ATOM      9  C   LIG d   1      10.108  -7.124  -5.229  0.00  0.00     0.243 C 
ATOM     10  O   LIG d   1       9.391  -8.095  -5.349  0.00  0.00    -0.273 OA
ATOM     11  C   LIG d   1       9.573  -5.942  -4.494  0.00  0.00     0.151 C 
ATOM     12  C   LIG d   1       8.208  -5.562  -5.021  0.00  0.00     0.054 A 
ATOM     13  C   LIG d   1       7.848  -4.288  -5.290  0.00  0.00    -0.008 A 
ATOM     14  C   LIG d   1       6.482  -4.327  -5.768  0.00  0.00     0.004 A 
ATOM     15  C   LIG d   1       5.596  -3.330  -6.188  0.00  0.00    -0.052 A 
ATOM     16  C   LIG d   1       4.349  -3.738  -6.592  0.00  0.00    -0.061 A 
ATOM     17  C   LIG d   1       3.972  -5.071  -6.584  0.00  0.00    -0.060 A 
ATOM     18  C   LIG d   1       4.825  -6.077  -6.167  0.00  0.00    -0.038 A 
ATOM     19  C   LIG d   1       6.099  -5.692  -5.750  0.00  0.00     0.047 A 
ATOM     20  N   LIG d   1       7.165  -6.409  -5.287  0.00  0.00    -0.356 N 
ATOM     21  H   LIG d   1       7.184  -7.372  -5.173  0.00  0.00     0.166 HD
ATOM     22  H   LIG d   1      10.696  -2.710  -4.273  0.00  0.00     0.047 H 
ATOM     23  H   LIG d   1       9.562  -3.524  -3.165  0.00  0.00     0.047 H 
ATOM     24  H   LIG d   1      12.630  -5.852  -6.699  0.00  0.00     0.056 H 
ATOM     25  H   LIG d   1      13.141  -6.397  -5.091  0.00  0.00     0.056 H 
ATOM     26  H   LIG d   1      11.597  -7.991  -6.216  0.00  0.00     0.149 HD
ATOM     27  H   LIG d   1       5.881  -2.288  -6.199  0.00  0.00     0.062 H 
ATOM     28  H   LIG d   1       3.639  -2.996  -6.928  0.00  0.00     0.062 H 
ATOM     29  H   LIG d   1       2.977  -5.334  -6.914  0.00  0.00     0.062 H 
ATOM     30  H   LIG d   1       4.520  -7.113  -6.165  0.00  0.00     0.064 H 
ENDROOT
BRANCH   1  31
ATOM     31  C   LIG d   1       7.961  -1.959  -4.498  0.00  0.00    -0.035 A 
ATOM     32  C   LIG d   1       7.216  -2.181  -3.354  0.00  0.00    -0.054 A 
ATOM     33  C   LIG d   1       6.498  -1.146  -2.782  0.00  0.00    -0.016 A 
ATOM     34  H   LIG d   1       7.198  -3.162  -2.905  0.00  0.00     0.062 H 
ATOM     35  C   LIG d   1       6.517   0.113  -3.361  0.00  0.00     0.162 A 
ATOM     36  H   LIG d   1       5.921  -1.320  -1.886  0.00  0.00     0.066 H 
ATOM     37  C   LIG d   1       7.261   0.334  -4.516  0.00  0.00     0.162 A 
ATOM     38  C   LIG d   1       7.982  -0.706  -5.081  0.00  0.00    -0.013 A 
ATOM     39  H   LIG d   1       8.561  -0.536  -5.977  0.00  0.00     0.066 H 
BRANCH  35  40
ATOM     40  O   LIG d   1       5.807   1.130  -2.803  0.00  0.00    -0.488 OA
BRANCH  40  41
ATOM     41  C   LIG d   1       4.779   0.772  -1.877  0.00  0.00     0.089 C 
ATOM     42  H   LIG d   1       4.919  -0.261  -1.560  0.00  0.00     0.070 H 
ATOM     43  H   LIG d   1       4.828   1.429  -1.009  0.00  0.00     0.070 H 
BRANCH  41  44
ATOM     44  C   LIG d   1       3.413   0.918  -2.550  0.00  0.00    -0.021 C 
ATOM     45  H   LIG d   1       2.724   1.419  -1.870  0.00  0.00     0.029 H 
ATOM     46  H   LIG d   1       3.519   1.509  -3.461  0.00  0.00     0.029 H 
BRANCH  44  47
ATOM     47  C   LIG d   1       2.867  -0.467  -2.901  0.00  0.00    -0.062 C 
ATOM     48  H   LIG d   1       3.670  -1.083  -3.306  0.00  0.00     0.023 H 
ATOM     49  H   LIG d   1       2.465  -0.937  -2.004  0.00  0.00     0.023 H 
ATOM     50  H   LIG d   1       2.075  -0.368  -3.644  0.00  0.00     0.023 H 
ENDBRANCH  44  47
ENDBRANCH  41  44
ENDBRANCH  40  41
ENDBRANCH  35  40
BRANCH  37  51
ATOM     51  O   LIG d   1       7.282   1.568  -5.087  0.00  0.00    -0.489 OA
BRANCH  51  52
ATOM     52  C   LIG d   1       8.559   2.193  -5.232  0.00  0.00     0.087 C 
ATOM     53  H   LIG d   1       9.287   1.458  -5.577  0.00  0.00     0.069 H 
ATOM     54  H   LIG d   1       8.487   3.003  -5.958  0.00  0.00     0.069 H 
BRANCH  52  55
ATOM     55  C   LIG d   1       9.007   2.758  -3.882  0.00  0.00    -0.031 C 
ATOM     56  H   LIG d   1       9.178   3.830  -3.976  0.00  0.00     0.026 H 
ATOM     57  H   LIG d   1       8.231   2.577  -3.138  0.00  0.00     0.026 H 
ATOM     58  H   LIG d   1       9.929   2.268  -3.572  0.00  0.00     0.026 H 
ENDBRANCH  52  55
ENDBRANCH  51  52
ENDBRANCH  37  51
ENDBRANCH   1  31
BRANCH  11  59
ATOM     59  C   LIG d   1       9.430  -6.301  -3.014  0.00  0.00    -0.029 C 
ATOM     60  H   LIG d   1       9.533  -5.400  -2.409  0.00  0.00     0.026 H 
ATOM     61  H   LIG d   1       8.448  -6.744  -2.840  0.00  0.00     0.026 H 
ATOM     62  H   LIG d   1      10.204  -7.016  -2.737  0.00  0.00     0.026 H 
ENDBRANCH  11  59
TORSDOF 9
ENDMDL
MODEL 9
REMARK VINA RESULT:      -5.8      6.770      8.601
REMARK  9 active torsions:
REMARK  status: ('A' for Active; 'I' for Inactive)
REMARK    1  A    between atoms: C_1  and  C_2 
REMARK    2  A    between atoms: C_2  and  C_3 
REMARK    3  A    between atoms: C_3  and  O_4 
REMARK    4  A    between atoms: O_4  and  C_5 
REMARK    5  A    between atoms: C_8  and  C_14 
REMARK    6  A    between atoms: C_10  and  O_11 
REMARK    7  A    between atoms: O_11  and  C_12 
REMARK    8  A    between atoms: C_12  and  C_13 
REMARK    9  A    between atoms: C_24  and  C_35 
ROOT
ATOM      1  C   LIG d   1       9.579   2.767  -5.211  0.00  0.00     0.028 C 
ATOM      2  H   LIG d   1       9.773   2.948  -6.268  0.00  0.00     0.041 H 
ATOM      3  C   LIG d   1       9.171   4.080  -4.533  0.00  0.00     0.027 C 
ATOM      4  N   LIG d   1      10.371   4.921  -4.365  0.00  0.00    -0.280 N 
ATOM      5  C   LIG d   1      10.452   6.085  -5.016  0.00  0.00     0.234 C 
ATOM      6  O   LIG d   1       9.469   6.470  -5.612  0.00  0.00    -0.274 OA
ATOM      7  C   LIG d   1      11.675   6.942  -5.057  0.00  0.00     0.088 C 
ATOM      8  N   LIG d   1      12.791   6.339  -4.347  0.00  0.00    -0.305 N 
ATOM      9  C   LIG d   1      12.695   5.213  -3.639  0.00  0.00     0.243 C 
ATOM     10  O   LIG d   1      13.694   4.797  -3.092  0.00  0.00    -0.273 OA
ATOM     11  C   LIG d   1      11.431   4.437  -3.480  0.00  0.00     0.151 C 
ATOM     12  C   LIG d   1      11.663   2.976  -3.785  0.00  0.00     0.054 A 
ATOM     13  C   LIG d   1      10.829   2.239  -4.554  0.00  0.00    -0.008 A 
ATOM     14  C   LIG d   1      11.379   0.901  -4.610  0.00  0.00     0.004 A 
ATOM     15  C   LIG d   1      10.955  -0.271  -5.243  0.00  0.00    -0.052 A 
ATOM     16  C   LIG d   1      11.746  -1.383  -5.084  0.00  0.00    -0.061 A 
ATOM     17  C   LIG d   1      12.908  -1.358  -4.330  0.00  0.00    -0.060 A 
ATOM     18  C   LIG d   1      13.346  -0.215  -3.687  0.00  0.00    -0.038 A 
ATOM     19  C   LIG d   1      12.564   0.930  -3.830  0.00  0.00     0.047 A 
ATOM     20  N   LIG d   1      12.699   2.198  -3.343  0.00  0.00    -0.356 N 
ATOM     21  H   LIG d   1      13.426   2.504  -2.777  0.00  0.00     0.166 HD
ATOM     22  H   LIG d   1       8.444   4.602  -5.156  0.00  0.00     0.047 H 
ATOM     23  H   LIG d   1       8.732   3.867  -3.559  0.00  0.00     0.047 H 
ATOM     24  H   LIG d   1      11.961   7.102  -6.096  0.00  0.00     0.056 H 
ATOM     25  H   LIG d   1      11.446   7.907  -4.602  0.00  0.00     0.056 H 
ATOM     26  H   LIG d   1      13.654   6.780  -4.392  0.00  0.00     0.149 HD
ATOM     27  H   LIG d   1      10.051  -0.300  -5.833  0.00  0.00     0.062 H 
ATOM     28  H   LIG d   1      11.453  -2.306  -5.563  0.00  0.00     0.062 H 
ATOM     29  H   LIG d   1      13.491  -2.263  -4.241  0.00  0.00     0.062 H 
ATOM     30  H   LIG d   1      14.254  -0.207  -3.103  0.00  0.00     0.064 H 
ENDROOT
BRANCH   1  31
ATOM     31  C   LIG d   1       8.470   1.758  -5.066  0.00  0.00    -0.035 A 
ATOM     32  C   LIG d   1       7.976   1.451  -3.811  0.00  0.00    -0.054 A 
ATOM     33  C   LIG d   1       6.954   0.529  -3.673  0.00  0.00    -0.016 A 
ATOM     34  H   LIG d   1       8.386   1.936  -2.938  0.00  0.00     0.062 H 
ATOM     35  C   LIG d   1       6.431  -0.097  -4.793  0.00  0.00     0.162 A 
ATOM     36  H   LIG d   1       6.567   0.296  -2.693  0.00  0.00     0.066 H 
ATOM     37  C   LIG d   1       6.933   0.207  -6.055  0.00  0.00     0.162 A 
ATOM     38  C   LIG d   1       7.953   1.135  -6.186  0.00  0.00    -0.013 A 
ATOM     39  H   LIG d   1       8.344   1.373  -7.165  0.00  0.00     0.066 H 
BRANCH  35  40
ATOM     40  O   LIG d   1       5.431  -1.008  -4.659  0.00  0.00    -0.488 OA
BRANCH  40  41
ATOM     41  C   LIG d   1       5.587  -1.998  -3.640  0.00  0.00     0.089 C 
ATOM     42  H   LIG d   1       5.868  -2.947  -4.097  0.00  0.00     0.070 H 
ATOM     43  H   LIG d   1       6.366  -1.685  -2.945  0.00  0.00     0.070 H 
BRANCH  41  44
ATOM     44  C   LIG d   1       4.267  -2.166  -2.885  0.00  0.00    -0.021 C 
ATOM     45  H   LIG d   1       3.469  -2.390  -3.593  0.00  0.00     0.029 H 
ATOM     46  H   LIG d   1       4.359  -2.984  -2.170  0.00  0.00     0.029 H 
BRANCH  44  47
ATOM     47  C   LIG d   1       3.938  -0.872  -2.139  0.00  0.00    -0.062 C 
ATOM     48  H   LIG d   1       2.875  -0.849  -1.902  0.00  0.00     0.023 H 
ATOM     49  H   LIG d   1       4.517  -0.827  -1.217  0.00  0.00     0.023 H 
ATOM     50  H   LIG d   1       4.189  -0.017  -2.767  0.00  0.00     0.023 H 
ENDBRANCH  44  47
ENDBRANCH  41  44
ENDBRANCH  40  41
ENDBRANCH  35  40
BRANCH  37  51
ATOM     51  O   LIG d   1       6.422  -0.406  -7.156  0.00  0.00    -0.489 OA
BRANCH  51  52
ATOM     52  C   LIG d   1       5.737   0.422  -8.099  0.00  0.00     0.087 C 
ATOM     53  H   LIG d   1       6.054   1.458  -7.971  0.00  0.00     0.069 H 
ATOM     54  H   LIG d   1       5.972   0.092  -9.111  0.00  0.00     0.069 H 
BRANCH  52  55
ATOM     55  C   LIG d   1       4.228   0.318  -7.867  0.00  0.00    -0.031 C 
ATOM     56  H   LIG d   1       3.909   1.113  -7.194  0.00  0.00     0.026 H 
ATOM     57  H   LIG d   1       3.707   0.416  -8.819  0.00  0.00     0.026 H 
ATOM     58  H   LIG d   1       3.995  -0.649  -7.423  0.00  0.00     0.026 H 
ENDBRANCH  52  55
ENDBRANCH  51  52
ENDBRANCH  37  51
ENDBRANCH   1  31
BRANCH  11  59
ATOM     59  C   LIG d   1      10.957   4.554  -2.031  0.00  0.00    -0.029 C 
ATOM     60  H   LIG d   1       9.936   4.179  -1.951  0.00  0.00     0.026 H 
ATOM     61  H   LIG d   1      11.611   3.965  -1.386  0.00  0.00     0.026 H 
ATOM     62  H   LIG d   1      10.987   5.598  -1.721  0.00  0.00     0.026 H 
ENDBRANCH  11  59
TORSDOF 9
ENDMDL
