MODEL 1
REMARK VINA RESULT:      -6.3      0.000      0.000
REMARK  8 active torsions:
REMARK  status: ('A' for Active; 'I' for Inactive)
REMARK    1  A    between atoms: C_1  and  O_2 
REMARK    2  A    between atoms: O_2  and  C_3 
REMARK    3  A    between atoms: C_7  and  C_9 
REMARK       I    between atoms: N_19  and  C_20 
REMARK       I    between atoms: C_20  and  N_22 
REMARK    4  A    between atoms: N_22  and  C_23 
REMARK    5  A    between atoms: C_23  and  C_24 
REMARK    6  A    between atoms: C_24  and  C_25 
REMARK    7  A    between atoms: C_25  and  O_27 
REMARK    8  A    between atoms: O_27  and  C_28 
ROOT
ATOM      1  C   LIG d   1       4.350  -0.950  -7.733  0.00  0.00     0.097 C 
ATOM      2  H   LIG d   1       5.286  -1.504  -7.646  0.00  0.00     0.062 H 
ATOM      3  C   LIG d   1       4.585   0.339  -8.484  0.00  0.00     0.087 A 
ATOM      4  C   LIG d   1       3.824   0.751  -9.522  0.00  0.00     0.042 A 
ATOM      5  N   LIG d   1       4.330   1.947  -9.934  0.00  0.00    -0.348 N 
ATOM      6  C   LIG d   1       5.386   2.227  -9.136  0.00  0.00     0.094 A 
ATOM      7  N   LIG d   1       5.530   1.257  -8.271  0.00  0.00    -0.238 NA
ATOM      8  H   LIG d   1       3.996   2.494 -10.662  0.00  0.00     0.167 HD
ATOM      9  C   LIG d   1       2.650  -0.008 -10.082  0.00  0.00     0.005 C 
ATOM     10  C   LIG d   1       2.193  -1.046  -9.051  0.00  0.00     0.022 C 
ATOM     11  N   LIG d   1       3.374  -1.738  -8.507  0.00  0.00    -0.273 N 
ATOM     12  C   LIG d   1       3.558  -3.057  -8.712  0.00  0.00     0.303 C 
ATOM     13  O   LIG d   1       2.796  -3.673  -9.433  0.00  0.00    -0.253 OA
ATOM     14  N   LIG d   1       4.587  -3.694  -8.119  0.00  0.00    -0.299 N 
ATOM     15  H   LIG d   1       6.008   3.107  -9.203  0.00  0.00     0.103 H 
ATOM     16  H   LIG d   1       1.835   0.685 -10.291  0.00  0.00     0.034 H 
ATOM     17  H   LIG d   1       2.947  -0.513 -11.002  0.00  0.00     0.034 H 
ATOM     18  H   LIG d   1       1.661  -0.546  -8.242  0.00  0.00     0.047 H 
ATOM     19  H   LIG d   1       1.535  -1.770  -9.529  0.00  0.00     0.047 H 
ATOM     20  H   LIG d   1       5.150  -3.222  -7.486  0.00  0.00     0.150 HD
ENDROOT
BRANCH   1  21
ATOM     21  C   LIG d   1       3.799  -0.653  -6.362  0.00  0.00    -0.018 A 
ATOM     22  C   LIG d   1       2.901   0.383  -6.188  0.00  0.00    -0.056 A 
ATOM     23  C   LIG d   1       2.394   0.658  -4.931  0.00  0.00    -0.058 A 
ATOM     24  H   LIG d   1       2.596   0.979  -7.036  0.00  0.00     0.062 H 
ATOM     25  C   LIG d   1       2.783  -0.103  -3.847  0.00  0.00    -0.020 A 
ATOM     26  H   LIG d   1       1.693   1.467  -4.799  0.00  0.00     0.062 H 
ATOM     27  C   LIG d   1       3.685  -1.144  -4.019  0.00  0.00     0.120 A 
ATOM     28  H   LIG d   1       2.386   0.112  -2.866  0.00  0.00     0.065 H 
ATOM     29  C   LIG d   1       4.197  -1.414  -5.279  0.00  0.00    -0.015 A 
ATOM     30  H   LIG d   1       4.902  -2.221  -5.415  0.00  0.00     0.066 H 
BRANCH  27  31
ATOM     31  O   LIG d   1       4.071  -1.894  -2.953  0.00  0.00    -0.495 OA
BRANCH  31  32
ATOM     32  C   LIG d   1       4.461  -1.190  -1.772  0.00  0.00     0.079 C 
ATOM     33  H   LIG d   1       3.664  -0.507  -1.476  0.00  0.00     0.066 H 
ATOM     34  H   LIG d   1       4.646  -1.903  -0.968  0.00  0.00     0.066 H 
ATOM     35  H   LIG d   1       5.370  -0.623  -1.971  0.00  0.00     0.066 H 
ENDBRANCH  31  32
ENDBRANCH  27  31
ENDBRANCH   1  21
BRANCH  14  36
ATOM     36  C   LIG d   1       4.855  -5.100  -8.429  0.00  0.00     0.023 C 
ATOM     37  H   LIG d   1       3.922  -5.601  -8.686  0.00  0.00     0.047 H 
ATOM     38  H   LIG d   1       5.543  -5.161  -9.273  0.00  0.00     0.047 H 
BRANCH  36  39
ATOM     39  C   LIG d   1       5.480  -5.781  -7.211  0.00  0.00     0.060 C 
ATOM     40  H   LIG d   1       5.927  -6.728  -7.513  0.00  0.00     0.039 H 
ATOM     41  H   LIG d   1       6.248  -5.135  -6.787  0.00  0.00     0.039 H 
BRANCH  39  42
ATOM     42  C   LIG d   1       4.414  -6.037  -6.176  0.00  0.00     0.308 C 
ATOM     43  O   LIG d   1       3.436  -5.329  -6.128  0.00  0.00    -0.251 OA
BRANCH  42  44
ATOM     44  O   LIG d   1       4.551  -7.052  -5.308  0.00  0.00    -0.468 OA
BRANCH  44  45
ATOM     45  C   LIG d   1       4.923  -8.321  -5.847  0.00  0.00     0.082 C 
ATOM     46  H   LIG d   1       4.353  -8.510  -6.757  0.00  0.00     0.066 H 
ATOM     47  H   LIG d   1       5.987  -8.320  -6.079  0.00  0.00     0.066 H 
ATOM     48  H   LIG d   1       4.710  -9.103  -5.118  0.00  0.00     0.066 H 
ENDBRANCH  44  45
ENDBRANCH  42  44
ENDBRANCH  39  42
ENDBRANCH  36  39
ENDBRANCH  14  36
TORSDOF 8
ENDMDL
MODEL 2
REMARK VINA RESULT:      -6.1      2.853      6.181
REMARK  8 active torsions:
REMARK  status: ('A' for Active; 'I' for Inactive)
REMARK    1  A    between atoms: C_1  and  O_2 
REMARK    2  A    between atoms: O_2  and  C_3 
REMARK    3  A    between atoms: C_7  and  C_9 
REMARK       I    between atoms: N_19  and  C_20 
REMARK       I    between atoms: C_20  and  N_22 
REMARK    4  A    between atoms: N_22  and  C_23 
REMARK    5  A    between atoms: C_23  and  C_24 
REMARK    6  A    between atoms: C_24  and  C_25 
REMARK    7  A    between atoms: C_25  and  O_27 
REMARK    8  A    between atoms: O_27  and  C_28 
ROOT
ATOM      1  C   LIG d   1       5.095  -1.221  -6.350  0.00  0.00     0.097 C 
ATOM      2  H   LIG d   1       5.366  -0.657  -7.244  0.00  0.00     0.062 H 
ATOM      3  C   LIG d   1       6.292  -1.341  -5.437  0.00  0.00     0.087 A 
ATOM      4  C   LIG d   1       6.258  -1.059  -4.116  0.00  0.00     0.042 A 
ATOM      5  N   LIG d   1       7.509  -1.287  -3.629  0.00  0.00    -0.348 N 
ATOM      6  C   LIG d   1       8.270  -1.700  -4.668  0.00  0.00     0.094 A 
ATOM      7  N   LIG d   1       7.530  -1.728  -5.747  0.00  0.00    -0.238 NA
ATOM      8  H   LIG d   1       7.800  -1.176  -2.710  0.00  0.00     0.167 HD
ATOM      9  C   LIG d   1       5.040  -0.581  -3.370  0.00  0.00     0.005 C 
ATOM     10  C   LIG d   1       3.793  -0.889  -4.207  0.00  0.00     0.022 C 
ATOM     11  N   LIG d   1       4.044  -0.504  -5.606  0.00  0.00    -0.273 N 
ATOM     12  C   LIG d   1       3.334   0.481  -6.191  0.00  0.00     0.303 C 
ATOM     13  O   LIG d   1       2.538   1.128  -5.537  0.00  0.00    -0.253 OA
ATOM     14  N   LIG d   1       3.503   0.747  -7.501  0.00  0.00    -0.299 N 
ATOM     15  H   LIG d   1       9.316  -1.963  -4.617  0.00  0.00     0.103 H 
ATOM     16  H   LIG d   1       4.974  -1.097  -2.411  0.00  0.00     0.034 H 
ATOM     17  H   LIG d   1       5.112   0.494  -3.204  0.00  0.00     0.034 H 
ATOM     18  H   LIG d   1       3.575  -1.956  -4.158  0.00  0.00     0.047 H 
ATOM     19  H   LIG d   1       2.945  -0.324  -3.821  0.00  0.00     0.047 H 
ATOM     20  H   LIG d   1       4.080   0.184  -8.040  0.00  0.00     0.150 HD
ENDROOT
BRANCH   1  21
ATOM     21  C   LIG d   1       4.604  -2.593  -6.737  0.00  0.00    -0.018 A 
ATOM     22  C   LIG d   1       4.118  -2.818  -8.011  0.00  0.00    -0.056 A 
ATOM     23  C   LIG d   1       3.667  -4.075  -8.369  0.00  0.00    -0.058 A 
ATOM     24  H   LIG d   1       4.089  -2.010  -8.728  0.00  0.00     0.062 H 
ATOM     25  C   LIG d   1       3.702  -5.109  -7.454  0.00  0.00    -0.020 A 
ATOM     26  H   LIG d   1       3.288  -4.248  -9.365  0.00  0.00     0.062 H 
ATOM     27  C   LIG d   1       4.189  -4.885  -6.174  0.00  0.00     0.120 A 
ATOM     28  H   LIG d   1       3.350  -6.091  -7.735  0.00  0.00     0.065 H 
ATOM     29  C   LIG d   1       4.636  -3.622  -5.816  0.00  0.00    -0.015 A 
ATOM     30  H   LIG d   1       5.012  -3.444  -4.819  0.00  0.00     0.066 H 
BRANCH  27  31
ATOM     31  O   LIG d   1       4.224  -5.901  -5.272  0.00  0.00    -0.495 OA
BRANCH  31  32
ATOM     32  C   LIG d   1       4.862  -7.112  -5.683  0.00  0.00     0.079 C 
ATOM     33  H   LIG d   1       5.741  -7.288  -5.062  0.00  0.00     0.066 H 
ATOM     34  H   LIG d   1       4.167  -7.944  -5.573  0.00  0.00     0.066 H 
ATOM     35  H   LIG d   1       5.166  -7.027  -6.726  0.00  0.00     0.066 H 
ENDBRANCH  31  32
ENDBRANCH  27  31
ENDBRANCH   1  21
BRANCH  14  36
ATOM     36  C   LIG d   1       2.816   1.888  -8.111  0.00  0.00     0.023 C 
ATOM     37  H   LIG d   1       1.817   1.586  -8.425  0.00  0.00     0.047 H 
ATOM     38  H   LIG d   1       2.739   2.697  -7.385  0.00  0.00     0.047 H 
BRANCH  36  39
ATOM     39  C   LIG d   1       3.608   2.369  -9.328  0.00  0.00     0.060 C 
ATOM     40  H   LIG d   1       3.055   2.138 -10.237  0.00  0.00     0.039 H 
ATOM     41  H   LIG d   1       3.763   3.445  -9.259  0.00  0.00     0.039 H 
BRANCH  39  42
ATOM     42  C   LIG d   1       4.945   1.672  -9.364  0.00  0.00     0.308 C 
ATOM     43  O   LIG d   1       5.824   2.012  -8.609  0.00  0.00    -0.251 OA
BRANCH  42  44
ATOM     44  O   LIG d   1       5.159   0.674 -10.237  0.00  0.00    -0.468 OA
BRANCH  44  45
ATOM     45  C   LIG d   1       4.264   0.582 -11.347  0.00  0.00     0.082 C 
ATOM     46  H   LIG d   1       4.812   0.247 -12.228  0.00  0.00     0.066 H 
ATOM     47  H   LIG d   1       3.473  -0.132 -11.119  0.00  0.00     0.066 H 
ATOM     48  H   LIG d   1       3.826   1.560 -11.543  0.00  0.00     0.066 H 
ENDBRANCH  44  45
ENDBRANCH  42  44
ENDBRANCH  39  42
ENDBRANCH  36  39
ENDBRANCH  14  36
TORSDOF 8
ENDMDL
MODEL 3
REMARK VINA RESULT:      -6.0      2.810      5.765
REMARK  8 active torsions:
REMARK  status: ('A' for Active; 'I' for Inactive)
REMARK    1  A    between atoms: C_1  and  O_2 
REMARK    2  A    between atoms: O_2  and  C_3 
REMARK    3  A    between atoms: C_7  and  C_9 
REMARK       I    between atoms: N_19  and  C_20 
REMARK       I    between atoms: C_20  and  N_22 
REMARK    4  A    between atoms: N_22  and  C_23 
REMARK    5  A    between atoms: C_23  and  C_24 
REMARK    6  A    between atoms: C_24  and  C_25 
REMARK    7  A    between atoms: C_25  and  O_27 
REMARK    8  A    between atoms: O_27  and  C_28 
ROOT
ATOM      1  C   LIG d   1       5.078  -2.453  -5.853  0.00  0.00     0.097 C 
ATOM      2  H   LIG d   1       4.253  -2.155  -6.501  0.00  0.00     0.062 H 
ATOM      3  C   LIG d   1       5.122  -3.958  -5.736  0.00  0.00     0.087 A 
ATOM      4  C   LIG d   1       6.243  -4.690  -5.910  0.00  0.00     0.042 A 
ATOM      5  N   LIG d   1       5.897  -5.995  -5.723  0.00  0.00    -0.348 N 
ATOM      6  C   LIG d   1       4.575  -6.019  -5.442  0.00  0.00     0.094 A 
ATOM      7  N   LIG d   1       4.120  -4.792  -5.453  0.00  0.00    -0.238 NA
ATOM      8  H   LIG d   1       6.489  -6.762  -5.779  0.00  0.00     0.167 HD
ATOM      9  C   LIG d   1       7.596  -4.124  -6.250  0.00  0.00     0.005 C 
ATOM     10  C   LIG d   1       7.600  -2.624  -5.932  0.00  0.00     0.022 C 
ATOM     11  N   LIG d   1       6.358  -2.020  -6.442  0.00  0.00    -0.273 N 
ATOM     12  C   LIG d   1       6.389  -1.096  -7.423  0.00  0.00     0.303 C 
ATOM     13  O   LIG d   1       7.443  -0.821  -7.965  0.00  0.00    -0.253 OA
ATOM     14  N   LIG d   1       5.254  -0.478  -7.803  0.00  0.00    -0.299 N 
ATOM     15  H   LIG d   1       3.990  -6.904  -5.242  0.00  0.00     0.103 H 
ATOM     16  H   LIG d   1       8.361  -4.626  -5.657  0.00  0.00     0.034 H 
ATOM     17  H   LIG d   1       7.798  -4.273  -7.311  0.00  0.00     0.034 H 
ATOM     18  H   LIG d   1       7.658  -2.481  -4.853  0.00  0.00     0.047 H 
ATOM     19  H   LIG d   1       8.457  -2.152  -6.410  0.00  0.00     0.047 H 
ATOM     20  H   LIG d   1       4.428  -0.640  -7.321  0.00  0.00     0.150 HD
ENDROOT
BRANCH   1  21
ATOM     21  C   LIG d   1       4.907  -1.836  -4.488  0.00  0.00    -0.018 A 
ATOM     22  C   LIG d   1       4.156  -2.485  -3.526  0.00  0.00    -0.056 A 
ATOM     23  C   LIG d   1       3.997  -1.922  -2.273  0.00  0.00    -0.058 A 
ATOM     24  H   LIG d   1       3.693  -3.435  -3.754  0.00  0.00     0.062 H 
ATOM     25  C   LIG d   1       4.588  -0.709  -1.980  0.00  0.00    -0.020 A 
ATOM     26  H   LIG d   1       3.411  -2.432  -1.524  0.00  0.00     0.062 H 
ATOM     27  C   LIG d   1       5.341  -0.055  -2.945  0.00  0.00     0.120 A 
ATOM     28  H   LIG d   1       4.464  -0.270  -1.001  0.00  0.00     0.065 H 
ATOM     29  C   LIG d   1       5.495  -0.619  -4.202  0.00  0.00    -0.015 A 
ATOM     30  H   LIG d   1       6.078  -0.110  -4.956  0.00  0.00     0.066 H 
BRANCH  27  31
ATOM     31  O   LIG d   1       5.924   1.140  -2.659  0.00  0.00    -0.495 OA
BRANCH  31  32
ATOM     32  C   LIG d   1       7.016   1.543  -3.487  0.00  0.00     0.079 C 
ATOM     33  H   LIG d   1       6.663   1.691  -4.507  0.00  0.00     0.066 H 
ATOM     34  H   LIG d   1       7.434   2.477  -3.108  0.00  0.00     0.066 H 
ATOM     35  H   LIG d   1       7.785   0.770  -3.477  0.00  0.00     0.066 H 
ENDBRANCH  31  32
ENDBRANCH  27  31
ENDBRANCH   1  21
BRANCH  14  36
ATOM     36  C   LIG d   1       5.267   0.442  -8.942  0.00  0.00     0.023 C 
ATOM     37  H   LIG d   1       6.059   1.179  -8.807  0.00  0.00     0.047 H 
ATOM     38  H   LIG d   1       5.448  -0.119  -9.860  0.00  0.00     0.047 H 
BRANCH  36  39
ATOM     39  C   LIG d   1       3.917   1.155  -9.038  0.00  0.00     0.060 C 
ATOM     40  H   LIG d   1       4.065   2.229  -8.938  0.00  0.00     0.039 H 
ATOM     41  H   LIG d   1       3.460   0.939 -10.003  0.00  0.00     0.039 H 
BRANCH  39  42
ATOM     42  C   LIG d   1       3.013   0.668  -7.934  0.00  0.00     0.308 C 
ATOM     43  O   LIG d   1       3.023   1.217  -6.858  0.00  0.00    -0.251 OA
BRANCH  42  44
ATOM     44  O   LIG d   1       2.197  -0.377  -8.147  0.00  0.00    -0.468 OA
BRANCH  44  45
ATOM     45  C   LIG d   1       1.787  -0.616  -9.494  0.00  0.00     0.082 C 
ATOM     46  H   LIG d   1       1.771   0.327 -10.041  0.00  0.00     0.066 H 
ATOM     47  H   LIG d   1       2.486  -1.301  -9.971  0.00  0.00     0.066 H 
ATOM     48  H   LIG d   1       0.789  -1.053  -9.499  0.00  0.00     0.066 H 
ENDBRANCH  44  45
ENDBRANCH  42  44
ENDBRANCH  39  42
ENDBRANCH  36  39
ENDBRANCH  14  36
TORSDOF 8
ENDMDL
MODEL 4
REMARK VINA RESULT:      -5.9      3.345      5.467
REMARK  8 active torsions:
REMARK  status: ('A' for Active; 'I' for Inactive)
REMARK    1  A    between atoms: C_1  and  O_2 
REMARK    2  A    between atoms: O_2  and  C_3 
REMARK    3  A    between atoms: C_7  and  C_9 
REMARK       I    between atoms: N_19  and  C_20 
REMARK       I    between atoms: C_20  and  N_22 
REMARK    4  A    between atoms: N_22  and  C_23 
REMARK    5  A    between atoms: C_23  and  C_24 
REMARK    6  A    between atoms: C_24  and  C_25 
REMARK    7  A    between atoms: C_25  and  O_27 
REMARK    8  A    between atoms: O_27  and  C_28 
ROOT
ATOM      1  C   LIG d   1       3.931  -1.459  -7.315  0.00  0.00     0.097 C 
ATOM      2  H   LIG d   1       3.686  -2.178  -6.532  0.00  0.00     0.062 H 
ATOM      3  C   LIG d   1       3.239  -1.844  -8.601  0.00  0.00     0.087 A 
ATOM      4  C   LIG d   1       2.519  -0.982  -9.351  0.00  0.00     0.042 A 
ATOM      5  N   LIG d   1       2.057  -1.682 -10.425  0.00  0.00    -0.348 N 
ATOM      6  C   LIG d   1       2.508  -2.950 -10.296  0.00  0.00     0.094 A 
ATOM      7  N   LIG d   1       3.215  -3.036  -9.199  0.00  0.00    -0.238 NA
ATOM      8  H   LIG d   1       1.509  -1.335 -11.147  0.00  0.00     0.167 HD
ATOM      9  C   LIG d   1       2.295   0.469  -9.018  0.00  0.00     0.005 C 
ATOM     10  C   LIG d   1       3.340   0.907  -7.986  0.00  0.00     0.022 C 
ATOM     11  N   LIG d   1       3.443  -0.121  -6.937  0.00  0.00    -0.273 N 
ATOM     12  C   LIG d   1       3.097   0.153  -5.663  0.00  0.00     0.303 C 
ATOM     13  O   LIG d   1       2.604   1.230  -5.385  0.00  0.00    -0.253 OA
ATOM     14  N   LIG d   1       3.296  -0.766  -4.698  0.00  0.00    -0.299 N 
ATOM     15  H   LIG d   1       2.316  -3.760 -10.985  0.00  0.00     0.103 H 
ATOM     16  H   LIG d   1       2.398   1.071  -9.922  0.00  0.00     0.034 H 
ATOM     17  H   LIG d   1       1.295   0.599  -8.604  0.00  0.00     0.034 H 
ATOM     18  H   LIG d   1       4.308   1.025  -8.474  0.00  0.00     0.047 H 
ATOM     19  H   LIG d   1       3.038   1.854  -7.539  0.00  0.00     0.047 H 
ATOM     20  H   LIG d   1       3.757  -1.594  -4.904  0.00  0.00     0.150 HD
ENDROOT
BRANCH   1  21
ATOM     21  C   LIG d   1       5.423  -1.419  -7.527  0.00  0.00    -0.018 A 
ATOM     22  C   LIG d   1       5.936  -1.276  -8.802  0.00  0.00    -0.056 A 
ATOM     23  C   LIG d   1       7.305  -1.239  -9.000  0.00  0.00    -0.058 A 
ATOM     24  H   LIG d   1       5.267  -1.193  -9.646  0.00  0.00     0.062 H 
ATOM     25  C   LIG d   1       8.162  -1.345  -7.922  0.00  0.00    -0.020 A 
ATOM     26  H   LIG d   1       7.702  -1.127  -9.997  0.00  0.00     0.062 H 
ATOM     27  C   LIG d   1       7.649  -1.490  -6.641  0.00  0.00     0.120 A 
ATOM     28  H   LIG d   1       9.230  -1.316  -8.077  0.00  0.00     0.065 H 
ATOM     29  C   LIG d   1       6.276  -1.532  -6.446  0.00  0.00    -0.015 A 
ATOM     30  H   LIG d   1       5.875  -1.648  -5.450  0.00  0.00     0.066 H 
BRANCH  27  31
ATOM     31  O   LIG d   1       8.491  -1.595  -5.579  0.00  0.00    -0.495 OA
BRANCH  31  32
ATOM     32  C   LIG d   1       8.119  -2.508  -4.544  0.00  0.00     0.079 C 
ATOM     33  H   LIG d   1       7.160  -2.206  -4.122  0.00  0.00     0.066 H 
ATOM     34  H   LIG d   1       8.034  -3.512  -4.958  0.00  0.00     0.066 H 
ATOM     35  H   LIG d   1       8.878  -2.500  -3.762  0.00  0.00     0.066 H 
ENDBRANCH  31  32
ENDBRANCH  27  31
ENDBRANCH   1  21
BRANCH  14  36
ATOM     36  C   LIG d   1       2.819  -0.514  -3.337  0.00  0.00     0.023 C 
ATOM     37  H   LIG d   1       2.400   0.491  -3.277  0.00  0.00     0.047 H 
ATOM     38  H   LIG d   1       2.049  -1.243  -3.081  0.00  0.00     0.047 H 
BRANCH  36  39
ATOM     39  C   LIG d   1       3.985  -0.639  -2.355  0.00  0.00     0.060 C 
ATOM     40  H   LIG d   1       3.605  -0.903  -1.369  0.00  0.00     0.039 H 
ATOM     41  H   LIG d   1       4.670  -1.413  -2.701  0.00  0.00     0.039 H 
BRANCH  39  42
ATOM     42  C   LIG d   1       4.717   0.677  -2.274  0.00  0.00     0.308 C 
ATOM     43  O   LIG d   1       4.771   1.275  -1.226  0.00  0.00    -0.251 OA
BRANCH  42  44
ATOM     44  O   LIG d   1       5.307   1.185  -3.368  0.00  0.00    -0.468 OA
BRANCH  44  45
ATOM     45  C   LIG d   1       6.685   0.865  -3.569  0.00  0.00     0.082 C 
ATOM     46  H   LIG d   1       6.856   0.644  -4.622  0.00  0.00     0.066 H 
ATOM     47  H   LIG d   1       7.303   1.711  -3.270  0.00  0.00     0.066 H 
ATOM     48  H   LIG d   1       6.946  -0.007  -2.969  0.00  0.00     0.066 H 
ENDBRANCH  44  45
ENDBRANCH  42  44
ENDBRANCH  39  42
ENDBRANCH  36  39
ENDBRANCH  14  36
TORSDOF 8
ENDMDL
MODEL 5
REMARK VINA RESULT:      -5.7      1.429      1.961
REMARK  8 active torsions:
REMARK  status: ('A' for Active; 'I' for Inactive)
REMARK    1  A    between atoms: C_1  and  O_2 
REMARK    2  A    between atoms: O_2  and  C_3 
REMARK    3  A    between atoms: C_7  and  C_9 
REMARK       I    between atoms: N_19  and  C_20 
REMARK       I    between atoms: C_20  and  N_22 
REMARK    4  A    between atoms: N_22  and  C_23 
REMARK    5  A    between atoms: C_23  and  C_24 
REMARK    6  A    between atoms: C_24  and  C_25 
REMARK    7  A    between atoms: C_25  and  O_27 
REMARK    8  A    between atoms: O_27  and  C_28 
ROOT
ATOM      1  C   LIG d   1       4.932  -1.532  -7.299  0.00  0.00     0.097 C 
ATOM      2  H   LIG d   1       5.560  -2.386  -7.557  0.00  0.00     0.062 H 
ATOM      3  C   LIG d   1       5.658  -0.246  -7.616  0.00  0.00     0.087 A 
ATOM      4  C   LIG d   1       5.110   0.770  -8.317  0.00  0.00     0.042 A 
ATOM      5  N   LIG d   1       6.053   1.751  -8.396  0.00  0.00    -0.348 N 
ATOM      6  C   LIG d   1       7.148   1.302  -7.742  0.00  0.00     0.094 A 
ATOM      7  N   LIG d   1       6.901   0.104  -7.279  0.00  0.00    -0.238 NA
ATOM      8  H   LIG d   1       5.956   2.609  -8.837  0.00  0.00     0.167 HD
ATOM      9  C   LIG d   1       3.716   0.769  -8.886  0.00  0.00     0.005 C 
ATOM     10  C   LIG d   1       2.897  -0.322  -8.188  0.00  0.00     0.022 C 
ATOM     11  N   LIG d   1       3.701  -1.553  -8.109  0.00  0.00    -0.273 N 
ATOM     12  C   LIG d   1       3.324  -2.670  -8.762  0.00  0.00     0.303 C 
ATOM     13  O   LIG d   1       2.359  -2.644  -9.503  0.00  0.00    -0.253 OA
ATOM     14  N   LIG d   1       4.013  -3.815  -8.593  0.00  0.00    -0.299 N 
ATOM     15  H   LIG d   1       8.075   1.843  -7.623  0.00  0.00     0.103 H 
ATOM     16  H   LIG d   1       3.252   1.741  -8.715  0.00  0.00     0.034 H 
ATOM     17  H   LIG d   1       3.759   0.566  -9.956  0.00  0.00     0.034 H 
ATOM     18  H   LIG d   1       2.635   0.005  -7.182  0.00  0.00     0.047 H 
ATOM     19  H   LIG d   1       1.989  -0.517  -8.758  0.00  0.00     0.047 H 
ATOM     20  H   LIG d   1       4.734  -3.857  -7.946  0.00  0.00     0.150 HD
ENDROOT
BRANCH   1  21
ATOM     21  C   LIG d   1       4.582  -1.577  -5.833  0.00  0.00    -0.018 A 
ATOM     22  C   LIG d   1       4.864  -2.707  -5.090  0.00  0.00    -0.056 A 
ATOM     23  C   LIG d   1       4.545  -2.752  -3.745  0.00  0.00    -0.058 A 
ATOM     24  H   LIG d   1       5.335  -3.559  -5.561  0.00  0.00     0.062 H 
ATOM     25  C   LIG d   1       3.943  -1.665  -3.142  0.00  0.00    -0.020 A 
ATOM     26  H   LIG d   1       4.766  -3.636  -3.168  0.00  0.00     0.062 H 
ATOM     27  C   LIG d   1       3.658  -0.529  -3.886  0.00  0.00     0.120 A 
ATOM     28  H   LIG d   1       3.694  -1.700  -2.091  0.00  0.00     0.065 H 
ATOM     29  C   LIG d   1       3.975  -0.489  -5.235  0.00  0.00    -0.015 A 
ATOM     30  H   LIG d   1       3.751   0.393  -5.817  0.00  0.00     0.066 H 
BRANCH  27  31
ATOM     31  O   LIG d   1       3.066   0.541  -3.294  0.00  0.00    -0.495 OA
BRANCH  31  32
ATOM     32  C   LIG d   1       3.821   1.231  -2.295  0.00  0.00     0.079 C 
ATOM     33  H   LIG d   1       3.368   1.062  -1.318  0.00  0.00     0.066 H 
ATOM     34  H   LIG d   1       4.845   0.857  -2.291  0.00  0.00     0.066 H 
ATOM     35  H   LIG d   1       3.824   2.299  -2.514  0.00  0.00     0.066 H 
ENDBRANCH  31  32
ENDBRANCH  27  31
ENDBRANCH   1  21
BRANCH  14  36
ATOM     36  C   LIG d   1       3.674  -4.999  -9.386  0.00  0.00     0.023 C 
ATOM     37  H   LIG d   1       2.666  -4.892  -9.787  0.00  0.00     0.047 H 
ATOM     38  H   LIG d   1       4.382  -5.100 -10.209  0.00  0.00     0.047 H 
BRANCH  36  39
ATOM     39  C   LIG d   1       3.741  -6.243  -8.500  0.00  0.00     0.060 C 
ATOM     40  H   LIG d   1       2.749  -6.686  -8.418  0.00  0.00     0.039 H 
ATOM     41  H   LIG d   1       4.427  -6.967  -8.939  0.00  0.00     0.039 H 
BRANCH  39  42
ATOM     42  C   LIG d   1       4.232  -5.857  -7.128  0.00  0.00     0.308 C 
ATOM     43  O   LIG d   1       3.442  -5.551  -6.267  0.00  0.00    -0.251 OA
BRANCH  42  44
ATOM     44  O   LIG d   1       5.548  -5.851  -6.863  0.00  0.00    -0.468 OA
BRANCH  44  45
ATOM     45  C   LIG d   1       5.963  -6.438  -5.628  0.00  0.00     0.082 C 
ATOM     46  H   LIG d   1       5.094  -6.587  -4.987  0.00  0.00     0.066 H 
ATOM     47  H   LIG d   1       6.440  -7.397  -5.823  0.00  0.00     0.066 H 
ATOM     48  H   LIG d   1       6.671  -5.774  -5.130  0.00  0.00     0.066 H 
ENDBRANCH  44  45
ENDBRANCH  42  44
ENDBRANCH  39  42
ENDBRANCH  36  39
ENDBRANCH  14  36
TORSDOF 8
ENDMDL
MODEL 6
REMARK VINA RESULT:      -5.7      2.629      4.464
REMARK  8 active torsions:
REMARK  status: ('A' for Active; 'I' for Inactive)
REMARK    1  A    between atoms: C_1  and  O_2 
REMARK    2  A    between atoms: O_2  and  C_3 
REMARK    3  A    between atoms: C_7  and  C_9 
REMARK       I    between atoms: N_19  and  C_20 
REMARK       I    between atoms: C_20  and  N_22 
REMARK    4  A    between atoms: N_22  and  C_23 
REMARK    5  A    between atoms: C_23  and  C_24 
REMARK    6  A    between atoms: C_24  and  C_25 
REMARK    7  A    between atoms: C_25  and  O_27 
REMARK    8  A    between atoms: O_27  and  C_28 
ROOT
ATOM      1  C   LIG d   1       4.600  -0.838  -7.193  0.00  0.00     0.097 C 
ATOM      2  H   LIG d   1       4.718  -1.628  -6.450  0.00  0.00     0.062 H 
ATOM      3  C   LIG d   1       4.286  -1.444  -8.540  0.00  0.00     0.087 A 
ATOM      4  C   LIG d   1       3.269  -1.034  -9.328  0.00  0.00     0.042 A 
ATOM      5  N   LIG d   1       3.303  -1.803 -10.452  0.00  0.00    -0.348 N 
ATOM      6  C   LIG d   1       4.338  -2.661 -10.315  0.00  0.00     0.094 A 
ATOM      7  N   LIG d   1       4.920  -2.438  -9.165  0.00  0.00    -0.238 NA
ATOM      8  H   LIG d   1       2.698  -1.744 -11.209  0.00  0.00     0.167 HD
ATOM      9  C   LIG d   1       2.304   0.070  -8.982  0.00  0.00     0.005 C 
ATOM     10  C   LIG d   1       2.907   0.920  -7.857  0.00  0.00     0.022 C 
ATOM     11  N   LIG d   1       3.466   0.029  -6.827  0.00  0.00    -0.273 N 
ATOM     12  C   LIG d   1       2.954   0.005  -5.580  0.00  0.00     0.303 C 
ATOM     13  O   LIG d   1       1.958   0.654  -5.320  0.00  0.00    -0.253 OA
ATOM     14  N   LIG d   1       3.544  -0.737  -4.623  0.00  0.00    -0.299 N 
ATOM     15  H   LIG d   1       4.635  -3.409 -11.036  0.00  0.00     0.103 H 
ATOM     16  H   LIG d   1       2.133   0.693  -9.861  0.00  0.00     0.034 H 
ATOM     17  H   LIG d   1       1.360  -0.361  -8.649  0.00  0.00     0.034 H 
ATOM     18  H   LIG d   1       3.699   1.550  -8.261  0.00  0.00     0.047 H 
ATOM     19  H   LIG d   1       2.131   1.544  -7.416  0.00  0.00     0.047 H 
ATOM     20  H   LIG d   1       4.379  -1.194  -4.809  0.00  0.00     0.150 HD
ENDROOT
BRANCH   1  21
ATOM     21  C   LIG d   1       5.864  -0.021  -7.280  0.00  0.00    -0.018 A 
ATOM     22  C   LIG d   1       6.218   0.579  -8.473  0.00  0.00    -0.056 A 
ATOM     23  C   LIG d   1       7.377   1.329  -8.556  0.00  0.00    -0.058 A 
ATOM     24  H   LIG d   1       5.588   0.461  -9.343  0.00  0.00     0.062 H 
ATOM     25  C   LIG d   1       8.183   1.481  -7.445  0.00  0.00    -0.020 A 
ATOM     26  H   LIG d   1       7.650   1.797  -9.489  0.00  0.00     0.062 H 
ATOM     27  C   LIG d   1       7.830   0.878  -6.245  0.00  0.00     0.120 A 
ATOM     28  H   LIG d   1       9.088   2.067  -7.509  0.00  0.00     0.065 H 
ATOM     29  C   LIG d   1       6.670   0.122  -6.167  0.00  0.00    -0.015 A 
ATOM     30  H   LIG d   1       6.395  -0.350  -5.235  0.00  0.00     0.066 H 
BRANCH  27  31
ATOM     31  O   LIG d   1       8.622   1.026  -5.151  0.00  0.00    -0.495 OA
BRANCH  31  32
ATOM     32  C   LIG d   1       7.967   1.269  -3.904  0.00  0.00     0.079 C 
ATOM     33  H   LIG d   1       7.181   2.011  -4.046  0.00  0.00     0.066 H 
ATOM     34  H   LIG d   1       7.529   0.341  -3.536  0.00  0.00     0.066 H 
ATOM     35  H   LIG d   1       8.691   1.643  -3.180  0.00  0.00     0.066 H 
ENDBRANCH  31  32
ENDBRANCH  27  31
ENDBRANCH   1  21
BRANCH  14  36
ATOM     36  C   LIG d   1       2.925  -0.853  -3.300  0.00  0.00     0.023 C 
ATOM     37  H   LIG d   1       2.957   0.113  -2.797  0.00  0.00     0.047 H 
ATOM     38  H   LIG d   1       1.888  -1.170  -3.411  0.00  0.00     0.047 H 
BRANCH  36  39
ATOM     39  C   LIG d   1       3.689  -1.886  -2.469  0.00  0.00     0.060 C 
ATOM     40  H   LIG d   1       4.182  -1.389  -1.635  0.00  0.00     0.039 H 
ATOM     41  H   LIG d   1       2.992  -2.632  -2.088  0.00  0.00     0.039 H 
BRANCH  39  42
ATOM     42  C   LIG d   1       4.723  -2.561  -3.334  0.00  0.00     0.308 C 
ATOM     43  O   LIG d   1       5.860  -2.154  -3.345  0.00  0.00    -0.251 OA
BRANCH  42  44
ATOM     44  O   LIG d   1       4.380  -3.615  -4.092  0.00  0.00    -0.468 OA
BRANCH  44  45
ATOM     45  C   LIG d   1       5.237  -3.930  -5.190  0.00  0.00     0.082 C 
ATOM     46  H   LIG d   1       6.263  -3.658  -4.940  0.00  0.00     0.066 H 
ATOM     47  H   LIG d   1       5.185  -4.998  -5.398  0.00  0.00     0.066 H 
ATOM     48  H   LIG d   1       4.919  -3.372  -6.071  0.00  0.00     0.066 H 
ENDBRANCH  44  45
ENDBRANCH  42  44
ENDBRANCH  39  42
ENDBRANCH  36  39
ENDBRANCH  14  36
TORSDOF 8
ENDMDL
MODEL 7
REMARK VINA RESULT:      -5.7      3.636      5.810
REMARK  8 active torsions:
REMARK  status: ('A' for Active; 'I' for Inactive)
REMARK    1  A    between atoms: C_1  and  O_2 
REMARK    2  A    between atoms: O_2  and  C_3 
REMARK    3  A    between atoms: C_7  and  C_9 
REMARK       I    between atoms: N_19  and  C_20 
REMARK       I    between atoms: C_20  and  N_22 
REMARK    4  A    between atoms: N_22  and  C_23 
REMARK    5  A    between atoms: C_23  and  C_24 
REMARK    6  A    between atoms: C_24  and  C_25 
REMARK    7  A    between atoms: C_25  and  O_27 
REMARK    8  A    between atoms: O_27  and  C_28 
ROOT
ATOM      1  C   LIG d   1       6.827  -1.580  -5.659  0.00  0.00     0.097 C 
ATOM      2  H   LIG d   1       6.469  -2.183  -6.494  0.00  0.00     0.062 H 
ATOM      3  C   LIG d   1       8.188  -2.067  -5.220  0.00  0.00     0.087 A 
ATOM      4  C   LIG d   1       9.249  -1.253  -5.029  0.00  0.00     0.042 A 
ATOM      5  N   LIG d   1      10.288  -2.042  -4.636  0.00  0.00    -0.348 N 
ATOM      6  C   LIG d   1       9.829  -3.314  -4.601  0.00  0.00     0.094 A 
ATOM      7  N   LIG d   1       8.569  -3.317  -4.953  0.00  0.00    -0.238 NA
ATOM      8  H   LIG d   1      11.186  -1.747  -4.420  0.00  0.00     0.167 HD
ATOM      9  C   LIG d   1       9.236   0.239  -5.231  0.00  0.00     0.005 C 
ATOM     10  C   LIG d   1       7.782   0.725  -5.242  0.00  0.00     0.022 C 
ATOM     11  N   LIG d   1       6.978  -0.177  -6.084  0.00  0.00    -0.273 N 
ATOM     12  C   LIG d   1       6.398   0.268  -7.216  0.00  0.00     0.303 C 
ATOM     13  O   LIG d   1       6.611   1.401  -7.604  0.00  0.00    -0.253 OA
ATOM     14  N   LIG d   1       5.581  -0.542  -7.917  0.00  0.00    -0.299 N 
ATOM     15  H   LIG d   1      10.408  -4.184  -4.327  0.00  0.00     0.103 H 
ATOM     16  H   LIG d   1       9.777   0.722  -4.416  0.00  0.00     0.034 H 
ATOM     17  H   LIG d   1       9.710   0.484  -6.181  0.00  0.00     0.034 H 
ATOM     18  H   LIG d   1       7.388   0.719  -4.225  0.00  0.00     0.047 H 
ATOM     19  H   LIG d   1       7.738   1.736  -5.646  0.00  0.00     0.047 H 
ATOM     20  H   LIG d   1       5.350  -1.418  -7.570  0.00  0.00     0.150 HD
ENDROOT
BRANCH   1  21
ATOM     21  C   LIG d   1       5.856  -1.666  -4.510  0.00  0.00    -0.018 A 
ATOM     22  C   LIG d   1       5.086  -2.801  -4.340  0.00  0.00    -0.056 A 
ATOM     23  C   LIG d   1       4.193  -2.883  -3.287  0.00  0.00    -0.058 A 
ATOM     24  H   LIG d   1       5.181  -3.625  -5.032  0.00  0.00     0.062 H 
ATOM     25  C   LIG d   1       4.070  -1.830  -2.402  0.00  0.00    -0.020 A 
ATOM     26  H   LIG d   1       3.594  -3.771  -3.156  0.00  0.00     0.062 H 
ATOM     27  C   LIG d   1       4.841  -0.689  -2.571  0.00  0.00     0.120 A 
ATOM     28  H   LIG d   1       3.373  -1.895  -1.579  0.00  0.00     0.065 H 
ATOM     29  C   LIG d   1       5.731  -0.607  -3.631  0.00  0.00    -0.015 A 
ATOM     30  H   LIG d   1       6.330   0.281  -3.767  0.00  0.00     0.066 H 
BRANCH  27  31
ATOM     31  O   LIG d   1       4.721   0.349  -1.701  0.00  0.00    -0.495 OA
BRANCH  31  32
ATOM     32  C   LIG d   1       3.900   1.446  -2.110  0.00  0.00     0.079 C 
ATOM     33  H   LIG d   1       4.359   2.381  -1.789  0.00  0.00     0.066 H 
ATOM     34  H   LIG d   1       3.803   1.442  -3.195  0.00  0.00     0.066 H 
ATOM     35  H   LIG d   1       2.914   1.351  -1.655  0.00  0.00     0.066 H 
ENDBRANCH  31  32
ENDBRANCH  27  31
ENDBRANCH   1  21
BRANCH  14  36
ATOM     36  C   LIG d   1       5.039  -0.100  -9.204  0.00  0.00     0.023 C 
ATOM     37  H   LIG d   1       5.386   0.911  -9.418  0.00  0.00     0.047 H 
ATOM     38  H   LIG d   1       5.378  -0.773  -9.992  0.00  0.00     0.047 H 
BRANCH  36  39
ATOM     39  C   LIG d   1       3.510  -0.112  -9.146  0.00  0.00     0.060 C 
ATOM     40  H   LIG d   1       3.109   0.388 -10.027  0.00  0.00     0.039 H 
ATOM     41  H   LIG d   1       3.156  -1.142  -9.119  0.00  0.00     0.039 H 
BRANCH  39  42
ATOM     42  C   LIG d   1       3.050   0.610  -7.905  0.00  0.00     0.308 C 
ATOM     43  O   LIG d   1       3.194   1.806  -7.813  0.00  0.00    -0.251 OA
BRANCH  42  44
ATOM     44  O   LIG d   1       2.479  -0.076  -6.902  0.00  0.00    -0.468 OA
BRANCH  44  45
ATOM     45  C   LIG d   1       2.805   0.329  -5.572  0.00  0.00     0.082 C 
ATOM     46  H   LIG d   1       3.871   0.548  -5.510  0.00  0.00     0.066 H 
ATOM     47  H   LIG d   1       2.236   1.221  -5.313  0.00  0.00     0.066 H 
ATOM     48  H   LIG d   1       2.559  -0.474  -4.877  0.00  0.00     0.066 H 
ENDBRANCH  44  45
ENDBRANCH  42  44
ENDBRANCH  39  42
ENDBRANCH  36  39
ENDBRANCH  14  36
TORSDOF 8
ENDMDL
MODEL 8
REMARK VINA RESULT:      -5.7      2.790      5.586
REMARK  8 active torsions:
REMARK  status: ('A' for Active; 'I' for Inactive)
REMARK    1  A    between atoms: C_1  and  O_2 
REMARK    2  A    between atoms: O_2  and  C_3 
REMARK    3  A    between atoms: C_7  and  C_9 
REMARK       I    between atoms: N_19  and  C_20 
REMARK       I    between atoms: C_20  and  N_22 
REMARK    4  A    between atoms: N_22  and  C_23 
REMARK    5  A    between atoms: C_23  and  C_24 
REMARK    6  A    between atoms: C_24  and  C_25 
REMARK    7  A    between atoms: C_25  and  O_27 
REMARK    8  A    between atoms: O_27  and  C_28 
ROOT
ATOM      1  C   LIG d   1       5.774  -0.366  -6.572  0.00  0.00     0.097 C 
ATOM      2  H   LIG d   1       5.472   0.012  -5.594  0.00  0.00     0.062 H 
ATOM      3  C   LIG d   1       7.058   0.301  -7.005  0.00  0.00     0.087 A 
ATOM      4  C   LIG d   1       8.134  -0.373  -7.465  0.00  0.00     0.042 A 
ATOM      5  N   LIG d   1       9.087   0.555  -7.759  0.00  0.00    -0.348 N 
ATOM      6  C   LIG d   1       8.565   1.768  -7.466  0.00  0.00     0.094 A 
ATOM      7  N   LIG d   1       7.348   1.603  -7.015  0.00  0.00    -0.238 NA
ATOM      8  H   LIG d   1       9.974   0.379  -8.112  0.00  0.00     0.167 HD
ATOM      9  C   LIG d   1       8.216  -1.870  -7.606  0.00  0.00     0.005 C 
ATOM     10  C   LIG d   1       6.796  -2.448  -7.579  0.00  0.00     0.022 C 
ATOM     11  N   LIG d   1       6.037  -1.814  -6.489  0.00  0.00    -0.273 N 
ATOM     12  C   LIG d   1       5.596  -2.537  -5.441  0.00  0.00     0.303 C 
ATOM     13  O   LIG d   1       5.903  -3.709  -5.339  0.00  0.00    -0.253 OA
ATOM     14  N   LIG d   1       4.813  -1.962  -4.507  0.00  0.00    -0.299 N 
ATOM     15  H   LIG d   1       9.069   2.715  -7.585  0.00  0.00     0.103 H 
ATOM     16  H   LIG d   1       8.696  -2.122  -8.552  0.00  0.00     0.034 H 
ATOM     17  H   LIG d   1       8.795  -2.283  -6.780  0.00  0.00     0.034 H 
ATOM     18  H   LIG d   1       6.303  -2.247  -8.530  0.00  0.00     0.047 H 
ATOM     19  H   LIG d   1       6.844  -3.524  -7.412  0.00  0.00     0.047 H 
ATOM     20  H   LIG d   1       4.506  -1.049  -4.626  0.00  0.00     0.150 HD
ENDROOT
BRANCH   1  21
ATOM     21  C   LIG d   1       4.689  -0.099  -7.584  0.00  0.00    -0.018 A 
ATOM     22  C   LIG d   1       3.363  -0.276  -7.238  0.00  0.00    -0.056 A 
ATOM     23  C   LIG d   1       2.366  -0.031  -8.163  0.00  0.00    -0.058 A 
ATOM     24  H   LIG d   1       3.106  -0.606  -6.241  0.00  0.00     0.062 H 
ATOM     25  C   LIG d   1       2.693   0.391  -9.437  0.00  0.00    -0.020 A 
ATOM     26  H   LIG d   1       1.331  -0.170  -7.890  0.00  0.00     0.062 H 
ATOM     27  C   LIG d   1       4.024   0.569  -9.787  0.00  0.00     0.120 A 
ATOM     28  H   LIG d   1       1.913   0.582 -10.160  0.00  0.00     0.065 H 
ATOM     29  C   LIG d   1       5.023   0.317  -8.859  0.00  0.00    -0.015 A 
ATOM     30  H   LIG d   1       6.059   0.452  -9.130  0.00  0.00     0.066 H 
BRANCH  27  31
ATOM     31  O   LIG d   1       4.348   0.983 -11.040  0.00  0.00    -0.495 OA
BRANCH  31  32
ATOM     32  C   LIG d   1       4.320  -0.000 -12.077  0.00  0.00     0.079 C 
ATOM     33  H   LIG d   1       4.017   0.469 -13.013  0.00  0.00     0.066 H 
ATOM     34  H   LIG d   1       5.313  -0.434 -12.193  0.00  0.00     0.066 H 
ATOM     35  H   LIG d   1       3.609  -0.783 -11.816  0.00  0.00     0.066 H 
ENDBRANCH  31  32
ENDBRANCH  27  31
ENDBRANCH   1  21
BRANCH  14  36
ATOM     36  C   LIG d   1       4.426  -2.714  -3.311  0.00  0.00     0.023 C 
ATOM     37  H   LIG d   1       3.722  -3.499  -3.587  0.00  0.00     0.047 H 
ATOM     38  H   LIG d   1       5.312  -3.163  -2.862  0.00  0.00     0.047 H 
BRANCH  36  39
ATOM     39  C   LIG d   1       3.767  -1.768  -2.305  0.00  0.00     0.060 C 
ATOM     40  H   LIG d   1       2.950  -2.284  -1.803  0.00  0.00     0.039 H 
ATOM     41  H   LIG d   1       4.505  -1.450  -1.569  0.00  0.00     0.039 H 
BRANCH  39  42
ATOM     42  C   LIG d   1       3.229  -0.560  -3.029  0.00  0.00     0.308 C 
ATOM     43  O   LIG d   1       2.216  -0.648  -3.681  0.00  0.00    -0.251 OA
BRANCH  42  44
ATOM     44  O   LIG d   1       3.877   0.614  -2.951  0.00  0.00    -0.468 OA
BRANCH  44  45
ATOM     45  C   LIG d   1       4.593   0.879  -1.743  0.00  0.00     0.082 C 
ATOM     46  H   LIG d   1       4.303   1.857  -1.357  0.00  0.00     0.066 H 
ATOM     47  H   LIG d   1       4.358   0.113  -1.005  0.00  0.00     0.066 H 
ATOM     48  H   LIG d   1       5.664   0.873  -1.947  0.00  0.00     0.066 H 
ENDBRANCH  44  45
ENDBRANCH  42  44
ENDBRANCH  39  42
ENDBRANCH  36  39
ENDBRANCH  14  36
TORSDOF 8
ENDMDL
MODEL 9
REMARK VINA RESULT:      -5.6      2.680      5.210
REMARK  8 active torsions:
REMARK  status: ('A' for Active; 'I' for Inactive)
REMARK    1  A    between atoms: C_1  and  O_2 
REMARK    2  A    between atoms: O_2  and  C_3 
REMARK    3  A    between atoms: C_7  and  C_9 
REMARK       I    between atoms: N_19  and  C_20 
REMARK       I    between atoms: C_20  and  N_22 
REMARK    4  A    between atoms: N_22  and  C_23 
REMARK    5  A    between atoms: C_23  and  C_24 
REMARK    6  A    between atoms: C_24  and  C_25 
REMARK    7  A    between atoms: C_25  and  O_27 
REMARK    8  A    between atoms: O_27  and  C_28 
ROOT
ATOM      1  C   LIG d   1       3.629  -1.424  -7.593  0.00  0.00     0.097 C 
ATOM      2  H   LIG d   1       3.263  -2.149  -6.865  0.00  0.00     0.062 H 
ATOM      3  C   LIG d   1       2.881  -1.583  -8.896  0.00  0.00     0.087 A 
ATOM      4  C   LIG d   1       2.321  -0.554  -9.568  0.00  0.00     0.042 A 
ATOM      5  N   LIG d   1       1.746  -1.078 -10.687  0.00  0.00    -0.348 N 
ATOM      6  C   LIG d   1       1.971  -2.411 -10.662  0.00  0.00     0.094 A 
ATOM      7  N   LIG d   1       2.652  -2.703  -9.583  0.00  0.00    -0.238 NA
ATOM      8  H   LIG d   1       1.267  -0.587 -11.373  0.00  0.00     0.167 HD
ATOM      9  C   LIG d   1       2.352   0.884  -9.122  0.00  0.00     0.005 C 
ATOM     10  C   LIG d   1       3.456   1.053  -8.072  0.00  0.00     0.022 C 
ATOM     11  N   LIG d   1       3.379  -0.055  -7.107  0.00  0.00    -0.273 N 
ATOM     12  C   LIG d   1       3.084   0.174  -5.812  0.00  0.00     0.303 C 
ATOM     13  O   LIG d   1       2.786   1.295  -5.446  0.00  0.00    -0.253 OA
ATOM     14  N   LIG d   1       3.122  -0.838  -4.923  0.00  0.00    -0.299 N 
ATOM     15  H   LIG d   1       1.642  -3.119 -11.408  0.00  0.00     0.103 H 
ATOM     16  H   LIG d   1       2.558   1.527  -9.978  0.00  0.00     0.034 H 
ATOM     17  H   LIG d   1       1.389   1.151  -8.686  0.00  0.00     0.034 H 
ATOM     18  H   LIG d   1       4.430   1.041  -8.563  0.00  0.00     0.047 H 
ATOM     19  H   LIG d   1       3.322   2.000  -7.551  0.00  0.00     0.047 H 
ATOM     20  H   LIG d   1       3.433  -1.714  -5.198  0.00  0.00     0.150 HD
ENDROOT
BRANCH   1  21
ATOM     21  C   LIG d   1       5.105  -1.626  -7.820  0.00  0.00    -0.018 A 
ATOM     22  C   LIG d   1       5.760  -2.678  -7.210  0.00  0.00    -0.056 A 
ATOM     23  C   LIG d   1       7.115  -2.867  -7.416  0.00  0.00    -0.058 A 
ATOM     24  H   LIG d   1       5.213  -3.356  -6.570  0.00  0.00     0.062 H 
ATOM     25  C   LIG d   1       7.816  -2.002  -8.233  0.00  0.00    -0.020 A 
ATOM     26  H   LIG d   1       7.623  -3.690  -6.938  0.00  0.00     0.062 H 
ATOM     27  C   LIG d   1       7.161  -0.944  -8.847  0.00  0.00     0.120 A 
ATOM     28  H   LIG d   1       8.874  -2.150  -8.395  0.00  0.00     0.065 H 
ATOM     29  C   LIG d   1       5.804  -0.754  -8.634  0.00  0.00    -0.015 A 
ATOM     30  H   LIG d   1       5.292   0.071  -9.107  0.00  0.00     0.066 H 
BRANCH  27  31
ATOM     31  O   LIG d   1       7.849  -0.091  -9.651  0.00  0.00    -0.495 OA
BRANCH  31  32
ATOM     32  C   LIG d   1       7.683   1.307  -9.407  0.00  0.00     0.079 C 
ATOM     33  H   LIG d   1       8.549   1.848  -9.791  0.00  0.00     0.066 H 
ATOM     34  H   LIG d   1       6.783   1.659  -9.911  0.00  0.00     0.066 H 
ATOM     35  H   LIG d   1       7.592   1.481  -8.335  0.00  0.00     0.066 H 
ENDBRANCH  31  32
ENDBRANCH  27  31
ENDBRANCH   1  21
BRANCH  14  36
ATOM     36  C   LIG d   1       2.694  -0.614  -3.540  0.00  0.00     0.023 C 
ATOM     37  H   LIG d   1       2.746   0.450  -3.310  0.00  0.00     0.047 H 
ATOM     38  H   LIG d   1       1.668  -0.962  -3.416  0.00  0.00     0.047 H 
BRANCH  36  39
ATOM     39  C   LIG d   1       3.613  -1.386  -2.591  0.00  0.00     0.060 C 
ATOM     40  H   LIG d   1       4.207  -0.683  -2.008  0.00  0.00     0.039 H 
ATOM     41  H   LIG d   1       3.011  -1.997  -1.920  0.00  0.00     0.039 H 
BRANCH  39  42
ATOM     42  C   LIG d   1       4.530  -2.274  -3.392  0.00  0.00     0.308 C 
ATOM     43  O   LIG d   1       4.193  -3.402  -3.665  0.00  0.00    -0.251 OA
BRANCH  42  44
ATOM     44  O   LIG d   1       5.723  -1.812  -3.801  0.00  0.00    -0.468 OA
BRANCH  44  45
ATOM     45  C   LIG d   1       6.286  -0.728  -3.062  0.00  0.00     0.082 C 
ATOM     46  H   LIG d   1       7.146  -0.329  -3.601  0.00  0.00     0.066 H 
ATOM     47  H   LIG d   1       5.540   0.056  -2.939  0.00  0.00     0.066 H 
ATOM     48  H   LIG d   1       6.606  -1.083  -2.082  0.00  0.00     0.066 H 
ENDBRANCH  44  45
ENDBRANCH  42  44
ENDBRANCH  39  42
ENDBRANCH  36  39
ENDBRANCH  14  36
TORSDOF 8
ENDMDL
