MODEL 1
REMARK VINA RESULT:      -7.9      0.000      0.000
REMARK  6 active torsions:
REMARK  status: ('A' for Active; 'I' for Inactive)
REMARK    1  A    between atoms: C_4  and  C_7 
REMARK    2  A    between atoms: C_7  and  C_8 
REMARK    3  A    between atoms: C_8  and  C_9 
REMARK    4  A    between atoms: C_9  and  N_67 
REMARK    5  A    between atoms: C_20  and  N_25 
REMARK       I    between atoms: N_25  and  C_26 
REMARK    6  A    between atoms: C_26  and  C_28 
ROOT
ATOM      1  C   LIG d   1       5.026   0.069  -8.627  0.00  0.00    -0.027 C 
ATOM      2  C   LIG d   1       6.438  -0.495  -8.664  0.00  0.00     0.018 C 
ATOM      3  H   LIG d   1       6.733  -0.617  -9.707  0.00  0.00     0.037 H 
ATOM      4  C   LIG d   1       6.490  -1.873  -7.998  0.00  0.00    -0.031 C 
ATOM      5  C   LIG d   1       5.966  -1.715  -6.567  0.00  0.00     0.040 C 
ATOM      6  H   LIG d   1       6.022  -2.659  -6.024  0.00  0.00     0.042 H 
ATOM      7  C   LIG d   1       4.512  -1.224  -6.643  0.00  0.00    -0.024 C 
ATOM      8  C   LIG d   1       6.770  -0.648  -5.859  0.00  0.00     0.030 C 
ATOM      9  C   LIG d   1       6.903  -0.754  -4.511  0.00  0.00    -0.040 C 
ATOM     10  C   LIG d   1       7.577   0.233  -3.781  0.00  0.00    -0.034 C 
ATOM     11  C   LIG d   1       8.078   1.319  -4.446  0.00  0.00     0.099 C 
ATOM     12  C   LIG d   1       7.919   1.398  -5.843  0.00  0.00     0.273 C 
ATOM     13  O   LIG d   1       8.304   2.390  -6.440  0.00  0.00    -0.266 OA
ATOM     14  N   LIG d   1       7.344   0.380  -6.530  0.00  0.00    -0.310 N 
ATOM     15  C   LIG d   1       7.434   0.431  -7.990  0.00  0.00     0.034 C 
ATOM     16  H   LIG d   1       5.032   1.078  -9.041  0.00  0.00     0.082 H 
ATOM     17  H   LIG d   1       4.373  -0.561  -9.231  0.00  0.00     0.082 H 
ATOM     18  H   LIG d   1       7.518  -2.236  -7.978  0.00  0.00     0.028 H 
ATOM     19  H   LIG d   1       5.860  -2.573  -8.547  0.00  0.00     0.028 H 
ATOM     20  H   LIG d   1       3.924  -1.907  -7.257  0.00  0.00     0.082 H 
ATOM     21  H   LIG d   1       4.087  -1.170  -5.641  0.00  0.00     0.082 H 
ATOM     22  H   LIG d   1       6.485  -1.607  -3.997  0.00  0.00     0.064 H 
ATOM     23  H   LIG d   1       7.700   0.137  -2.713  0.00  0.00     0.064 H 
ATOM     24  H   LIG d   1       7.246   1.453  -8.319  0.00  0.00     0.050 H 
ATOM     25  H   LIG d   1       8.442   0.144  -8.291  0.00  0.00     0.050 H 
ATOM     26  N   LIG d   1       4.531   0.132  -7.237  0.00  0.00     0.236 N 
ATOM     27  H   LIG d   1       5.159   0.728  -6.685  0.00  0.00     0.203 HD
ENDROOT
BRANCH  11  28
ATOM     28  N   LIG d   1       8.739   2.337  -3.747  0.00  0.00    -0.281 N 
ATOM     29  C   LIG d   1      10.074   2.280  -3.574  0.00  0.00     0.220 C 
ATOM     30  O   LIG d   1      10.716   1.392  -4.095  0.00  0.00    -0.275 OA
ATOM     31  H   LIG d   1       8.235   3.084  -3.386  0.00  0.00     0.155 HD
BRANCH  29  32
ATOM     32  C   LIG d   1      10.771   3.319  -2.733  0.00  0.00     0.036 C 
ATOM     33  C   LIG d   1      12.120   3.666  -3.365  0.00  0.00    -0.042 C 
ATOM     34  C   LIG d   1      12.827   4.720  -2.512  0.00  0.00    -0.052 C 
ATOM     35  H   LIG d   1      12.737   2.769  -3.420  0.00  0.00     0.027 H 
ATOM     36  H   LIG d   1      11.960   4.058  -4.370  0.00  0.00     0.027 H 
ATOM     37  C   LIG d   1      11.961   5.979  -2.435  0.00  0.00    -0.053 C 
ATOM     38  H   LIG d   1      12.987   4.327  -1.508  0.00  0.00     0.026 H 
ATOM     39  H   LIG d   1      13.789   4.967  -2.963  0.00  0.00     0.026 H 
ATOM     40  C   LIG d   1      10.611   5.632  -1.803  0.00  0.00    -0.052 C 
ATOM     41  H   LIG d   1      12.465   6.730  -1.828  0.00  0.00     0.026 H 
ATOM     42  H   LIG d   1      11.801   6.372  -3.439  0.00  0.00     0.026 H 
ATOM     43  C   LIG d   1       9.904   4.577  -2.656  0.00  0.00    -0.042 C 
ATOM     44  H   LIG d   1      10.771   5.240  -0.799  0.00  0.00     0.026 H 
ATOM     45  H   LIG d   1       9.995   6.529  -1.748  0.00  0.00     0.026 H 
ATOM     46  H   LIG d   1       9.745   4.970  -3.661  0.00  0.00     0.027 H 
ATOM     47  H   LIG d   1       8.943   4.331  -2.205  0.00  0.00     0.027 H 
ATOM     48  H   LIG d   1      10.930   2.926  -1.729  0.00  0.00     0.039 H 
ENDBRANCH  29  32
ENDBRANCH  11  28
BRANCH  26  49
ATOM     49  C   LIG d   1       3.172   0.715  -7.210  0.00  0.00    -0.032 C 
ATOM     50  H   LIG d   1       3.250   1.795  -7.082  0.00  0.00     0.081 H 
ATOM     51  H   LIG d   1       2.644   0.497  -8.137  0.00  0.00     0.081 H 
BRANCH  49  52
ATOM     52  C   LIG d   1       2.403   0.115  -6.031  0.00  0.00    -0.009 C 
ATOM     53  H   LIG d   1       1.378  -0.095  -6.335  0.00  0.00     0.032 H 
ATOM     54  H   LIG d   1       2.886  -0.809  -5.713  0.00  0.00     0.032 H 
BRANCH  52  55
ATOM     55  C   LIG d   1       2.396   1.112  -4.869  0.00  0.00    -0.023 C 
ATOM     56  H   LIG d   1       2.884   2.036  -5.179  0.00  0.00     0.032 H 
ATOM     57  H   LIG d   1       1.367   1.323  -4.578  0.00  0.00     0.032 H 
BRANCH  55  58
ATOM     58  C   LIG d   1       3.138   0.522  -3.697  0.00  0.00    -0.047 A 
ATOM     59  C   LIG d   1       3.862   1.342  -2.852  0.00  0.00    -0.059 A 
ATOM     60  C   LIG d   1       4.542   0.802  -1.778  0.00  0.00    -0.061 A 
ATOM     61  H   LIG d   1       3.895   2.407  -3.032  0.00  0.00     0.062 H 
ATOM     62  C   LIG d   1       4.499  -0.561  -1.548  0.00  0.00    -0.062 A 
ATOM     63  H   LIG d   1       5.109   1.443  -1.119  0.00  0.00     0.062 H 
ATOM     64  C   LIG d   1       3.775  -1.382  -2.392  0.00  0.00    -0.061 A 
ATOM     65  H   LIG d   1       5.031  -0.984  -0.709  0.00  0.00     0.062 H 
ATOM     66  C   LIG d   1       3.091  -0.840  -3.464  0.00  0.00    -0.059 A 
ATOM     67  H   LIG d   1       3.741  -2.446  -2.211  0.00  0.00     0.062 H 
ATOM     68  H   LIG d   1       2.522  -1.481  -4.121  0.00  0.00     0.062 H 
ENDBRANCH  55  58
ENDBRANCH  52  55
ENDBRANCH  49  52
ENDBRANCH  26  49
TORSDOF 6
ENDMDL
MODEL 2
REMARK VINA RESULT:      -7.4      4.192      6.670
REMARK  6 active torsions:
REMARK  status: ('A' for Active; 'I' for Inactive)
REMARK    1  A    between atoms: C_4  and  C_7 
REMARK    2  A    between atoms: C_7  and  C_8 
REMARK    3  A    between atoms: C_8  and  C_9 
REMARK    4  A    between atoms: C_9  and  N_67 
REMARK    5  A    between atoms: C_20  and  N_25 
REMARK       I    between atoms: N_25  and  C_26 
REMARK    6  A    between atoms: C_26  and  C_28 
ROOT
ATOM      1  C   LIG d   1       3.878  -2.903 -12.472  0.00  0.00    -0.027 C 
ATOM      2  C   LIG d   1       5.251  -3.331 -11.978  0.00  0.00     0.018 C 
ATOM      3  H   LIG d   1       5.987  -3.072 -12.740  0.00  0.00     0.037 H 
ATOM      4  C   LIG d   1       5.305  -4.847 -11.768  0.00  0.00    -0.031 C 
ATOM      5  C   LIG d   1       4.191  -5.217 -10.782  0.00  0.00     0.040 C 
ATOM      6  H   LIG d   1       4.209  -6.284 -10.556  0.00  0.00     0.042 H 
ATOM      7  C   LIG d   1       2.846  -4.822 -11.411  0.00  0.00    -0.024 C 
ATOM      8  C   LIG d   1       4.359  -4.406  -9.517  0.00  0.00     0.030 C 
ATOM      9  C   LIG d   1       3.914  -4.954  -8.357  0.00  0.00    -0.040 C 
ATOM     10  C   LIG d   1       3.976  -4.233  -7.158  0.00  0.00    -0.034 C 
ATOM     11  C   LIG d   1       4.468  -2.957  -7.179  0.00  0.00     0.099 C 
ATOM     12  C   LIG d   1       4.917  -2.419  -8.401  0.00  0.00     0.273 C 
ATOM     13  O   LIG d   1       5.299  -1.260  -8.447  0.00  0.00    -0.266 OA
ATOM     14  N   LIG d   1       4.931  -3.177  -9.525  0.00  0.00    -0.310 N 
ATOM     15  C   LIG d   1       5.631  -2.628 -10.686  0.00  0.00     0.034 C 
ATOM     16  H   LIG d   1       3.845  -1.815 -12.542  0.00  0.00     0.082 H 
ATOM     17  H   LIG d   1       3.703  -3.330 -13.459  0.00  0.00     0.082 H 
ATOM     18  H   LIG d   1       6.273  -5.130 -11.356  0.00  0.00     0.028 H 
ATOM     19  H   LIG d   1       5.142  -5.357 -12.717  0.00  0.00     0.028 H 
ATOM     20  H   LIG d   1       2.745  -5.291 -12.389  0.00  0.00     0.082 H 
ATOM     21  H   LIG d   1       2.029  -5.138 -10.763  0.00  0.00     0.082 H 
ATOM     22  H   LIG d   1       3.509  -5.956  -8.358  0.00  0.00     0.064 H 
ATOM     23  H   LIG d   1       3.641  -4.678  -6.233  0.00  0.00     0.064 H 
ATOM     24  H   LIG d   1       5.389  -1.569 -10.776  0.00  0.00     0.050 H 
ATOM     25  H   LIG d   1       6.706  -2.732 -10.532  0.00  0.00     0.050 H 
ATOM     26  N   LIG d   1       2.828  -3.346 -11.531  0.00  0.00     0.236 N 
ATOM     27  H   LIG d   1       3.011  -2.935 -10.609  0.00  0.00     0.203 HD
ENDROOT
BRANCH  11  28
ATOM     28  N   LIG d   1       4.524  -2.197  -6.004  0.00  0.00    -0.281 N 
ATOM     29  C   LIG d   1       5.590  -2.299  -5.185  0.00  0.00     0.220 C 
ATOM     30  O   LIG d   1       6.538  -2.983  -5.506  0.00  0.00    -0.275 OA
ATOM     31  H   LIG d   1       3.795  -1.597  -5.779  0.00  0.00     0.155 HD
BRANCH  29  32
ATOM     32  C   LIG d   1       5.603  -1.562  -3.871  0.00  0.00     0.036 C 
ATOM     33  C   LIG d   1       5.547  -0.056  -4.130  0.00  0.00    -0.042 C 
ATOM     34  C   LIG d   1       5.561   0.692  -2.795  0.00  0.00    -0.052 C 
ATOM     35  H   LIG d   1       6.411   0.244  -4.724  0.00  0.00     0.027 H 
ATOM     36  H   LIG d   1       4.632   0.186  -4.672  0.00  0.00     0.027 H 
ATOM     37  C   LIG d   1       4.348   0.272  -1.962  0.00  0.00    -0.053 C 
ATOM     38  H   LIG d   1       6.475   0.451  -2.253  0.00  0.00     0.026 H 
ATOM     39  H   LIG d   1       5.521   1.766  -2.981  0.00  0.00     0.026 H 
ATOM     40  C   LIG d   1       4.405  -1.235  -1.703  0.00  0.00    -0.052 C 
ATOM     41  H   LIG d   1       4.358   0.805  -1.011  0.00  0.00     0.026 H 
ATOM     42  H   LIG d   1       3.434   0.513  -2.504  0.00  0.00     0.026 H 
ATOM     43  C   LIG d   1       4.392  -1.983  -3.037  0.00  0.00    -0.042 C 
ATOM     44  H   LIG d   1       5.319  -1.476  -1.161  0.00  0.00     0.026 H 
ATOM     45  H   LIG d   1       3.542  -1.534  -1.109  0.00  0.00     0.026 H 
ATOM     46  H   LIG d   1       3.477  -1.741  -3.580  0.00  0.00     0.027 H 
ATOM     47  H   LIG d   1       4.432  -3.056  -2.852  0.00  0.00     0.027 H 
ATOM     48  H   LIG d   1       6.518  -1.804  -3.328  0.00  0.00     0.039 H 
ENDBRANCH  29  32
ENDBRANCH  11  28
BRANCH  26  49
ATOM     49  C   LIG d   1       1.502  -2.894 -12.003  0.00  0.00    -0.032 C 
ATOM     50  H   LIG d   1       1.480  -2.933 -13.093  0.00  0.00     0.081 H 
ATOM     51  H   LIG d   1       0.715  -3.531 -11.601  0.00  0.00     0.081 H 
BRANCH  49  52
ATOM     52  C   LIG d   1       1.280  -1.453 -11.539  0.00  0.00    -0.009 C 
ATOM     53  H   LIG d   1       1.904  -0.782 -12.129  0.00  0.00     0.032 H 
ATOM     54  H   LIG d   1       0.232  -1.186 -11.671  0.00  0.00     0.032 H 
BRANCH  52  55
ATOM     55  C   LIG d   1       1.657  -1.332 -10.061  0.00  0.00    -0.023 C 
ATOM     56  H   LIG d   1       0.751  -1.301  -9.456  0.00  0.00     0.032 H 
ATOM     57  H   LIG d   1       2.261  -2.190  -9.768  0.00  0.00     0.032 H 
BRANCH  55  58
ATOM     58  C   LIG d   1       2.446  -0.065  -9.848  0.00  0.00    -0.047 A 
ATOM     59  C   LIG d   1       2.344   0.620  -8.651  0.00  0.00    -0.059 A 
ATOM     60  C   LIG d   1       3.067   1.781  -8.455  0.00  0.00    -0.061 A 
ATOM     61  H   LIG d   1       1.699   0.248  -7.869  0.00  0.00     0.062 H 
ATOM     62  C   LIG d   1       3.894   2.257  -9.456  0.00  0.00    -0.062 A 
ATOM     63  H   LIG d   1       2.987   2.317  -7.521  0.00  0.00     0.062 H 
ATOM     64  C   LIG d   1       3.997   1.572 -10.652  0.00  0.00    -0.061 A 
ATOM     65  H   LIG d   1       4.459   3.165  -9.304  0.00  0.00     0.062 H 
ATOM     66  C   LIG d   1       3.276   0.409 -10.846  0.00  0.00    -0.059 A 
ATOM     67  H   LIG d   1       4.643   1.944 -11.433  0.00  0.00     0.062 H 
ATOM     68  H   LIG d   1       3.360  -0.129 -11.779  0.00  0.00     0.062 H 
ENDBRANCH  55  58
ENDBRANCH  52  55
ENDBRANCH  49  52
ENDBRANCH  26  49
TORSDOF 6
ENDMDL
MODEL 3
REMARK VINA RESULT:      -7.4      4.796      7.895
REMARK  6 active torsions:
REMARK  status: ('A' for Active; 'I' for Inactive)
REMARK    1  A    between atoms: C_4  and  C_7 
REMARK    2  A    between atoms: C_7  and  C_8 
REMARK    3  A    between atoms: C_8  and  C_9 
REMARK    4  A    between atoms: C_9  and  N_67 
REMARK    5  A    between atoms: C_20  and  N_25 
REMARK       I    between atoms: N_25  and  C_26 
REMARK    6  A    between atoms: C_26  and  C_28 
ROOT
ATOM      1  C   LIG d   1       4.480   0.868  -9.212  0.00  0.00    -0.027 C 
ATOM      2  C   LIG d   1       5.028   0.075 -10.388  0.00  0.00     0.018 C 
ATOM      3  H   LIG d   1       5.790   0.677 -10.883  0.00  0.00     0.037 H 
ATOM      4  C   LIG d   1       3.924  -0.216 -11.408  0.00  0.00    -0.031 C 
ATOM      5  C   LIG d   1       2.802  -0.963 -10.677  0.00  0.00     0.040 C 
ATOM      6  H   LIG d   1       2.004  -1.240 -11.365  0.00  0.00     0.042 H 
ATOM      7  C   LIG d   1       2.264  -0.046  -9.567  0.00  0.00    -0.024 C 
ATOM      8  C   LIG d   1       3.378  -2.192 -10.011  0.00  0.00     0.030 C 
ATOM      9  C   LIG d   1       2.553  -3.259  -9.844  0.00  0.00    -0.040 C 
ATOM     10  C   LIG d   1       2.998  -4.406  -9.176  0.00  0.00    -0.034 C 
ATOM     11  C   LIG d   1       4.270  -4.426  -8.672  0.00  0.00     0.099 C 
ATOM     12  C   LIG d   1       5.097  -3.301  -8.861  0.00  0.00     0.273 C 
ATOM     13  O   LIG d   1       6.211  -3.279  -8.362  0.00  0.00    -0.266 OA
ATOM     14  N   LIG d   1       4.667  -2.245  -9.593  0.00  0.00    -0.310 N 
ATOM     15  C   LIG d   1       5.662  -1.231  -9.943  0.00  0.00     0.034 C 
ATOM     16  H   LIG d   1       5.268   0.997  -8.469  0.00  0.00     0.082 H 
ATOM     17  H   LIG d   1       4.154   1.847  -9.561  0.00  0.00     0.082 H 
ATOM     18  H   LIG d   1       4.317  -0.836 -12.214  0.00  0.00     0.028 H 
ATOM     19  H   LIG d   1       3.539   0.719 -11.815  0.00  0.00     0.028 H 
ATOM     20  H   LIG d   1       1.954   0.908  -9.996  0.00  0.00     0.082 H 
ATOM     21  H   LIG d   1       1.416  -0.521  -9.074  0.00  0.00     0.082 H 
ATOM     22  H   LIG d   1       1.545  -3.222 -10.229  0.00  0.00     0.064 H 
ATOM     23  H   LIG d   1       2.349  -5.261  -9.062  0.00  0.00     0.064 H 
ATOM     24  H   LIG d   1       6.291  -1.039  -9.073  0.00  0.00     0.050 H 
ATOM     25  H   LIG d   1       6.286  -1.613 -10.752  0.00  0.00     0.050 H 
ATOM     26  N   LIG d   1       3.352   0.149  -8.583  0.00  0.00     0.236 N 
ATOM     27  H   LIG d   1       3.680  -0.770  -8.262  0.00  0.00     0.203 HD
ENDROOT
BRANCH  11  28
ATOM     28  N   LIG d   1       4.743  -5.547  -7.979  0.00  0.00    -0.281 N 
ATOM     29  C   LIG d   1       4.272  -5.827  -6.747  0.00  0.00     0.220 C 
ATOM     30  O   LIG d   1       3.378  -5.158  -6.273  0.00  0.00    -0.275 OA
ATOM     31  H   LIG d   1       5.411  -6.123  -8.385  0.00  0.00     0.155 HD
BRANCH  29  32
ATOM     32  C   LIG d   1       4.856  -6.971  -5.959  0.00  0.00     0.036 C 
ATOM     33  C   LIG d   1       4.639  -8.279  -6.721  0.00  0.00    -0.042 C 
ATOM     34  C   LIG d   1       5.231  -9.441  -5.921  0.00  0.00    -0.052 C 
ATOM     35  H   LIG d   1       3.570  -8.444  -6.865  0.00  0.00     0.027 H 
ATOM     36  H   LIG d   1       5.130  -8.219  -7.693  0.00  0.00     0.027 H 
ATOM     37  C   LIG d   1       6.730  -9.210  -5.721  0.00  0.00    -0.053 C 
ATOM     38  H   LIG d   1       4.740  -9.501  -4.950  0.00  0.00     0.026 H 
ATOM     39  H   LIG d   1       5.076 -10.373  -6.465  0.00  0.00     0.026 H 
ATOM     40  C   LIG d   1       6.947  -7.901  -4.957  0.00  0.00    -0.052 C 
ATOM     41  H   LIG d   1       7.153 -10.037  -5.151  0.00  0.00     0.026 H 
ATOM     42  H   LIG d   1       7.222  -9.150  -6.692  0.00  0.00     0.026 H 
ATOM     43  C   LIG d   1       6.354  -6.740  -5.758  0.00  0.00    -0.042 C 
ATOM     44  H   LIG d   1       6.456  -7.961  -3.986  0.00  0.00     0.026 H 
ATOM     45  H   LIG d   1       8.015  -7.737  -4.815  0.00  0.00     0.026 H 
ATOM     46  H   LIG d   1       6.846  -6.680  -6.730  0.00  0.00     0.027 H 
ATOM     47  H   LIG d   1       6.510  -5.808  -5.214  0.00  0.00     0.027 H 
ATOM     48  H   LIG d   1       4.365  -7.030  -4.987  0.00  0.00     0.039 H 
ENDBRANCH  29  32
ENDBRANCH  11  28
BRANCH  26  49
ATOM     49  C   LIG d   1       2.851   0.912  -7.420  0.00  0.00    -0.032 C 
ATOM     50  H   LIG d   1       3.521   1.751  -7.230  0.00  0.00     0.081 H 
ATOM     51  H   LIG d   1       1.846   1.285  -7.611  0.00  0.00     0.081 H 
BRANCH  49  52
ATOM     52  C   LIG d   1       2.830  -0.010  -6.199  0.00  0.00    -0.009 C 
ATOM     53  H   LIG d   1       2.112  -0.814  -6.364  0.00  0.00     0.032 H 
ATOM     54  H   LIG d   1       3.822  -0.435  -6.046  0.00  0.00     0.032 H 
BRANCH  52  55
ATOM     55  C   LIG d   1       2.422   0.793  -4.962  0.00  0.00    -0.023 C 
ATOM     56  H   LIG d   1       2.674   1.843  -5.111  0.00  0.00     0.032 H 
ATOM     57  H   LIG d   1       1.349   0.695  -4.802  0.00  0.00     0.032 H 
BRANCH  55  58
ATOM     58  C   LIG d   1       3.159   0.266  -3.757  0.00  0.00    -0.047 A 
ATOM     59  C   LIG d   1       3.202  -1.094  -3.512  0.00  0.00    -0.059 A 
ATOM     60  C   LIG d   1       3.878  -1.577  -2.408  0.00  0.00    -0.061 A 
ATOM     61  H   LIG d   1       2.707  -1.779  -4.185  0.00  0.00     0.062 H 
ATOM     62  C   LIG d   1       4.512  -0.699  -1.548  0.00  0.00    -0.062 A 
ATOM     63  H   LIG d   1       3.911  -2.639  -2.216  0.00  0.00     0.062 H 
ATOM     64  C   LIG d   1       4.471   0.660  -1.793  0.00  0.00    -0.061 A 
ATOM     65  H   LIG d   1       5.040  -1.077  -0.685  0.00  0.00     0.062 H 
ATOM     66  C   LIG d   1       3.798   1.143  -2.900  0.00  0.00    -0.059 A 
ATOM     67  H   LIG d   1       4.967   1.345  -1.121  0.00  0.00     0.062 H 
ATOM     68  H   LIG d   1       3.769   2.205  -3.093  0.00  0.00     0.062 H 
ENDBRANCH  55  58
ENDBRANCH  52  55
ENDBRANCH  49  52
ENDBRANCH  26  49
TORSDOF 6
ENDMDL
MODEL 4
REMARK VINA RESULT:      -7.3      5.637     10.406
REMARK  6 active torsions:
REMARK  status: ('A' for Active; 'I' for Inactive)
REMARK    1  A    between atoms: C_4  and  C_7 
REMARK    2  A    between atoms: C_7  and  C_8 
REMARK    3  A    between atoms: C_8  and  C_9 
REMARK    4  A    between atoms: C_9  and  N_67 
REMARK    5  A    between atoms: C_20  and  N_25 
REMARK       I    between atoms: N_25  and  C_26 
REMARK    6  A    between atoms: C_26  and  C_28 
ROOT
ATOM      1  C   LIG d   1       4.966   0.063  -8.443  0.00  0.00    -0.027 C 
ATOM      2  C   LIG d   1       5.349  -0.750  -9.670  0.00  0.00     0.018 C 
ATOM      3  H   LIG d   1       6.420  -0.950  -9.630  0.00  0.00     0.037 H 
ATOM      4  C   LIG d   1       5.066   0.037 -10.953  0.00  0.00    -0.031 C 
ATOM      5  C   LIG d   1       3.580   0.415 -10.946  0.00  0.00     0.040 C 
ATOM      6  H   LIG d   1       3.306   0.940 -11.861  0.00  0.00     0.042 H 
ATOM      7  C   LIG d   1       3.319   1.301  -9.718  0.00  0.00    -0.024 C 
ATOM      8  C   LIG d   1       2.751  -0.840 -10.787  0.00  0.00     0.030 C 
ATOM      9  C   LIG d   1       1.507  -0.842 -11.333  0.00  0.00    -0.040 C 
ATOM     10  C   LIG d   1       0.658  -1.943 -11.168  0.00  0.00    -0.034 C 
ATOM     11  C   LIG d   1       1.093  -3.007 -10.426  0.00  0.00     0.099 C 
ATOM     12  C   LIG d   1       2.387  -2.969  -9.871  0.00  0.00     0.273 C 
ATOM     13  O   LIG d   1       2.764  -3.882  -9.154  0.00  0.00    -0.266 OA
ATOM     14  N   LIG d   1       3.217  -1.929 -10.129  0.00  0.00    -0.310 N 
ATOM     15  C   LIG d   1       4.614  -2.078  -9.719  0.00  0.00     0.034 C 
ATOM     16  H   LIG d   1       5.109  -0.547  -7.550  0.00  0.00     0.082 H 
ATOM     17  H   LIG d   1       5.608   0.942  -8.381  0.00  0.00     0.082 H 
ATOM     18  H   LIG d   1       5.287  -0.580 -11.823  0.00  0.00     0.028 H 
ATOM     19  H   LIG d   1       5.676   0.940 -10.974  0.00  0.00     0.028 H 
ATOM     20  H   LIG d   1       3.993   2.158  -9.732  0.00  0.00     0.082 H 
ATOM     21  H   LIG d   1       2.285   1.645  -9.724  0.00  0.00     0.082 H 
ATOM     22  H   LIG d   1       1.169   0.013 -11.901  0.00  0.00     0.064 H 
ATOM     23  H   LIG d   1      -0.322  -1.953 -11.621  0.00  0.00     0.064 H 
ATOM     24  H   LIG d   1       4.645  -2.536  -8.730  0.00  0.00     0.050 H 
ATOM     25  H   LIG d   1       5.121  -2.734 -10.427  0.00  0.00     0.050 H 
ATOM     26  N   LIG d   1       3.548   0.471  -8.514  0.00  0.00     0.236 N 
ATOM     27  H   LIG d   1       2.961  -0.370  -8.572  0.00  0.00     0.203 HD
ENDROOT
BRANCH  11  28
ATOM     28  N   LIG d   1       0.263  -4.117 -10.220  0.00  0.00    -0.281 N 
ATOM     29  C   LIG d   1       0.133  -5.049 -11.184  0.00  0.00     0.220 C 
ATOM     30  O   LIG d   1       0.797  -4.973 -12.196  0.00  0.00    -0.275 OA
ATOM     31  H   LIG d   1      -0.218  -4.214  -9.383  0.00  0.00     0.155 HD
BRANCH  29  32
ATOM     32  C   LIG d   1      -0.839  -6.187 -11.005  0.00  0.00     0.036 C 
ATOM     33  C   LIG d   1      -1.429  -6.137  -9.595  0.00  0.00    -0.042 C 
ATOM     34  C   LIG d   1      -2.415  -7.293  -9.414  0.00  0.00    -0.052 C 
ATOM     35  H   LIG d   1      -0.627  -6.225  -8.861  0.00  0.00     0.027 H 
ATOM     36  H   LIG d   1      -1.949  -5.190  -9.452  0.00  0.00     0.027 H 
ATOM     37  C   LIG d   1      -3.541  -7.169 -10.442  0.00  0.00    -0.053 C 
ATOM     38  H   LIG d   1      -1.896  -8.240  -9.556  0.00  0.00     0.026 H 
ATOM     39  H   LIG d   1      -2.836  -7.257  -8.408  0.00  0.00     0.026 H 
ATOM     40  C   LIG d   1      -2.951  -7.219 -11.853  0.00  0.00    -0.052 C 
ATOM     41  H   LIG d   1      -4.244  -7.992 -10.313  0.00  0.00     0.026 H 
ATOM     42  H   LIG d   1      -4.061  -6.222 -10.300  0.00  0.00     0.026 H 
ATOM     43  C   LIG d   1      -1.964  -6.064 -12.034  0.00  0.00    -0.042 C 
ATOM     44  H   LIG d   1      -2.431  -8.167 -11.996  0.00  0.00     0.026 H 
ATOM     45  H   LIG d   1      -3.752  -7.131 -12.586  0.00  0.00     0.026 H 
ATOM     46  H   LIG d   1      -2.484  -5.116 -11.891  0.00  0.00     0.027 H 
ATOM     47  H   LIG d   1      -1.544  -6.100 -13.039  0.00  0.00     0.027 H 
ATOM     48  H   LIG d   1      -0.319  -7.135 -11.149  0.00  0.00     0.039 H 
ENDBRANCH  29  32
ENDBRANCH  11  28
BRANCH  26  49
ATOM     49  C   LIG d   1       3.178   1.230  -7.299  0.00  0.00    -0.032 C 
ATOM     50  H   LIG d   1       4.035   1.822  -6.976  0.00  0.00     0.081 H 
ATOM     51  H   LIG d   1       2.336   1.890  -7.502  0.00  0.00     0.081 H 
BRANCH  49  52
ATOM     52  C   LIG d   1       2.797   0.239  -6.198  0.00  0.00    -0.009 C 
ATOM     53  H   LIG d   1       1.955  -0.368  -6.530  0.00  0.00     0.032 H 
ATOM     54  H   LIG d   1       3.647  -0.407  -5.979  0.00  0.00     0.032 H 
BRANCH  52  55
ATOM     55  C   LIG d   1       2.403   1.009  -4.935  0.00  0.00    -0.023 C 
ATOM     56  H   LIG d   1       2.675   2.058  -5.050  0.00  0.00     0.032 H 
ATOM     57  H   LIG d   1       1.327   0.927  -4.780  0.00  0.00     0.032 H 
BRANCH  55  58
ATOM     58  C   LIG d   1       3.128   0.430  -3.747  0.00  0.00    -0.047 A 
ATOM     59  C   LIG d   1       3.776   1.266  -2.858  0.00  0.00    -0.059 A 
ATOM     60  C   LIG d   1       4.440   0.736  -1.768  0.00  0.00    -0.061 A 
ATOM     61  H   LIG d   1       3.763   2.335  -3.014  0.00  0.00     0.062 H 
ATOM     62  C   LIG d   1       4.456  -0.633  -1.568  0.00  0.00    -0.062 A 
ATOM     63  H   LIG d   1       4.948   1.388  -1.074  0.00  0.00     0.062 H 
ATOM     64  C   LIG d   1       3.808  -1.469  -2.457  0.00  0.00    -0.061 A 
ATOM     65  H   LIG d   1       4.976  -1.048  -0.717  0.00  0.00     0.062 H 
ATOM     66  C   LIG d   1       3.140  -0.937  -3.544  0.00  0.00    -0.059 A 
ATOM     67  H   LIG d   1       3.820  -2.537  -2.300  0.00  0.00     0.062 H 
ATOM     68  H   LIG d   1       2.629  -1.591  -4.237  0.00  0.00     0.062 H 
ENDBRANCH  55  58
ENDBRANCH  52  55
ENDBRANCH  49  52
ENDBRANCH  26  49
TORSDOF 6
ENDMDL
MODEL 5
REMARK VINA RESULT:      -7.1      1.610      2.274
REMARK  6 active torsions:
REMARK  status: ('A' for Active; 'I' for Inactive)
REMARK    1  A    between atoms: C_4  and  C_7 
REMARK    2  A    between atoms: C_7  and  C_8 
REMARK    3  A    between atoms: C_8  and  C_9 
REMARK    4  A    between atoms: C_9  and  N_67 
REMARK    5  A    between atoms: C_20  and  N_25 
REMARK       I    between atoms: N_25  and  C_26 
REMARK    6  A    between atoms: C_26  and  C_28 
ROOT
ATOM      1  C   LIG d   1       3.320   0.126  -9.576  0.00  0.00    -0.027 C 
ATOM      2  C   LIG d   1       4.509  -0.109 -10.495  0.00  0.00     0.018 C 
ATOM      3  H   LIG d   1       4.221   0.169 -11.509  0.00  0.00     0.037 H 
ATOM      4  C   LIG d   1       4.903  -1.588 -10.507  0.00  0.00    -0.031 C 
ATOM      5  C   LIG d   1       5.197  -2.001  -9.059  0.00  0.00     0.040 C 
ATOM      6  H   LIG d   1       5.529  -3.038  -9.009  0.00  0.00     0.042 H 
ATOM      7  C   LIG d   1       3.912  -1.806  -8.238  0.00  0.00    -0.024 C 
ATOM      8  C   LIG d   1       6.248  -1.079  -8.485  0.00  0.00     0.030 C 
ATOM      9  C   LIG d   1       7.061  -1.580  -7.518  0.00  0.00    -0.040 C 
ATOM     10  C   LIG d   1       8.013  -0.765  -6.894  0.00  0.00    -0.034 C 
ATOM     11  C   LIG d   1       8.094   0.552  -7.255  0.00  0.00     0.099 C 
ATOM     12  C   LIG d   1       7.233   1.039  -8.258  0.00  0.00     0.273 C 
ATOM     13  O   LIG d   1       7.250   2.225  -8.546  0.00  0.00    -0.266 OA
ATOM     14  N   LIG d   1       6.388   0.201  -8.908  0.00  0.00    -0.310 N 
ATOM     15  C   LIG d   1       5.709   0.731 -10.091  0.00  0.00     0.034 C 
ATOM     16  H   LIG d   1       3.108   1.194  -9.530  0.00  0.00     0.082 H 
ATOM     17  H   LIG d   1       2.450  -0.394  -9.978  0.00  0.00     0.082 H 
ATOM     18  H   LIG d   1       5.793  -1.731 -11.119  0.00  0.00     0.028 H 
ATOM     19  H   LIG d   1       4.082  -2.187 -10.901  0.00  0.00     0.028 H 
ATOM     20  H   LIG d   1       3.093  -2.359  -8.699  0.00  0.00     0.082 H 
ATOM     21  H   LIG d   1       4.068  -2.159  -7.219  0.00  0.00     0.082 H 
ATOM     22  H   LIG d   1       6.972  -2.617  -7.229  0.00  0.00     0.064 H 
ATOM     23  H   LIG d   1       8.672  -1.170  -6.141  0.00  0.00     0.064 H 
ATOM     24  H   LIG d   1       5.373   1.747  -9.880  0.00  0.00     0.050 H 
ATOM     25  H   LIG d   1       6.415   0.758 -10.921  0.00  0.00     0.050 H 
ATOM     26  N   LIG d   1       3.617  -0.356  -8.212  0.00  0.00     0.236 N 
ATOM     27  H   LIG d   1       4.438   0.145  -7.853  0.00  0.00     0.203 HD
ENDROOT
BRANCH  11  28
ATOM     28  N   LIG d   1       9.018   1.403  -6.637  0.00  0.00    -0.281 N 
ATOM     29  C   LIG d   1       8.682   2.059  -5.509  0.00  0.00     0.220 C 
ATOM     30  O   LIG d   1       7.610   1.848  -4.982  0.00  0.00    -0.275 OA
ATOM     31  H   LIG d   1       9.902   1.522  -7.022  0.00  0.00     0.155 HD
BRANCH  29  32
ATOM     32  C   LIG d   1       9.636   3.055  -4.902  0.00  0.00     0.036 C 
ATOM     33  C   LIG d   1       9.441   4.419  -5.566  0.00  0.00    -0.042 C 
ATOM     34  C   LIG d   1      10.411   5.430  -4.950  0.00  0.00    -0.052 C 
ATOM     35  H   LIG d   1       9.634   4.335  -6.636  0.00  0.00     0.027 H 
ATOM     36  H   LIG d   1       8.416   4.756  -5.408  0.00  0.00     0.027 H 
ATOM     37  C   LIG d   1      10.138   5.549  -3.449  0.00  0.00    -0.053 C 
ATOM     38  H   LIG d   1      11.435   5.093  -5.108  0.00  0.00     0.026 H 
ATOM     39  H   LIG d   1      10.270   6.402  -5.424  0.00  0.00     0.026 H 
ATOM     40  C   LIG d   1      10.334   4.184  -2.786  0.00  0.00    -0.052 C 
ATOM     41  H   LIG d   1      10.829   6.269  -3.011  0.00  0.00     0.026 H 
ATOM     42  H   LIG d   1       9.114   5.885  -3.291  0.00  0.00     0.026 H 
ATOM     43  C   LIG d   1       9.365   3.173  -3.402  0.00  0.00    -0.042 C 
ATOM     44  H   LIG d   1      11.359   3.847  -2.943  0.00  0.00     0.026 H 
ATOM     45  H   LIG d   1      10.141   4.269  -1.717  0.00  0.00     0.026 H 
ATOM     46  H   LIG d   1       8.340   3.511  -3.244  0.00  0.00     0.027 H 
ATOM     47  H   LIG d   1       9.505   2.202  -2.928  0.00  0.00     0.027 H 
ATOM     48  H   LIG d   1      10.661   2.718  -5.060  0.00  0.00     0.039 H 
ENDBRANCH  29  32
ENDBRANCH  11  28
BRANCH  26  49
ATOM     49  C   LIG d   1       2.467  -0.090  -7.320  0.00  0.00    -0.032 C 
ATOM     50  H   LIG d   1       1.751   0.543  -7.843  0.00  0.00     0.081 H 
ATOM     51  H   LIG d   1       1.984  -1.023  -7.031  0.00  0.00     0.081 H 
BRANCH  49  52
ATOM     52  C   LIG d   1       2.971   0.633  -6.070  0.00  0.00    -0.009 C 
ATOM     53  H   LIG d   1       4.003   0.340  -5.872  0.00  0.00     0.032 H 
ATOM     54  H   LIG d   1       2.923   1.710  -6.228  0.00  0.00     0.032 H 
BRANCH  52  55
ATOM     55  C   LIG d   1       2.095   0.253  -4.874  0.00  0.00    -0.023 C 
ATOM     56  H   LIG d   1       1.435   1.085  -4.628  0.00  0.00     0.032 H 
ATOM     57  H   LIG d   1       1.498  -0.624  -5.125  0.00  0.00     0.032 H 
BRANCH  55  58
ATOM     58  C   LIG d   1       2.972  -0.059  -3.689  0.00  0.00    -0.047 A 
ATOM     59  C   LIG d   1       3.542   0.968  -2.960  0.00  0.00    -0.059 A 
ATOM     60  C   LIG d   1       4.346   0.683  -1.873  0.00  0.00    -0.061 A 
ATOM     61  H   LIG d   1       3.358   1.995  -3.241  0.00  0.00     0.062 H 
ATOM     62  C   LIG d   1       4.581  -0.632  -1.514  0.00  0.00    -0.062 A 
ATOM     63  H   LIG d   1       4.792   1.486  -1.305  0.00  0.00     0.062 H 
ATOM     64  C   LIG d   1       4.011  -1.659  -2.241  0.00  0.00    -0.061 A 
ATOM     65  H   LIG d   1       5.210  -0.855  -0.665  0.00  0.00     0.062 H 
ATOM     66  C   LIG d   1       3.203  -1.373  -3.326  0.00  0.00    -0.059 A 
ATOM     67  H   LIG d   1       4.194  -2.686  -1.960  0.00  0.00     0.062 H 
ATOM     68  H   LIG d   1       2.755  -2.176  -3.892  0.00  0.00     0.062 H 
ENDBRANCH  55  58
ENDBRANCH  52  55
ENDBRANCH  49  52
ENDBRANCH  26  49
TORSDOF 6
ENDMDL
MODEL 6
REMARK VINA RESULT:      -6.9      2.595      7.851
REMARK  6 active torsions:
REMARK  status: ('A' for Active; 'I' for Inactive)
REMARK    1  A    between atoms: C_4  and  C_7 
REMARK    2  A    between atoms: C_7  and  C_8 
REMARK    3  A    between atoms: C_8  and  C_9 
REMARK    4  A    between atoms: C_9  and  N_67 
REMARK    5  A    between atoms: C_20  and  N_25 
REMARK       I    between atoms: N_25  and  C_26 
REMARK    6  A    between atoms: C_26  and  C_28 
ROOT
ATOM      1  C   LIG d   1      12.091   5.473  -5.589  0.00  0.00    -0.027 C 
ATOM      2  C   LIG d   1      12.527   4.053  -5.258  0.00  0.00     0.018 C 
ATOM      3  H   LIG d   1      13.493   4.099  -4.754  0.00  0.00     0.037 H 
ATOM      4  C   LIG d   1      12.701   3.227  -6.535  0.00  0.00    -0.031 C 
ATOM      5  C   LIG d   1      11.371   3.263  -7.296  0.00  0.00     0.040 C 
ATOM      6  H   LIG d   1      11.419   2.651  -8.196  0.00  0.00     0.042 H 
ATOM      7  C   LIG d   1      11.067   4.727  -7.655  0.00  0.00    -0.024 C 
ATOM      8  C   LIG d   1      10.265   2.779  -6.384  0.00  0.00     0.030 C 
ATOM      9  C   LIG d   1       9.194   2.177  -6.964  0.00  0.00    -0.040 C 
ATOM     10  C   LIG d   1       8.104   1.763  -6.189  0.00  0.00    -0.034 C 
ATOM     11  C   LIG d   1       8.124   2.000  -4.841  0.00  0.00     0.099 C 
ATOM     12  C   LIG d   1       9.249   2.630  -4.275  0.00  0.00     0.273 C 
ATOM     13  O   LIG d   1       9.253   2.905  -3.085  0.00  0.00    -0.266 OA
ATOM     14  N   LIG d   1      10.327   2.932  -5.039  0.00  0.00    -0.310 N 
ATOM     15  C   LIG d   1      11.538   3.360  -4.337  0.00  0.00     0.034 C 
ATOM     16  H   LIG d   1      11.904   6.015  -4.662  0.00  0.00     0.082 H 
ATOM     17  H   LIG d   1      12.887   5.972  -6.141  0.00  0.00     0.082 H 
ATOM     18  H   LIG d   1      12.953   2.198  -6.279  0.00  0.00     0.028 H 
ATOM     19  H   LIG d   1      13.490   3.659  -7.151  0.00  0.00     0.028 H 
ATOM     20  H   LIG d   1      11.904   5.152  -8.208  0.00  0.00     0.082 H 
ATOM     21  H   LIG d   1      10.161   4.778  -8.259  0.00  0.00     0.082 H 
ATOM     22  H   LIG d   1       9.184   2.014  -8.031  0.00  0.00     0.064 H 
ATOM     23  H   LIG d   1       7.262   1.265  -6.647  0.00  0.00     0.064 H 
ATOM     24  H   LIG d   1      11.259   4.046  -3.537  0.00  0.00     0.050 H 
ATOM     25  H   LIG d   1      12.020   2.485  -3.899  0.00  0.00     0.050 H 
ATOM     26  N   LIG d   1      10.848   5.459  -6.387  0.00  0.00     0.236 N 
ATOM     27  H   LIG d   1      10.112   4.985  -5.851  0.00  0.00     0.203 HD
ENDROOT
BRANCH  11  28
ATOM     28  N   LIG d   1       7.041   1.621  -4.037  0.00  0.00    -0.281 N 
ATOM     29  C   LIG d   1       6.910   0.339  -3.642  0.00  0.00     0.220 C 
ATOM     30  O   LIG d   1       7.774  -0.470  -3.911  0.00  0.00    -0.275 OA
ATOM     31  H   LIG d   1       6.384   2.282  -3.765  0.00  0.00     0.155 HD
BRANCH  29  32
ATOM     32  C   LIG d   1       5.692  -0.090  -2.866  0.00  0.00     0.036 C 
ATOM     33  C   LIG d   1       4.517   0.825  -3.213  0.00  0.00    -0.042 C 
ATOM     34  C   LIG d   1       3.281   0.390  -2.425  0.00  0.00    -0.052 C 
ATOM     35  H   LIG d   1       4.769   1.855  -2.955  0.00  0.00     0.027 H 
ATOM     36  H   LIG d   1       4.309   0.760  -4.282  0.00  0.00     0.027 H 
ATOM     37  C   LIG d   1       2.927  -1.054  -2.787  0.00  0.00    -0.053 C 
ATOM     38  H   LIG d   1       3.488   0.456  -1.357  0.00  0.00     0.026 H 
ATOM     39  H   LIG d   1       2.443   1.044  -2.673  0.00  0.00     0.026 H 
ATOM     40  C   LIG d   1       4.102  -1.970  -2.439  0.00  0.00    -0.052 C 
ATOM     41  H   LIG d   1       2.045  -1.364  -2.226  0.00  0.00     0.026 H 
ATOM     42  H   LIG d   1       2.719  -1.119  -3.855  0.00  0.00     0.026 H 
ATOM     43  C   LIG d   1       5.339  -1.534  -3.227  0.00  0.00    -0.042 C 
ATOM     44  H   LIG d   1       4.310  -1.904  -1.371  0.00  0.00     0.026 H 
ATOM     45  H   LIG d   1       3.850  -2.998  -2.697  0.00  0.00     0.026 H 
ATOM     46  H   LIG d   1       5.131  -1.599  -4.296  0.00  0.00     0.027 H 
ATOM     47  H   LIG d   1       6.176  -2.187  -2.979  0.00  0.00     0.027 H 
ATOM     48  H   LIG d   1       5.901  -0.025  -1.797  0.00  0.00     0.039 H 
ENDBRANCH  29  32
ENDBRANCH  11  28
BRANCH  26  49
ATOM     49  C   LIG d   1      10.415   6.844  -6.673  0.00  0.00    -0.032 C 
ATOM     50  H   LIG d   1      11.281   7.505  -6.624  0.00  0.00     0.081 H 
ATOM     51  H   LIG d   1       9.965   6.908  -7.663  0.00  0.00     0.081 H 
BRANCH  49  52
ATOM     52  C   LIG d   1       9.391   7.266  -5.618  0.00  0.00    -0.009 C 
ATOM     53  H   LIG d   1       8.491   7.635  -6.111  0.00  0.00     0.032 H 
ATOM     54  H   LIG d   1       9.138   6.410  -4.993  0.00  0.00     0.032 H 
BRANCH  52  55
ATOM     55  C   LIG d   1       9.985   8.376  -4.747  0.00  0.00    -0.023 C 
ATOM     56  H   LIG d   1      10.970   8.648  -5.128  0.00  0.00     0.032 H 
ATOM     57  H   LIG d   1       9.331   9.248  -4.771  0.00  0.00     0.032 H 
BRANCH  55  58
ATOM     58  C   LIG d   1      10.115   7.885  -3.328  0.00  0.00    -0.047 A 
ATOM     59  C   LIG d   1      10.522   8.751  -2.331  0.00  0.00    -0.059 A 
ATOM     60  C   LIG d   1      10.640   8.301  -1.029  0.00  0.00    -0.061 A 
ATOM     61  H   LIG d   1      10.748   9.780  -2.569  0.00  0.00     0.062 H 
ATOM     62  C   LIG d   1      10.351   6.983  -0.725  0.00  0.00    -0.062 A 
ATOM     63  H   LIG d   1      10.959   8.977  -0.250  0.00  0.00     0.062 H 
ATOM     64  C   LIG d   1       9.943   6.117  -1.722  0.00  0.00    -0.061 A 
ATOM     65  H   LIG d   1      10.444   6.631   0.292  0.00  0.00     0.062 H 
ATOM     66  C   LIG d   1       9.821   6.569  -3.022  0.00  0.00    -0.059 A 
ATOM     67  H   LIG d   1       9.716   5.089  -1.483  0.00  0.00     0.062 H 
ATOM     68  H   LIG d   1       9.498   5.893  -3.800  0.00  0.00     0.062 H 
ENDBRANCH  55  58
ENDBRANCH  52  55
ENDBRANCH  49  52
ENDBRANCH  26  49
TORSDOF 6
ENDMDL
MODEL 7
REMARK VINA RESULT:      -6.9      4.116      6.817
REMARK  6 active torsions:
REMARK  status: ('A' for Active; 'I' for Inactive)
REMARK    1  A    between atoms: C_4  and  C_7 
REMARK    2  A    between atoms: C_7  and  C_8 
REMARK    3  A    between atoms: C_8  and  C_9 
REMARK    4  A    between atoms: C_9  and  N_67 
REMARK    5  A    between atoms: C_20  and  N_25 
REMARK       I    between atoms: N_25  and  C_26 
REMARK    6  A    between atoms: C_26  and  C_28 
ROOT
ATOM      1  C   LIG d   1      10.757   3.155  -5.546  0.00  0.00    -0.027 C 
ATOM      2  C   LIG d   1      12.025   3.883  -5.127  0.00  0.00     0.018 C 
ATOM      3  H   LIG d   1      12.797   3.685  -5.871  0.00  0.00     0.037 H 
ATOM      4  C   LIG d   1      12.529   3.364  -3.777  0.00  0.00    -0.031 C 
ATOM      5  C   LIG d   1      11.395   3.540  -2.761  0.00  0.00     0.040 C 
ATOM      6  H   LIG d   1      11.711   3.229  -1.765  0.00  0.00     0.042 H 
ATOM      7  C   LIG d   1      10.197   2.701  -3.233  0.00  0.00    -0.024 C 
ATOM      8  C   LIG d   1      10.960   4.988  -2.750  0.00  0.00     0.030 C 
ATOM      9  C   LIG d   1      10.449   5.481  -1.592  0.00  0.00    -0.040 C 
ATOM     10  C   LIG d   1       9.965   6.793  -1.527  0.00  0.00    -0.034 C 
ATOM     11  C   LIG d   1       9.990   7.563  -2.657  0.00  0.00     0.099 C 
ATOM     12  C   LIG d   1      10.523   7.019  -3.842  0.00  0.00     0.273 C 
ATOM     13  O   LIG d   1      10.495   7.671  -4.874  0.00  0.00    -0.266 OA
ATOM     14  N   LIG d   1      11.070   5.778  -3.846  0.00  0.00    -0.310 N 
ATOM     15  C   LIG d   1      11.813   5.385  -5.044  0.00  0.00     0.034 C 
ATOM     16  H   LIG d   1      10.381   3.594  -6.471  0.00  0.00     0.082 H 
ATOM     17  H   LIG d   1      10.988   2.104  -5.717  0.00  0.00     0.082 H 
ATOM     18  H   LIG d   1      13.401   3.936  -3.462  0.00  0.00     0.028 H 
ATOM     19  H   LIG d   1      12.788   2.309  -3.861  0.00  0.00     0.028 H 
ATOM     20  H   LIG d   1      10.506   1.665  -3.375  0.00  0.00     0.082 H 
ATOM     21  H   LIG d   1       9.398   2.749  -2.492  0.00  0.00     0.082 H 
ATOM     22  H   LIG d   1      10.417   4.855  -0.712  0.00  0.00     0.064 H 
ATOM     23  H   LIG d   1       9.578   7.190  -0.600  0.00  0.00     0.064 H 
ATOM     24  H   LIG d   1      11.261   5.712  -5.925  0.00  0.00     0.050 H 
ATOM     25  H   LIG d   1      12.785   5.877  -5.034  0.00  0.00     0.050 H 
ATOM     26  N   LIG d   1       9.717   3.286  -4.505  0.00  0.00     0.236 N 
ATOM     27  H   LIG d   1       9.515   4.282  -4.358  0.00  0.00     0.203 HD
ENDROOT
BRANCH  11  28
ATOM     28  N   LIG d   1       9.494   8.873  -2.637  0.00  0.00    -0.281 N 
ATOM     29  C   LIG d   1      10.242   9.870  -2.125  0.00  0.00     0.220 C 
ATOM     30  O   LIG d   1      11.377   9.650  -1.759  0.00  0.00    -0.275 OA
ATOM     31  H   LIG d   1       8.610   9.062  -2.992  0.00  0.00     0.155 HD
BRANCH  29  32
ATOM     32  C   LIG d   1       9.668  11.258  -2.007  0.00  0.00     0.036 C 
ATOM     33  C   LIG d   1      10.796  12.255  -1.738  0.00  0.00    -0.042 C 
ATOM     34  C   LIG d   1      10.214  13.665  -1.618  0.00  0.00    -0.052 C 
ATOM     35  H   LIG d   1      11.302  11.991  -0.809  0.00  0.00     0.027 H 
ATOM     36  H   LIG d   1      11.511  12.226  -2.561  0.00  0.00     0.027 H 
ATOM     37  C   LIG d   1       9.504  14.037  -2.922  0.00  0.00    -0.053 C 
ATOM     38  H   LIG d   1       9.500  13.694  -0.795  0.00  0.00     0.026 H 
ATOM     39  H   LIG d   1      11.019  14.375  -1.426  0.00  0.00     0.026 H 
ATOM     40  C   LIG d   1       8.375  13.039  -3.190  0.00  0.00    -0.052 C 
ATOM     41  H   LIG d   1       9.090  15.041  -2.836  0.00  0.00     0.026 H 
ATOM     42  H   LIG d   1      10.218  14.007  -3.745  0.00  0.00     0.026 H 
ATOM     43  C   LIG d   1       8.958  11.630  -3.310  0.00  0.00    -0.042 C 
ATOM     44  H   LIG d   1       7.661  13.068  -2.367  0.00  0.00     0.026 H 
ATOM     45  H   LIG d   1       7.870  13.304  -4.118  0.00  0.00     0.026 H 
ATOM     46  H   LIG d   1       9.673  11.601  -4.133  0.00  0.00     0.027 H 
ATOM     47  H   LIG d   1       8.154  10.920  -3.501  0.00  0.00     0.027 H 
ATOM     48  H   LIG d   1       8.953  11.287  -1.184  0.00  0.00     0.039 H 
ENDBRANCH  29  32
ENDBRANCH  11  28
BRANCH  26  49
ATOM     49  C   LIG d   1       8.478   2.605  -4.939  0.00  0.00    -0.032 C 
ATOM     50  H   LIG d   1       7.733   3.356  -5.202  0.00  0.00     0.081 H 
ATOM     51  H   LIG d   1       8.673   1.969  -5.801  0.00  0.00     0.081 H 
BRANCH  49  52
ATOM     52  C   LIG d   1       7.956   1.751  -3.782  0.00  0.00    -0.009 C 
ATOM     53  H   LIG d   1       8.778   1.511  -3.107  0.00  0.00     0.032 H 
ATOM     54  H   LIG d   1       7.189   2.303  -3.239  0.00  0.00     0.032 H 
BRANCH  52  55
ATOM     55  C   LIG d   1       7.357   0.456  -4.335  0.00  0.00    -0.023 C 
ATOM     56  H   LIG d   1       6.976   0.632  -5.341  0.00  0.00     0.032 H 
ATOM     57  H   LIG d   1       8.126  -0.316  -4.367  0.00  0.00     0.032 H 
BRANCH  55  58
ATOM     58  C   LIG d   1       6.228   0.004  -3.444  0.00  0.00    -0.047 A 
ATOM     59  C   LIG d   1       5.516   0.931  -2.707  0.00  0.00    -0.059 A 
ATOM     60  C   LIG d   1       4.481   0.518  -1.890  0.00  0.00    -0.061 A 
ATOM     61  H   LIG d   1       5.769   1.980  -2.769  0.00  0.00     0.062 H 
ATOM     62  C   LIG d   1       4.158  -0.825  -1.810  0.00  0.00    -0.062 A 
ATOM     63  H   LIG d   1       3.925   1.242  -1.313  0.00  0.00     0.062 H 
ATOM     64  C   LIG d   1       4.869  -1.752  -2.548  0.00  0.00    -0.061 A 
ATOM     65  H   LIG d   1       3.349  -1.148  -1.172  0.00  0.00     0.062 H 
ATOM     66  C   LIG d   1       5.902  -1.337  -3.368  0.00  0.00    -0.059 A 
ATOM     67  H   LIG d   1       4.616  -2.800  -2.486  0.00  0.00     0.062 H 
ATOM     68  H   LIG d   1       6.455  -2.061  -3.948  0.00  0.00     0.062 H 
ENDBRANCH  55  58
ENDBRANCH  52  55
ENDBRANCH  49  52
ENDBRANCH  26  49
TORSDOF 6
ENDMDL
MODEL 8
REMARK VINA RESULT:      -6.8      2.603      8.163
REMARK  6 active torsions:
REMARK  status: ('A' for Active; 'I' for Inactive)
REMARK    1  A    between atoms: C_4  and  C_7 
REMARK    2  A    between atoms: C_7  and  C_8 
REMARK    3  A    between atoms: C_8  and  C_9 
REMARK    4  A    between atoms: C_9  and  N_67 
REMARK    5  A    between atoms: C_20  and  N_25 
REMARK       I    between atoms: N_25  and  C_26 
REMARK    6  A    between atoms: C_26  and  C_28 
ROOT
ATOM      1  C   LIG d   1       5.117   1.388  -2.659  0.00  0.00    -0.027 C 
ATOM      2  C   LIG d   1       3.866   0.527  -2.574  0.00  0.00     0.018 C 
ATOM      3  H   LIG d   1       3.189   0.975  -1.847  0.00  0.00     0.037 H 
ATOM      4  C   LIG d   1       4.211  -0.884  -2.088  0.00  0.00    -0.031 C 
ATOM      5  C   LIG d   1       5.252  -1.464  -3.053  0.00  0.00     0.040 C 
ATOM      6  H   LIG d   1       5.504  -2.490  -2.784  0.00  0.00     0.042 H 
ATOM      7  C   LIG d   1       6.501  -0.571  -3.000  0.00  0.00    -0.024 C 
ATOM      8  C   LIG d   1       4.709  -1.404  -4.463  0.00  0.00     0.030 C 
ATOM      9  C   LIG d   1       5.141  -2.346  -5.342  0.00  0.00    -0.040 C 
ATOM     10  C   LIG d   1       4.732  -2.313  -6.680  0.00  0.00    -0.034 C 
ATOM     11  C   LIG d   1       3.911  -1.300  -7.095  0.00  0.00     0.099 C 
ATOM     12  C   LIG d   1       3.485  -0.339  -6.158  0.00  0.00     0.273 C 
ATOM     13  O   LIG d   1       2.805   0.606  -6.527  0.00  0.00    -0.266 OA
ATOM     14  N   LIG d   1       3.823  -0.454  -4.850  0.00  0.00    -0.310 N 
ATOM     15  C   LIG d   1       3.148   0.441  -3.910  0.00  0.00     0.034 C 
ATOM     16  H   LIG d   1       4.854   2.361  -3.076  0.00  0.00     0.082 H 
ATOM     17  H   LIG d   1       5.525   1.527  -1.658  0.00  0.00     0.082 H 
ATOM     18  H   LIG d   1       3.316  -1.506  -2.092  0.00  0.00     0.028 H 
ATOM     19  H   LIG d   1       4.626  -0.837  -1.082  0.00  0.00     0.028 H 
ATOM     20  H   LIG d   1       6.850  -0.487  -1.971  0.00  0.00     0.082 H 
ATOM     21  H   LIG d   1       7.287  -0.999  -3.622  0.00  0.00     0.082 H 
ATOM     22  H   LIG d   1       5.805  -3.128  -5.005  0.00  0.00     0.064 H 
ATOM     23  H   LIG d   1       5.059  -3.074  -7.373  0.00  0.00     0.064 H 
ATOM     24  H   LIG d   1       3.095   1.438  -4.347  0.00  0.00     0.050 H 
ATOM     25  H   LIG d   1       2.135   0.076  -3.741  0.00  0.00     0.050 H 
ATOM     26  N   LIG d   1       6.123   0.756  -3.537  0.00  0.00     0.236 N 
ATOM     27  H   LIG d   1       5.719   0.633  -4.473  0.00  0.00     0.203 HD
ENDROOT
BRANCH  11  28
ATOM     28  N   LIG d   1       3.499  -1.221  -8.432  0.00  0.00    -0.281 N 
ATOM     29  C   LIG d   1       4.249  -0.551  -9.330  0.00  0.00     0.220 C 
ATOM     30  O   LIG d   1       5.321  -0.089  -9.001  0.00  0.00    -0.275 OA
ATOM     31  H   LIG d   1       2.674  -1.647  -8.712  0.00  0.00     0.155 HD
BRANCH  29  32
ATOM     32  C   LIG d   1       3.755  -0.375 -10.742  0.00  0.00     0.036 C 
ATOM     33  C   LIG d   1       4.913  -0.590 -11.718  0.00  0.00    -0.042 C 
ATOM     34  C   LIG d   1       4.412  -0.411 -13.152  0.00  0.00    -0.052 C 
ATOM     35  H   LIG d   1       5.700   0.138 -11.515  0.00  0.00     0.027 H 
ATOM     36  H   LIG d   1       5.311  -1.598 -11.595  0.00  0.00     0.027 H 
ATOM     37  C   LIG d   1       3.309  -1.433 -13.438  0.00  0.00    -0.053 C 
ATOM     38  H   LIG d   1       4.015   0.596 -13.276  0.00  0.00     0.026 H 
ATOM     39  H   LIG d   1       5.239  -0.564 -13.847  0.00  0.00     0.026 H 
ATOM     40  C   LIG d   1       2.150  -1.218 -12.462  0.00  0.00    -0.052 C 
ATOM     41  H   LIG d   1       2.952  -1.306 -14.460  0.00  0.00     0.026 H 
ATOM     42  H   LIG d   1       3.706  -2.440 -13.314  0.00  0.00     0.026 H 
ATOM     43  C   LIG d   1       2.652  -1.396 -11.028  0.00  0.00    -0.042 C 
ATOM     44  H   LIG d   1       1.753  -0.210 -12.586  0.00  0.00     0.026 H 
ATOM     45  H   LIG d   1       1.365  -1.945 -12.666  0.00  0.00     0.026 H 
ATOM     46  H   LIG d   1       3.049  -2.404 -10.904  0.00  0.00     0.027 H 
ATOM     47  H   LIG d   1       1.826  -1.243 -10.333  0.00  0.00     0.027 H 
ATOM     48  H   LIG d   1       3.357   0.633 -10.866  0.00  0.00     0.039 H 
ENDBRANCH  29  32
ENDBRANCH  11  28
BRANCH  26  49
ATOM     49  C   LIG d   1       7.319   1.619  -3.640  0.00  0.00    -0.032 C 
ATOM     50  H   LIG d   1       7.004   2.662  -3.653  0.00  0.00     0.081 H 
ATOM     51  H   LIG d   1       7.986   1.451  -2.795  0.00  0.00     0.081 H 
BRANCH  49  52
ATOM     52  C   LIG d   1       8.052   1.290  -4.942  0.00  0.00    -0.009 C 
ATOM     53  H   LIG d   1       7.960   0.224  -5.152  0.00  0.00     0.032 H 
ATOM     54  H   LIG d   1       7.614   1.861  -5.761  0.00  0.00     0.032 H 
BRANCH  52  55
ATOM     55  C   LIG d   1       9.531   1.655  -4.799  0.00  0.00    -0.023 C 
ATOM     56  H   LIG d   1      10.007   0.975  -4.092  0.00  0.00     0.032 H 
ATOM     57  H   LIG d   1      10.021   1.574  -5.769  0.00  0.00     0.032 H 
BRANCH  55  58
ATOM     58  C   LIG d   1       9.652   3.070  -4.293  0.00  0.00    -0.047 A 
ATOM     59  C   LIG d   1      10.122   3.310  -3.016  0.00  0.00    -0.059 A 
ATOM     60  C   LIG d   1      10.233   4.606  -2.551  0.00  0.00    -0.061 A 
ATOM     61  H   LIG d   1      10.404   2.483  -2.380  0.00  0.00     0.062 H 
ATOM     62  C   LIG d   1       9.873   5.665  -3.365  0.00  0.00    -0.062 A 
ATOM     63  H   LIG d   1      10.600   4.794  -1.553  0.00  0.00     0.062 H 
ATOM     64  C   LIG d   1       9.403   5.426  -4.643  0.00  0.00    -0.061 A 
ATOM     65  H   LIG d   1       9.959   6.678  -3.002  0.00  0.00     0.062 H 
ATOM     66  C   LIG d   1       9.296   4.128  -5.108  0.00  0.00    -0.059 A 
ATOM     67  H   LIG d   1       9.123   6.253  -5.278  0.00  0.00     0.062 H 
ATOM     68  H   LIG d   1       8.933   3.942  -6.108  0.00  0.00     0.062 H 
ENDBRANCH  55  58
ENDBRANCH  52  55
ENDBRANCH  49  52
ENDBRANCH  26  49
TORSDOF 6
ENDMDL
MODEL 9
REMARK VINA RESULT:      -6.7      4.867      8.893
REMARK  6 active torsions:
REMARK  status: ('A' for Active; 'I' for Inactive)
REMARK    1  A    between atoms: C_4  and  C_7 
REMARK    2  A    between atoms: C_7  and  C_8 
REMARK    3  A    between atoms: C_8  and  C_9 
REMARK    4  A    between atoms: C_9  and  N_67 
REMARK    5  A    between atoms: C_20  and  N_25 
REMARK       I    between atoms: N_25  and  C_26 
REMARK    6  A    between atoms: C_26  and  C_28 
ROOT
ATOM      1  C   LIG d   1       5.140   0.594  -8.825  0.00  0.00    -0.027 C 
ATOM      2  C   LIG d   1       5.115   0.335 -10.324  0.00  0.00     0.018 C 
ATOM      3  H   LIG d   1       5.925   0.901 -10.784  0.00  0.00     0.037 H 
ATOM      4  C   LIG d   1       3.797   0.818 -10.936  0.00  0.00    -0.031 C 
ATOM      5  C   LIG d   1       2.656   0.101 -10.204  0.00  0.00     0.040 C 
ATOM      6  H   LIG d   1       1.689   0.371 -10.629  0.00  0.00     0.042 H 
ATOM      7  C   LIG d   1       2.721   0.495  -8.719  0.00  0.00    -0.024 C 
ATOM      8  C   LIG d   1       2.874  -1.393 -10.288  0.00  0.00     0.030 C 
ATOM      9  C   LIG d   1       1.773  -2.189 -10.263  0.00  0.00    -0.040 C 
ATOM     10  C   LIG d   1       1.902  -3.583 -10.270  0.00  0.00    -0.034 C 
ATOM     11  C   LIG d   1       3.156  -4.131 -10.276  0.00  0.00     0.099 C 
ATOM     12  C   LIG d   1       4.275  -3.275 -10.298  0.00  0.00     0.273 C 
ATOM     13  O   LIG d   1       5.399  -3.748 -10.240  0.00  0.00    -0.266 OA
ATOM     14  N   LIG d   1       4.114  -1.932 -10.386  0.00  0.00    -0.310 N 
ATOM     15  C   LIG d   1       5.314  -1.136 -10.646  0.00  0.00     0.034 C 
ATOM     16  H   LIG d   1       6.055   0.175  -8.404  0.00  0.00     0.082 H 
ATOM     17  H   LIG d   1       5.124   1.669  -8.647  0.00  0.00     0.082 H 
ATOM     18  H   LIG d   1       3.768   0.570 -11.997  0.00  0.00     0.028 H 
ATOM     19  H   LIG d   1       3.701   1.895 -10.804  0.00  0.00     0.028 H 
ATOM     20  H   LIG d   1       2.694   1.581  -8.625  0.00  0.00     0.082 H 
ATOM     21  H   LIG d   1       1.878   0.058  -8.184  0.00  0.00     0.082 H 
ATOM     22  H   LIG d   1       0.790  -1.743 -10.238  0.00  0.00     0.064 H 
ATOM     23  H   LIG d   1       1.027  -4.215 -10.272  0.00  0.00     0.064 H 
ATOM     24  H   LIG d   1       6.132  -1.523 -10.039  0.00  0.00     0.050 H 
ATOM     25  H   LIG d   1       5.580  -1.232 -11.699  0.00  0.00     0.050 H 
ATOM     26  N   LIG d   1       3.982  -0.049  -8.169  0.00  0.00     0.236 N 
ATOM     27  H   LIG d   1       4.015  -1.060  -8.349  0.00  0.00     0.203 HD
ENDROOT
BRANCH  11  28
ATOM     28  N   LIG d   1       3.325  -5.521 -10.261  0.00  0.00    -0.281 N 
ATOM     29  C   LIG d   1       3.375  -6.181  -9.087  0.00  0.00     0.220 C 
ATOM     30  O   LIG d   1       3.189  -5.585  -8.047  0.00  0.00    -0.275 OA
ATOM     31  H   LIG d   1       3.406  -6.009 -11.096  0.00  0.00     0.155 HD
BRANCH  29  32
ATOM     32  C   LIG d   1       3.661  -7.661  -9.066  0.00  0.00     0.036 C 
ATOM     33  C   LIG d   1       4.638  -8.007 -10.191  0.00  0.00    -0.042 C 
ATOM     34  C   LIG d   1       4.929  -9.509 -10.170  0.00  0.00    -0.052 C 
ATOM     35  H   LIG d   1       4.199  -7.735 -11.151  0.00  0.00     0.027 H 
ATOM     36  H   LIG d   1       5.568  -7.455 -10.047  0.00  0.00     0.027 H 
ATOM     37  C   LIG d   1       5.546  -9.890  -8.822  0.00  0.00    -0.053 C 
ATOM     38  H   LIG d   1       4.000 -10.061 -10.313  0.00  0.00     0.026 H 
ATOM     39  H   LIG d   1       5.626  -9.755 -10.972  0.00  0.00     0.026 H 
ATOM     40  C   LIG d   1       4.568  -9.544  -7.697  0.00  0.00    -0.052 C 
ATOM     41  H   LIG d   1       5.753 -10.960  -8.807  0.00  0.00     0.026 H 
ATOM     42  H   LIG d   1       6.474  -9.338  -8.679  0.00  0.00     0.026 H 
ATOM     43  C   LIG d   1       4.277  -8.042  -7.719  0.00  0.00    -0.042 C 
ATOM     44  H   LIG d   1       3.639 -10.096  -7.841  0.00  0.00     0.026 H 
ATOM     45  H   LIG d   1       5.007  -9.816  -6.738  0.00  0.00     0.026 H 
ATOM     46  H   LIG d   1       5.206  -7.490  -7.576  0.00  0.00     0.027 H 
ATOM     47  H   LIG d   1       3.581  -7.796  -6.917  0.00  0.00     0.027 H 
ATOM     48  H   LIG d   1       2.732  -8.213  -9.209  0.00  0.00     0.039 H 
ENDBRANCH  29  32
ENDBRANCH  11  28
BRANCH  26  49
ATOM     49  C   LIG d   1       4.037   0.179  -6.709  0.00  0.00    -0.032 C 
ATOM     50  H   LIG d   1       4.720  -0.543  -6.261  0.00  0.00     0.081 H 
ATOM     51  H   LIG d   1       4.383   1.189  -6.492  0.00  0.00     0.081 H 
BRANCH  49  52
ATOM     52  C   LIG d   1       2.635  -0.017  -6.128  0.00  0.00    -0.009 C 
ATOM     53  H   LIG d   1       1.891   0.273  -6.871  0.00  0.00     0.032 H 
ATOM     54  H   LIG d   1       2.495  -1.064  -5.861  0.00  0.00     0.032 H 
BRANCH  52  55
ATOM     55  C   LIG d   1       2.476   0.855  -4.880  0.00  0.00    -0.023 C 
ATOM     56  H   LIG d   1       2.910   1.837  -5.065  0.00  0.00     0.032 H 
ATOM     57  H   LIG d   1       1.417   0.962  -4.645  0.00  0.00     0.032 H 
BRANCH  55  58
ATOM     58  C   LIG d   1       3.184   0.203  -3.720  0.00  0.00    -0.047 A 
ATOM     59  C   LIG d   1       3.934   0.971  -2.848  0.00  0.00    -0.059 A 
ATOM     60  C   LIG d   1       4.583   0.374  -1.784  0.00  0.00    -0.061 A 
ATOM     61  H   LIG d   1       4.011   2.038  -2.998  0.00  0.00     0.062 H 
ATOM     62  C   LIG d   1       4.483  -0.992  -1.592  0.00  0.00    -0.062 A 
ATOM     63  H   LIG d   1       5.169   0.973  -1.103  0.00  0.00     0.062 H 
ATOM     64  C   LIG d   1       3.734  -1.759  -2.463  0.00  0.00    -0.061 A 
ATOM     65  H   LIG d   1       4.991  -1.458  -0.761  0.00  0.00     0.062 H 
ATOM     66  C   LIG d   1       3.081  -1.161  -3.525  0.00  0.00    -0.059 A 
ATOM     67  H   LIG d   1       3.656  -2.826  -2.312  0.00  0.00     0.062 H 
ATOM     68  H   LIG d   1       2.492  -1.761  -4.203  0.00  0.00     0.062 H 
ENDBRANCH  55  58
ENDBRANCH  52  55
ENDBRANCH  49  52
ENDBRANCH  26  49
TORSDOF 6
ENDMDL
MODEL 10
REMARK VINA RESULT:      -6.7      3.957      6.838
REMARK  6 active torsions:
REMARK  status: ('A' for Active; 'I' for Inactive)
REMARK    1  A    between atoms: C_4  and  C_7 
REMARK    2  A    between atoms: C_7  and  C_8 
REMARK    3  A    between atoms: C_8  and  C_9 
REMARK    4  A    between atoms: C_9  and  N_67 
REMARK    5  A    between atoms: C_20  and  N_25 
REMARK       I    between atoms: N_25  and  C_26 
REMARK    6  A    between atoms: C_26  and  C_28 
ROOT
ATOM      1  C   LIG d   1       6.575  -2.899 -12.915  0.00  0.00    -0.027 C 
ATOM      2  C   LIG d   1       7.377  -3.532 -11.787  0.00  0.00     0.018 C 
ATOM      3  H   LIG d   1       8.413  -3.626 -12.114  0.00  0.00     0.037 H 
ATOM      4  C   LIG d   1       6.854  -4.935 -11.470  0.00  0.00    -0.031 C 
ATOM      5  C   LIG d   1       5.366  -4.808 -11.124  0.00  0.00     0.040 C 
ATOM      6  H   LIG d   1       4.947  -5.774 -10.842  0.00  0.00     0.042 H 
ATOM      7  C   LIG d   1       4.638  -4.241 -12.353  0.00  0.00    -0.024 C 
ATOM      8  C   LIG d   1       5.203  -3.811  -9.999  0.00  0.00     0.030 C 
ATOM      9  C   LIG d   1       4.144  -3.976  -9.164  0.00  0.00    -0.040 C 
ATOM     10  C   LIG d   1       3.892  -3.054  -8.141  0.00  0.00    -0.034 C 
ATOM     11  C   LIG d   1       4.716  -1.969  -8.012  0.00  0.00     0.099 C 
ATOM     12  C   LIG d   1       5.802  -1.828  -8.897  0.00  0.00     0.273 C 
ATOM     13  O   LIG d   1       6.507  -0.833  -8.835  0.00  0.00    -0.266 OA
ATOM     14  N   LIG d   1       6.072  -2.788  -9.816  0.00  0.00    -0.310 N 
ATOM     15  C   LIG d   1       7.346  -2.683 -10.528  0.00  0.00     0.034 C 
ATOM     16  H   LIG d   1       6.920  -1.876 -13.070  0.00  0.00     0.082 H 
ATOM     17  H   LIG d   1       6.731  -3.471 -13.829  0.00  0.00     0.082 H 
ATOM     18  H   LIG d   1       7.397  -5.350 -10.621  0.00  0.00     0.028 H 
ATOM     19  H   LIG d   1       6.976  -5.581 -12.340  0.00  0.00     0.028 H 
ATOM     20  H   LIG d   1       4.837  -4.870 -13.221  0.00  0.00     0.082 H 
ATOM     21  H   LIG d   1       3.565  -4.206 -12.162  0.00  0.00     0.082 H 
ATOM     22  H   LIG d   1       3.490  -4.827  -9.289  0.00  0.00     0.064 H 
ATOM     23  H   LIG d   1       3.063  -3.198  -7.464  0.00  0.00     0.064 H 
ATOM     24  H   LIG d   1       7.515  -1.641 -10.800  0.00  0.00     0.050 H 
ATOM     25  H   LIG d   1       8.149  -3.009  -9.865  0.00  0.00     0.050 H 
ATOM     26  N   LIG d   1       5.138  -2.866 -12.572  0.00  0.00     0.236 N 
ATOM     27  H   LIG d   1       5.013  -2.324 -11.709  0.00  0.00     0.203 HD
ENDROOT
BRANCH  11  28
ATOM     28  N   LIG d   1       4.482  -1.014  -7.015  0.00  0.00    -0.281 N 
ATOM     29  C   LIG d   1       4.928  -1.224  -5.761  0.00  0.00     0.220 C 
ATOM     30  O   LIG d   1       5.605  -2.200  -5.513  0.00  0.00    -0.275 OA
ATOM     31  H   LIG d   1       3.998  -0.199  -7.227  0.00  0.00     0.155 HD
BRANCH  29  32
ATOM     32  C   LIG d   1       4.587  -0.248  -4.665  0.00  0.00     0.036 C 
ATOM     33  C   LIG d   1       3.523  -0.858  -3.751  0.00  0.00    -0.042 C 
ATOM     34  C   LIG d   1       3.176   0.134  -2.639  0.00  0.00    -0.052 C 
ATOM     35  H   LIG d   1       2.628  -1.081  -4.331  0.00  0.00     0.027 H 
ATOM     36  H   LIG d   1       3.908  -1.779  -3.310  0.00  0.00     0.027 H 
ATOM     37  C   LIG d   1       4.433   0.445  -1.823  0.00  0.00    -0.053 C 
ATOM     38  H   LIG d   1       2.792   1.054  -3.079  0.00  0.00     0.026 H 
ATOM     39  H   LIG d   1       2.418  -0.302  -1.987  0.00  0.00     0.026 H 
ATOM     40  C   LIG d   1       5.496   1.056  -2.738  0.00  0.00    -0.052 C 
ATOM     41  H   LIG d   1       4.186   1.151  -1.030  0.00  0.00     0.026 H 
ATOM     42  H   LIG d   1       4.818  -0.475  -1.382  0.00  0.00     0.026 H 
ATOM     43  C   LIG d   1       5.843   0.065  -3.850  0.00  0.00    -0.042 C 
ATOM     44  H   LIG d   1       5.112   1.976  -3.178  0.00  0.00     0.026 H 
ATOM     45  H   LIG d   1       6.391   1.278  -2.157  0.00  0.00     0.026 H 
ATOM     46  H   LIG d   1       6.227  -0.856  -3.409  0.00  0.00     0.027 H 
ATOM     47  H   LIG d   1       6.601   0.500  -4.501  0.00  0.00     0.027 H 
ATOM     48  H   LIG d   1       4.202   0.673  -5.106  0.00  0.00     0.039 H 
ENDBRANCH  29  32
ENDBRANCH  11  28
BRANCH  26  49
ATOM     49  C   LIG d   1       4.374  -2.217 -13.659  0.00  0.00    -0.032 C 
ATOM     50  H   LIG d   1       5.071  -1.838 -14.407  0.00  0.00     0.081 H 
ATOM     51  H   LIG d   1       3.693  -2.929 -14.126  0.00  0.00     0.081 H 
BRANCH  49  52
ATOM     52  C   LIG d   1       3.573  -1.055 -13.071  0.00  0.00    -0.009 C 
ATOM     53  H   LIG d   1       3.106  -0.489 -13.878  0.00  0.00     0.032 H 
ATOM     54  H   LIG d   1       2.802  -1.443 -12.406  0.00  0.00     0.032 H 
BRANCH  52  55
ATOM     55  C   LIG d   1       4.512  -0.137 -12.284  0.00  0.00    -0.023 C 
ATOM     56  H   LIG d   1       5.396  -0.697 -11.980  0.00  0.00     0.032 H 
ATOM     57  H   LIG d   1       4.809   0.703 -12.910  0.00  0.00     0.032 H 
BRANCH  55  58
ATOM     58  C   LIG d   1       3.799   0.377 -11.059  0.00  0.00    -0.047 A 
ATOM     59  C   LIG d   1       2.704  -0.303 -10.559  0.00  0.00    -0.059 A 
ATOM     60  C   LIG d   1       2.051   0.168  -9.436  0.00  0.00    -0.061 A 
ATOM     61  H   LIG d   1       2.360  -1.203 -11.046  0.00  0.00     0.062 H 
ATOM     62  C   LIG d   1       2.492   1.321  -8.812  0.00  0.00    -0.062 A 
ATOM     63  H   LIG d   1       1.195  -0.363  -9.046  0.00  0.00     0.062 H 
ATOM     64  C   LIG d   1       3.587   2.001  -9.311  0.00  0.00    -0.061 A 
ATOM     65  H   LIG d   1       1.982   1.689  -7.935  0.00  0.00     0.062 H 
ATOM     66  C   LIG d   1       4.243   1.527 -10.432  0.00  0.00    -0.059 A 
ATOM     67  H   LIG d   1       3.932   2.900  -8.824  0.00  0.00     0.062 H 
ATOM     68  H   LIG d   1       5.101   2.056 -10.820  0.00  0.00     0.062 H 
ENDBRANCH  55  58
ENDBRANCH  52  55
ENDBRANCH  49  52
ENDBRANCH  26  49
TORSDOF 6
ENDMDL
