MODEL 1
REMARK VINA RESULT:      -8.3      0.000      0.000
REMARK  6 active torsions:
REMARK  status: ('A' for Active; 'I' for Inactive)
REMARK    1  A    between atoms: C_4  and  C_7 
REMARK    2  A    between atoms: N_8  and  C_9 
REMARK    3  A    between atoms: C_10  and  C_23 
REMARK    4  A    between atoms: C_11  and  N_15 
REMARK    5  A    between atoms: C_16  and  C_17 
REMARK    6  A    between atoms: C_23  and  C_24 
ROOT
ATOM      1  C   LIG d   1       4.272  -3.461  -7.360  0.00  0.00     0.154 A 
ATOM      2  C   LIG d   1       4.882  -4.125  -6.318  0.00  0.00     0.046 A 
ATOM      3  C   LIG d   1       4.296  -5.400  -6.226  0.00  0.00     0.179 A 
ATOM      4  N   LIG d   1       3.377  -5.504  -7.168  0.00  0.00    -0.152 NA
ATOM      5  N   LIG d   1       3.337  -4.305  -7.889  0.00  0.00    -0.258 N 
ATOM      6  H   LIG d   1       2.748  -4.108  -8.634  0.00  0.00     0.191 HD
ENDROOT
BRANCH   1   7
ATOM      7  N   LIG d   1       4.548  -2.196  -7.783  0.00  0.00    -0.236 NA
ATOM      8  C   LIG d   1       3.588  -1.320  -7.891  0.00  0.00     0.037 C 
ATOM      9  H   LIG d   1       2.573  -1.599  -7.646  0.00  0.00     0.084 H 
BRANCH   8  10
ATOM     10  C   LIG d   1       3.886   0.047  -8.345  0.00  0.00    -0.007 A 
ATOM     11  C   LIG d   1       5.202   0.422  -8.635  0.00  0.00    -0.053 A 
ATOM     12  C   LIG d   1       5.472   1.705  -9.060  0.00  0.00    -0.061 A 
ATOM     13  H   LIG d   1       6.004  -0.293  -8.525  0.00  0.00     0.062 H 
ATOM     14  C   LIG d   1       4.445   2.622  -9.201  0.00  0.00    -0.062 A 
ATOM     15  H   LIG d   1       6.488   1.996  -9.284  0.00  0.00     0.062 H 
ATOM     16  C   LIG d   1       3.140   2.260  -8.917  0.00  0.00    -0.061 A 
ATOM     17  H   LIG d   1       4.664   3.627  -9.530  0.00  0.00     0.062 H 
ATOM     18  C   LIG d   1       2.853   0.980  -8.490  0.00  0.00    -0.053 A 
ATOM     19  H   LIG d   1       2.344   2.981  -9.029  0.00  0.00     0.062 H 
ATOM     20  H   LIG d   1       1.834   0.699  -8.268  0.00  0.00     0.062 H 
ENDBRANCH   8  10
ENDBRANCH   1   7
BRANCH   2  21
ATOM     21  C   LIG d   1       5.977  -3.583  -5.435  0.00  0.00     0.005 C 
ATOM     22  H   LIG d   1       6.359  -4.380  -4.799  0.00  0.00     0.036 H 
ATOM     23  H   LIG d   1       6.785  -3.195  -6.057  0.00  0.00     0.036 H 
BRANCH  21  24
ATOM     24  C   LIG d   1       5.428  -2.473  -4.576  0.00  0.00    -0.043 A 
ATOM     25  C   LIG d   1       5.851  -1.172  -4.775  0.00  0.00    -0.057 A 
ATOM     26  C   LIG d   1       5.344  -0.153  -3.992  0.00  0.00    -0.043 A 
ATOM     27  H   LIG d   1       6.575  -0.952  -5.547  0.00  0.00     0.062 H 
ATOM     28  C   LIG d   1       4.422  -0.437  -3.000  0.00  0.00     0.041 A 
ATOM     29  H   LIG d   1       5.670   0.864  -4.151  0.00  0.00     0.063 H 
ATOM     30  C   LIG d   1       4.004  -1.740  -2.797  0.00  0.00    -0.043 A 
ATOM     31 CL   LIG d   1       3.790   0.843  -2.011  0.00  0.00    -0.084 Cl
ATOM     32  C   LIG d   1       4.508  -2.757  -3.585  0.00  0.00    -0.057 A 
ATOM     33  H   LIG d   1       3.284  -1.962  -2.024  0.00  0.00     0.063 H 
ATOM     34  H   LIG d   1       4.181  -3.774  -3.427  0.00  0.00     0.062 H 
ENDBRANCH  21  24
ENDBRANCH   2  21
BRANCH   3  35
ATOM     35  N   LIG d   1       4.624  -6.370  -5.316  0.00  0.00    -0.234 NA
ATOM     36  C   LIG d   1       4.957  -7.561  -5.725  0.00  0.00     0.037 C 
ATOM     37  H   LIG d   1       4.975  -7.783  -6.782  0.00  0.00     0.084 H 
BRANCH  36  38
ATOM     38  C   LIG d   1       5.309  -8.603  -4.746  0.00  0.00    -0.007 A 
ATOM     39  C   LIG d   1       6.637  -8.766  -4.341  0.00  0.00    -0.053 A 
ATOM     40  C   LIG d   1       6.959  -9.741  -3.420  0.00  0.00    -0.061 A 
ATOM     41  H   LIG d   1       7.409  -8.126  -4.744  0.00  0.00     0.062 H 
ATOM     42  C   LIG d   1       5.973 -10.565  -2.906  0.00  0.00    -0.062 A 
ATOM     43  H   LIG d   1       7.984  -9.866  -3.103  0.00  0.00     0.062 H 
ATOM     44  C   LIG d   1       4.657 -10.413  -3.307  0.00  0.00    -0.061 A 
ATOM     45  H   LIG d   1       6.232 -11.330  -2.189  0.00  0.00     0.062 H 
ATOM     46  C   LIG d   1       4.318  -9.439  -4.222  0.00  0.00    -0.053 A 
ATOM     47  H   LIG d   1       3.893 -11.060  -2.902  0.00  0.00     0.062 H 
ATOM     48  H   LIG d   1       3.291  -9.322  -4.534  0.00  0.00     0.062 H 
ENDBRANCH  36  38
ENDBRANCH   3  35
TORSDOF 6
ENDMDL
MODEL 2
REMARK VINA RESULT:      -7.8      0.113      8.292
REMARK  6 active torsions:
REMARK  status: ('A' for Active; 'I' for Inactive)
REMARK    1  A    between atoms: C_4  and  C_7 
REMARK    2  A    between atoms: N_8  and  C_9 
REMARK    3  A    between atoms: C_10  and  C_23 
REMARK    4  A    between atoms: C_11  and  N_15 
REMARK    5  A    between atoms: C_16  and  C_17 
REMARK    6  A    between atoms: C_23  and  C_24 
ROOT
ATOM      1  C   LIG d   1       4.360  -5.390  -6.239  0.00  0.00     0.154 A 
ATOM      2  C   LIG d   1       4.910  -4.127  -6.288  0.00  0.00     0.046 A 
ATOM      3  C   LIG d   1       4.328  -3.453  -7.377  0.00  0.00     0.179 A 
ATOM      4  N   LIG d   1       3.468  -4.267  -7.958  0.00  0.00    -0.152 NA
ATOM      5  N   LIG d   1       3.470  -5.487  -7.271  0.00  0.00    -0.258 N 
ATOM      6  H   LIG d   1       2.933  -6.265  -7.490  0.00  0.00     0.191 HD
ENDROOT
BRANCH   1   7
ATOM      7  N   LIG d   1       4.652  -6.363  -5.331  0.00  0.00    -0.236 NA
ATOM      8  C   LIG d   1       4.963  -7.562  -5.738  0.00  0.00     0.037 C 
ATOM      9  H   LIG d   1       4.988  -7.784  -6.796  0.00  0.00     0.084 H 
BRANCH   8  10
ATOM     10  C   LIG d   1       5.281  -8.613  -4.759  0.00  0.00    -0.007 A 
ATOM     11  C   LIG d   1       4.267  -9.429  -4.248  0.00  0.00    -0.053 A 
ATOM     12  C   LIG d   1       4.573 -10.412  -3.331  0.00  0.00    -0.061 A 
ATOM     13  H   LIG d   1       3.246  -9.290  -4.573  0.00  0.00     0.062 H 
ATOM     14  C   LIG d   1       5.880 -10.591  -2.914  0.00  0.00    -0.062 A 
ATOM     15  H   LIG d   1       3.790 -11.043  -2.936  0.00  0.00     0.062 H 
ATOM     16  C   LIG d   1       6.890  -9.788  -3.415  0.00  0.00    -0.061 A 
ATOM     17  H   LIG d   1       6.114 -11.360  -2.192  0.00  0.00     0.062 H 
ATOM     18  C   LIG d   1       6.600  -8.801  -4.333  0.00  0.00    -0.053 A 
ATOM     19  H   LIG d   1       7.908  -9.935  -3.085  0.00  0.00     0.062 H 
ATOM     20  H   LIG d   1       7.390  -8.175  -4.723  0.00  0.00     0.062 H 
ENDBRANCH   8  10
ENDBRANCH   1   7
BRANCH   2  21
ATOM     21  C   LIG d   1       5.947  -3.570  -5.346  0.00  0.00     0.005 C 
ATOM     22  H   LIG d   1       6.284  -4.355  -4.670  0.00  0.00     0.036 H 
ATOM     23  H   LIG d   1       6.794  -3.196  -5.921  0.00  0.00     0.036 H 
BRANCH  21  24
ATOM     24  C   LIG d   1       5.345  -2.442  -4.547  0.00  0.00    -0.043 A 
ATOM     25  C   LIG d   1       5.757  -1.142  -4.770  0.00  0.00    -0.057 A 
ATOM     26  C   LIG d   1       5.202  -0.106  -4.042  0.00  0.00    -0.043 A 
ATOM     27  H   LIG d   1       6.508  -0.934  -5.518  0.00  0.00     0.062 H 
ATOM     28  C   LIG d   1       4.244  -0.373  -3.080  0.00  0.00     0.041 A 
ATOM     29  H   LIG d   1       5.520   0.910  -4.221  0.00  0.00     0.063 H 
ATOM     30  C   LIG d   1       3.838  -1.676  -2.853  0.00  0.00    -0.043 A 
ATOM     31 CL   LIG d   1       3.552   0.926  -2.160  0.00  0.00    -0.084 Cl
ATOM     32  C   LIG d   1       4.389  -2.709  -3.586  0.00  0.00    -0.057 A 
ATOM     33  H   LIG d   1       3.089  -1.885  -2.103  0.00  0.00     0.063 H 
ATOM     34  H   LIG d   1       4.071  -3.726  -3.408  0.00  0.00     0.062 H 
ENDBRANCH  21  24
ENDBRANCH   2  21
BRANCH   3  35
ATOM     35  N   LIG d   1       4.607  -2.170  -7.767  0.00  0.00    -0.234 NA
ATOM     36  C   LIG d   1       3.635  -1.333  -7.995  0.00  0.00     0.037 C 
ATOM     37  H   LIG d   1       2.609  -1.652  -7.877  0.00  0.00     0.084 H 
BRANCH  36  38
ATOM     38  C   LIG d   1       3.935   0.047  -8.414  0.00  0.00    -0.007 A 
ATOM     39  C   LIG d   1       2.910   0.993  -8.496  0.00  0.00    -0.053 A 
ATOM     40  C   LIG d   1       3.198   2.285  -8.885  0.00  0.00    -0.061 A 
ATOM     41  H   LIG d   1       1.895   0.716  -8.251  0.00  0.00     0.062 H 
ATOM     42  C   LIG d   1       4.498   2.641  -9.205  0.00  0.00    -0.062 A 
ATOM     43  H   LIG d   1       2.409   3.019  -8.945  0.00  0.00     0.062 H 
ATOM     44  C   LIG d   1       5.516   1.707  -9.131  0.00  0.00    -0.061 A 
ATOM     45  H   LIG d   1       4.717   3.652  -9.512  0.00  0.00     0.062 H 
ATOM     46  C   LIG d   1       5.244   0.414  -8.738  0.00  0.00    -0.053 A 
ATOM     47  H   LIG d   1       6.527   1.992  -9.382  0.00  0.00     0.062 H 
ATOM     48  H   LIG d   1       6.040  -0.315  -8.682  0.00  0.00     0.062 H 
ENDBRANCH  36  38
ENDBRANCH   3  35
TORSDOF 6
ENDMDL
MODEL 3
REMARK VINA RESULT:      -7.0      4.865      8.935
REMARK  6 active torsions:
REMARK  status: ('A' for Active; 'I' for Inactive)
REMARK    1  A    between atoms: C_4  and  C_7 
REMARK    2  A    between atoms: N_8  and  C_9 
REMARK    3  A    between atoms: C_10  and  C_23 
REMARK    4  A    between atoms: C_11  and  N_15 
REMARK    5  A    between atoms: C_16  and  C_17 
REMARK    6  A    between atoms: C_23  and  C_24 
ROOT
ATOM      1  C   LIG d   1       4.126   0.653  -8.180  0.00  0.00     0.154 A 
ATOM      2  C   LIG d   1       3.393   0.168  -9.242  0.00  0.00     0.046 A 
ATOM      3  C   LIG d   1       4.027   0.594 -10.424  0.00  0.00     0.179 A 
ATOM      4  N   LIG d   1       5.091   1.300 -10.094  0.00  0.00    -0.152 NA
ATOM      5  N   LIG d   1       5.176   1.357  -8.698  0.00  0.00    -0.258 N 
ATOM      6  H   LIG d   1       5.860   1.817  -8.187  0.00  0.00     0.191 HD
ENDROOT
BRANCH   1   7
ATOM      7  N   LIG d   1       3.851   0.466  -6.859  0.00  0.00    -0.236 NA
ATOM      8  C   LIG d   1       4.410  -0.517  -6.210  0.00  0.00     0.037 C 
ATOM      9  H   LIG d   1       5.090  -1.184  -6.720  0.00  0.00     0.084 H 
BRANCH   8  10
ATOM     10  C   LIG d   1       4.115  -0.719  -4.782  0.00  0.00    -0.007 A 
ATOM     11  C   LIG d   1       3.489   0.290  -4.043  0.00  0.00    -0.053 A 
ATOM     12  C   LIG d   1       3.217   0.093  -2.706  0.00  0.00    -0.061 A 
ATOM     13  H   LIG d   1       3.221   1.221  -4.520  0.00  0.00     0.062 H 
ATOM     14  C   LIG d   1       3.561  -1.100  -2.094  0.00  0.00    -0.062 A 
ATOM     15  H   LIG d   1       2.733   0.872  -2.135  0.00  0.00     0.062 H 
ATOM     16  C   LIG d   1       4.180  -2.104  -2.819  0.00  0.00    -0.061 A 
ATOM     17  H   LIG d   1       3.348  -1.247  -1.046  0.00  0.00     0.062 H 
ATOM     18  C   LIG d   1       4.460  -1.922  -4.157  0.00  0.00    -0.053 A 
ATOM     19  H   LIG d   1       4.445  -3.032  -2.334  0.00  0.00     0.062 H 
ATOM     20  H   LIG d   1       4.943  -2.706  -4.720  0.00  0.00     0.062 H 
ENDBRANCH   8  10
ENDBRANCH   1   7
BRANCH   2  21
ATOM     21  C   LIG d   1       2.140  -0.665  -9.154  0.00  0.00     0.005 C 
ATOM     22  H   LIG d   1       1.741  -0.617  -8.141  0.00  0.00     0.036 H 
ATOM     23  H   LIG d   1       1.398  -0.279  -9.855  0.00  0.00     0.036 H 
BRANCH  21  24
ATOM     24  C   LIG d   1       2.462  -2.096  -9.501  0.00  0.00    -0.043 A 
ATOM     25  C   LIG d   1       3.506  -2.742  -8.866  0.00  0.00    -0.057 A 
ATOM     26  C   LIG d   1       3.798  -4.056  -9.178  0.00  0.00    -0.043 A 
ATOM     27  H   LIG d   1       4.090  -2.220  -8.121  0.00  0.00     0.062 H 
ATOM     28  C   LIG d   1       3.054  -4.720 -10.136  0.00  0.00     0.041 A 
ATOM     29  H   LIG d   1       4.610  -4.562  -8.678  0.00  0.00     0.063 H 
ATOM     30  C   LIG d   1       2.013  -4.071 -10.776  0.00  0.00    -0.043 A 
ATOM     31 CL   LIG d   1       3.425  -6.369 -10.535  0.00  0.00    -0.084 Cl
ATOM     32  C   LIG d   1       1.718  -2.759 -10.458  0.00  0.00    -0.057 A 
ATOM     33  H   LIG d   1       1.431  -4.590 -11.523  0.00  0.00     0.063 H 
ATOM     34  H   LIG d   1       0.905  -2.252 -10.957  0.00  0.00     0.062 H 
ENDBRANCH  21  24
ENDBRANCH   2  21
BRANCH   3  35
ATOM     35  N   LIG d   1       3.610   0.320 -11.700  0.00  0.00    -0.234 NA
ATOM     36  C   LIG d   1       4.165  -0.647 -12.373  0.00  0.00     0.037 C 
ATOM     37  H   LIG d   1       4.953  -1.234 -11.924  0.00  0.00     0.084 H 
BRANCH  36  38
ATOM     38  C   LIG d   1       3.717  -0.940 -13.745  0.00  0.00    -0.007 A 
ATOM     39  C   LIG d   1       4.335  -0.318 -14.833  0.00  0.00    -0.053 A 
ATOM     40  C   LIG d   1       3.914  -0.601 -16.116  0.00  0.00    -0.061 A 
ATOM     41  H   LIG d   1       5.144   0.379 -14.671  0.00  0.00     0.062 H 
ATOM     42  C   LIG d   1       2.874  -1.491 -16.325  0.00  0.00    -0.062 A 
ATOM     43  H   LIG d   1       4.392  -0.124 -16.958  0.00  0.00     0.062 H 
ATOM     44  C   LIG d   1       2.254  -2.106 -15.252  0.00  0.00    -0.061 A 
ATOM     45  H   LIG d   1       2.545  -1.705 -17.331  0.00  0.00     0.062 H 
ATOM     46  C   LIG d   1       2.667  -1.838 -13.965  0.00  0.00    -0.053 A 
ATOM     47  H   LIG d   1       1.443  -2.799 -15.423  0.00  0.00     0.062 H 
ATOM     48  H   LIG d   1       2.183  -2.318 -13.128  0.00  0.00     0.062 H 
ENDBRANCH  36  38
ENDBRANCH   3  35
TORSDOF 6
ENDMDL
MODEL 4
REMARK VINA RESULT:      -6.9      2.572      8.442
REMARK  6 active torsions:
REMARK  status: ('A' for Active; 'I' for Inactive)
REMARK    1  A    between atoms: C_4  and  C_7 
REMARK    2  A    between atoms: N_8  and  C_9 
REMARK    3  A    between atoms: C_10  and  C_23 
REMARK    4  A    between atoms: C_11  and  N_15 
REMARK    5  A    between atoms: C_16  and  C_17 
REMARK    6  A    between atoms: C_23  and  C_24 
ROOT
ATOM      1  C   LIG d   1       7.931  -4.192  -5.949  0.00  0.00     0.154 A 
ATOM      2  C   LIG d   1       6.730  -3.516  -5.978  0.00  0.00     0.046 A 
ATOM      3  C   LIG d   1       6.822  -2.533  -6.980  0.00  0.00     0.179 A 
ATOM      4  N   LIG d   1       8.018  -2.610  -7.531  0.00  0.00    -0.152 NA
ATOM      5  N   LIG d   1       8.735  -3.636  -6.903  0.00  0.00    -0.258 N 
ATOM      6  H   LIG d   1       9.643  -3.905  -7.110  0.00  0.00     0.191 HD
ENDROOT
BRANCH   1   7
ATOM      7  N   LIG d   1       8.256  -5.222  -5.119  0.00  0.00    -0.236 NA
ATOM      8  C   LIG d   1       9.011  -5.006  -4.078  0.00  0.00     0.037 C 
ATOM      9  H   LIG d   1       9.380  -4.011  -3.874  0.00  0.00     0.084 H 
BRANCH   8  10
ATOM     10  C   LIG d   1       9.362  -6.118  -3.180  0.00  0.00    -0.007 A 
ATOM     11  C   LIG d   1       9.005  -7.429  -3.509  0.00  0.00    -0.053 A 
ATOM     12  C   LIG d   1       9.337  -8.464  -2.662  0.00  0.00    -0.061 A 
ATOM     13  H   LIG d   1       8.469  -7.629  -4.425  0.00  0.00     0.062 H 
ATOM     14  C   LIG d   1      10.023  -8.210  -1.487  0.00  0.00    -0.062 A 
ATOM     15  H   LIG d   1       9.061  -9.478  -2.916  0.00  0.00     0.062 H 
ATOM     16  C   LIG d   1      10.381  -6.915  -1.154  0.00  0.00    -0.061 A 
ATOM     17  H   LIG d   1      10.277  -9.025  -0.826  0.00  0.00     0.062 H 
ATOM     18  C   LIG d   1      10.056  -5.868  -1.990  0.00  0.00    -0.053 A 
ATOM     19  H   LIG d   1      10.916  -6.724  -0.235  0.00  0.00     0.062 H 
ATOM     20  H   LIG d   1      10.336  -4.859  -1.728  0.00  0.00     0.062 H 
ENDBRANCH   8  10
ENDBRANCH   1   7
BRANCH   2  21
ATOM     21  C   LIG d   1       5.537  -3.780  -5.096  0.00  0.00     0.005 C 
ATOM     22  H   LIG d   1       4.653  -3.930  -5.716  0.00  0.00     0.036 H 
ATOM     23  H   LIG d   1       5.718  -4.673  -4.498  0.00  0.00     0.036 H 
BRANCH  21  24
ATOM     24  C   LIG d   1       5.315  -2.601  -4.183  0.00  0.00    -0.043 A 
ATOM     25  C   LIG d   1       6.387  -1.823  -3.788  0.00  0.00    -0.057 A 
ATOM     26  C   LIG d   1       6.184  -0.739  -2.956  0.00  0.00    -0.043 A 
ATOM     27  H   LIG d   1       7.382  -2.059  -4.136  0.00  0.00     0.062 H 
ATOM     28  C   LIG d   1       4.911  -0.440  -2.507  0.00  0.00     0.041 A 
ATOM     29  H   LIG d   1       7.021  -0.127  -2.652  0.00  0.00     0.063 H 
ATOM     30  C   LIG d   1       3.839  -1.224  -2.897  0.00  0.00    -0.043 A 
ATOM     31 CL   LIG d   1       4.656   0.917  -1.454  0.00  0.00    -0.084 Cl
ATOM     32  C   LIG d   1       4.043  -2.304  -3.734  0.00  0.00    -0.057 A 
ATOM     33  H   LIG d   1       2.844  -0.991  -2.547  0.00  0.00     0.063 H 
ATOM     34  H   LIG d   1       3.206  -2.916  -4.039  0.00  0.00     0.062 H 
ENDBRANCH  21  24
ENDBRANCH   2  21
BRANCH   3  35
ATOM     35  N   LIG d   1       5.836  -1.646  -7.326  0.00  0.00    -0.234 NA
ATOM     36  C   LIG d   1       6.151  -0.470  -7.787  0.00  0.00     0.037 C 
ATOM     37  H   LIG d   1       7.190  -0.193  -7.897  0.00  0.00     0.084 H 
BRANCH  36  38
ATOM     38  C   LIG d   1       5.091   0.483  -8.160  0.00  0.00    -0.007 A 
ATOM     39  C   LIG d   1       5.396   1.602  -8.939  0.00  0.00    -0.053 A 
ATOM     40  C   LIG d   1       4.397   2.488  -9.288  0.00  0.00    -0.061 A 
ATOM     41  H   LIG d   1       6.410   1.771  -9.272  0.00  0.00     0.062 H 
ATOM     42  C   LIG d   1       3.099   2.276  -8.858  0.00  0.00    -0.062 A 
ATOM     43  H   LIG d   1       4.630   3.351  -9.894  0.00  0.00     0.062 H 
ATOM     44  C   LIG d   1       2.791   1.173  -8.081  0.00  0.00    -0.061 A 
ATOM     45  H   LIG d   1       2.322   2.975  -9.130  0.00  0.00     0.062 H 
ATOM     46  C   LIG d   1       3.777   0.276  -7.729  0.00  0.00    -0.053 A 
ATOM     47  H   LIG d   1       1.776   1.014  -7.749  0.00  0.00     0.062 H 
ATOM     48  H   LIG d   1       3.536  -0.585  -7.122  0.00  0.00     0.062 H 
ENDBRANCH  36  38
ENDBRANCH   3  35
TORSDOF 6
ENDMDL
MODEL 5
REMARK VINA RESULT:      -6.8      3.890      6.654
REMARK  6 active torsions:
REMARK  status: ('A' for Active; 'I' for Inactive)
REMARK    1  A    between atoms: C_4  and  C_7 
REMARK    2  A    between atoms: N_8  and  C_9 
REMARK    3  A    between atoms: C_10  and  C_23 
REMARK    4  A    between atoms: C_11  and  N_15 
REMARK    5  A    between atoms: C_16  and  C_17 
REMARK    6  A    between atoms: C_23  and  C_24 
ROOT
ATOM      1  C   LIG d   1       3.585   0.435  -9.963  0.00  0.00     0.154 A 
ATOM      2  C   LIG d   1       4.294  -0.043  -8.882  0.00  0.00     0.046 A 
ATOM      3  C   LIG d   1       3.706   0.489  -7.720  0.00  0.00     0.179 A 
ATOM      4  N   LIG d   1       2.690   1.252  -8.080  0.00  0.00    -0.152 NA
ATOM      5  N   LIG d   1       2.594   1.240  -9.476  0.00  0.00    -0.258 N 
ATOM      6  H   LIG d   1       1.938   1.720 -10.006  0.00  0.00     0.191 HD
ENDROOT
BRANCH   1   7
ATOM      7  N   LIG d   1       3.830   0.160 -11.274  0.00  0.00    -0.236 NA
ATOM      8  C   LIG d   1       3.186  -0.806 -11.869  0.00  0.00     0.037 C 
ATOM      9  H   LIG d   1       2.458  -1.388 -11.321  0.00  0.00     0.084 H 
BRANCH   8  10
ATOM     10  C   LIG d   1       3.450  -1.104 -13.286  0.00  0.00    -0.007 A 
ATOM     11  C   LIG d   1       4.555  -0.540 -13.930  0.00  0.00    -0.053 A 
ATOM     12  C   LIG d   1       4.795  -0.825 -15.257  0.00  0.00    -0.061 A 
ATOM     13  H   LIG d   1       5.220   0.116 -13.388  0.00  0.00     0.062 H 
ATOM     14  C   LIG d   1       3.944  -1.666 -15.953  0.00  0.00    -0.062 A 
ATOM     15  H   LIG d   1       5.648  -0.390 -15.756  0.00  0.00     0.062 H 
ATOM     16  C   LIG d   1       2.847  -2.228 -15.323  0.00  0.00    -0.061 A 
ATOM     17  H   LIG d   1       4.134  -1.881 -16.994  0.00  0.00     0.062 H 
ATOM     18  C   LIG d   1       2.594  -1.953 -13.996  0.00  0.00    -0.053 A 
ATOM     19  H   LIG d   1       2.188  -2.883 -15.873  0.00  0.00     0.062 H 
ATOM     20  H   LIG d   1       1.738  -2.393 -13.506  0.00  0.00     0.062 H 
ENDBRANCH   8  10
ENDBRANCH   1   7
BRANCH   2  21
ATOM     21  C   LIG d   1       5.483  -0.968  -8.935  0.00  0.00     0.005 C 
ATOM     22  H   LIG d   1       5.645  -1.294  -9.961  0.00  0.00     0.036 H 
ATOM     23  H   LIG d   1       6.368  -0.441  -8.576  0.00  0.00     0.036 H 
BRANCH  21  24
ATOM     24  C   LIG d   1       5.225  -2.169  -8.061  0.00  0.00    -0.043 A 
ATOM     25  C   LIG d   1       4.146  -2.992  -8.320  0.00  0.00    -0.057 A 
ATOM     26  C   LIG d   1       3.912  -4.096  -7.523  0.00  0.00    -0.043 A 
ATOM     27  H   LIG d   1       3.488  -2.774  -9.149  0.00  0.00     0.062 H 
ATOM     28  C   LIG d   1       4.751  -4.371  -6.458  0.00  0.00     0.041 A 
ATOM     29  H   LIG d   1       3.071  -4.743  -7.729  0.00  0.00     0.063 H 
ATOM     30  C   LIG d   1       5.828  -3.543  -6.196  0.00  0.00    -0.043 A 
ATOM     31 CL   LIG d   1       4.454  -5.754  -5.452  0.00  0.00    -0.084 Cl
ATOM     32  C   LIG d   1       6.064  -2.442  -6.997  0.00  0.00    -0.057 A 
ATOM     33  H   LIG d   1       6.485  -3.757  -5.366  0.00  0.00     0.063 H 
ATOM     34  H   LIG d   1       6.905  -1.796  -6.793  0.00  0.00     0.062 H 
ENDBRANCH  21  24
ENDBRANCH   2  21
BRANCH   3  35
ATOM     35  N   LIG d   1       4.116   0.255  -6.434  0.00  0.00    -0.234 NA
ATOM     36  C   LIG d   1       3.245  -0.066  -5.521  0.00  0.00     0.037 C 
ATOM     37  H   LIG d   1       2.199  -0.147  -5.778  0.00  0.00     0.084 H 
BRANCH  36  38
ATOM     38  C   LIG d   1       3.686  -0.318  -4.139  0.00  0.00    -0.007 A 
ATOM     39  C   LIG d   1       3.956   0.753  -3.282  0.00  0.00    -0.053 A 
ATOM     40  C   LIG d   1       4.364   0.510  -1.987  0.00  0.00    -0.061 A 
ATOM     41  H   LIG d   1       3.839   1.769  -3.631  0.00  0.00     0.062 H 
ATOM     42  C   LIG d   1       4.518  -0.791  -1.540  0.00  0.00    -0.062 A 
ATOM     43  H   LIG d   1       4.569   1.336  -1.322  0.00  0.00     0.062 H 
ATOM     44  C   LIG d   1       4.259  -1.856  -2.385  0.00  0.00    -0.061 A 
ATOM     45  H   LIG d   1       4.843  -0.975  -0.526  0.00  0.00     0.062 H 
ATOM     46  C   LIG d   1       3.844  -1.629  -3.680  0.00  0.00    -0.053 A 
ATOM     47  H   LIG d   1       4.382  -2.868  -2.029  0.00  0.00     0.062 H 
ATOM     48  H   LIG d   1       3.643  -2.461  -4.338  0.00  0.00     0.062 H 
ENDBRANCH  36  38
ENDBRANCH   3  35
TORSDOF 6
ENDMDL
MODEL 6
REMARK VINA RESULT:      -6.8      3.878      8.154
REMARK  6 active torsions:
REMARK  status: ('A' for Active; 'I' for Inactive)
REMARK    1  A    between atoms: C_4  and  C_7 
REMARK    2  A    between atoms: N_8  and  C_9 
REMARK    3  A    between atoms: C_10  and  C_23 
REMARK    4  A    between atoms: C_11  and  N_15 
REMARK    5  A    between atoms: C_16  and  C_17 
REMARK    6  A    between atoms: C_23  and  C_24 
ROOT
ATOM      1  C   LIG d   1       3.705   0.470  -7.707  0.00  0.00     0.154 A 
ATOM      2  C   LIG d   1       4.291  -0.068  -8.832  0.00  0.00     0.046 A 
ATOM      3  C   LIG d   1       3.565   0.389  -9.947  0.00  0.00     0.179 A 
ATOM      4  N   LIG d   1       2.588   1.166  -9.518  0.00  0.00    -0.152 NA
ATOM      5  N   LIG d   1       2.649   1.231  -8.121  0.00  0.00    -0.258 N 
ATOM      6  H   LIG d   1       2.046   1.730  -7.548  0.00  0.00     0.191 HD
ENDROOT
BRANCH   1   7
ATOM      7  N   LIG d   1       4.104   0.276  -6.419  0.00  0.00    -0.236 NA
ATOM      8  C   LIG d   1       3.242  -0.111  -5.520  0.00  0.00     0.037 C 
ATOM      9  H   LIG d   1       2.210  -0.277  -5.797  0.00  0.00     0.084 H 
BRANCH   8  10
ATOM     10  C   LIG d   1       3.672  -0.323  -4.129  0.00  0.00    -0.007 A 
ATOM     11  C   LIG d   1       3.790  -1.619  -3.618  0.00  0.00    -0.053 A 
ATOM     12  C   LIG d   1       4.194  -1.808  -2.314  0.00  0.00    -0.061 A 
ATOM     13  H   LIG d   1       3.566  -2.469  -4.245  0.00  0.00     0.062 H 
ATOM     14  C   LIG d   1       4.482  -0.719  -1.509  0.00  0.00    -0.062 A 
ATOM     15  H   LIG d   1       4.286  -2.809  -1.918  0.00  0.00     0.062 H 
ATOM     16  C   LIG d   1       4.368   0.567  -2.007  0.00  0.00    -0.061 A 
ATOM     17  H   LIG d   1       4.794  -0.874  -0.487  0.00  0.00     0.062 H 
ATOM     18  C   LIG d   1       3.965   0.773  -3.310  0.00  0.00    -0.053 A 
ATOM     19  H   LIG d   1       4.595   1.412  -1.374  0.00  0.00     0.062 H 
ATOM     20  H   LIG d   1       3.877   1.778  -3.697  0.00  0.00     0.062 H 
ENDBRANCH   8  10
ENDBRANCH   1   7
BRANCH   2  21
ATOM     21  C   LIG d   1       5.490  -0.980  -8.864  0.00  0.00     0.005 C 
ATOM     22  H   LIG d   1       5.666  -1.315  -9.885  0.00  0.00     0.036 H 
ATOM     23  H   LIG d   1       6.366  -0.441  -8.502  0.00  0.00     0.036 H 
BRANCH  21  24
ATOM     24  C   LIG d   1       5.237  -2.175  -7.980  0.00  0.00    -0.043 A 
ATOM     25  C   LIG d   1       6.084  -2.443  -6.921  0.00  0.00    -0.057 A 
ATOM     26  C   LIG d   1       5.849  -3.534  -6.107  0.00  0.00    -0.043 A 
ATOM     27  H   LIG d   1       6.927  -1.795  -6.727  0.00  0.00     0.062 H 
ATOM     28  C   LIG d   1       4.773  -4.366  -6.360  0.00  0.00     0.041 A 
ATOM     29  H   LIG d   1       6.508  -3.740  -5.276  0.00  0.00     0.063 H 
ATOM     30  C   LIG d   1       3.929  -4.101  -7.423  0.00  0.00    -0.043 A 
ATOM     31 CL   LIG d   1       4.482  -5.742  -5.341  0.00  0.00    -0.084 Cl
ATOM     32  C   LIG d   1       4.162  -3.006  -8.233  0.00  0.00    -0.057 A 
ATOM     33  H   LIG d   1       3.089  -4.750  -7.620  0.00  0.00     0.063 H 
ATOM     34  H   LIG d   1       3.503  -2.799  -9.063  0.00  0.00     0.062 H 
ENDBRANCH  21  24
ENDBRANCH   2  21
BRANCH   3  35
ATOM     35  N   LIG d   1       3.827   0.080 -11.256  0.00  0.00    -0.234 NA
ATOM     36  C   LIG d   1       3.099  -0.805 -11.875  0.00  0.00     0.037 C 
ATOM     37  H   LIG d   1       2.289  -1.295 -11.356  0.00  0.00     0.084 H 
BRANCH  36  38
ATOM     38  C   LIG d   1       3.382  -1.136 -13.282  0.00  0.00    -0.007 A 
ATOM     39  C   LIG d   1       4.481  -0.566 -13.930  0.00  0.00    -0.053 A 
ATOM     40  C   LIG d   1       4.742  -0.884 -15.247  0.00  0.00    -0.061 A 
ATOM     41  H   LIG d   1       5.128   0.118 -13.400  0.00  0.00     0.062 H 
ATOM     42  C   LIG d   1       3.911  -1.756 -15.929  0.00  0.00    -0.062 A 
ATOM     43  H   LIG d   1       5.593  -0.448 -15.749  0.00  0.00     0.062 H 
ATOM     44  C   LIG d   1       2.817  -2.320 -15.295  0.00  0.00    -0.061 A 
ATOM     45  H   LIG d   1       4.118  -1.998 -16.961  0.00  0.00     0.062 H 
ATOM     46  C   LIG d   1       2.547  -2.016 -13.978  0.00  0.00    -0.053 A 
ATOM     47  H   LIG d   1       2.174  -2.999 -15.834  0.00  0.00     0.062 H 
ATOM     48  H   LIG d   1       1.693  -2.456 -13.484  0.00  0.00     0.062 H 
ENDBRANCH  36  38
ENDBRANCH   3  35
TORSDOF 6
ENDMDL
MODEL 7
REMARK VINA RESULT:      -6.8      4.387      8.311
REMARK  6 active torsions:
REMARK  status: ('A' for Active; 'I' for Inactive)
REMARK    1  A    between atoms: C_4  and  C_7 
REMARK    2  A    between atoms: N_8  and  C_9 
REMARK    3  A    between atoms: C_10  and  C_23 
REMARK    4  A    between atoms: C_11  and  N_15 
REMARK    5  A    between atoms: C_16  and  C_17 
REMARK    6  A    between atoms: C_23  and  C_24 
ROOT
ATOM      1  C   LIG d   1       3.646   0.534  -7.692  0.00  0.00     0.154 A 
ATOM      2  C   LIG d   1       3.291  -0.381  -8.660  0.00  0.00     0.046 A 
ATOM      3  C   LIG d   1       2.941   0.341  -9.816  0.00  0.00     0.179 A 
ATOM      4  N   LIG d   1       3.079   1.628  -9.561  0.00  0.00    -0.152 NA
ATOM      5  N   LIG d   1       3.514   1.778  -8.239  0.00  0.00    -0.258 N 
ATOM      6  H   LIG d   1       3.690   2.620  -7.790  0.00  0.00     0.191 HD
ENDROOT
BRANCH   1   7
ATOM      7  N   LIG d   1       4.050   0.248  -6.423  0.00  0.00    -0.236 NA
ATOM      8  C   LIG d   1       3.165   0.070  -5.482  0.00  0.00     0.037 C 
ATOM      9  H   LIG d   1       2.111   0.150  -5.708  0.00  0.00     0.084 H 
BRANCH   8  10
ATOM     10  C   LIG d   1       3.600  -0.240  -4.111  0.00  0.00    -0.007 A 
ATOM     11  C   LIG d   1       3.924   0.792  -3.224  0.00  0.00    -0.053 A 
ATOM     12  C   LIG d   1       4.331   0.493  -1.942  0.00  0.00    -0.061 A 
ATOM     13  H   LIG d   1       3.854   1.821  -3.545  0.00  0.00     0.062 H 
ATOM     14  C   LIG d   1       4.421  -0.825  -1.530  0.00  0.00    -0.062 A 
ATOM     15  H   LIG d   1       4.581   1.289  -1.256  0.00  0.00     0.062 H 
ATOM     16  C   LIG d   1       4.103  -1.853  -2.401  0.00  0.00    -0.061 A 
ATOM     17  H   LIG d   1       4.745  -1.054  -0.525  0.00  0.00     0.062 H 
ATOM     18  C   LIG d   1       3.694  -1.571  -3.687  0.00  0.00    -0.053 A 
ATOM     19  H   LIG d   1       4.175  -2.879  -2.072  0.00  0.00     0.062 H 
ATOM     20  H   LIG d   1       3.446  -2.374  -4.365  0.00  0.00     0.062 H 
ENDBRANCH   8  10
ENDBRANCH   1   7
BRANCH   2  21
ATOM     21  C   LIG d   1       3.278  -1.880  -8.509  0.00  0.00     0.005 C 
ATOM     22  H   LIG d   1       2.661  -2.154  -7.654  0.00  0.00     0.036 H 
ATOM     23  H   LIG d   1       2.869  -2.333  -9.413  0.00  0.00     0.036 H 
BRANCH  21  24
ATOM     24  C   LIG d   1       4.685  -2.376  -8.292  0.00  0.00    -0.043 A 
ATOM     25  C   LIG d   1       5.007  -3.052  -7.131  0.00  0.00    -0.057 A 
ATOM     26  C   LIG d   1       6.296  -3.512  -6.934  0.00  0.00    -0.043 A 
ATOM     27  H   LIG d   1       4.251  -3.225  -6.379  0.00  0.00     0.062 H 
ATOM     28  C   LIG d   1       7.265  -3.284  -7.893  0.00  0.00     0.041 A 
ATOM     29  H   LIG d   1       6.546  -4.045  -6.028  0.00  0.00     0.063 H 
ATOM     30  C   LIG d   1       6.943  -2.602  -9.053  0.00  0.00    -0.043 A 
ATOM     31 CL   LIG d   1       8.886  -3.856  -7.643  0.00  0.00    -0.084 Cl
ATOM     32  C   LIG d   1       5.653  -2.148  -9.251  0.00  0.00    -0.057 A 
ATOM     33  H   LIG d   1       7.699  -2.425  -9.803  0.00  0.00     0.063 H 
ATOM     34  H   LIG d   1       5.402  -1.616 -10.157  0.00  0.00     0.062 H 
ENDBRANCH  21  24
ENDBRANCH   2  21
BRANCH   3  35
ATOM     35  N   LIG d   1       2.530  -0.201 -11.006  0.00  0.00    -0.234 NA
ATOM     36  C   LIG d   1       3.403  -0.710 -11.827  0.00  0.00     0.037 C 
ATOM     37  H   LIG d   1       4.452  -0.705 -11.570  0.00  0.00     0.084 H 
BRANCH  36  38
ATOM     38  C   LIG d   1       2.960  -1.292 -13.105  0.00  0.00    -0.007 A 
ATOM     39  C   LIG d   1       1.797  -2.065 -13.159  0.00  0.00    -0.053 A 
ATOM     40  C   LIG d   1       1.385  -2.603 -14.360  0.00  0.00    -0.061 A 
ATOM     41  H   LIG d   1       1.219  -2.236 -12.262  0.00  0.00     0.062 H 
ATOM     42  C   LIG d   1       2.128  -2.388 -15.509  0.00  0.00    -0.062 A 
ATOM     43  H   LIG d   1       0.485  -3.197 -14.405  0.00  0.00     0.062 H 
ATOM     44  C   LIG d   1       3.283  -1.628 -15.462  0.00  0.00    -0.061 A 
ATOM     45  H   LIG d   1       1.803  -2.815 -16.446  0.00  0.00     0.062 H 
ATOM     46  C   LIG d   1       3.704  -1.079 -14.270  0.00  0.00    -0.053 A 
ATOM     47  H   LIG d   1       3.857  -1.465 -16.362  0.00  0.00     0.062 H 
ATOM     48  H   LIG d   1       4.606  -0.486 -14.234  0.00  0.00     0.062 H 
ENDBRANCH  36  38
ENDBRANCH   3  35
TORSDOF 6
ENDMDL
MODEL 8
REMARK VINA RESULT:      -6.7      1.962      8.611
REMARK  6 active torsions:
REMARK  status: ('A' for Active; 'I' for Inactive)
REMARK    1  A    between atoms: C_4  and  C_7 
REMARK    2  A    between atoms: N_8  and  C_9 
REMARK    3  A    between atoms: C_10  and  C_23 
REMARK    4  A    between atoms: C_11  and  N_15 
REMARK    5  A    between atoms: C_16  and  C_17 
REMARK    6  A    between atoms: C_23  and  C_24 
ROOT
ATOM      1  C   LIG d   1       4.301  -5.695  -6.376  0.00  0.00     0.154 A 
ATOM      2  C   LIG d   1       4.415  -4.331  -6.220  0.00  0.00     0.046 A 
ATOM      3  C   LIG d   1       4.141  -3.737  -7.465  0.00  0.00     0.179 A 
ATOM      4  N   LIG d   1       3.873  -4.695  -8.333  0.00  0.00    -0.152 NA
ATOM      5  N   LIG d   1       3.970  -5.930  -7.681  0.00  0.00    -0.258 N 
ATOM      6  H   LIG d   1       3.828  -6.800  -8.085  0.00  0.00     0.191 HD
ENDROOT
BRANCH   1   7
ATOM      7  N   LIG d   1       4.488  -6.636  -5.409  0.00  0.00    -0.236 NA
ATOM      8  C   LIG d   1       5.166  -7.718  -5.674  0.00  0.00     0.037 C 
ATOM      9  H   LIG d   1       5.579  -7.869  -6.662  0.00  0.00     0.084 H 
BRANCH   8  10
ATOM     10  C   LIG d   1       5.370  -8.735  -4.630  0.00  0.00    -0.007 A 
ATOM     11  C   LIG d   1       4.282  -9.457  -4.129  0.00  0.00    -0.053 A 
ATOM     12  C   LIG d   1       4.482 -10.407  -3.150  0.00  0.00    -0.061 A 
ATOM     13  H   LIG d   1       3.289  -9.270  -4.509  0.00  0.00     0.062 H 
ATOM     14  C   LIG d   1       5.754 -10.647  -2.662  0.00  0.00    -0.062 A 
ATOM     15  H   LIG d   1       3.642 -10.966  -2.763  0.00  0.00     0.062 H 
ATOM     16  C   LIG d   1       6.836  -9.937  -3.153  0.00  0.00    -0.061 A 
ATOM     17  H   LIG d   1       5.904 -11.390  -1.893  0.00  0.00     0.062 H 
ATOM     18  C   LIG d   1       6.653  -8.983  -4.132  0.00  0.00    -0.053 A 
ATOM     19  H   LIG d   1       7.826 -10.130  -2.767  0.00  0.00     0.062 H 
ATOM     20  H   LIG d   1       7.499  -8.429  -4.513  0.00  0.00     0.062 H 
ENDBRANCH   8  10
ENDBRANCH   1   7
BRANCH   2  21
ATOM     21  C   LIG d   1       4.770  -3.606  -4.947  0.00  0.00     0.005 C 
ATOM     22  H   LIG d   1       4.186  -2.689  -4.876  0.00  0.00     0.036 H 
ATOM     23  H   LIG d   1       4.549  -4.245  -4.092  0.00  0.00     0.036 H 
BRANCH  21  24
ATOM     24  C   LIG d   1       6.239  -3.267  -4.954  0.00  0.00    -0.043 A 
ATOM     25  C   LIG d   1       6.643  -1.945  -4.957  0.00  0.00    -0.057 A 
ATOM     26  C   LIG d   1       7.989  -1.634  -4.957  0.00  0.00    -0.043 A 
ATOM     27  H   LIG d   1       5.905  -1.156  -4.954  0.00  0.00     0.062 H 
ATOM     28  C   LIG d   1       8.933  -2.645  -4.967  0.00  0.00     0.041 A 
ATOM     29  H   LIG d   1       8.304  -0.600  -4.954  0.00  0.00     0.063 H 
ATOM     30  C   LIG d   1       8.528  -3.968  -4.970  0.00  0.00    -0.043 A 
ATOM     31 CL   LIG d   1      10.624  -2.254  -4.975  0.00  0.00    -0.084 Cl
ATOM     32  C   LIG d   1       7.181  -4.278  -4.964  0.00  0.00    -0.057 A 
ATOM     33  H   LIG d   1       9.264  -4.758  -4.977  0.00  0.00     0.063 H 
ATOM     34  H   LIG d   1       6.865  -5.311  -4.966  0.00  0.00     0.062 H 
ENDBRANCH  21  24
ENDBRANCH   2  21
BRANCH   3  35
ATOM     35  N   LIG d   1       4.149  -2.393  -7.732  0.00  0.00    -0.234 NA
ATOM     36  C   LIG d   1       3.417  -1.917  -8.698  0.00  0.00     0.037 C 
ATOM     37  H   LIG d   1       2.804  -2.582  -9.289  0.00  0.00     0.084 H 
BRANCH  36  38
ATOM     38  C   LIG d   1       3.426  -0.472  -8.985  0.00  0.00    -0.007 A 
ATOM     39  C   LIG d   1       2.906   0.431  -8.054  0.00  0.00    -0.053 A 
ATOM     40  C   LIG d   1       2.922   1.783  -8.327  0.00  0.00    -0.061 A 
ATOM     41  H   LIG d   1       2.498   0.072  -7.121  0.00  0.00     0.062 H 
ATOM     42  C   LIG d   1       3.440   2.244  -9.525  0.00  0.00    -0.062 A 
ATOM     43  H   LIG d   1       2.524   2.483  -7.608  0.00  0.00     0.062 H 
ATOM     44  C   LIG d   1       3.951   1.355 -10.454  0.00  0.00    -0.061 A 
ATOM     45  H   LIG d   1       3.446   3.304  -9.735  0.00  0.00     0.062 H 
ATOM     46  C   LIG d   1       3.948   0.001 -10.193  0.00  0.00    -0.053 A 
ATOM     47  H   LIG d   1       4.354   1.722 -11.386  0.00  0.00     0.062 H 
ATOM     48  H   LIG d   1       4.347  -0.692 -10.918  0.00  0.00     0.062 H 
ENDBRANCH  36  38
ENDBRANCH   3  35
TORSDOF 6
ENDMDL
MODEL 9
REMARK VINA RESULT:      -6.7     12.207     15.140
REMARK  6 active torsions:
REMARK  status: ('A' for Active; 'I' for Inactive)
REMARK    1  A    between atoms: C_4  and  C_7 
REMARK    2  A    between atoms: N_8  and  C_9 
REMARK    3  A    between atoms: C_10  and  C_23 
REMARK    4  A    between atoms: C_11  and  N_15 
REMARK    5  A    between atoms: C_16  and  C_17 
REMARK    6  A    between atoms: C_23  and  C_24 
ROOT
ATOM      1  C   LIG d   1      11.100   6.428  -0.461  0.00  0.00     0.154 A 
ATOM      2  C   LIG d   1      11.433   7.340   0.517  0.00  0.00     0.046 A 
ATOM      3  C   LIG d   1      11.198   6.729   1.763  0.00  0.00     0.179 A 
ATOM      4  N   LIG d   1      10.745   5.508   1.548  0.00  0.00    -0.152 NA
ATOM      5  N   LIG d   1      10.670   5.294   0.167  0.00  0.00    -0.258 N 
ATOM      6  H   LIG d   1      10.365   4.483  -0.268  0.00  0.00     0.191 HD
ENDROOT
BRANCH   1   7
ATOM      7  N   LIG d   1      11.182   6.624  -1.807  0.00  0.00    -0.236 NA
ATOM      8  C   LIG d   1      10.118   6.500  -2.550  0.00  0.00     0.037 C 
ATOM      9  H   LIG d   1       9.171   6.241  -2.098  0.00  0.00     0.084 H 
BRANCH   8  10
ATOM     10  C   LIG d   1      10.205   6.713  -4.004  0.00  0.00    -0.007 A 
ATOM     11  C   LIG d   1      10.684   5.697  -4.836  0.00  0.00    -0.053 A 
ATOM     12  C   LIG d   1      10.763   5.905  -6.197  0.00  0.00    -0.061 A 
ATOM     13  H   LIG d   1      10.992   4.752  -4.413  0.00  0.00     0.062 H 
ATOM     14  C   LIG d   1      10.370   7.115  -6.740  0.00  0.00    -0.062 A 
ATOM     15  H   LIG d   1      11.133   5.120  -6.841  0.00  0.00     0.062 H 
ATOM     16  C   LIG d   1       9.894   8.126  -5.923  0.00  0.00    -0.061 A 
ATOM     17  H   LIG d   1      10.437   7.274  -7.806  0.00  0.00     0.062 H 
ATOM     18  C   LIG d   1       9.809   7.934  -4.560  0.00  0.00    -0.053 A 
ATOM     19  H   LIG d   1       9.588   9.068  -6.354  0.00  0.00     0.062 H 
ATOM     20  H   LIG d   1       9.438   8.724  -3.924  0.00  0.00     0.062 H 
ENDBRANCH   8  10
ENDBRANCH   1   7
BRANCH   2  21
ATOM     21  C   LIG d   1      11.955   8.736   0.295  0.00  0.00     0.005 C 
ATOM     22  H   LIG d   1      12.034   9.251   1.252  0.00  0.00     0.036 H 
ATOM     23  H   LIG d   1      12.938   8.686  -0.174  0.00  0.00     0.036 H 
BRANCH  21  24
ATOM     24  C   LIG d   1      11.008   9.489  -0.604  0.00  0.00    -0.043 A 
ATOM     25  C   LIG d   1      11.493  10.159  -1.711  0.00  0.00    -0.057 A 
ATOM     26  C   LIG d   1      10.625  10.845  -2.540  0.00  0.00    -0.043 A 
ATOM     27  H   LIG d   1      12.550  10.141  -1.932  0.00  0.00     0.062 H 
ATOM     28  C   LIG d   1       9.272  10.872  -2.253  0.00  0.00     0.041 A 
ATOM     29  H   LIG d   1      11.004  11.363  -3.408  0.00  0.00     0.063 H 
ATOM     30  C   LIG d   1       8.788  10.207  -1.140  0.00  0.00    -0.043 A 
ATOM     31 CL   LIG d   1       8.182  11.740  -3.289  0.00  0.00    -0.084 Cl
ATOM     32  C   LIG d   1       9.657   9.517  -0.316  0.00  0.00    -0.057 A 
ATOM     33  H   LIG d   1       7.732  10.227  -0.916  0.00  0.00     0.063 H 
ATOM     34  H   LIG d   1       9.279   8.997   0.552  0.00  0.00     0.062 H 
ENDBRANCH  21  24
ENDBRANCH   2  21
BRANCH   3  35
ATOM     35  N   LIG d   1      11.404   7.303   2.989  0.00  0.00    -0.234 NA
ATOM     36  C   LIG d   1      11.070   6.663   4.073  0.00  0.00     0.037 C 
ATOM     37  H   LIG d   1      10.631   5.678   4.004  0.00  0.00     0.084 H 
BRANCH  36  38
ATOM     38  C   LIG d   1      11.292   7.281   5.391  0.00  0.00    -0.007 A 
ATOM     39  C   LIG d   1      10.969   6.581   6.557  0.00  0.00    -0.053 A 
ATOM     40  C   LIG d   1      11.184   7.164   7.789  0.00  0.00    -0.061 A 
ATOM     41  H   LIG d   1      10.557   5.584   6.494  0.00  0.00     0.062 H 
ATOM     42  C   LIG d   1      11.707   8.443   7.871  0.00  0.00    -0.062 A 
ATOM     43  H   LIG d   1      10.939   6.623   8.691  0.00  0.00     0.062 H 
ATOM     44  C   LIG d   1      12.024   9.143   6.720  0.00  0.00    -0.061 A 
ATOM     45  H   LIG d   1      11.869   8.895   8.838  0.00  0.00     0.062 H 
ATOM     46  C   LIG d   1      11.820   8.572   5.482  0.00  0.00    -0.053 A 
ATOM     47  H   LIG d   1      12.431  10.141   6.792  0.00  0.00     0.062 H 
ATOM     48  H   LIG d   1      12.067   9.120   4.585  0.00  0.00     0.062 H 
ENDBRANCH  36  38
ENDBRANCH   3  35
TORSDOF 6
ENDMDL
