MODEL 1
REMARK VINA RESULT:      -6.8      0.000      0.000
REMARK  6 active torsions:
REMARK  status: ('A' for Active; 'I' for Inactive)
REMARK    1  A    between atoms: C_8  and  C_12 
REMARK    2  A    between atoms: C_12  and  C_14 
REMARK    3  A    between atoms: C_12  and  C_25 
REMARK    4  A    between atoms: C_14  and  C_15 
REMARK    5  A    between atoms: C_15  and  C_17 
REMARK    6  A    between atoms: C_15  and  O_24 
ROOT
ATOM      1  C   LIG d   1       5.697  -3.111  -6.853  0.00  0.00     0.024 C 
ATOM      2  H   LIG d   1       6.249  -2.752  -7.721  0.00  0.00     0.041 H 
ENDROOT
BRANCH   1   3
ATOM      3  C   LIG d   1       5.631  -2.021  -5.814  0.00  0.00     0.038 A 
ATOM      4  C   LIG d   1       4.956  -2.230  -4.643  0.00  0.00    -0.087 A 
ATOM      5  C   LIG d   1       4.922  -1.135  -3.661  0.00  0.00     0.010 A 
ATOM      6  O   LIG d   1       4.340  -3.408  -4.394  0.00  0.00    -0.873 OA
ATOM      7  C   LIG d   1       5.577   0.070  -3.964  0.00  0.00     0.139 A 
ATOM      8  C   LIG d   1       4.252  -1.278  -2.444  0.00  0.00    -0.052 A 
ATOM      9  C   LIG d   1       5.552   1.111  -3.045  0.00  0.00    -0.019 A 
ATOM     10  O   LIG d   1       6.224   0.205  -5.142  0.00  0.00    -0.422 OA
ATOM     11  C   LIG d   1       4.886   0.956  -1.847  0.00  0.00    -0.058 A 
ATOM     12  H   LIG d   1       6.052   2.041  -3.268  0.00  0.00     0.065 H 
ATOM     13  C   LIG d   1       4.239  -0.234  -1.547  0.00  0.00    -0.061 A 
ATOM     14  H   LIG d   1       4.869   1.768  -1.136  0.00  0.00     0.062 H 
ATOM     15  H   LIG d   1       3.725  -0.343  -0.603  0.00  0.00     0.062 H 
ATOM     16  C   LIG d   1       6.261  -0.789  -6.044  0.00  0.00     0.341 A 
ATOM     17  O   LIG d   1       6.859  -0.616  -7.092  0.00  0.00    -0.245 OA
ATOM     18  H   LIG d   1       3.747  -2.204  -2.208  0.00  0.00     0.062 H 
ENDBRANCH   1   3
BRANCH   1  19
ATOM     19  C   LIG d   1       4.278  -3.498  -7.276  0.00  0.00    -0.011 C 
ATOM     20  H   LIG d   1       4.137  -4.570  -7.135  0.00  0.00     0.030 H 
ATOM     21  H   LIG d   1       3.557  -2.954  -6.668  0.00  0.00     0.030 H 
BRANCH  19  22
ATOM     22  C   LIG d   1       4.073  -3.147  -8.751  0.00  0.00     0.081 C 
ATOM     23  H   LIG d   1       3.144  -3.593  -9.105  0.00  0.00     0.064 H 
BRANCH  22  24
ATOM     24  C   LIG d   1       4.001  -1.649  -8.905  0.00  0.00    -0.019 A 
ATOM     25  C   LIG d   1       3.108  -0.919  -8.142  0.00  0.00    -0.055 A 
ATOM     26  C   LIG d   1       3.045   0.455  -8.280  0.00  0.00    -0.043 A 
ATOM     27  H   LIG d   1       2.463  -1.421  -7.437  0.00  0.00     0.062 H 
ATOM     28  C   LIG d   1       3.868   1.099  -9.188  0.00  0.00     0.041 A 
ATOM     29  H   LIG d   1       2.352   1.027  -7.681  0.00  0.00     0.063 H 
ATOM     30  C   LIG d   1       4.756   0.365  -9.954  0.00  0.00    -0.043 A 
ATOM     31 CL   LIG d   1       3.785   2.823  -9.365  0.00  0.00    -0.084 Cl
ATOM     32  C   LIG d   1       4.822  -1.008  -9.813  0.00  0.00    -0.055 A 
ATOM     33  H   LIG d   1       5.399   0.867 -10.664  0.00  0.00     0.063 H 
ATOM     34  H   LIG d   1       5.517  -1.579 -10.411  0.00  0.00     0.062 H 
ENDBRANCH  22  24
BRANCH  22  35
ATOM     35  O   LIG d   1       5.167  -3.653  -9.518  0.00  0.00    -0.387 OA
ATOM     36  H   LIG d   1       6.010  -3.661  -9.043  0.00  0.00     0.210 HD
ENDBRANCH  22  35
ENDBRANCH  19  22
ENDBRANCH   1  19
BRANCH   1  37
ATOM     37  C   LIG d   1       6.395  -4.315  -6.275  0.00  0.00    -0.001 A 
ATOM     38  S   LIG d   1       7.907  -4.391  -5.329  0.00  0.00    -0.081 SA
ATOM     39  C   LIG d   1       7.960  -6.158  -5.080  0.00  0.00     0.078 A 
ATOM     40  C   LIG d   1       6.843  -6.567  -5.732  0.00  0.00    -0.036 A 
ATOM     41 CL   LIG d   1       9.139  -7.107  -4.231  0.00  0.00    -0.076 Cl
ATOM     42  C   LIG d   1       6.041  -5.621  -6.343  0.00  0.00    -0.050 A 
ATOM     43  H   LIG d   1       6.583  -7.614  -5.771  0.00  0.00     0.064 H 
ATOM     44  H   LIG d   1       5.146  -5.918  -6.869  0.00  0.00     0.063 H 
ENDBRANCH   1  37
TORSDOF 6
ENDMDL
MODEL 2
REMARK VINA RESULT:      -6.7      1.175      2.100
REMARK  6 active torsions:
REMARK  status: ('A' for Active; 'I' for Inactive)
REMARK    1  A    between atoms: C_8  and  C_12 
REMARK    2  A    between atoms: C_12  and  C_14 
REMARK    3  A    between atoms: C_12  and  C_25 
REMARK    4  A    between atoms: C_14  and  C_15 
REMARK    5  A    between atoms: C_15  and  C_17 
REMARK    6  A    between atoms: C_15  and  O_24 
ROOT
ATOM      1  C   LIG d   1       6.639  -3.516  -6.251  0.00  0.00     0.024 C 
ATOM      2  H   LIG d   1       7.358  -2.879  -6.765  0.00  0.00     0.041 H 
ENDROOT
BRANCH   1   3
ATOM      3  C   LIG d   1       5.936  -2.720  -5.182  0.00  0.00     0.038 A 
ATOM      4  C   LIG d   1       6.370  -1.461  -4.868  0.00  0.00    -0.087 A 
ATOM      5  C   LIG d   1       5.649  -0.725  -3.818  0.00  0.00     0.010 A 
ATOM      6  O   LIG d   1       7.428  -0.910  -5.505  0.00  0.00    -0.873 OA
ATOM      7  C   LIG d   1       4.556  -1.339  -3.185  0.00  0.00     0.139 A 
ATOM      8  C   LIG d   1       6.037   0.564  -3.446  0.00  0.00    -0.052 A 
ATOM      9  C   LIG d   1       3.868  -0.654  -2.192  0.00  0.00    -0.019 A 
ATOM     10  O   LIG d   1       4.185  -2.587  -3.548  0.00  0.00    -0.422 OA
ATOM     11  C   LIG d   1       4.262   0.618  -1.834  0.00  0.00    -0.058 A 
ATOM     12  H   LIG d   1       3.027  -1.118  -1.700  0.00  0.00     0.065 H 
ATOM     13  C   LIG d   1       5.341   1.226  -2.459  0.00  0.00    -0.061 A 
ATOM     14  H   LIG d   1       3.724   1.147  -1.062  0.00  0.00     0.062 H 
ATOM     15  H   LIG d   1       5.636   2.225  -2.172  0.00  0.00     0.062 H 
ATOM     16  C   LIG d   1       4.836  -3.266  -4.505  0.00  0.00     0.341 A 
ATOM     17  O   LIG d   1       4.459  -4.389  -4.795  0.00  0.00    -0.245 OA
ATOM     18  H   LIG d   1       6.877   1.039  -3.930  0.00  0.00     0.062 H 
ENDBRANCH   1   3
BRANCH   1  19
ATOM     19  C   LIG d   1       5.610  -4.038  -7.257  0.00  0.00    -0.011 C 
ATOM     20  H   LIG d   1       5.772  -5.103  -7.423  0.00  0.00     0.030 H 
ATOM     21  H   LIG d   1       4.606  -3.880  -6.865  0.00  0.00     0.030 H 
BRANCH  19  22
ATOM     22  C   LIG d   1       5.766  -3.287  -8.581  0.00  0.00     0.081 C 
ATOM     23  H   LIG d   1       5.347  -3.885  -9.390  0.00  0.00     0.064 H 
BRANCH  22  24
ATOM     24  C   LIG d   1       5.036  -1.971  -8.501  0.00  0.00    -0.019 A 
ATOM     25  C   LIG d   1       3.668  -1.951  -8.302  0.00  0.00    -0.055 A 
ATOM     26  C   LIG d   1       2.999  -0.744  -8.223  0.00  0.00    -0.043 A 
ATOM     27  H   LIG d   1       3.123  -2.878  -8.205  0.00  0.00     0.062 H 
ATOM     28  C   LIG d   1       3.696   0.444  -8.353  0.00  0.00     0.041 A 
ATOM     29  H   LIG d   1       1.931  -0.728  -8.063  0.00  0.00     0.063 H 
ATOM     30  C   LIG d   1       5.065   0.422  -8.558  0.00  0.00    -0.043 A 
ATOM     31 CL   LIG d   1       2.856   1.960  -8.261  0.00  0.00    -0.084 Cl
ATOM     32  C   LIG d   1       5.734  -0.785  -8.632  0.00  0.00    -0.055 A 
ATOM     33  H   LIG d   1       5.610   1.349  -8.661  0.00  0.00     0.063 H 
ATOM     34  H   LIG d   1       6.802  -0.801  -8.791  0.00  0.00     0.062 H 
ENDBRANCH  22  24
BRANCH  22  35
ATOM     35  O   LIG d   1       7.152  -3.048  -8.833  0.00  0.00    -0.387 OA
ATOM     36  H   LIG d   1       7.401  -2.114  -8.807  0.00  0.00     0.210 HD
ENDBRANCH  22  35
ENDBRANCH  19  22
ENDBRANCH   1  19
BRANCH   1  37
ATOM     37  C   LIG d   1       7.359  -4.680  -5.619  0.00  0.00    -0.001 A 
ATOM     38  S   LIG d   1       8.583  -4.673  -4.321  0.00  0.00    -0.081 SA
ATOM     39  C   LIG d   1       8.858  -6.435  -4.225  0.00  0.00     0.078 A 
ATOM     40  C   LIG d   1       8.018  -6.903  -5.181  0.00  0.00    -0.036 A 
ATOM     41 CL   LIG d   1       9.930  -7.319  -3.184  0.00  0.00    -0.076 Cl
ATOM     42  C   LIG d   1       7.249  -6.002  -5.895  0.00  0.00    -0.050 A 
ATOM     43  H   LIG d   1       7.949  -7.962  -5.380  0.00  0.00     0.064 H 
ATOM     44  H   LIG d   1       6.571  -6.347  -6.661  0.00  0.00     0.063 H 
ENDBRANCH   1  37
TORSDOF 6
ENDMDL
MODEL 3
REMARK VINA RESULT:      -6.7      3.485      4.472
REMARK  6 active torsions:
REMARK  status: ('A' for Active; 'I' for Inactive)
REMARK    1  A    between atoms: C_8  and  C_12 
REMARK    2  A    between atoms: C_12  and  C_14 
REMARK    3  A    between atoms: C_12  and  C_25 
REMARK    4  A    between atoms: C_14  and  C_15 
REMARK    5  A    between atoms: C_15  and  C_17 
REMARK    6  A    between atoms: C_15  and  O_24 
ROOT
ATOM      1  C   LIG d   1       9.072   0.429  -5.992  0.00  0.00     0.024 C 
ATOM      2  H   LIG d   1       9.175   1.408  -6.458  0.00  0.00     0.041 H 
ENDROOT
BRANCH   1   3
ATOM      3  C   LIG d   1       7.978   0.478  -4.956  0.00  0.00     0.038 A 
ATOM      4  C   LIG d   1       7.322  -0.667  -4.596  0.00  0.00    -0.087 A 
ATOM      5  C   LIG d   1       6.263  -0.565  -3.580  0.00  0.00     0.010 A 
ATOM      6  O   LIG d   1       7.637  -1.856  -5.157  0.00  0.00    -0.873 OA
ATOM      7  C   LIG d   1       5.971   0.692  -3.026  0.00  0.00     0.139 A 
ATOM      8  C   LIG d   1       5.552  -1.693  -3.165  0.00  0.00    -0.052 A 
ATOM      9  C   LIG d   1       4.974   0.801  -2.066  0.00  0.00    -0.019 A 
ATOM     10  O   LIG d   1       6.662   1.781  -3.431  0.00  0.00    -0.422 OA
ATOM     11  C   LIG d   1       4.279  -0.321  -1.665  0.00  0.00    -0.058 A 
ATOM     12  H   LIG d   1       4.742   1.763  -1.634  0.00  0.00     0.065 H 
ATOM     13  C   LIG d   1       4.566  -1.564  -2.212  0.00  0.00    -0.061 A 
ATOM     14  H   LIG d   1       3.504  -0.232  -0.919  0.00  0.00     0.062 H 
ATOM     15  H   LIG d   1       4.017  -2.434  -1.886  0.00  0.00     0.062 H 
ATOM     16  C   LIG d   1       7.630   1.698  -4.357  0.00  0.00     0.341 A 
ATOM     17  O   LIG d   1       8.223   2.711  -4.686  0.00  0.00    -0.245 OA
ATOM     18  H   LIG d   1       5.773  -2.661  -3.589  0.00  0.00     0.062 H 
ENDBRANCH   1   3
BRANCH   1  19
ATOM     19  C   LIG d   1       8.716  -0.609  -7.059  0.00  0.00    -0.011 C 
ATOM     20  H   LIG d   1       9.539  -1.316  -7.166  0.00  0.00     0.030 H 
ATOM     21  H   LIG d   1       7.815  -1.143  -6.760  0.00  0.00     0.030 H 
BRANCH  19  22
ATOM     22  C   LIG d   1       8.474   0.096  -8.395  0.00  0.00     0.081 C 
ATOM     23  H   LIG d   1       8.718  -0.580  -9.213  0.00  0.00     0.064 H 
BRANCH  22  24
ATOM     24  C   LIG d   1       7.025   0.501  -8.493  0.00  0.00    -0.019 A 
ATOM     25  C   LIG d   1       6.689   1.751  -8.979  0.00  0.00    -0.055 A 
ATOM     26  C   LIG d   1       5.360   2.120  -9.073  0.00  0.00    -0.043 A 
ATOM     27  H   LIG d   1       7.463   2.437  -9.286  0.00  0.00     0.062 H 
ATOM     28  C   LIG d   1       4.367   1.242  -8.674  0.00  0.00     0.041 A 
ATOM     29  H   LIG d   1       5.097   3.094  -9.457  0.00  0.00     0.063 H 
ATOM     30  C   LIG d   1       4.706  -0.006  -8.183  0.00  0.00    -0.043 A 
ATOM     31 CL   LIG d   1       2.699   1.708  -8.787  0.00  0.00    -0.084 Cl
ATOM     32  C   LIG d   1       6.035  -0.376  -8.093  0.00  0.00    -0.055 A 
ATOM     33  H   LIG d   1       3.932  -0.691  -7.871  0.00  0.00     0.063 H 
ATOM     34  H   LIG d   1       6.298  -1.351  -7.711  0.00  0.00     0.062 H 
ENDBRANCH  22  24
BRANCH  22  35
ATOM     35  O   LIG d   1       9.300   1.260  -8.476  0.00  0.00    -0.387 OA
ATOM     36  H   LIG d   1       9.028   1.888  -9.161  0.00  0.00     0.210 HD
ENDBRANCH  22  35
ENDBRANCH  19  22
ENDBRANCH   1  19
BRANCH   1  37
ATOM     37  C   LIG d   1      10.372   0.046  -5.332  0.00  0.00    -0.001 A 
ATOM     38  S   LIG d   1      11.539   1.081  -4.465  0.00  0.00    -0.081 SA
ATOM     39  C   LIG d   1      12.729  -0.181  -4.042  0.00  0.00     0.078 A 
ATOM     40  C   LIG d   1      12.169  -1.289  -4.589  0.00  0.00    -0.036 A 
ATOM     41 CL   LIG d   1      14.219  -0.030  -3.164  0.00  0.00    -0.076 Cl
ATOM     42  C   LIG d   1      10.961  -1.172  -5.250  0.00  0.00    -0.050 A 
ATOM     43  H   LIG d   1      12.660  -2.248  -4.509  0.00  0.00     0.064 H 
ATOM     44  H   LIG d   1      10.493  -2.037  -5.695  0.00  0.00     0.063 H 
ENDBRANCH   1  37
TORSDOF 6
ENDMDL
MODEL 4
REMARK VINA RESULT:      -6.6      3.672      5.852
REMARK  6 active torsions:
REMARK  status: ('A' for Active; 'I' for Inactive)
REMARK    1  A    between atoms: C_8  and  C_12 
REMARK    2  A    between atoms: C_12  and  C_14 
REMARK    3  A    between atoms: C_12  and  C_25 
REMARK    4  A    between atoms: C_14  and  C_15 
REMARK    5  A    between atoms: C_15  and  C_17 
REMARK    6  A    between atoms: C_15  and  O_24 
ROOT
ATOM      1  C   LIG d   1       5.826  -0.089  -8.362  0.00  0.00     0.024 C 
ATOM      2  H   LIG d   1       6.583  -0.872  -8.400  0.00  0.00     0.041 H 
ENDROOT
BRANCH   1   3
ATOM      3  C   LIG d   1       5.029  -0.223  -7.090  0.00  0.00     0.038 A 
ATOM      4  C   LIG d   1       5.401  -1.133  -6.140  0.00  0.00    -0.087 A 
ATOM      5  C   LIG d   1       4.590  -1.224  -4.916  0.00  0.00     0.010 A 
ATOM      6  O   LIG d   1       6.483  -1.925  -6.319  0.00  0.00    -0.873 OA
ATOM      7  C   LIG d   1       3.475  -0.381  -4.775  0.00  0.00     0.139 A 
ATOM      8  C   LIG d   1       4.912  -2.131  -3.903  0.00  0.00    -0.052 A 
ATOM      9  C   LIG d   1       2.702  -0.458  -3.624  0.00  0.00    -0.019 A 
ATOM     10  O   LIG d   1       3.168   0.495  -5.757  0.00  0.00    -0.422 OA
ATOM     11  C   LIG d   1       3.031  -1.358  -2.632  0.00  0.00    -0.058 A 
ATOM     12  H   LIG d   1       1.843   0.186  -3.506  0.00  0.00     0.065 H 
ATOM     13  C   LIG d   1       4.132  -2.191  -2.770  0.00  0.00    -0.061 A 
ATOM     14  H   LIG d   1       2.427  -1.414  -1.739  0.00  0.00     0.062 H 
ATOM     15  H   LIG d   1       4.380  -2.888  -1.984  0.00  0.00     0.062 H 
ATOM     16  C   LIG d   1       3.902   0.585  -6.877  0.00  0.00     0.341 A 
ATOM     17  O   LIG d   1       3.581   1.392  -7.732  0.00  0.00    -0.245 OA
ATOM     18  H   LIG d   1       5.768  -2.780  -4.009  0.00  0.00     0.062 H 
ENDBRANCH   1   3
BRANCH   1  19
ATOM     19  C   LIG d   1       6.508   1.281  -8.394  0.00  0.00    -0.011 C 
ATOM     20  H   LIG d   1       6.345   1.745  -9.367  0.00  0.00     0.030 H 
ATOM     21  H   LIG d   1       6.088   1.914  -7.614  0.00  0.00     0.030 H 
BRANCH  19  22
ATOM     22  C   LIG d   1       8.010   1.108  -8.159  0.00  0.00     0.081 C 
ATOM     23  H   LIG d   1       8.561   1.510  -9.008  0.00  0.00     0.064 H 
BRANCH  22  24
ATOM     24  C   LIG d   1       8.410   1.846  -6.906  0.00  0.00    -0.019 A 
ATOM     25  C   LIG d   1       7.963   1.407  -5.674  0.00  0.00    -0.055 A 
ATOM     26  C   LIG d   1       8.333   2.081  -4.525  0.00  0.00    -0.043 A 
ATOM     27  H   LIG d   1       7.327   0.537  -5.608  0.00  0.00     0.062 H 
ATOM     28  C   LIG d   1       9.143   3.200  -4.609  0.00  0.00     0.041 A 
ATOM     29  H   LIG d   1       7.989   1.736  -3.562  0.00  0.00     0.063 H 
ATOM     30  C   LIG d   1       9.584   3.641  -5.844  0.00  0.00    -0.043 A 
ATOM     31 CL   LIG d   1       9.603   4.050  -3.168  0.00  0.00    -0.084 Cl
ATOM     32  C   LIG d   1       9.217   2.964  -6.992  0.00  0.00    -0.055 A 
ATOM     33  H   LIG d   1      10.216   4.515  -5.911  0.00  0.00     0.063 H 
ATOM     34  H   LIG d   1       9.563   3.308  -7.955  0.00  0.00     0.062 H 
ENDBRANCH  22  24
BRANCH  22  35
ATOM     35  O   LIG d   1       8.312  -0.281  -8.010  0.00  0.00    -0.387 OA
ATOM     36  H   LIG d   1       8.964  -0.612  -8.644  0.00  0.00     0.210 HD
ENDBRANCH  22  35
ENDBRANCH  19  22
ENDBRANCH   1  19
BRANCH   1  37
ATOM     37  C   LIG d   1       4.906  -0.220  -9.549  0.00  0.00    -0.001 A 
ATOM     38  S   LIG d   1       3.725  -1.506  -9.918  0.00  0.00    -0.081 SA
ATOM     39  C   LIG d   1       3.116  -0.852 -11.463  0.00  0.00     0.078 A 
ATOM     40  C   LIG d   1       3.848   0.282 -11.597  0.00  0.00    -0.036 A 
ATOM     41 CL   LIG d   1       1.905  -1.502 -12.524  0.00  0.00    -0.076 Cl
ATOM     42  C   LIG d   1       4.765   0.605 -10.614  0.00  0.00    -0.050 A 
ATOM     43  H   LIG d   1       3.716   0.922 -12.456  0.00  0.00     0.064 H 
ATOM     44  H   LIG d   1       5.361   1.501 -10.695  0.00  0.00     0.063 H 
ENDBRANCH   1  37
TORSDOF 6
ENDMDL
MODEL 5
REMARK VINA RESULT:      -6.5      1.925      5.948
REMARK  6 active torsions:
REMARK  status: ('A' for Active; 'I' for Inactive)
REMARK    1  A    between atoms: C_8  and  C_12 
REMARK    2  A    between atoms: C_12  and  C_14 
REMARK    3  A    between atoms: C_12  and  C_25 
REMARK    4  A    between atoms: C_14  and  C_15 
REMARK    5  A    between atoms: C_15  and  C_17 
REMARK    6  A    between atoms: C_15  and  O_24 
ROOT
ATOM      1  C   LIG d   1       5.514  -2.954  -7.236  0.00  0.00     0.024 C 
ATOM      2  H   LIG d   1       5.130  -3.964  -7.377  0.00  0.00     0.041 H 
ENDROOT
BRANCH   1   3
ATOM      3  C   LIG d   1       5.192  -2.483  -5.841  0.00  0.00     0.038 A 
ATOM      4  C   LIG d   1       5.506  -1.209  -5.457  0.00  0.00    -0.087 A 
ATOM      5  C   LIG d   1       5.170  -0.799  -4.085  0.00  0.00     0.010 A 
ATOM      6  O   LIG d   1       6.107  -0.352  -6.313  0.00  0.00    -0.873 OA
ATOM      7  C   LIG d   1       4.546  -1.725  -3.232  0.00  0.00     0.139 A 
ATOM      8  C   LIG d   1       5.462   0.487  -3.625  0.00  0.00    -0.052 A 
ATOM      9  C   LIG d   1       4.225  -1.349  -1.935  0.00  0.00    -0.019 A 
ATOM     10  O   LIG d   1       4.266  -2.967  -3.682  0.00  0.00    -0.422 OA
ATOM     11  C   LIG d   1       4.519  -0.076  -1.493  0.00  0.00    -0.058 A 
ATOM     12  H   LIG d   1       3.745  -2.053  -1.272  0.00  0.00     0.065 H 
ATOM     13  C   LIG d   1       5.135   0.840  -2.335  0.00  0.00    -0.061 A 
ATOM     14  H   LIG d   1       4.267   0.211  -0.484  0.00  0.00     0.062 H 
ATOM     15  H   LIG d   1       5.356   1.834  -1.977  0.00  0.00     0.062 H 
ATOM     16  C   LIG d   1       4.568  -3.351  -4.932  0.00  0.00     0.341 A 
ATOM     17  O   LIG d   1       4.293  -4.484  -5.287  0.00  0.00    -0.245 OA
ATOM     18  H   LIG d   1       5.942   1.201  -4.278  0.00  0.00     0.062 H 
ENDBRANCH   1   3
BRANCH   1  19
ATOM     19  C   LIG d   1       7.031  -2.952  -7.437  0.00  0.00    -0.011 C 
ATOM     20  H   LIG d   1       7.265  -2.586  -8.436  0.00  0.00     0.030 H 
ATOM     21  H   LIG d   1       7.495  -2.304  -6.695  0.00  0.00     0.030 H 
BRANCH  19  22
ATOM     22  C   LIG d   1       7.567  -4.377  -7.278  0.00  0.00     0.081 C 
ATOM     23  H   LIG d   1       8.346  -4.557  -8.018  0.00  0.00     0.064 H 
BRANCH  22  24
ATOM     24  C   LIG d   1       8.142  -4.545  -5.894  0.00  0.00    -0.019 A 
ATOM     25  C   LIG d   1       8.282  -5.810  -5.355  0.00  0.00    -0.055 A 
ATOM     26  C   LIG d   1       8.813  -5.965  -4.088  0.00  0.00    -0.043 A 
ATOM     27  H   LIG d   1       7.980  -6.677  -5.923  0.00  0.00     0.062 H 
ATOM     28  C   LIG d   1       9.195  -4.854  -3.356  0.00  0.00     0.041 A 
ATOM     29  H   LIG d   1       8.928  -6.953  -3.668  0.00  0.00     0.063 H 
ATOM     30  C   LIG d   1       9.048  -3.589  -3.896  0.00  0.00    -0.043 A 
ATOM     31 CL   LIG d   1       9.857  -5.048  -1.763  0.00  0.00    -0.084 Cl
ATOM     32  C   LIG d   1       8.521  -3.434  -5.164  0.00  0.00    -0.055 A 
ATOM     33  H   LIG d   1       9.346  -2.721  -3.325  0.00  0.00     0.063 H 
ATOM     34  H   LIG d   1       8.408  -2.446  -5.585  0.00  0.00     0.062 H 
ENDBRANCH  22  24
BRANCH  22  35
ATOM     35  O   LIG d   1       6.503  -5.311  -7.469  0.00  0.00    -0.387 OA
ATOM     36  H   LIG d   1       6.286  -5.475  -8.398  0.00  0.00     0.210 HD
ENDBRANCH  22  35
ENDBRANCH  19  22
ENDBRANCH   1  19
BRANCH   1  37
ATOM     37  C   LIG d   1       4.874  -2.028  -8.239  0.00  0.00    -0.001 A 
ATOM     38  S   LIG d   1       5.631  -1.136  -9.587  0.00  0.00    -0.081 SA
ATOM     39  C   LIG d   1       4.164  -0.330 -10.210  0.00  0.00     0.078 A 
ATOM     40  C   LIG d   1       3.211  -0.782  -9.357  0.00  0.00    -0.036 A 
ATOM     41 CL   LIG d   1       4.001   0.755 -11.555  0.00  0.00    -0.076 Cl
ATOM     42  C   LIG d   1       3.577  -1.653  -8.347  0.00  0.00    -0.050 A 
ATOM     43  H   LIG d   1       2.184  -0.467  -9.465  0.00  0.00     0.064 H 
ATOM     44  H   LIG d   1       2.839  -2.028  -7.654  0.00  0.00     0.063 H 
ENDBRANCH   1  37
TORSDOF 6
ENDMDL
MODEL 6
REMARK VINA RESULT:      -6.5      2.890      5.243
REMARK  6 active torsions:
REMARK  status: ('A' for Active; 'I' for Inactive)
REMARK    1  A    between atoms: C_8  and  C_12 
REMARK    2  A    between atoms: C_12  and  C_14 
REMARK    3  A    between atoms: C_12  and  C_25 
REMARK    4  A    between atoms: C_14  and  C_15 
REMARK    5  A    between atoms: C_15  and  C_17 
REMARK    6  A    between atoms: C_15  and  O_24 
ROOT
ATOM      1  C   LIG d   1       5.730  -3.370  -7.440  0.00  0.00     0.024 C 
ATOM      2  H   LIG d   1       4.744  -3.835  -7.428  0.00  0.00     0.041 H 
ENDROOT
BRANCH   1   3
ATOM      3  C   LIG d   1       5.599  -1.927  -7.856  0.00  0.00     0.038 A 
ATOM      4  C   LIG d   1       4.376  -1.420  -8.200  0.00  0.00    -0.087 A 
ATOM      5  C   LIG d   1       4.302  -0.006  -8.598  0.00  0.00     0.010 A 
ATOM      6  O   LIG d   1       3.269  -2.196  -8.176  0.00  0.00    -0.873 OA
ATOM      7  C   LIG d   1       5.480   0.760  -8.608  0.00  0.00     0.139 A 
ATOM      8  C   LIG d   1       3.087   0.578  -8.962  0.00  0.00    -0.052 A 
ATOM      9  C   LIG d   1       5.423   2.096  -8.982  0.00  0.00    -0.019 A 
ATOM     10  O   LIG d   1       6.654   0.191  -8.255  0.00  0.00    -0.422 OA
ATOM     11  C   LIG d   1       4.216   2.660  -9.339  0.00  0.00    -0.058 A 
ATOM     12  H   LIG d   1       6.322   2.693  -8.993  0.00  0.00     0.065 H 
ATOM     13  C   LIG d   1       3.052   1.905  -9.329  0.00  0.00    -0.061 A 
ATOM     14  H   LIG d   1       4.177   3.699  -9.629  0.00  0.00     0.062 H 
ATOM     15  H   LIG d   1       2.113   2.360  -9.607  0.00  0.00     0.062 H 
ATOM     16  C   LIG d   1       6.731  -1.099  -7.891  0.00  0.00     0.341 A 
ATOM     17  O   LIG d   1       7.815  -1.563  -7.581  0.00  0.00    -0.245 OA
ATOM     18  H   LIG d   1       2.180  -0.008  -8.955  0.00  0.00     0.062 H 
ENDBRANCH   1   3
BRANCH   1  19
ATOM     19  C   LIG d   1       6.346  -3.444  -6.042  0.00  0.00    -0.011 C 
ATOM     20  H   LIG d   1       7.084  -4.245  -6.012  0.00  0.00     0.030 H 
ATOM     21  H   LIG d   1       6.830  -2.496  -5.807  0.00  0.00     0.030 H 
BRANCH  19  22
ATOM     22  C   LIG d   1       5.247  -3.724  -5.015  0.00  0.00     0.081 C 
ATOM     23  H   LIG d   1       5.518  -4.597  -4.422  0.00  0.00     0.064 H 
BRANCH  22  24
ATOM     24  C   LIG d   1       5.091  -2.531  -4.107  0.00  0.00    -0.019 A 
ATOM     25  C   LIG d   1       5.951  -1.455  -4.228  0.00  0.00    -0.055 A 
ATOM     26  C   LIG d   1       5.805  -0.358  -3.399  0.00  0.00    -0.043 A 
ATOM     27  H   LIG d   1       6.734  -1.469  -4.971  0.00  0.00     0.062 H 
ATOM     28  C   LIG d   1       4.805  -0.341  -2.443  0.00  0.00     0.041 A 
ATOM     29  H   LIG d   1       6.473   0.485  -3.497  0.00  0.00     0.063 H 
ATOM     30  C   LIG d   1       3.950  -1.421  -2.319  0.00  0.00    -0.043 A 
ATOM     31 CL   LIG d   1       4.626   1.033  -1.398  0.00  0.00    -0.084 Cl
ATOM     32  C   LIG d   1       4.093  -2.515  -3.151  0.00  0.00    -0.055 A 
ATOM     33  H   LIG d   1       3.169  -1.409  -1.572  0.00  0.00     0.063 H 
ATOM     34  H   LIG d   1       3.424  -3.358  -3.055  0.00  0.00     0.062 H 
ENDBRANCH  22  24
BRANCH  22  35
ATOM     35  O   LIG d   1       4.014  -3.972  -5.693  0.00  0.00    -0.387 OA
ATOM     36  H   LIG d   1       3.888  -3.437  -6.489  0.00  0.00     0.210 HD
ENDBRANCH  22  35
ENDBRANCH  19  22
ENDBRANCH   1  19
BRANCH   1  37
ATOM     37  C   LIG d   1       6.617  -4.097  -8.419  0.00  0.00    -0.001 A 
ATOM     38  S   LIG d   1       6.585  -4.062 -10.203  0.00  0.00    -0.081 SA
ATOM     39  C   LIG d   1       7.945  -5.180 -10.500  0.00  0.00     0.078 A 
ATOM     40  C   LIG d   1       8.321  -5.507  -9.238  0.00  0.00    -0.036 A 
ATOM     41 CL   LIG d   1       8.610  -5.716 -12.011  0.00  0.00    -0.076 Cl
ATOM     42  C   LIG d   1       7.640  -4.950  -8.172  0.00  0.00    -0.050 A 
ATOM     43  H   LIG d   1       9.141  -6.189  -9.070  0.00  0.00     0.064 H 
ATOM     44  H   LIG d   1       7.918  -5.192  -7.157  0.00  0.00     0.063 H 
ENDBRANCH   1  37
TORSDOF 6
ENDMDL
MODEL 7
REMARK VINA RESULT:      -6.4      2.614      5.200
REMARK  6 active torsions:
REMARK  status: ('A' for Active; 'I' for Inactive)
REMARK    1  A    between atoms: C_8  and  C_12 
REMARK    2  A    between atoms: C_12  and  C_14 
REMARK    3  A    between atoms: C_12  and  C_25 
REMARK    4  A    between atoms: C_14  and  C_15 
REMARK    5  A    between atoms: C_15  and  C_17 
REMARK    6  A    between atoms: C_15  and  O_24 
ROOT
ATOM      1  C   LIG d   1       6.173  -2.465  -6.215  0.00  0.00     0.024 C 
ATOM      2  H   LIG d   1       5.658  -2.291  -5.271  0.00  0.00     0.041 H 
ENDROOT
BRANCH   1   3
ATOM      3  C   LIG d   1       5.726  -1.441  -7.227  0.00  0.00     0.038 A 
ATOM      4  C   LIG d   1       4.636  -0.655  -6.972  0.00  0.00    -0.087 A 
ATOM      5  C   LIG d   1       4.242   0.330  -7.992  0.00  0.00     0.010 A 
ATOM      6  O   LIG d   1       3.942  -0.779  -5.818  0.00  0.00    -0.873 OA
ATOM      7  C   LIG d   1       4.994   0.421  -9.175  0.00  0.00     0.139 A 
ATOM      8  C   LIG d   1       3.139   1.165  -7.799  0.00  0.00    -0.052 A 
ATOM      9  C   LIG d   1       4.631   1.347 -10.145  0.00  0.00    -0.019 A 
ATOM     10  O   LIG d   1       6.059  -0.389  -9.357  0.00  0.00    -0.422 OA
ATOM     11  C   LIG d   1       3.540   2.166  -9.941  0.00  0.00    -0.058 A 
ATOM     12  H   LIG d   1       5.202   1.425 -11.057  0.00  0.00     0.065 H 
ATOM     13  C   LIG d   1       2.796   2.076  -8.773  0.00  0.00    -0.061 A 
ATOM     14  H   LIG d   1       3.262   2.883 -10.698  0.00  0.00     0.062 H 
ATOM     15  H   LIG d   1       1.947   2.726  -8.625  0.00  0.00     0.062 H 
ATOM     16  C   LIG d   1       6.427  -1.290  -8.433  0.00  0.00     0.341 A 
ATOM     17  O   LIG d   1       7.397  -1.996  -8.648  0.00  0.00    -0.245 OA
ATOM     18  H   LIG d   1       2.559   1.097  -6.891  0.00  0.00     0.062 H 
ENDBRANCH   1   3
BRANCH   1  19
ATOM     19  C   LIG d   1       7.683  -2.345  -6.002  0.00  0.00    -0.011 C 
ATOM     20  H   LIG d   1       8.181  -3.214  -6.431  0.00  0.00     0.030 H 
ATOM     21  H   LIG d   1       8.049  -1.441  -6.487  0.00  0.00     0.030 H 
BRANCH  19  22
ATOM     22  C   LIG d   1       7.982  -2.276  -4.502  0.00  0.00     0.081 C 
ATOM     23  H   LIG d   1       8.986  -1.883  -4.349  0.00  0.00     0.064 H 
BRANCH  22  24
ATOM     24  C   LIG d   1       6.981  -1.369  -3.833  0.00  0.00    -0.019 A 
ATOM     25  C   LIG d   1       5.925  -1.910  -3.124  0.00  0.00    -0.055 A 
ATOM     26  C   LIG d   1       5.010  -1.079  -2.506  0.00  0.00    -0.043 A 
ATOM     27  H   LIG d   1       5.816  -2.982  -3.050  0.00  0.00     0.062 H 
ATOM     28  C   LIG d   1       5.145   0.295  -2.605  0.00  0.00     0.041 A 
ATOM     29  H   LIG d   1       4.188  -1.501  -1.947  0.00  0.00     0.063 H 
ATOM     30  C   LIG d   1       6.199   0.835  -3.320  0.00  0.00    -0.043 A 
ATOM     31 CL   LIG d   1       3.993   1.339  -1.834  0.00  0.00    -0.084 Cl
ATOM     32  C   LIG d   1       7.116   0.003  -3.934  0.00  0.00    -0.055 A 
ATOM     33  H   LIG d   1       6.305   1.907  -3.398  0.00  0.00     0.063 H 
ATOM     34  H   LIG d   1       7.940   0.425  -4.491  0.00  0.00     0.062 H 
ENDBRANCH  22  24
BRANCH  22  35
ATOM     35  O   LIG d   1       7.890  -3.585  -3.938  0.00  0.00    -0.387 OA
ATOM     36  H   LIG d   1       7.406  -3.620  -3.100  0.00  0.00     0.210 HD
ENDBRANCH  22  35
ENDBRANCH  19  22
ENDBRANCH   1  19
BRANCH   1  37
ATOM     37  C   LIG d   1       5.845  -3.847  -6.721  0.00  0.00    -0.001 A 
ATOM     38  S   LIG d   1       4.284  -4.490  -7.299  0.00  0.00    -0.081 SA
ATOM     39  C   LIG d   1       4.822  -6.149  -7.681  0.00  0.00     0.078 A 
ATOM     40  C   LIG d   1       6.134  -6.105  -7.338  0.00  0.00    -0.036 A 
ATOM     41 CL   LIG d   1       3.903  -7.477  -8.317  0.00  0.00    -0.076 Cl
ATOM     42  C   LIG d   1       6.657  -4.924  -6.847  0.00  0.00    -0.050 A 
ATOM     43  H   LIG d   1       6.760  -6.978  -7.450  0.00  0.00     0.064 H 
ATOM     44  H   LIG d   1       7.698  -4.860  -6.567  0.00  0.00     0.063 H 
ENDBRANCH   1  37
TORSDOF 6
ENDMDL
MODEL 8
REMARK VINA RESULT:      -6.3      3.494      5.668
REMARK  6 active torsions:
REMARK  status: ('A' for Active; 'I' for Inactive)
REMARK    1  A    between atoms: C_8  and  C_12 
REMARK    2  A    between atoms: C_12  and  C_14 
REMARK    3  A    between atoms: C_12  and  C_25 
REMARK    4  A    between atoms: C_14  and  C_15 
REMARK    5  A    between atoms: C_15  and  C_17 
REMARK    6  A    between atoms: C_15  and  O_24 
ROOT
ATOM      1  C   LIG d   1       5.658  -0.526  -8.600  0.00  0.00     0.024 C 
ATOM      2  H   LIG d   1       6.474  -1.139  -8.982  0.00  0.00     0.041 H 
ENDROOT
BRANCH   1   3
ATOM      3  C   LIG d   1       5.293  -0.984  -7.210  0.00  0.00     0.038 A 
ATOM      4  C   LIG d   1       4.345  -0.308  -6.493  0.00  0.00    -0.087 A 
ATOM      5  C   LIG d   1       4.025  -0.795  -5.142  0.00  0.00     0.010 A 
ATOM      6  O   LIG d   1       3.721   0.775  -7.009  0.00  0.00    -0.873 OA
ATOM      7  C   LIG d   1       4.700  -1.924  -4.649  0.00  0.00     0.139 A 
ATOM      8  C   LIG d   1       3.068  -0.154  -4.352  0.00  0.00    -0.052 A 
ATOM      9  C   LIG d   1       4.407  -2.393  -3.375  0.00  0.00    -0.019 A 
ATOM     10  O   LIG d   1       5.626  -2.541  -5.416  0.00  0.00    -0.422 OA
ATOM     11  C   LIG d   1       3.459  -1.751  -2.606  0.00  0.00    -0.058 A 
ATOM     12  H   LIG d   1       4.920  -3.260  -2.987  0.00  0.00     0.065 H 
ATOM     13  C   LIG d   1       2.791  -0.636  -3.092  0.00  0.00    -0.061 A 
ATOM     14  H   LIG d   1       3.234  -2.119  -1.617  0.00  0.00     0.062 H 
ATOM     15  H   LIG d   1       2.049  -0.145  -2.481  0.00  0.00     0.062 H 
ATOM     16  C   LIG d   1       5.924  -2.104  -6.650  0.00  0.00     0.341 A 
ATOM     17  O   LIG d   1       6.767  -2.698  -7.300  0.00  0.00    -0.245 OA
ATOM     18  H   LIG d   1       2.547   0.714  -4.729  0.00  0.00     0.062 H 
ENDBRANCH   1   3
BRANCH   1  19
ATOM     19  C   LIG d   1       6.100   0.938  -8.554  0.00  0.00    -0.011 C 
ATOM     20  H   LIG d   1       5.638   1.483  -9.378  0.00  0.00     0.030 H 
ATOM     21  H   LIG d   1       5.791   1.382  -7.608  0.00  0.00     0.030 H 
BRANCH  19  22
ATOM     22  C   LIG d   1       7.622   1.016  -8.682  0.00  0.00     0.081 C 
ATOM     23  H   LIG d   1       7.884   1.520  -9.612  0.00  0.00     0.064 H 
BRANCH  22  24
ATOM     24  C   LIG d   1       8.186   1.789  -7.517  0.00  0.00    -0.019 A 
ATOM     25  C   LIG d   1       7.842   1.437  -6.225  0.00  0.00    -0.055 A 
ATOM     26  C   LIG d   1       8.362   2.143  -5.155  0.00  0.00    -0.043 A 
ATOM     27  H   LIG d   1       7.170   0.611  -6.050  0.00  0.00     0.062 H 
ATOM     28  C   LIG d   1       9.218   3.206  -5.379  0.00  0.00     0.041 A 
ATOM     29  H   LIG d   1       8.098   1.866  -4.146  0.00  0.00     0.063 H 
ATOM     30  C   LIG d   1       9.557   3.560  -6.673  0.00  0.00    -0.043 A 
ATOM     31 CL   LIG d   1       9.867   4.096  -4.037  0.00  0.00    -0.084 Cl
ATOM     32  C   LIG d   1       9.040   2.852  -7.741  0.00  0.00    -0.055 A 
ATOM     33  H   LIG d   1      10.225   4.391  -6.848  0.00  0.00     0.063 H 
ATOM     34  H   LIG d   1       9.305   3.128  -8.751  0.00  0.00     0.062 H 
ENDBRANCH  22  24
BRANCH  22  35
ATOM     35  O   LIG d   1       8.168  -0.305  -8.687  0.00  0.00    -0.387 OA
ATOM     36  H   LIG d   1       8.824  -0.461  -7.993  0.00  0.00     0.210 HD
ENDBRANCH  22  35
ENDBRANCH  19  22
ENDBRANCH   1  19
BRANCH   1  37
ATOM     37  C   LIG d   1       4.460  -0.662  -9.504  0.00  0.00    -0.001 A 
ATOM     38  S   LIG d   1       3.300  -2.011  -9.637  0.00  0.00    -0.081 SA
ATOM     39  C   LIG d   1       2.258  -1.323 -10.913  0.00  0.00     0.078 A 
ATOM     40  C   LIG d   1       2.861  -0.132 -11.155  0.00  0.00    -0.036 A 
ATOM     41 CL   LIG d   1       0.845  -2.004 -11.657  0.00  0.00    -0.076 Cl
ATOM     42  C   LIG d   1       3.989   0.206 -10.432  0.00  0.00    -0.050 A 
ATOM     43  H   LIG d   1       2.464   0.542 -11.900  0.00  0.00     0.064 H 
ATOM     44  H   LIG d   1       4.489   1.148 -10.604  0.00  0.00     0.063 H 
ENDBRANCH   1  37
TORSDOF 6
ENDMDL
MODEL 9
REMARK VINA RESULT:      -6.3      4.706      7.496
REMARK  6 active torsions:
REMARK  status: ('A' for Active; 'I' for Inactive)
REMARK    1  A    between atoms: C_8  and  C_12 
REMARK    2  A    between atoms: C_12  and  C_14 
REMARK    3  A    between atoms: C_12  and  C_25 
REMARK    4  A    between atoms: C_14  and  C_15 
REMARK    5  A    between atoms: C_15  and  C_17 
REMARK    6  A    between atoms: C_15  and  O_24 
ROOT
ATOM      1  C   LIG d   1       8.950   0.985  -4.504  0.00  0.00     0.024 C 
ATOM      2  H   LIG d   1       9.876   0.475  -4.238  0.00  0.00     0.041 H 
ENDROOT
BRANCH   1   3
ATOM      3  C   LIG d   1       7.775   0.114  -4.142  0.00  0.00     0.038 A 
ATOM      4  C   LIG d   1       6.642   0.675  -3.619  0.00  0.00    -0.087 A 
ATOM      5  C   LIG d   1       5.522  -0.218  -3.283  0.00  0.00     0.010 A 
ATOM      6  O   LIG d   1       6.553   2.009  -3.417  0.00  0.00    -0.873 OA
ATOM      7  C   LIG d   1       5.661  -1.598  -3.511  0.00  0.00     0.139 A 
ATOM      8  C   LIG d   1       4.335   0.284  -2.745  0.00  0.00    -0.052 A 
ATOM      9  C   LIG d   1       4.611  -2.451  -3.197  0.00  0.00    -0.019 A 
ATOM     10  O   LIG d   1       6.811  -2.080  -4.031  0.00  0.00    -0.422 OA
ATOM     11  C   LIG d   1       3.444  -1.941  -2.667  0.00  0.00    -0.058 A 
ATOM     12  H   LIG d   1       4.708  -3.512  -3.369  0.00  0.00     0.065 H 
ATOM     13  C   LIG d   1       3.306  -0.579  -2.442  0.00  0.00    -0.061 A 
ATOM     14  H   LIG d   1       2.631  -2.608  -2.425  0.00  0.00     0.062 H 
ATOM     15  H   LIG d   1       2.385  -0.193  -2.030  0.00  0.00     0.062 H 
ATOM     16  C   LIG d   1       7.838  -1.272  -4.341  0.00  0.00     0.341 A 
ATOM     17  O   LIG d   1       8.853  -1.759  -4.808  0.00  0.00    -0.245 OA
ATOM     18  H   LIG d   1       4.225   1.344  -2.569  0.00  0.00     0.062 H 
ENDBRANCH   1   3
BRANCH   1  19
ATOM     19  C   LIG d   1       8.860   2.308  -3.739  0.00  0.00    -0.011 C 
ATOM     20  H   LIG d   1       8.258   3.016  -4.308  0.00  0.00     0.030 H 
ATOM     21  H   LIG d   1       8.396   2.135  -2.768  0.00  0.00     0.030 H 
BRANCH  19  22
ATOM     22  C   LIG d   1      10.265   2.878  -3.539  0.00  0.00     0.081 C 
ATOM     23  H   LIG d   1      10.849   2.735  -4.448  0.00  0.00     0.064 H 
BRANCH  22  24
ATOM     24  C   LIG d   1      10.170   4.351  -3.231  0.00  0.00    -0.019 A 
ATOM     25  C   LIG d   1      10.616   4.832  -2.015  0.00  0.00    -0.055 A 
ATOM     26  C   LIG d   1      10.533   6.183  -1.734  0.00  0.00    -0.043 A 
ATOM     27  H   LIG d   1      11.032   4.154  -1.285  0.00  0.00     0.062 H 
ATOM     28  C   LIG d   1       9.995   7.052  -2.667  0.00  0.00     0.041 A 
ATOM     29  H   LIG d   1      10.886   6.560  -0.786  0.00  0.00     0.063 H 
ATOM     30  C   LIG d   1       9.544   6.568  -3.881  0.00  0.00    -0.043 A 
ATOM     31 CL   LIG d   1       9.885   8.748  -2.312  0.00  0.00    -0.084 Cl
ATOM     32  C   LIG d   1       9.631   5.218  -4.163  0.00  0.00    -0.055 A 
ATOM     33  H   LIG d   1       9.123   7.246  -4.610  0.00  0.00     0.063 H 
ATOM     34  H   LIG d   1       9.279   4.841  -5.112  0.00  0.00     0.062 H 
ENDBRANCH  22  24
BRANCH  22  35
ATOM     35  O   LIG d   1      10.903   2.204  -2.452  0.00  0.00    -0.387 OA
ATOM     36  H   LIG d   1      11.868   2.281  -2.453  0.00  0.00     0.210 HD
ENDBRANCH  22  35
ENDBRANCH  19  22
ENDBRANCH   1  19
BRANCH   1  37
ATOM     37  C   LIG d   1       8.935   1.260  -5.986  0.00  0.00    -0.001 A 
ATOM     38  S   LIG d   1       9.949   0.549  -7.271  0.00  0.00    -0.081 SA
ATOM     39  C   LIG d   1       9.254   1.433  -8.658  0.00  0.00     0.078 A 
ATOM     40  C   LIG d   1       8.316   2.206  -8.056  0.00  0.00    -0.036 A 
ATOM     41 CL   LIG d   1       9.675   1.335 -10.339  0.00  0.00    -0.076 Cl
ATOM     42  C   LIG d   1       8.153   2.116  -6.687  0.00  0.00    -0.050 A 
ATOM     43  H   LIG d   1       7.705   2.880  -8.639  0.00  0.00     0.064 H 
ATOM     44  H   LIG d   1       7.413   2.719  -6.182  0.00  0.00     0.063 H 
ENDBRANCH   1  37
TORSDOF 6
ENDMDL
