MODEL 1
REMARK VINA RESULT:      -8.0      0.000      0.000
REMARK  4 active torsions:
REMARK  status: ('A' for Active; 'I' for Inactive)
REMARK    1  A    between atoms: C_3  and  C_10 
REMARK    2  A    between atoms: C_5  and  N_7 
REMARK    3  A    between atoms: C_12  and  C_15 
REMARK       I    between atoms: N_24  and  C_25 
REMARK       I    between atoms: C_25  and  N_27 
REMARK    4  A    between atoms: N_27  and  C_28 
ROOT
ATOM      1  C   LIG d   1       8.602  -4.546  -5.821  0.00  0.00     0.112 C 
ATOM      2  H   LIG d   1       7.905  -4.251  -6.607  0.00  0.00     0.060 H 
ATOM      3  C   LIG d   1      10.038  -4.249  -6.271  0.00  0.00     0.019 C 
ATOM      4  C   LIG d   1      10.948  -4.318  -5.070  0.00  0.00     0.066 A 
ATOM      5  C   LIG d   1      10.526  -4.250  -3.789  0.00  0.00     0.056 A 
ATOM      6  N   LIG d   1      11.628  -4.341  -2.996  0.00  0.00    -0.347 N 
ATOM      7  C   LIG d   1      12.696  -4.466  -3.818  0.00  0.00     0.094 A 
ATOM      8  N   LIG d   1      12.278  -4.452  -5.056  0.00  0.00    -0.240 NA
ATOM      9  C   LIG d   1       9.083  -4.104  -3.378  0.00  0.00     0.059 C 
ATOM     10  N   LIG d   1       8.311  -3.787  -4.596  0.00  0.00    -0.268 N 
ATOM     11  C   LIG d   1       7.366  -2.826  -4.586  0.00  0.00     0.303 C 
ATOM     12  O   LIG d   1       6.809  -2.511  -5.620  0.00  0.00    -0.253 OA
ATOM     13  N   LIG d   1       7.040  -2.213  -3.431  0.00  0.00    -0.296 N 
ATOM     14  H   LIG d   1      10.350  -4.989  -7.008  0.00  0.00     0.035 H 
ATOM     15  H   LIG d   1      10.085  -3.252  -6.708  0.00  0.00     0.035 H 
ATOM     16  H   LIG d   1      13.724  -4.563  -3.502  0.00  0.00     0.103 H 
ATOM     17  H   LIG d   1       8.723  -5.039  -2.946  0.00  0.00     0.053 H 
ATOM     18  H   LIG d   1       8.982  -3.296  -2.654  0.00  0.00     0.053 H 
ATOM     19  H   LIG d   1       7.534  -2.413  -2.620  0.00  0.00     0.150 HD
ATOM     20  H   LIG d   1      11.645  -4.321  -2.026  0.00  0.00     0.167 HD
ENDROOT
BRANCH   1  21
ATOM     21  C   LIG d   1       8.455  -6.021  -5.547  0.00  0.00     0.249 A 
ATOM     22  N   LIG d   1       7.625  -6.558  -4.699  0.00  0.00    -0.190 NA
ATOM     23  C   LIG d   1       7.759  -7.896  -4.708  0.00  0.00     0.202 A 
ATOM     24  N   LIG d   1       8.692  -8.217  -5.571  0.00  0.00    -0.056 NA
ATOM     25  O   LIG d   1       9.155  -7.000  -6.134  0.00  0.00    -0.336 OA
BRANCH  23  26
ATOM     26  C   LIG d   1       6.983  -8.850  -3.877  0.00  0.00     0.029 A 
ATOM     27  C   LIG d   1       7.573  -9.449  -2.766  0.00  0.00    -0.051 A 
ATOM     28  C   LIG d   1       6.846 -10.336  -1.997  0.00  0.00    -0.055 A 
ATOM     29  H   LIG d   1       8.596  -9.220  -2.507  0.00  0.00     0.062 H 
ATOM     30  C   LIG d   1       5.536 -10.631  -2.327  0.00  0.00     0.016 A 
ATOM     31  H   LIG d   1       7.304 -10.804  -1.138  0.00  0.00     0.062 H 
ATOM     32  C   LIG d   1       4.946 -10.038  -3.429  0.00  0.00     0.274 A 
ATOM     33  H   LIG d   1       4.972 -11.325  -1.722  0.00  0.00     0.069 H 
ATOM     34  C   LIG d   1       5.662  -9.150  -4.206  0.00  0.00     0.026 A 
ATOM     35  H   LIG d   1       5.200  -8.689  -5.066  0.00  0.00     0.069 H 
BRANCH  32  36
ATOM     36  N   LIG d   1       3.543 -10.358  -3.777  0.00  0.00     0.080 N 
ATOM     37  O   LIG d   1       3.303 -11.160  -4.649  0.00  0.00     0.041 OA
ATOM     38  O   LIG d   1       2.636  -9.817  -3.188  0.00  0.00    -0.576 OA
ENDBRANCH  32  36
ENDBRANCH  23  26
ENDBRANCH   1  21
BRANCH  13  39
ATOM     39  C   LIG d   1       5.940  -1.247  -3.399  0.00  0.00     0.025 C 
ATOM     40  C   LIG d   1       4.897  -1.694  -2.373  0.00  0.00    -0.035 C 
ATOM     41  C   LIG d   1       3.748  -0.684  -2.339  0.00  0.00    -0.051 C 
ATOM     42  H   LIG d   1       4.511  -2.675  -2.650  0.00  0.00     0.028 H 
ATOM     43  H   LIG d   1       5.359  -1.750  -1.387  0.00  0.00     0.028 H 
ATOM     44  C   LIG d   1       4.289   0.692  -1.950  0.00  0.00    -0.053 C 
ATOM     45  H   LIG d   1       3.005  -1.002  -1.608  0.00  0.00     0.027 H 
ATOM     46  H   LIG d   1       3.286  -0.628  -3.325  0.00  0.00     0.027 H 
ATOM     47  C   LIG d   1       5.332   1.140  -2.977  0.00  0.00    -0.051 C 
ATOM     48  H   LIG d   1       4.752   0.636  -0.964  0.00  0.00     0.026 H 
ATOM     49  H   LIG d   1       3.470   1.412  -1.926  0.00  0.00     0.026 H 
ATOM     50  C   LIG d   1       6.482   0.130  -3.009  0.00  0.00    -0.035 C 
ATOM     51  H   LIG d   1       5.718   2.121  -2.699  0.00  0.00     0.027 H 
ATOM     52  H   LIG d   1       4.871   1.197  -3.962  0.00  0.00     0.027 H 
ATOM     53  H   LIG d   1       6.943   0.073  -2.023  0.00  0.00     0.028 H 
ATOM     54  H   LIG d   1       7.224   0.449  -3.741  0.00  0.00     0.028 H 
ATOM     55  H   LIG d   1       5.478  -1.190  -4.385  0.00  0.00     0.050 H 
ENDBRANCH  13  39
TORSDOF 4
ENDMDL
MODEL 2
REMARK VINA RESULT:      -8.0      6.110      8.817
REMARK  4 active torsions:
REMARK  status: ('A' for Active; 'I' for Inactive)
REMARK    1  A    between atoms: C_3  and  C_10 
REMARK    2  A    between atoms: C_5  and  N_7 
REMARK    3  A    between atoms: C_12  and  C_15 
REMARK       I    between atoms: N_24  and  C_25 
REMARK       I    between atoms: C_25  and  N_27 
REMARK    4  A    between atoms: N_27  and  C_28 
ROOT
ATOM      1  C   LIG d   1       9.780   3.516  -5.371  0.00  0.00     0.112 C 
ATOM      2  H   LIG d   1       9.177   4.176  -5.996  0.00  0.00     0.060 H 
ATOM      3  C   LIG d   1      11.049   3.109  -6.130  0.00  0.00     0.019 C 
ATOM      4  C   LIG d   1      12.028   2.508  -5.154  0.00  0.00     0.066 A 
ATOM      5  C   LIG d   1      11.966   2.668  -3.814  0.00  0.00     0.056 A 
ATOM      6  N   LIG d   1      13.013   1.987  -3.277  0.00  0.00    -0.347 N 
ATOM      7  C   LIG d   1      13.687   1.424  -4.306  0.00  0.00     0.094 A 
ATOM      8  N   LIG d   1      13.090   1.740  -5.424  0.00  0.00    -0.240 NA
ATOM      9  C   LIG d   1      10.901   3.466  -3.106  0.00  0.00     0.059 C 
ATOM     10  N   LIG d   1      10.158   4.218  -4.136  0.00  0.00    -0.268 N 
ATOM     11  C   LIG d   1       9.836   5.513  -3.951  0.00  0.00     0.303 C 
ATOM     12  O   LIG d   1       9.310   6.143  -4.848  0.00  0.00    -0.253 OA
ATOM     13  N   LIG d   1      10.097   6.111  -2.771  0.00  0.00    -0.296 N 
ATOM     14  H   LIG d   1      10.798   2.374  -6.895  0.00  0.00     0.035 H 
ATOM     15  H   LIG d   1      11.492   3.989  -6.598  0.00  0.00     0.035 H 
ATOM     16  H   LIG d   1      14.573   0.812  -4.218  0.00  0.00     0.103 H 
ATOM     17  H   LIG d   1      10.223   2.794  -2.577  0.00  0.00     0.053 H 
ATOM     18  H   LIG d   1      11.361   4.159  -2.401  0.00  0.00     0.053 H 
ATOM     19  H   LIG d   1      10.581   5.631  -2.081  0.00  0.00     0.150 HD
ATOM     20  H   LIG d   1      13.234   1.918  -2.335  0.00  0.00     0.167 HD
ENDROOT
BRANCH   1  21
ATOM     21  C   LIG d   1       8.983   2.284  -5.027  0.00  0.00     0.249 A 
ATOM     22  N   LIG d   1       7.887   2.258  -4.324  0.00  0.00    -0.190 NA
ATOM     23  C   LIG d   1       7.441   0.994  -4.211  0.00  0.00     0.202 A 
ATOM     24  N   LIG d   1       8.268   0.201  -4.847  0.00  0.00    -0.056 NA
ATOM     25  O   LIG d   1       9.282   1.030  -5.393  0.00  0.00    -0.336 OA
BRANCH  23  26
ATOM     26  C   LIG d   1       6.220   0.568  -3.484  0.00  0.00     0.029 A 
ATOM     27  C   LIG d   1       5.540   1.471  -2.669  0.00  0.00    -0.051 A 
ATOM     28  C   LIG d   1       4.404   1.070  -1.995  0.00  0.00    -0.055 A 
ATOM     29  H   LIG d   1       5.901   2.484  -2.567  0.00  0.00     0.062 H 
ATOM     30  C   LIG d   1       3.941  -0.227  -2.126  0.00  0.00     0.016 A 
ATOM     31  H   LIG d   1       3.879   1.768  -1.361  0.00  0.00     0.062 H 
ATOM     32  C   LIG d   1       4.613  -1.128  -2.933  0.00  0.00     0.274 A 
ATOM     33  H   LIG d   1       3.053  -0.537  -1.597  0.00  0.00     0.069 H 
ATOM     34  C   LIG d   1       5.749  -0.738  -3.612  0.00  0.00     0.026 A 
ATOM     35  H   LIG d   1       6.272  -1.442  -4.242  0.00  0.00     0.069 H 
BRANCH  32  36
ATOM     36  N   LIG d   1       4.111  -2.514  -3.069  0.00  0.00     0.080 N 
ATOM     37  O   LIG d   1       3.460  -3.012  -2.179  0.00  0.00     0.041 OA
ATOM     38  O   LIG d   1       4.352  -3.149  -4.069  0.00  0.00    -0.576 OA
ENDBRANCH  32  36
ENDBRANCH  23  26
ENDBRANCH   1  21
BRANCH  13  39
ATOM     39  C   LIG d   1       9.650   7.485  -2.531  0.00  0.00     0.025 C 
ATOM     40  C   LIG d   1       9.190   7.626  -1.079  0.00  0.00    -0.035 C 
ATOM     41  C   LIG d   1       8.724   9.061  -0.829  0.00  0.00    -0.051 C 
ATOM     42  H   LIG d   1       8.366   6.938  -0.891  0.00  0.00     0.028 H 
ATOM     43  H   LIG d   1      10.020   7.392  -0.412  0.00  0.00     0.028 H 
ATOM     44  C   LIG d   1       9.880  10.027  -1.094  0.00  0.00    -0.053 C 
ATOM     45  H   LIG d   1       8.396   9.163   0.206  0.00  0.00     0.027 H 
ATOM     46  H   LIG d   1       7.895   9.295  -1.497  0.00  0.00     0.027 H 
ATOM     47  C   LIG d   1      10.340   9.887  -2.547  0.00  0.00    -0.051 C 
ATOM     48  H   LIG d   1      10.710   9.793  -0.426  0.00  0.00     0.026 H 
ATOM     49  H   LIG d   1       9.548  11.050  -0.915  0.00  0.00     0.026 H 
ATOM     50  C   LIG d   1      10.807   8.450  -2.797  0.00  0.00    -0.035 C 
ATOM     51  H   LIG d   1      11.165  10.575  -2.735  0.00  0.00     0.027 H 
ATOM     52  H   LIG d   1       9.512  10.121  -3.214  0.00  0.00     0.027 H 
ATOM     53  H   LIG d   1      11.636   8.216  -2.129  0.00  0.00     0.028 H 
ATOM     54  H   LIG d   1      11.135   8.350  -3.831  0.00  0.00     0.028 H 
ATOM     55  H   LIG d   1       8.821   7.720  -3.200  0.00  0.00     0.050 H 
ENDBRANCH  13  39
TORSDOF 4
ENDMDL
MODEL 3
REMARK VINA RESULT:      -7.6     10.537     15.084
REMARK  4 active torsions:
REMARK  status: ('A' for Active; 'I' for Inactive)
REMARK    1  A    between atoms: C_3  and  C_10 
REMARK    2  A    between atoms: C_5  and  N_7 
REMARK    3  A    between atoms: C_12  and  C_15 
REMARK       I    between atoms: N_24  and  C_25 
REMARK       I    between atoms: C_25  and  N_27 
REMARK    4  A    between atoms: N_27  and  C_28 
ROOT
ATOM      1  C   LIG d   1      11.770   6.880  -0.897  0.00  0.00     0.112 C 
ATOM      2  H   LIG d   1      12.658   6.307  -1.166  0.00  0.00     0.060 H 
ATOM      3  C   LIG d   1      12.052   8.377  -1.074  0.00  0.00     0.019 C 
ATOM      4  C   LIG d   1      10.742   9.125  -1.052  0.00  0.00     0.066 A 
ATOM      5  C   LIG d   1       9.534   8.553  -1.248  0.00  0.00     0.056 A 
ATOM      6  N   LIG d   1       8.602   9.540  -1.160  0.00  0.00    -0.347 N 
ATOM      7  C   LIG d   1       9.268  10.691  -0.908  0.00  0.00     0.094 A 
ATOM      8  N   LIG d   1      10.548  10.432  -0.844  0.00  0.00    -0.240 NA
ATOM      9  C   LIG d   1       9.325   7.084  -1.508  0.00  0.00     0.059 C 
ATOM     10  N   LIG d   1      10.651   6.491  -1.769  0.00  0.00    -0.268 N 
ATOM     11  C   LIG d   1      10.835   5.618  -2.779  0.00  0.00     0.303 C 
ATOM     12  O   LIG d   1      11.951   5.215  -3.040  0.00  0.00    -0.253 OA
ATOM     13  N   LIG d   1       9.778   5.193  -3.501  0.00  0.00    -0.296 N 
ATOM     14  H   LIG d   1      12.686   8.728  -0.260  0.00  0.00     0.035 H 
ATOM     15  H   LIG d   1      12.552   8.544  -2.028  0.00  0.00     0.035 H 
ATOM     16  H   LIG d   1       8.817  11.664  -0.779  0.00  0.00     0.103 H 
ATOM     17  H   LIG d   1       8.874   6.612  -0.634  0.00  0.00     0.053 H 
ATOM     18  H   LIG d   1       8.681   6.947  -2.377  0.00  0.00     0.053 H 
ATOM     19  H   LIG d   1       8.898   5.568  -3.341  0.00  0.00     0.150 HD
ATOM     20  H   LIG d   1       7.643   9.438  -1.258  0.00  0.00     0.167 HD
ENDROOT
BRANCH   1  21
ATOM     21  C   LIG d   1      11.409   6.603   0.540  0.00  0.00     0.249 A 
ATOM     22  N   LIG d   1      11.735   7.340   1.563  0.00  0.00    -0.190 NA
ATOM     23  C   LIG d   1      11.249   6.799   2.694  0.00  0.00     0.202 A 
ATOM     24  N   LIG d   1      10.608   5.697   2.390  0.00  0.00    -0.056 NA
ATOM     25  O   LIG d   1      10.698   5.556   0.980  0.00  0.00    -0.336 OA
BRANCH  23  26
ATOM     26  C   LIG d   1      11.415   7.354   4.060  0.00  0.00     0.029 A 
ATOM     27  C   LIG d   1      11.914   8.643   4.235  0.00  0.00    -0.051 A 
ATOM     28  C   LIG d   1      12.066   9.155   5.509  0.00  0.00    -0.055 A 
ATOM     29  H   LIG d   1      12.180   9.241   3.376  0.00  0.00     0.062 H 
ATOM     30  C   LIG d   1      11.725   8.390   6.610  0.00  0.00     0.016 A 
ATOM     31  H   LIG d   1      12.457  10.152   5.646  0.00  0.00     0.062 H 
ATOM     32  C   LIG d   1      11.229   7.109   6.441  0.00  0.00     0.274 A 
ATOM     33  H   LIG d   1      11.846   8.794   7.603  0.00  0.00     0.069 H 
ATOM     34  C   LIG d   1      11.073   6.587   5.173  0.00  0.00     0.026 A 
ATOM     35  H   LIG d   1      10.685   5.588   5.043  0.00  0.00     0.069 H 
BRANCH  32  36
ATOM     36  N   LIG d   1      10.866   6.297   7.624  0.00  0.00     0.080 N 
ATOM     37  O   LIG d   1      11.118   5.114   7.646  0.00  0.00     0.041 OA
ATOM     38  O   LIG d   1      10.317   6.815   8.568  0.00  0.00    -0.576 OA
ENDBRANCH  32  36
ENDBRANCH  23  26
ENDBRANCH   1  21
BRANCH  13  39
ATOM     39  C   LIG d   1       9.960   4.164  -4.528  0.00  0.00     0.025 C 
ATOM     40  C   LIG d   1       8.887   3.085  -4.365  0.00  0.00    -0.035 C 
ATOM     41  C   LIG d   1       9.076   2.011  -5.437  0.00  0.00    -0.051 C 
ATOM     42  H   LIG d   1       8.974   2.633  -3.377  0.00  0.00     0.028 H 
ATOM     43  H   LIG d   1       7.900   3.537  -4.473  0.00  0.00     0.028 H 
ATOM     44  C   LIG d   1       8.955   2.646  -6.824  0.00  0.00    -0.053 C 
ATOM     45  H   LIG d   1       8.312   1.243  -5.322  0.00  0.00     0.027 H 
ATOM     46  H   LIG d   1      10.063   1.561  -5.329  0.00  0.00     0.027 H 
ATOM     47  C   LIG d   1      10.029   3.725  -6.987  0.00  0.00    -0.051 C 
ATOM     48  H   LIG d   1       7.968   3.098  -6.932  0.00  0.00     0.026 H 
ATOM     49  H   LIG d   1       9.089   1.881  -7.588  0.00  0.00     0.026 H 
ATOM     50  C   LIG d   1       9.838   4.800  -5.914  0.00  0.00    -0.035 C 
ATOM     51  H   LIG d   1       9.942   4.178  -7.975  0.00  0.00     0.027 H 
ATOM     52  H   LIG d   1      11.015   3.274  -6.879  0.00  0.00     0.027 H 
ATOM     53  H   LIG d   1       8.851   5.250  -6.022  0.00  0.00     0.028 H 
ATOM     54  H   LIG d   1      10.603   5.567  -6.030  0.00  0.00     0.028 H 
ATOM     55  H   LIG d   1      10.947   3.714  -4.420  0.00  0.00     0.050 H 
ENDBRANCH  13  39
TORSDOF 4
ENDMDL
MODEL 4
REMARK VINA RESULT:      -7.4      6.859     11.059
REMARK  4 active torsions:
REMARK  status: ('A' for Active; 'I' for Inactive)
REMARK    1  A    between atoms: C_3  and  C_10 
REMARK    2  A    between atoms: C_5  and  N_7 
REMARK    3  A    between atoms: C_12  and  C_15 
REMARK       I    between atoms: N_24  and  C_25 
REMARK       I    between atoms: C_25  and  N_27 
REMARK    4  A    between atoms: N_27  and  C_28 
ROOT
ATOM      1  C   LIG d   1      10.114   0.907  -4.755  0.00  0.00     0.112 C 
ATOM      2  H   LIG d   1      10.220   0.089  -4.042  0.00  0.00     0.060 H 
ATOM      3  C   LIG d   1      10.839   0.548  -6.058  0.00  0.00     0.019 C 
ATOM      4  C   LIG d   1      10.394   1.500  -7.140  0.00  0.00     0.066 A 
ATOM      5  C   LIG d   1       9.277   2.257  -7.078  0.00  0.00     0.056 A 
ATOM      6  N   LIG d   1       9.212   2.975  -8.232  0.00  0.00    -0.347 N 
ATOM      7  C   LIG d   1      10.297   2.639  -8.968  0.00  0.00     0.094 A 
ATOM      8  N   LIG d   1      10.998   1.757  -8.305  0.00  0.00    -0.240 NA
ATOM      9  C   LIG d   1       8.322   2.263  -5.913  0.00  0.00     0.059 C 
ATOM     10  N   LIG d   1       8.689   1.132  -5.039  0.00  0.00    -0.268 N 
ATOM     11  C   LIG d   1       7.745   0.324  -4.516  0.00  0.00     0.303 C 
ATOM     12  O   LIG d   1       8.070  -0.658  -3.879  0.00  0.00    -0.253 OA
ATOM     13  N   LIG d   1       6.440   0.607  -4.700  0.00  0.00    -0.296 N 
ATOM     14  H   LIG d   1      11.915   0.637  -5.914  0.00  0.00     0.035 H 
ATOM     15  H   LIG d   1      10.590  -0.473  -6.345  0.00  0.00     0.035 H 
ATOM     16  H   LIG d   1      10.543   3.034  -9.942  0.00  0.00     0.103 H 
ATOM     17  H   LIG d   1       8.412   3.200  -5.362  0.00  0.00     0.053 H 
ATOM     18  H   LIG d   1       7.299   2.139  -6.269  0.00  0.00     0.053 H 
ATOM     19  H   LIG d   1       6.179   1.349  -5.268  0.00  0.00     0.150 HD
ATOM     20  H   LIG d   1       8.520   3.608  -8.479  0.00  0.00     0.167 HD
ENDROOT
BRANCH   1  21
ATOM     21  C   LIG d   1      10.716   2.161  -4.173  0.00  0.00     0.249 A 
ATOM     22  N   LIG d   1      10.096   3.024  -3.420  0.00  0.00    -0.190 NA
ATOM     23  C   LIG d   1      10.931   4.021  -3.079  0.00  0.00     0.202 A 
ATOM     24  N   LIG d   1      12.100   3.794  -3.626  0.00  0.00    -0.056 NA
ATOM     25  O   LIG d   1      11.978   2.575  -4.343  0.00  0.00    -0.336 OA
BRANCH  23  26
ATOM     26  C   LIG d   1      10.586   5.187  -2.228  0.00  0.00     0.029 A 
ATOM     27  C   LIG d   1       9.885   6.264  -2.768  0.00  0.00    -0.051 A 
ATOM     28  C   LIG d   1       9.567   7.345  -1.971  0.00  0.00    -0.055 A 
ATOM     29  H   LIG d   1       9.591   6.251  -3.807  0.00  0.00     0.062 H 
ATOM     30  C   LIG d   1       9.942   7.363  -0.640  0.00  0.00     0.016 A 
ATOM     31  H   LIG d   1       9.027   8.183  -2.390  0.00  0.00     0.062 H 
ATOM     32  C   LIG d   1      10.638   6.296  -0.099  0.00  0.00     0.274 A 
ATOM     33  H   LIG d   1       9.691   8.211  -0.022  0.00  0.00     0.069 H 
ATOM     34  C   LIG d   1      10.962   5.209  -0.886  0.00  0.00     0.026 A 
ATOM     35  H   LIG d   1      11.505   4.377  -0.462  0.00  0.00     0.069 H 
BRANCH  32  36
ATOM     36  N   LIG d   1      11.036   6.321   1.326  0.00  0.00     0.080 N 
ATOM     37  O   LIG d   1      11.741   7.211   1.742  0.00  0.00     0.041 OA
ATOM     38  O   LIG d   1      10.655   5.451   2.076  0.00  0.00    -0.576 OA
ENDBRANCH  32  36
ENDBRANCH  23  26
ENDBRANCH   1  21
BRANCH  13  39
ATOM     39  C   LIG d   1       5.414  -0.206  -4.043  0.00  0.00     0.025 C 
ATOM     40  C   LIG d   1       5.153   0.338  -2.638  0.00  0.00    -0.035 C 
ATOM     41  C   LIG d   1       4.082  -0.512  -1.952  0.00  0.00    -0.051 C 
ATOM     42  H   LIG d   1       6.074   0.300  -2.057  0.00  0.00     0.028 H 
ATOM     43  H   LIG d   1       4.809   1.370  -2.707  0.00  0.00     0.028 H 
ATOM     44  C   LIG d   1       2.789  -0.459  -2.768  0.00  0.00    -0.053 C 
ATOM     45  H   LIG d   1       3.895  -0.124  -0.951  0.00  0.00     0.027 H 
ATOM     46  H   LIG d   1       4.426  -1.544  -1.884  0.00  0.00     0.027 H 
ATOM     47  C   LIG d   1       3.049  -1.004  -4.174  0.00  0.00    -0.051 C 
ATOM     48  H   LIG d   1       2.444   0.573  -2.837  0.00  0.00     0.026 H 
ATOM     49  H   LIG d   1       2.025  -1.065  -2.279  0.00  0.00     0.026 H 
ATOM     50  C   LIG d   1       4.121  -0.153  -4.860  0.00  0.00    -0.035 C 
ATOM     51  H   LIG d   1       2.128  -0.966  -4.756  0.00  0.00     0.027 H 
ATOM     52  H   LIG d   1       3.394  -2.036  -4.105  0.00  0.00     0.027 H 
ATOM     53  H   LIG d   1       3.777   0.879  -4.928  0.00  0.00     0.028 H 
ATOM     54  H   LIG d   1       4.307  -0.542  -5.861  0.00  0.00     0.028 H 
ATOM     55  H   LIG d   1       5.758  -1.239  -3.975  0.00  0.00     0.050 H 
ENDBRANCH  13  39
TORSDOF 4
ENDMDL
MODEL 5
REMARK VINA RESULT:      -7.4      6.999     11.288
REMARK  4 active torsions:
REMARK  status: ('A' for Active; 'I' for Inactive)
REMARK    1  A    between atoms: C_3  and  C_10 
REMARK    2  A    between atoms: C_5  and  N_7 
REMARK    3  A    between atoms: C_12  and  C_15 
REMARK       I    between atoms: N_24  and  C_25 
REMARK       I    between atoms: C_25  and  N_27 
REMARK    4  A    between atoms: N_27  and  C_28 
ROOT
ATOM      1  C   LIG d   1      10.334   1.222  -4.667  0.00  0.00     0.112 C 
ATOM      2  H   LIG d   1      10.457   0.330  -4.052  0.00  0.00     0.060 H 
ATOM      3  C   LIG d   1      10.949   0.981  -6.050  0.00  0.00     0.019 C 
ATOM      4  C   LIG d   1      10.467   2.056  -6.992  0.00  0.00     0.066 A 
ATOM      5  C   LIG d   1       9.388   2.838  -6.768  0.00  0.00     0.056 A 
ATOM      6  N   LIG d   1       9.270   3.676  -7.833  0.00  0.00    -0.347 N 
ATOM      7  C   LIG d   1      10.285   3.385  -8.679  0.00  0.00     0.094 A 
ATOM      8  N   LIG d   1      10.996   2.415  -8.166  0.00  0.00    -0.240 NA
ATOM      9  C   LIG d   1       8.519   2.751  -5.540  0.00  0.00     0.059 C 
ATOM     10  N   LIG d   1       8.902   1.522  -4.818  0.00  0.00    -0.268 N 
ATOM     11  C   LIG d   1       7.967   0.694  -4.312  0.00  0.00     0.303 C 
ATOM     12  O   LIG d   1       8.297  -0.361  -3.806  0.00  0.00    -0.253 OA
ATOM     13  N   LIG d   1       6.664   1.037  -4.368  0.00  0.00    -0.296 N 
ATOM     14  H   LIG d   1      12.036   1.019  -5.979  0.00  0.00     0.035 H 
ATOM     15  H   LIG d   1      10.639   0.004  -6.422  0.00  0.00     0.035 H 
ATOM     16  H   LIG d   1      10.477   3.874  -9.622  0.00  0.00     0.103 H 
ATOM     17  H   LIG d   1       8.686   3.621  -4.903  0.00  0.00     0.053 H 
ATOM     18  H   LIG d   1       7.470   2.698  -5.829  0.00  0.00     0.053 H 
ATOM     19  H   LIG d   1       6.394   1.843  -4.834  0.00  0.00     0.150 HD
ATOM     20  H   LIG d   1       8.588   4.354  -7.961  0.00  0.00     0.167 HD
ENDROOT
BRANCH   1  21
ATOM     21  C   LIG d   1      11.025   2.387  -4.005  0.00  0.00     0.249 A 
ATOM     22  N   LIG d   1      10.526   3.131  -3.059  0.00  0.00    -0.190 NA
ATOM     23  C   LIG d   1      11.412   4.077  -2.701  0.00  0.00     0.202 A 
ATOM     24  N   LIG d   1      12.490   3.939  -3.433  0.00  0.00    -0.056 NA
ATOM     25  O   LIG d   1      12.256   2.832  -4.290  0.00  0.00    -0.336 OA
BRANCH  23  26
ATOM     26  C   LIG d   1      11.203   5.109  -1.655  0.00  0.00     0.029 A 
ATOM     27  C   LIG d   1      11.872   5.016  -0.437  0.00  0.00    -0.051 A 
ATOM     28  C   LIG d   1      11.673   5.978   0.532  0.00  0.00    -0.055 A 
ATOM     29  H   LIG d   1      12.546   4.192  -0.252  0.00  0.00     0.062 H 
ATOM     30  C   LIG d   1      10.811   7.034   0.296  0.00  0.00     0.016 A 
ATOM     31  H   LIG d   1      12.189   5.905   1.478  0.00  0.00     0.062 H 
ATOM     32  C   LIG d   1      10.144   7.131  -0.912  0.00  0.00     0.274 A 
ATOM     33  H   LIG d   1      10.659   7.784   1.057  0.00  0.00     0.069 H 
ATOM     34  C   LIG d   1      10.335   6.175  -1.889  0.00  0.00     0.026 A 
ATOM     35  H   LIG d   1       9.813   6.252  -2.831  0.00  0.00     0.069 H 
BRANCH  32  36
ATOM     36  N   LIG d   1       9.223   8.264  -1.158  0.00  0.00     0.080 N 
ATOM     37  O   LIG d   1       8.078   8.207  -0.774  0.00  0.00     0.041 OA
ATOM     38  O   LIG d   1       9.616   9.247  -1.743  0.00  0.00    -0.576 OA
ENDBRANCH  32  36
ENDBRANCH  23  26
ENDBRANCH   1  21
BRANCH  13  39
ATOM     39  C   LIG d   1       5.656   0.192  -3.723  0.00  0.00     0.025 C 
ATOM     40  C   LIG d   1       4.987   0.969  -2.588  0.00  0.00    -0.035 C 
ATOM     41  C   LIG d   1       3.934   0.086  -1.916  0.00  0.00    -0.051 C 
ATOM     42  H   LIG d   1       5.739   1.261  -1.856  0.00  0.00     0.028 H 
ATOM     43  H   LIG d   1       4.508   1.861  -2.994  0.00  0.00     0.028 H 
ATOM     44  C   LIG d   1       2.879  -0.324  -2.945  0.00  0.00    -0.053 C 
ATOM     45  H   LIG d   1       3.457   0.640  -1.108  0.00  0.00     0.027 H 
ATOM     46  H   LIG d   1       4.413  -0.806  -1.512  0.00  0.00     0.027 H 
ATOM     47  C   LIG d   1       3.548  -1.103  -4.080  0.00  0.00    -0.051 C 
ATOM     48  H   LIG d   1       2.400   0.568  -3.350  0.00  0.00     0.026 H 
ATOM     49  H   LIG d   1       2.129  -0.953  -2.466  0.00  0.00     0.026 H 
ATOM     50  C   LIG d   1       4.601  -0.218  -4.753  0.00  0.00    -0.035 C 
ATOM     51  H   LIG d   1       2.796  -1.395  -4.813  0.00  0.00     0.027 H 
ATOM     52  H   LIG d   1       4.027  -1.994  -3.676  0.00  0.00     0.027 H 
ATOM     53  H   LIG d   1       4.122   0.673  -5.157  0.00  0.00     0.028 H 
ATOM     54  H   LIG d   1       5.077  -0.773  -5.561  0.00  0.00     0.028 H 
ATOM     55  H   LIG d   1       6.135  -0.701  -3.320  0.00  0.00     0.050 H 
ENDBRANCH  13  39
TORSDOF 4
ENDMDL
MODEL 6
REMARK VINA RESULT:      -7.2      6.681      9.756
REMARK  4 active torsions:
REMARK  status: ('A' for Active; 'I' for Inactive)
REMARK    1  A    between atoms: C_3  and  C_10 
REMARK    2  A    between atoms: C_5  and  N_7 
REMARK    3  A    between atoms: C_12  and  C_15 
REMARK       I    between atoms: N_24  and  C_25 
REMARK       I    between atoms: C_25  and  N_27 
REMARK    4  A    between atoms: N_27  and  C_28 
ROOT
ATOM      1  C   LIG d   1       9.677   2.539  -5.918  0.00  0.00     0.112 C 
ATOM      2  H   LIG d   1       9.267   1.886  -6.690  0.00  0.00     0.060 H 
ATOM      3  C   LIG d   1       9.654   3.992  -6.411  0.00  0.00     0.019 C 
ATOM      4  C   LIG d   1       9.876   4.908  -5.234  0.00  0.00     0.066 A 
ATOM      5  C   LIG d   1       9.719   4.543  -3.943  0.00  0.00     0.056 A 
ATOM      6  N   LIG d   1      10.003   5.632  -3.178  0.00  0.00    -0.347 N 
ATOM      7  C   LIG d   1      10.331   6.635  -4.026  0.00  0.00     0.094 A 
ATOM      8  N   LIG d   1      10.253   6.191  -5.253  0.00  0.00    -0.240 NA
ATOM      9  C   LIG d   1       9.307   3.164  -3.497  0.00  0.00     0.059 C 
ATOM     10  N   LIG d   1       8.865   2.428  -4.698  0.00  0.00    -0.268 N 
ATOM     11  C   LIG d   1       7.747   1.676  -4.678  0.00  0.00     0.303 C 
ATOM     12  O   LIG d   1       7.345   1.156  -5.701  0.00  0.00    -0.253 OA
ATOM     13  N   LIG d   1       7.073   1.501  -3.523  0.00  0.00    -0.296 N 
ATOM     14  H   LIG d   1      10.446   4.141  -7.144  0.00  0.00     0.035 H 
ATOM     15  H   LIG d   1       8.687   4.208  -6.865  0.00  0.00     0.035 H 
ATOM     16  H   LIG d   1      10.611   7.636  -3.737  0.00  0.00     0.103 H 
ATOM     17  H   LIG d   1      10.155   2.651  -3.040  0.00  0.00     0.053 H 
ATOM     18  H   LIG d   1       8.486   3.233  -2.782  0.00  0.00     0.053 H 
ATOM     19  H   LIG d   1       7.351   1.974  -2.723  0.00  0.00     0.150 HD
ATOM     20  H   LIG d   1       9.976   5.680  -2.210  0.00  0.00     0.167 HD
ENDROOT
BRANCH   1  21
ATOM     21  C   LIG d   1      11.097   2.132  -5.618  0.00  0.00     0.249 A 
ATOM     22  N   LIG d   1      11.459   1.133  -4.865  0.00  0.00    -0.190 NA
ATOM     23  C   LIG d   1      12.801   1.057  -4.814  0.00  0.00     0.202 A 
ATOM     24  N   LIG d   1      13.302   2.025  -5.542  0.00  0.00    -0.056 NA
ATOM     25  O   LIG d   1      12.199   2.737  -6.081  0.00  0.00    -0.336 OA
BRANCH  23  26
ATOM     26  C   LIG d   1      13.583   0.049  -4.057  0.00  0.00     0.029 A 
ATOM     27  C   LIG d   1      13.432  -1.308  -4.338  0.00  0.00    -0.051 A 
ATOM     28  C   LIG d   1      14.163  -2.241  -3.631  0.00  0.00    -0.055 A 
ATOM     29  H   LIG d   1      12.745  -1.627  -5.108  0.00  0.00     0.062 H 
ATOM     30  C   LIG d   1      15.043  -1.833  -2.645  0.00  0.00     0.016 A 
ATOM     31  H   LIG d   1      14.043  -3.294  -3.844  0.00  0.00     0.062 H 
ATOM     32  C   LIG d   1      15.197  -0.487  -2.363  0.00  0.00     0.274 A 
ATOM     33  H   LIG d   1      15.612  -2.567  -2.095  0.00  0.00     0.069 H 
ATOM     34  C   LIG d   1      14.472   0.455  -3.063  0.00  0.00     0.026 A 
ATOM     35  H   LIG d   1      14.593   1.505  -2.841  0.00  0.00     0.069 H 
BRANCH  32  36
ATOM     36  N   LIG d   1      16.141  -0.058  -1.307  0.00  0.00     0.080 N 
ATOM     37  O   LIG d   1      16.725  -0.884  -0.645  0.00  0.00     0.041 OA
ATOM     38  O   LIG d   1      16.329   1.120  -1.106  0.00  0.00    -0.576 OA
ENDBRANCH  32  36
ENDBRANCH  23  26
ENDBRANCH   1  21
BRANCH  13  39
ATOM     39  C   LIG d   1       5.921   0.598  -3.477  0.00  0.00     0.025 C 
ATOM     40  C   LIG d   1       6.394  -0.818  -3.144  0.00  0.00    -0.035 C 
ATOM     41  C   LIG d   1       5.191  -1.760  -3.096  0.00  0.00    -0.051 C 
ATOM     42  H   LIG d   1       7.092  -1.157  -3.910  0.00  0.00     0.028 H 
ATOM     43  H   LIG d   1       6.893  -0.815  -2.174  0.00  0.00     0.028 H 
ATOM     44  C   LIG d   1       4.212  -1.284  -2.021  0.00  0.00    -0.053 C 
ATOM     45  H   LIG d   1       5.528  -2.769  -2.858  0.00  0.00     0.027 H 
ATOM     46  H   LIG d   1       4.693  -1.763  -4.065  0.00  0.00     0.027 H 
ATOM     47  C   LIG d   1       3.737   0.132  -2.354  0.00  0.00    -0.051 C 
ATOM     48  H   LIG d   1       4.710  -1.281  -1.051  0.00  0.00     0.026 H 
ATOM     49  H   LIG d   1       3.354  -1.956  -1.986  0.00  0.00     0.026 H 
ATOM     50  C   LIG d   1       4.942   1.076  -2.402  0.00  0.00    -0.035 C 
ATOM     51  H   LIG d   1       3.040   0.472  -1.588  0.00  0.00     0.027 H 
ATOM     52  H   LIG d   1       3.240   0.130  -3.323  0.00  0.00     0.027 H 
ATOM     53  H   LIG d   1       5.440   1.078  -1.432  0.00  0.00     0.028 H 
ATOM     54  H   LIG d   1       4.604   2.084  -2.639  0.00  0.00     0.028 H 
ATOM     55  H   LIG d   1       5.422   0.596  -4.446  0.00  0.00     0.050 H 
ENDBRANCH  13  39
TORSDOF 4
ENDMDL
MODEL 7
REMARK VINA RESULT:      -7.0      5.938      8.368
REMARK  4 active torsions:
REMARK  status: ('A' for Active; 'I' for Inactive)
REMARK    1  A    between atoms: C_3  and  C_10 
REMARK    2  A    between atoms: C_5  and  N_7 
REMARK    3  A    between atoms: C_12  and  C_15 
REMARK       I    between atoms: N_24  and  C_25 
REMARK       I    between atoms: C_25  and  N_27 
REMARK    4  A    between atoms: N_27  and  C_28 
ROOT
ATOM      1  C   LIG d   1       9.189   2.273  -6.175  0.00  0.00     0.112 C 
ATOM      2  H   LIG d   1       8.683   2.520  -7.110  0.00  0.00     0.060 H 
ATOM      3  C   LIG d   1      10.183   1.131  -6.417  0.00  0.00     0.019 C 
ATOM      4  C   LIG d   1      11.117   1.042  -5.236  0.00  0.00     0.066 A 
ATOM      5  C   LIG d   1      11.303   2.030  -4.334  0.00  0.00     0.056 A 
ATOM      6  N   LIG d   1      12.215   1.583  -3.428  0.00  0.00    -0.347 N 
ATOM      7  C   LIG d   1      12.560   0.329  -3.801  0.00  0.00     0.094 A 
ATOM      8  N   LIG d   1      11.897   0.014  -4.883  0.00  0.00    -0.240 NA
ATOM      9  C   LIG d   1      10.594   3.359  -4.376  0.00  0.00     0.059 C 
ATOM     10  N   LIG d   1       9.915   3.453  -5.683  0.00  0.00    -0.268 N 
ATOM     11  C   LIG d   1       9.962   4.588  -6.409  0.00  0.00     0.303 C 
ATOM     12  O   LIG d   1       9.481   4.616  -7.525  0.00  0.00    -0.253 OA
ATOM     13  N   LIG d   1      10.542   5.691  -5.897  0.00  0.00    -0.296 N 
ATOM     14  H   LIG d   1       9.641   0.191  -6.525  0.00  0.00     0.035 H 
ATOM     15  H   LIG d   1      10.757   1.331  -7.322  0.00  0.00     0.035 H 
ATOM     16  H   LIG d   1      13.266  -0.308  -3.289  0.00  0.00     0.103 H 
ATOM     17  H   LIG d   1       9.858   3.414  -3.573  0.00  0.00     0.053 H 
ATOM     18  H   LIG d   1      11.316   4.169  -4.275  0.00  0.00     0.053 H 
ATOM     19  H   LIG d   1      10.990   5.650  -5.037  0.00  0.00     0.150 HD
ATOM     20  H   LIG d   1      12.553   2.071  -2.661  0.00  0.00     0.167 HD
ENDROOT
BRANCH   1  21
ATOM     21  C   LIG d   1       8.170   1.846  -5.150  0.00  0.00     0.249 A 
ATOM     22  N   LIG d   1       7.569   0.691  -5.110  0.00  0.00    -0.190 NA
ATOM     23  C   LIG d   1       6.723   0.648  -4.065  0.00  0.00     0.202 A 
ATOM     24  N   LIG d   1       6.782   1.793  -3.431  0.00  0.00    -0.056 NA
ATOM     25  O   LIG d   1       7.730   2.589  -4.126  0.00  0.00    -0.336 OA
BRANCH  23  26
ATOM     26  C   LIG d   1       5.864  -0.504  -3.693  0.00  0.00     0.029 A 
ATOM     27  C   LIG d   1       5.087  -0.452  -2.538  0.00  0.00    -0.051 A 
ATOM     28  C   LIG d   1       4.289  -1.526  -2.197  0.00  0.00    -0.055 A 
ATOM     29  H   LIG d   1       5.108   0.428  -1.911  0.00  0.00     0.062 H 
ATOM     30  C   LIG d   1       4.261  -2.652  -2.999  0.00  0.00     0.016 A 
ATOM     31  H   LIG d   1       3.690  -1.488  -1.299  0.00  0.00     0.062 H 
ATOM     32  C   LIG d   1       5.031  -2.709  -4.147  0.00  0.00     0.274 A 
ATOM     33  H   LIG d   1       3.636  -3.489  -2.728  0.00  0.00     0.069 H 
ATOM     34  C   LIG d   1       5.832  -1.642  -4.498  0.00  0.00     0.026 A 
ATOM     35  H   LIG d   1       6.432  -1.687  -5.394  0.00  0.00     0.069 H 
BRANCH  32  36
ATOM     36  N   LIG d   1       4.996  -3.917  -5.001  0.00  0.00     0.080 N 
ATOM     37  O   LIG d   1       4.228  -4.817  -4.745  0.00  0.00     0.041 OA
ATOM     38  O   LIG d   1       5.734  -4.006  -5.955  0.00  0.00    -0.576 OA
ENDBRANCH  32  36
ENDBRANCH  23  26
ENDBRANCH   1  21
BRANCH  13  39
ATOM     39  C   LIG d   1      10.498   6.954  -6.638  0.00  0.00     0.025 C 
ATOM     40  C   LIG d   1       9.446   7.875  -6.017  0.00  0.00    -0.035 C 
ATOM     41  C   LIG d   1       9.401   9.193  -6.791  0.00  0.00    -0.051 C 
ATOM     42  H   LIG d   1       8.470   7.392  -6.061  0.00  0.00     0.028 H 
ATOM     43  H   LIG d   1       9.707   8.073  -4.977  0.00  0.00     0.028 H 
ATOM     44  C   LIG d   1      10.771   9.869  -6.729  0.00  0.00    -0.053 C 
ATOM     45  H   LIG d   1       8.652   9.850  -6.349  0.00  0.00     0.027 H 
ATOM     46  H   LIG d   1       9.140   8.994  -7.831  0.00  0.00     0.027 H 
ATOM     47  C   LIG d   1      11.824   8.949  -7.352  0.00  0.00    -0.051 C 
ATOM     48  H   LIG d   1      11.032  10.068  -5.689  0.00  0.00     0.026 H 
ATOM     49  H   LIG d   1      10.739  10.809  -7.281  0.00  0.00     0.026 H 
ATOM     50  C   LIG d   1      11.869   7.630  -6.576  0.00  0.00    -0.035 C 
ATOM     51  H   LIG d   1      12.801   9.430  -7.307  0.00  0.00     0.027 H 
ATOM     52  H   LIG d   1      11.564   8.750  -8.390  0.00  0.00     0.027 H 
ATOM     53  H   LIG d   1      12.130   7.829  -5.536  0.00  0.00     0.028 H 
ATOM     54  H   LIG d   1      12.619   6.974  -7.019  0.00  0.00     0.028 H 
ATOM     55  H   LIG d   1      10.239   6.755  -7.678  0.00  0.00     0.050 H 
ENDBRANCH  13  39
TORSDOF 4
ENDMDL
MODEL 8
REMARK VINA RESULT:      -7.0      5.465      8.137
REMARK  4 active torsions:
REMARK  status: ('A' for Active; 'I' for Inactive)
REMARK    1  A    between atoms: C_3  and  C_10 
REMARK    2  A    between atoms: C_5  and  N_7 
REMARK    3  A    between atoms: C_12  and  C_15 
REMARK       I    between atoms: N_24  and  C_25 
REMARK       I    between atoms: C_25  and  N_27 
REMARK    4  A    between atoms: N_27  and  C_28 
ROOT
ATOM      1  C   LIG d   1       9.437   1.911  -5.853  0.00  0.00     0.112 C 
ATOM      2  H   LIG d   1       8.991   1.368  -6.687  0.00  0.00     0.060 H 
ATOM      3  C   LIG d   1       9.509   3.405  -6.193  0.00  0.00     0.019 C 
ATOM      4  C   LIG d   1       9.783   4.179  -4.928  0.00  0.00     0.066 A 
ATOM      5  C   LIG d   1       9.596   3.694  -3.682  0.00  0.00     0.056 A 
ATOM      6  N   LIG d   1       9.944   4.678  -2.809  0.00  0.00    -0.347 N 
ATOM      7  C   LIG d   1      10.339   5.740  -3.550  0.00  0.00     0.094 A 
ATOM      8  N   LIG d   1      10.240   5.431  -4.816  0.00  0.00    -0.240 NA
ATOM      9  C   LIG d   1       9.095   2.305  -3.379  0.00  0.00     0.059 C 
ATOM     10  N   LIG d   1       8.614   1.727  -4.649  0.00  0.00    -0.268 N 
ATOM     11  C   LIG d   1       7.450   1.050  -4.706  0.00  0.00     0.303 C 
ATOM     12  O   LIG d   1       7.021   0.664  -5.776  0.00  0.00    -0.253 OA
ATOM     13  N   LIG d   1       6.760   0.800  -3.574  0.00  0.00    -0.296 N 
ATOM     14  H   LIG d   1      10.313   3.578  -6.908  0.00  0.00     0.035 H 
ATOM     15  H   LIG d   1       8.560   3.728  -6.621  0.00  0.00     0.035 H 
ATOM     16  H   LIG d   1      10.681   6.687  -3.159  0.00  0.00     0.103 H 
ATOM     17  H   LIG d   1       9.906   1.696  -2.980  0.00  0.00     0.053 H 
ATOM     18  H   LIG d   1       8.277   2.353  -2.661  0.00  0.00     0.053 H 
ATOM     19  H   LIG d   1       7.064   1.168  -2.730  0.00  0.00     0.150 HD
ATOM     20  H   LIG d   1       9.915   4.628  -1.841  0.00  0.00     0.167 HD
ENDROOT
BRANCH   1  21
ATOM     21  C   LIG d   1      10.827   1.386  -5.598  0.00  0.00     0.249 A 
ATOM     22  N   LIG d   1      11.120   0.275  -4.983  0.00  0.00    -0.190 NA
ATOM     23  C   LIG d   1      12.454   0.115  -4.932  0.00  0.00     0.202 A 
ATOM     24  N   LIG d   1      13.021   1.141  -5.518  0.00  0.00    -0.056 NA
ATOM     25  O   LIG d   1      11.969   1.982  -5.965  0.00  0.00    -0.336 OA
BRANCH  23  26
ATOM     26  C   LIG d   1      13.166  -1.029  -4.311  0.00  0.00     0.029 A 
ATOM     27  C   LIG d   1      14.475  -0.876  -3.859  0.00  0.00    -0.051 A 
ATOM     28  C   LIG d   1      15.132  -1.945  -3.282  0.00  0.00    -0.055 A 
ATOM     29  H   LIG d   1      14.974   0.076  -3.959  0.00  0.00     0.062 H 
ATOM     30  C   LIG d   1      14.494  -3.165  -3.154  0.00  0.00     0.016 A 
ATOM     31  H   LIG d   1      16.149  -1.829  -2.935  0.00  0.00     0.062 H 
ATOM     32  C   LIG d   1      13.195  -3.322  -3.601  0.00  0.00     0.274 A 
ATOM     33  H   LIG d   1      15.013  -3.998  -2.702  0.00  0.00     0.069 H 
ATOM     34  C   LIG d   1      12.528  -2.261  -4.179  0.00  0.00     0.026 A 
ATOM     35  H   LIG d   1      11.513  -2.385  -4.528  0.00  0.00     0.069 H 
BRANCH  32  36
ATOM     36  N   LIG d   1      12.518  -4.631  -3.460  0.00  0.00     0.080 N 
ATOM     37  O   LIG d   1      13.129  -5.654  -3.670  0.00  0.00     0.041 OA
ATOM     38  O   LIG d   1      11.355  -4.679  -3.134  0.00  0.00    -0.576 OA
ENDBRANCH  32  36
ENDBRANCH  23  26
ENDBRANCH   1  21
BRANCH  13  39
ATOM     39  C   LIG d   1       5.553  -0.028  -3.620  0.00  0.00     0.025 C 
ATOM     40  C   LIG d   1       5.930  -1.495  -3.406  0.00  0.00    -0.035 C 
ATOM     41  C   LIG d   1       4.669  -2.359  -3.453  0.00  0.00    -0.051 C 
ATOM     42  H   LIG d   1       6.618  -1.811  -4.190  0.00  0.00     0.028 H 
ATOM     43  H   LIG d   1       6.411  -1.607  -2.433  0.00  0.00     0.028 H 
ATOM     44  C   LIG d   1       3.704  -1.915  -2.352  0.00  0.00    -0.053 C 
ATOM     45  H   LIG d   1       4.938  -3.404  -3.300  0.00  0.00     0.027 H 
ATOM     46  H   LIG d   1       4.189  -2.246  -4.425  0.00  0.00     0.027 H 
ATOM     47  C   LIG d   1       3.325  -0.447  -2.567  0.00  0.00    -0.051 C 
ATOM     48  H   LIG d   1       4.185  -2.026  -1.380  0.00  0.00     0.026 H 
ATOM     49  H   LIG d   1       2.805  -2.530  -2.386  0.00  0.00     0.026 H 
ATOM     50  C   LIG d   1       4.588   0.417  -2.519  0.00  0.00    -0.035 C 
ATOM     51  H   LIG d   1       2.638  -0.130  -1.783  0.00  0.00     0.027 H 
ATOM     52  H   LIG d   1       2.845  -0.335  -3.538  0.00  0.00     0.027 H 
ATOM     53  H   LIG d   1       5.068   0.304  -1.547  0.00  0.00     0.028 H 
ATOM     54  H   LIG d   1       4.318   1.462  -2.672  0.00  0.00     0.028 H 
ATOM     55  H   LIG d   1       5.071   0.085  -4.592  0.00  0.00     0.050 H 
ENDBRANCH  13  39
TORSDOF 4
ENDMDL
MODEL 9
REMARK VINA RESULT:      -6.9      4.976      8.891
REMARK  4 active torsions:
REMARK  status: ('A' for Active; 'I' for Inactive)
REMARK    1  A    between atoms: C_3  and  C_10 
REMARK    2  A    between atoms: C_5  and  N_7 
REMARK    3  A    between atoms: C_12  and  C_15 
REMARK       I    between atoms: N_24  and  C_25 
REMARK       I    between atoms: C_25  and  N_27 
REMARK    4  A    between atoms: N_27  and  C_28 
ROOT
ATOM      1  C   LIG d   1       4.769  -2.041  -4.749  0.00  0.00     0.112 C 
ATOM      2  H   LIG d   1       4.685  -3.088  -5.043  0.00  0.00     0.060 H 
ATOM      3  C   LIG d   1       3.883  -1.780  -3.524  0.00  0.00     0.019 C 
ATOM      4  C   LIG d   1       4.272  -0.456  -2.916  0.00  0.00     0.066 A 
ATOM      5  C   LIG d   1       5.439   0.180  -3.156  0.00  0.00     0.056 A 
ATOM      6  N   LIG d   1       5.427   1.331  -2.430  0.00  0.00    -0.347 N 
ATOM      7  C   LIG d   1       4.248   1.369  -1.768  0.00  0.00     0.094 A 
ATOM      8  N   LIG d   1       3.563   0.295  -2.066  0.00  0.00    -0.240 NA
ATOM      9  C   LIG d   1       6.514  -0.341  -4.074  0.00  0.00     0.059 C 
ATOM     10  N   LIG d   1       6.166  -1.735  -4.410  0.00  0.00    -0.268 N 
ATOM     11  C   LIG d   1       7.103  -2.704  -4.403  0.00  0.00     0.303 C 
ATOM     12  O   LIG d   1       6.782  -3.862  -4.587  0.00  0.00    -0.253 OA
ATOM     13  N   LIG d   1       8.397  -2.389  -4.194  0.00  0.00    -0.296 N 
ATOM     14  H   LIG d   1       2.837  -1.747  -3.830  0.00  0.00     0.035 H 
ATOM     15  H   LIG d   1       4.027  -2.575  -2.793  0.00  0.00     0.035 H 
ATOM     16  H   LIG d   1       3.925   2.155  -1.103  0.00  0.00     0.103 H 
ATOM     17  H   LIG d   1       6.550   0.260  -4.984  0.00  0.00     0.053 H 
ATOM     18  H   LIG d   1       7.480  -0.311  -3.571  0.00  0.00     0.053 H 
ATOM     19  H   LIG d   1       8.645  -1.476  -3.976  0.00  0.00     0.150 HD
ATOM     20  H   LIG d   1       6.131   1.998  -2.395  0.00  0.00     0.167 HD
ENDROOT
BRANCH   1  21
ATOM     21  C   LIG d   1       4.323  -1.162  -5.889  0.00  0.00     0.249 A 
ATOM     22  N   LIG d   1       4.237  -1.521  -7.138  0.00  0.00    -0.190 NA
ATOM     23  C   LIG d   1       3.806  -0.489  -7.885  0.00  0.00     0.202 A 
ATOM     24  N   LIG d   1       3.620   0.546  -7.103  0.00  0.00    -0.056 NA
ATOM     25  O   LIG d   1       3.949   0.121  -5.789  0.00  0.00    -0.336 OA
BRANCH  23  26
ATOM     26  C   LIG d   1       3.583  -0.515  -9.352  0.00  0.00     0.029 A 
ATOM     27  C   LIG d   1       4.451   0.165 -10.204  0.00  0.00    -0.051 A 
ATOM     28  C   LIG d   1       4.239   0.137 -11.568  0.00  0.00    -0.055 A 
ATOM     29  H   LIG d   1       5.288   0.713  -9.797  0.00  0.00     0.062 H 
ATOM     30  C   LIG d   1       3.167  -0.564 -12.089  0.00  0.00     0.016 A 
ATOM     31  H   LIG d   1       4.908   0.668 -12.229  0.00  0.00     0.062 H 
ATOM     32  C   LIG d   1       2.302  -1.242 -11.248  0.00  0.00     0.274 A 
ATOM     33  H   LIG d   1       3.005  -0.583 -13.156  0.00  0.00     0.069 H 
ATOM     34  C   LIG d   1       2.504  -1.221  -9.883  0.00  0.00     0.026 A 
ATOM     35  H   LIG d   1       1.829  -1.750  -9.228  0.00  0.00     0.069 H 
BRANCH  32  36
ATOM     36  N   LIG d   1       1.158  -1.991 -11.813  0.00  0.00     0.080 N 
ATOM     37  O   LIG d   1       1.108  -3.194 -11.703  0.00  0.00     0.041 OA
ATOM     38  O   LIG d   1       0.271  -1.400 -12.385  0.00  0.00    -0.576 OA
ENDBRANCH  32  36
ENDBRANCH  23  26
ENDBRANCH   1  21
BRANCH  13  39
ATOM     39  C   LIG d   1       9.429  -3.423  -4.294  0.00  0.00     0.025 C 
ATOM     40  C   LIG d   1      10.719  -2.807  -4.838  0.00  0.00    -0.035 C 
ATOM     41  C   LIG d   1      11.797  -3.887  -4.943  0.00  0.00    -0.051 C 
ATOM     42  H   LIG d   1      10.531  -2.383  -5.825  0.00  0.00     0.028 H 
ATOM     43  H   LIG d   1      11.058  -2.020  -4.163  0.00  0.00     0.028 H 
ATOM     44  C   LIG d   1      12.060  -4.482  -3.558  0.00  0.00    -0.053 C 
ATOM     45  H   LIG d   1      12.716  -3.448  -5.330  0.00  0.00     0.027 H 
ATOM     46  H   LIG d   1      11.458  -4.673  -5.617  0.00  0.00     0.027 H 
ATOM     47  C   LIG d   1      10.769  -5.099  -3.014  0.00  0.00    -0.051 C 
ATOM     48  H   LIG d   1      12.398  -3.695  -2.883  0.00  0.00     0.026 H 
ATOM     49  H   LIG d   1      12.828  -5.252  -3.633  0.00  0.00     0.026 H 
ATOM     50  C   LIG d   1       9.691  -4.017  -2.909  0.00  0.00    -0.035 C 
ATOM     51  H   LIG d   1      10.957  -5.523  -2.027  0.00  0.00     0.027 H 
ATOM     52  H   LIG d   1      10.431  -5.885  -3.688  0.00  0.00     0.027 H 
ATOM     53  H   LIG d   1      10.031  -3.231  -2.234  0.00  0.00     0.028 H 
ATOM     54  H   LIG d   1       8.773  -4.457  -2.522  0.00  0.00     0.028 H 
ATOM     55  H   LIG d   1       9.090  -4.210  -4.968  0.00  0.00     0.050 H 
ENDBRANCH  13  39
TORSDOF 4
ENDMDL
