MODEL 1
REMARK VINA RESULT:      -4.9      0.000      0.000
REMARK  4 active torsions:
REMARK  status: ('A' for Active; 'I' for Inactive)
REMARK    1  A    between atoms: C_1  and  C_2 
REMARK    2  A    between atoms: C_3  and  O_10 
REMARK    3  A    between atoms: C_6  and  O_9 
REMARK    4  A    between atoms: C_7  and  O_8 
ROOT
ATOM      1  C   LIG d   1       3.658  -0.316  -4.205  0.00  0.00     0.036 A 
ATOM      2  C   LIG d   1       3.929  -1.632  -3.861  0.00  0.00     0.123 A 
ATOM      3  C   LIG d   1       4.418  -1.933  -2.598  0.00  0.00    -0.016 A 
ATOM      4  C   LIG d   1       4.626  -0.922  -1.678  0.00  0.00    -0.013 A 
ATOM      5  C   LIG d   1       4.351   0.392  -2.016  0.00  0.00     0.159 A 
ATOM      6  C   LIG d   1       3.866   0.697  -3.284  0.00  0.00     0.165 A 
ATOM      7  H   LIG d   1       4.632  -2.957  -2.333  0.00  0.00     0.066 H 
ATOM      8  H   LIG d   1       5.002  -1.158  -0.693  0.00  0.00     0.066 H 
ENDROOT
BRANCH   1   9
ATOM      9  C   LIG d   1       3.132   0.010  -5.579  0.00  0.00    -0.033 C 
ATOM     10  H   LIG d   1       2.453  -0.778  -5.905  0.00  0.00     0.028 H 
ATOM     11  H   LIG d   1       3.965   0.084  -6.279  0.00  0.00     0.028 H 
ATOM     12  H   LIG d   1       2.598   0.960  -5.548  0.00  0.00     0.028 H 
ENDBRANCH   1   9
BRANCH   6  13
ATOM     13  O   LIG d   1       3.595   1.987  -3.618  0.00  0.00    -0.503 OA
ATOM     14  H   LIG d   1       4.239   2.624  -3.280  0.00  0.00     0.292 HD
ENDBRANCH   6  13
BRANCH   2  15
ATOM     15  O   LIG d   1       3.719  -2.628  -4.762  0.00  0.00    -0.506 OA
ATOM     16  H   LIG d   1       3.218  -3.377  -4.411  0.00  0.00     0.292 HD
ENDBRANCH   2  15
BRANCH   5  17
ATOM     17  O   LIG d   1       4.556   1.386  -1.109  0.00  0.00    -0.503 OA
ATOM     18  H   LIG d   1       3.829   2.019  -1.048  0.00  0.00     0.292 HD
ENDBRANCH   5  17
TORSDOF 4
ENDMDL
MODEL 2
REMARK VINA RESULT:      -4.9      1.328      3.857
REMARK  4 active torsions:
REMARK  status: ('A' for Active; 'I' for Inactive)
REMARK    1  A    between atoms: C_1  and  C_2 
REMARK    2  A    between atoms: C_3  and  O_10 
REMARK    3  A    between atoms: C_6  and  O_9 
REMARK    4  A    between atoms: C_7  and  O_8 
ROOT
ATOM      1  C   LIG d   1       4.039  -0.498  -2.632  0.00  0.00     0.036 A 
ATOM      2  C   LIG d   1       4.130   0.833  -2.251  0.00  0.00     0.123 A 
ATOM      3  C   LIG d   1       3.574   1.823  -3.046  0.00  0.00    -0.016 A 
ATOM      4  C   LIG d   1       2.919   1.486  -4.216  0.00  0.00    -0.013 A 
ATOM      5  C   LIG d   1       2.820   0.158  -4.597  0.00  0.00     0.159 A 
ATOM      6  C   LIG d   1       3.382  -0.838  -3.804  0.00  0.00     0.165 A 
ATOM      7  H   LIG d   1       3.651   2.858  -2.749  0.00  0.00     0.066 H 
ATOM      8  H   LIG d   1       2.482   2.258  -4.831  0.00  0.00     0.066 H 
ENDROOT
BRANCH   1   9
ATOM      9  C   LIG d   1       4.648  -1.573  -1.771  0.00  0.00    -0.033 C 
ATOM     10  H   LIG d   1       4.037  -1.714  -0.879  0.00  0.00     0.028 H 
ATOM     11  H   LIG d   1       5.656  -1.277  -1.478  0.00  0.00     0.028 H 
ATOM     12  H   LIG d   1       4.693  -2.507  -2.331  0.00  0.00     0.028 H 
ENDBRANCH   1   9
BRANCH   6  13
ATOM     13  O   LIG d   1       3.285  -2.141  -4.177  0.00  0.00    -0.503 OA
ATOM     14  H   LIG d   1       3.283  -2.763  -3.436  0.00  0.00     0.292 HD
ENDBRANCH   6  13
BRANCH   2  15
ATOM     15  O   LIG d   1       4.770   1.166  -1.098  0.00  0.00    -0.506 OA
ATOM     16  H   LIG d   1       4.933   2.115  -1.000  0.00  0.00     0.292 HD
ENDBRANCH   2  15
BRANCH   5  17
ATOM     17  O   LIG d   1       2.174  -0.173  -5.748  0.00  0.00    -0.503 OA
ATOM     18  H   LIG d   1       2.726  -0.639  -6.390  0.00  0.00     0.292 HD
ENDBRANCH   5  17
TORSDOF 4
ENDMDL
MODEL 3
REMARK VINA RESULT:      -4.8      1.987      2.543
REMARK  4 active torsions:
REMARK  status: ('A' for Active; 'I' for Inactive)
REMARK    1  A    between atoms: C_1  and  C_2 
REMARK    2  A    between atoms: C_3  and  O_10 
REMARK    3  A    between atoms: C_6  and  O_9 
REMARK    4  A    between atoms: C_7  and  O_8 
ROOT
ATOM      1  C   LIG d   1       5.810  -1.907  -3.582  0.00  0.00     0.036 A 
ATOM      2  C   LIG d   1       4.531  -2.411  -3.392  0.00  0.00     0.123 A 
ATOM      3  C   LIG d   1       3.568  -1.640  -2.758  0.00  0.00    -0.016 A 
ATOM      4  C   LIG d   1       3.878  -0.365  -2.323  0.00  0.00    -0.013 A 
ATOM      5  C   LIG d   1       5.152   0.144  -2.516  0.00  0.00     0.159 A 
ATOM      6  C   LIG d   1       6.122  -0.629  -3.147  0.00  0.00     0.165 A 
ATOM      7  H   LIG d   1       2.575  -2.035  -2.607  0.00  0.00     0.066 H 
ATOM      8  H   LIG d   1       3.126   0.236  -1.834  0.00  0.00     0.066 H 
ENDROOT
BRANCH   1   9
ATOM      9  C   LIG d   1       6.857  -2.748  -4.266  0.00  0.00    -0.033 C 
ATOM     10  H   LIG d   1       6.465  -3.116  -5.214  0.00  0.00     0.028 H 
ATOM     11  H   LIG d   1       7.118  -3.592  -3.628  0.00  0.00     0.028 H 
ATOM     12  H   LIG d   1       7.745  -2.143  -4.450  0.00  0.00     0.028 H 
ENDBRANCH   1   9
BRANCH   6  13
ATOM     13  O   LIG d   1       7.372  -0.132  -3.338  0.00  0.00    -0.503 OA
ATOM     14  H   LIG d   1       8.080  -0.730  -3.062  0.00  0.00     0.292 HD
ENDBRANCH   6  13
BRANCH   2  15
ATOM     15  O   LIG d   1       4.223  -3.662  -3.824  0.00  0.00    -0.506 OA
ATOM     16  H   LIG d   1       4.956  -4.119  -4.259  0.00  0.00     0.292 HD
ENDBRANCH   2  15
BRANCH   5  17
ATOM     17  O   LIG d   1       5.456   1.400  -2.088  0.00  0.00    -0.503 OA
ATOM     18  H   LIG d   1       5.992   1.423  -1.285  0.00  0.00     0.292 HD
ENDBRANCH   5  17
TORSDOF 4
ENDMDL
MODEL 4
REMARK VINA RESULT:      -4.6      2.280      2.613
REMARK  4 active torsions:
REMARK  status: ('A' for Active; 'I' for Inactive)
REMARK    1  A    between atoms: C_1  and  C_2 
REMARK    2  A    between atoms: C_3  and  O_10 
REMARK    3  A    between atoms: C_6  and  O_9 
REMARK    4  A    between atoms: C_7  and  O_8 
ROOT
ATOM      1  C   LIG d   1       4.380   0.351  -2.970  0.00  0.00     0.036 A 
ATOM      2  C   LIG d   1       3.751  -0.885  -2.951  0.00  0.00     0.123 A 
ATOM      3  C   LIG d   1       4.493  -2.044  -3.119  0.00  0.00    -0.016 A 
ATOM      4  C   LIG d   1       5.863  -1.971  -3.295  0.00  0.00    -0.013 A 
ATOM      5  C   LIG d   1       6.495  -0.738  -3.308  0.00  0.00     0.159 A 
ATOM      6  C   LIG d   1       5.751   0.427  -3.146  0.00  0.00     0.165 A 
ATOM      7  H   LIG d   1       4.001  -3.005  -3.109  0.00  0.00     0.066 H 
ATOM      8  H   LIG d   1       6.440  -2.874  -3.420  0.00  0.00     0.066 H 
ENDROOT
BRANCH   1   9
ATOM      9  C   LIG d   1       3.571   1.611  -2.793  0.00  0.00    -0.033 C 
ATOM     10  H   LIG d   1       3.452   1.820  -1.730  0.00  0.00     0.028 H 
ATOM     11  H   LIG d   1       2.590   1.480  -3.249  0.00  0.00     0.028 H 
ATOM     12  H   LIG d   1       4.086   2.443  -3.272  0.00  0.00     0.028 H 
ENDBRANCH   1   9
BRANCH   6  13
ATOM     13  O   LIG d   1       6.370   1.637  -3.158  0.00  0.00    -0.503 OA
ATOM     14  H   LIG d   1       6.955   1.772  -3.916  0.00  0.00     0.292 HD
ENDBRANCH   6  13
BRANCH   2  15
ATOM     15  O   LIG d   1       2.405  -0.961  -2.773  0.00  0.00    -0.506 OA
ATOM     16  H   LIG d   1       2.132  -0.979  -1.844  0.00  0.00     0.292 HD
ENDBRANCH   2  15
BRANCH   5  17
ATOM     17  O   LIG d   1       7.843  -0.666  -3.481  0.00  0.00    -0.503 OA
ATOM     18  H   LIG d   1       8.352  -1.126  -2.801  0.00  0.00     0.292 HD
ENDBRANCH   5  17
TORSDOF 4
ENDMDL
MODEL 5
REMARK VINA RESULT:      -4.6      1.115      3.167
REMARK  4 active torsions:
REMARK  status: ('A' for Active; 'I' for Inactive)
REMARK    1  A    between atoms: C_1  and  C_2 
REMARK    2  A    between atoms: C_3  and  O_10 
REMARK    3  A    between atoms: C_6  and  O_9 
REMARK    4  A    between atoms: C_7  and  O_8 
ROOT
ATOM      1  C   LIG d   1       3.342   0.312  -3.869  0.00  0.00     0.036 A 
ATOM      2  C   LIG d   1       3.685   0.346  -2.525  0.00  0.00     0.123 A 
ATOM      3  C   LIG d   1       4.211  -0.781  -1.914  0.00  0.00    -0.016 A 
ATOM      4  C   LIG d   1       4.402  -1.940  -2.644  0.00  0.00    -0.013 A 
ATOM      5  C   LIG d   1       4.065  -1.977  -3.987  0.00  0.00     0.159 A 
ATOM      6  C   LIG d   1       3.533  -0.848  -4.602  0.00  0.00     0.165 A 
ATOM      7  H   LIG d   1       4.473  -0.754  -0.867  0.00  0.00     0.066 H 
ATOM      8  H   LIG d   1       4.816  -2.816  -2.167  0.00  0.00     0.066 H 
ENDROOT
BRANCH   1   9
ATOM      9  C   LIG d   1       2.766   1.536  -4.532  0.00  0.00    -0.033 C 
ATOM     10  H   LIG d   1       1.678   1.465  -4.545  0.00  0.00     0.028 H 
ATOM     11  H   LIG d   1       3.137   1.605  -5.554  0.00  0.00     0.028 H 
ATOM     12  H   LIG d   1       3.065   2.425  -3.976  0.00  0.00     0.028 H 
ENDBRANCH   1   9
BRANCH   6  13
ATOM     13  O   LIG d   1       3.203  -0.883  -5.920  0.00  0.00    -0.503 OA
ATOM     14  H   LIG d   1       3.787  -1.434  -6.458  0.00  0.00     0.292 HD
ENDBRANCH   6  13
BRANCH   2  15
ATOM     15  O   LIG d   1       3.503   1.486  -1.807  0.00  0.00    -0.506 OA
ATOM     16  H   LIG d   1       2.825   2.074  -2.169  0.00  0.00     0.292 HD
ENDBRANCH   2  15
BRANCH   5  17
ATOM     17  O   LIG d   1       4.255  -3.118  -4.705  0.00  0.00    -0.503 OA
ATOM     18  H   LIG d   1       4.497  -3.884  -4.169  0.00  0.00     0.292 HD
ENDBRANCH   5  17
TORSDOF 4
ENDMDL
MODEL 6
REMARK VINA RESULT:      -4.5      1.858      3.815
REMARK  4 active torsions:
REMARK  status: ('A' for Active; 'I' for Inactive)
REMARK    1  A    between atoms: C_1  and  C_2 
REMARK    2  A    between atoms: C_3  and  O_10 
REMARK    3  A    between atoms: C_6  and  O_9 
REMARK    4  A    between atoms: C_7  and  O_8 
ROOT
ATOM      1  C   LIG d   1       5.976  -0.456  -3.382  0.00  0.00     0.036 A 
ATOM      2  C   LIG d   1       5.091   0.113  -2.478  0.00  0.00     0.123 A 
ATOM      3  C   LIG d   1       3.951  -0.578  -2.096  0.00  0.00    -0.016 A 
ATOM      4  C   LIG d   1       3.700  -1.838  -2.607  0.00  0.00    -0.013 A 
ATOM      5  C   LIG d   1       4.585  -2.411  -3.505  0.00  0.00     0.159 A 
ATOM      6  C   LIG d   1       5.727  -1.718  -3.895  0.00  0.00     0.165 A 
ATOM      7  H   LIG d   1       3.260  -0.132  -1.396  0.00  0.00     0.066 H 
ATOM      8  H   LIG d   1       2.814  -2.376  -2.304  0.00  0.00     0.066 H 
ENDROOT
BRANCH   1   9
ATOM      9  C   LIG d   1       7.212   0.298  -3.802  0.00  0.00    -0.033 C 
ATOM     10  H   LIG d   1       7.344   0.208  -4.880  0.00  0.00     0.028 H 
ATOM     11  H   LIG d   1       8.082  -0.119  -3.294  0.00  0.00     0.028 H 
ATOM     12  H   LIG d   1       7.105   1.349  -3.535  0.00  0.00     0.028 H 
ENDBRANCH   1   9
BRANCH   6  13
ATOM     13  O   LIG d   1       6.596  -2.279  -4.776  0.00  0.00    -0.503 OA
ATOM     14  H   LIG d   1       7.296  -1.682  -5.074  0.00  0.00     0.292 HD
ENDBRANCH   6  13
BRANCH   2  15
ATOM     15  O   LIG d   1       5.338   1.349  -1.970  0.00  0.00    -0.506 OA
ATOM     16  H   LIG d   1       6.215   1.441  -1.572  0.00  0.00     0.292 HD
ENDBRANCH   2  15
BRANCH   5  17
ATOM     17  O   LIG d   1       4.337  -3.651  -4.007  0.00  0.00    -0.503 OA
ATOM     18  H   LIG d   1       5.048  -4.002  -4.559  0.00  0.00     0.292 HD
ENDBRANCH   5  17
TORSDOF 4
ENDMDL
MODEL 7
REMARK VINA RESULT:      -4.4      1.766      3.453
REMARK  4 active torsions:
REMARK  status: ('A' for Active; 'I' for Inactive)
REMARK    1  A    between atoms: C_1  and  C_2 
REMARK    2  A    between atoms: C_3  and  O_10 
REMARK    3  A    between atoms: C_6  and  O_9 
REMARK    4  A    between atoms: C_7  and  O_8 
ROOT
ATOM      1  C   LIG d   1       4.464   0.052  -3.161  0.00  0.00     0.036 A 
ATOM      2  C   LIG d   1       5.835   0.259  -3.112  0.00  0.00     0.123 A 
ATOM      3  C   LIG d   1       6.705  -0.793  -3.353  0.00  0.00    -0.016 A 
ATOM      4  C   LIG d   1       6.208  -2.048  -3.652  0.00  0.00    -0.013 A 
ATOM      5  C   LIG d   1       4.840  -2.258  -3.708  0.00  0.00     0.159 A 
ATOM      6  C   LIG d   1       3.965  -1.205  -3.461  0.00  0.00     0.165 A 
ATOM      7  H   LIG d   1       7.772  -0.631  -3.310  0.00  0.00     0.066 H 
ATOM      8  H   LIG d   1       6.887  -2.866  -3.845  0.00  0.00     0.066 H 
ENDROOT
BRANCH   1   9
ATOM      9  C   LIG d   1       3.519   1.195  -2.893  0.00  0.00    -0.033 C 
ATOM     10  H   LIG d   1       3.877   2.089  -3.403  0.00  0.00     0.028 H 
ATOM     11  H   LIG d   1       3.471   1.384  -1.820  0.00  0.00     0.028 H 
ATOM     12  H   LIG d   1       2.526   0.939  -3.261  0.00  0.00     0.028 H 
ENDBRANCH   1   9
BRANCH   6  13
ATOM     13  O   LIG d   1       2.622  -1.408  -3.515  0.00  0.00    -0.503 OA
ATOM     14  H   LIG d   1       2.231  -1.229  -4.381  0.00  0.00     0.292 HD
ENDBRANCH   6  13
BRANCH   2  15
ATOM     15  O   LIG d   1       6.326   1.494  -2.823  0.00  0.00    -0.506 OA
ATOM     16  H   LIG d   1       6.037   2.184  -3.437  0.00  0.00     0.292 HD
ENDBRANCH   2  15
BRANCH   5  17
ATOM     17  O   LIG d   1       4.352  -3.493  -4.003  0.00  0.00    -0.503 OA
ATOM     18  H   LIG d   1       3.387  -3.538  -4.036  0.00  0.00     0.292 HD
ENDBRANCH   5  17
TORSDOF 4
ENDMDL
MODEL 8
REMARK VINA RESULT:      -4.4      2.485      3.729
REMARK  4 active torsions:
REMARK  status: ('A' for Active; 'I' for Inactive)
REMARK    1  A    between atoms: C_1  and  C_2 
REMARK    2  A    between atoms: C_3  and  O_10 
REMARK    3  A    between atoms: C_6  and  O_9 
REMARK    4  A    between atoms: C_7  and  O_8 
ROOT
ATOM      1  C   LIG d   1       4.820  -0.933  -2.732  0.00  0.00     0.036 A 
ATOM      2  C   LIG d   1       4.466   0.393  -2.529  0.00  0.00     0.123 A 
ATOM      3  C   LIG d   1       5.359   1.406  -2.843  0.00  0.00    -0.016 A 
ATOM      4  C   LIG d   1       6.601   1.097  -3.368  0.00  0.00    -0.013 A 
ATOM      5  C   LIG d   1       6.955  -0.226  -3.578  0.00  0.00     0.159 A 
ATOM      6  C   LIG d   1       6.063  -1.245  -3.259  0.00  0.00     0.165 A 
ATOM      7  H   LIG d   1       5.084   2.437  -2.680  0.00  0.00     0.066 H 
ATOM      8  H   LIG d   1       7.293   1.887  -3.617  0.00  0.00     0.066 H 
ENDROOT
BRANCH   1   9
ATOM      9  C   LIG d   1       3.851  -2.034  -2.386  0.00  0.00    -0.033 C 
ATOM     10  H   LIG d   1       2.835  -1.639  -2.393  0.00  0.00     0.028 H 
ATOM     11  H   LIG d   1       4.082  -2.422  -1.393  0.00  0.00     0.028 H 
ATOM     12  H   LIG d   1       3.935  -2.836  -3.118  0.00  0.00     0.028 H 
ENDBRANCH   1   9
BRANCH   6  13
ATOM     13  O   LIG d   1       6.410  -2.542  -3.464  0.00  0.00    -0.503 OA
ATOM     14  H   LIG d   1       5.720  -3.072  -3.889  0.00  0.00     0.292 HD
ENDBRANCH   6  13
BRANCH   2  15
ATOM     15  O   LIG d   1       3.244   0.699  -2.018  0.00  0.00    -0.506 OA
ATOM     16  H   LIG d   1       2.666  -0.068  -1.896  0.00  0.00     0.292 HD
ENDBRANCH   2  15
BRANCH   5  17
ATOM     17  O   LIG d   1       8.177  -0.529  -4.095  0.00  0.00    -0.503 OA
ATOM     18  H   LIG d   1       8.564   0.176  -4.631  0.00  0.00     0.292 HD
ENDBRANCH   5  17
TORSDOF 4
ENDMDL
MODEL 9
REMARK VINA RESULT:      -4.2     10.067     11.602
REMARK  4 active torsions:
REMARK  status: ('A' for Active; 'I' for Inactive)
REMARK    1  A    between atoms: C_1  and  C_2 
REMARK    2  A    between atoms: C_3  and  O_10 
REMARK    3  A    between atoms: C_6  and  O_9 
REMARK    4  A    between atoms: C_7  and  O_8 
ROOT
ATOM      1  C   LIG d   1      10.368   7.709  -0.216  0.00  0.00     0.036 A 
ATOM      2  C   LIG d   1      11.222   8.498   0.541  0.00  0.00     0.123 A 
ATOM      3  C   LIG d   1      10.998   9.863   0.644  0.00  0.00    -0.016 A 
ATOM      4  C   LIG d   1       9.916  10.437   0.002  0.00  0.00    -0.013 A 
ATOM      5  C   LIG d   1       9.058   9.651  -0.749  0.00  0.00     0.159 A 
ATOM      6  C   LIG d   1       9.284   8.283  -0.859  0.00  0.00     0.165 A 
ATOM      7  H   LIG d   1      11.666  10.476   1.230  0.00  0.00     0.066 H 
ATOM      8  H   LIG d   1       9.740  11.499   0.088  0.00  0.00     0.066 H 
ENDROOT
BRANCH   1   9
ATOM      9  C   LIG d   1      10.616   6.227  -0.332  0.00  0.00    -0.033 C 
ATOM     10  H   LIG d   1      11.147   6.020  -1.262  0.00  0.00     0.028 H 
ATOM     11  H   LIG d   1       9.663   5.698  -0.332  0.00  0.00     0.028 H 
ATOM     12  H   LIG d   1      11.218   5.892   0.512  0.00  0.00     0.028 H 
ENDBRANCH   1   9
BRANCH   6  13
ATOM     13  O   LIG d   1       8.443   7.511  -1.596  0.00  0.00    -0.503 OA
ATOM     14  H   LIG d   1       8.671   6.571  -1.598  0.00  0.00     0.292 HD
ENDBRANCH   6  13
BRANCH   2  15
ATOM     15  O   LIG d   1      12.283   7.934   1.178  0.00  0.00    -0.506 OA
ATOM     16  H   LIG d   1      12.048   7.461   1.988  0.00  0.00     0.292 HD
ENDBRANCH   2  15
BRANCH   5  17
ATOM     17  O   LIG d   1       7.993  10.218  -1.380  0.00  0.00    -0.503 OA
ATOM     18  H   LIG d   1       8.201  11.043  -1.839  0.00  0.00     0.292 HD
ENDBRANCH   5  17
TORSDOF 4
ENDMDL
MODEL 10
REMARK VINA RESULT:      -4.1      2.181      2.490
REMARK  4 active torsions:
REMARK  status: ('A' for Active; 'I' for Inactive)
REMARK    1  A    between atoms: C_1  and  C_2 
REMARK    2  A    between atoms: C_3  and  O_10 
REMARK    3  A    between atoms: C_6  and  O_9 
REMARK    4  A    between atoms: C_7  and  O_8 
ROOT
ATOM      1  C   LIG d   1       4.113  -0.627  -4.823  0.00  0.00     0.036 A 
ATOM      2  C   LIG d   1       3.182  -0.864  -3.821  0.00  0.00     0.123 A 
ATOM      3  C   LIG d   1       3.602  -1.294  -2.572  0.00  0.00    -0.016 A 
ATOM      4  C   LIG d   1       4.949  -1.478  -2.319  0.00  0.00    -0.013 A 
ATOM      5  C   LIG d   1       5.881  -1.236  -3.315  0.00  0.00     0.159 A 
ATOM      6  C   LIG d   1       5.462  -0.809  -4.571  0.00  0.00     0.165 A 
ATOM      7  H   LIG d   1       2.877  -1.483  -1.795  0.00  0.00     0.066 H 
ATOM      8  H   LIG d   1       5.275  -1.808  -1.344  0.00  0.00     0.066 H 
ENDROOT
BRANCH   1   9
ATOM      9  C   LIG d   1       3.655  -0.165  -6.182  0.00  0.00    -0.033 C 
ATOM     10  H   LIG d   1       3.840  -0.951  -6.915  0.00  0.00     0.028 H 
ATOM     11  H   LIG d   1       4.206   0.733  -6.466  0.00  0.00     0.028 H 
ATOM     12  H   LIG d   1       2.589   0.059  -6.151  0.00  0.00     0.028 H 
ENDBRANCH   1   9
BRANCH   6  13
ATOM     13  O   LIG d   1       6.376  -0.571  -5.549  0.00  0.00    -0.503 OA
ATOM     14  H   LIG d   1       6.572  -1.341  -6.100  0.00  0.00     0.292 HD
ENDBRANCH   6  13
BRANCH   2  15
ATOM     15  O   LIG d   1       1.858  -0.679  -4.067  0.00  0.00    -0.506 OA
ATOM     16  H   LIG d   1       1.282  -1.309  -3.610  0.00  0.00     0.292 HD
ENDBRANCH   2  15
BRANCH   5  17
ATOM     17  O   LIG d   1       7.207  -1.416  -3.064  0.00  0.00    -0.503 OA
ATOM     18  H   LIG d   1       7.661  -0.621  -2.755  0.00  0.00     0.292 HD
ENDBRANCH   5  17
TORSDOF 4
ENDMDL
