MODEL 1
REMARK VINA RESULT:      -6.3      0.000      0.000
REMARK  7 active torsions:
REMARK  status: ('A' for Active; 'I' for Inactive)
REMARK    1  A    between atoms: C_1  and  N_2 
REMARK    2  A    between atoms: N_2  and  C_3 
REMARK    3  A    between atoms: N_2  and  C_4 
REMARK    4  A    between atoms: C_11  and  O_36 
REMARK    5  A    between atoms: C_17  and  O_34 
REMARK    6  A    between atoms: C_23  and  O_32 
REMARK    7  A    between atoms: C_25  and  C_28 
REMARK       I    between atoms: C_28  and  N_30 
ROOT
ATOM      1  C   LIG d   1       5.014  -1.056  -3.556  0.00  0.00     0.049 C 
ATOM      2  H   LIG d   1       5.182  -1.568  -2.608  0.00  0.00     0.094 H 
ATOM      3  C   LIG d   1       4.563  -2.066  -4.594  0.00  0.00     0.045 C 
ATOM      4  H   LIG d   1       3.548  -2.370  -4.338  0.00  0.00     0.040 H 
ATOM      5  C   LIG d   1       5.442  -3.316  -4.552  0.00  0.00    -0.032 C 
ATOM      6  C   LIG d   1       4.760  -4.420  -5.365  0.00  0.00     0.018 C 
ATOM      7  H   LIG d   1       3.839  -4.719  -4.866  0.00  0.00     0.038 H 
ATOM      8  C   LIG d   1       5.696  -5.623  -5.462  0.00  0.00     0.089 C 
ATOM      9  H   LIG d   1       5.830  -6.055  -4.470  0.00  0.00     0.065 H 
ATOM     10  C   LIG d   1       5.121  -6.666  -6.382  0.00  0.00     0.014 A 
ATOM     11  C   LIG d   1       5.296  -8.007  -6.108  0.00  0.00     0.048 A 
ATOM     12  C   LIG d   1       4.781  -8.967  -6.964  0.00  0.00    -0.040 A 
ATOM     13  C   LIG d   1       4.090  -8.595  -8.101  0.00  0.00    -0.018 A 
ATOM     14  C   LIG d   1       3.899  -7.251  -8.388  0.00  0.00     0.128 A 
ATOM     15  C   LIG d   1       4.411  -6.279  -7.519  0.00  0.00     0.070 A 
ATOM     16  C   LIG d   1       4.180  -4.845  -7.782  0.00  0.00     0.193 C 
ATOM     17  C   LIG d   1       4.435  -3.910  -6.743  0.00  0.00    -0.003 C 
ATOM     18  C   LIG d   1       4.352  -2.605  -7.022  0.00  0.00    -0.089 C 
ATOM     19  O   LIG d   1       4.087  -2.250  -8.296  0.00  0.00    -0.874 OA
ATOM     20  C   LIG d   1       4.534  -1.516  -6.002  0.00  0.00     0.098 C 
ATOM     21  C   LIG d   1       5.750  -0.710  -6.340  0.00  0.00    -0.080 C 
ATOM     22  C   LIG d   1       6.575  -0.173  -5.385  0.00  0.00     0.076 C 
ATOM     23  C   LIG d   1       6.284  -0.375  -3.981  0.00  0.00     0.215 C 
ATOM     24  O   LIG d   1       7.091  -0.018  -3.149  0.00  0.00    -0.286 OA
ATOM     25  O   LIG d   1       6.044  -0.503  -7.633  0.00  0.00    -0.874 OA
ATOM     26  O   LIG d   1       3.789  -4.471  -8.874  0.00  0.00    -0.287 OA
ATOM     27 CL   LIG d   1       6.165  -8.492  -4.685  0.00  0.00    -0.083 Cl
ATOM     28  H   LIG d   1       6.417  -3.092  -4.985  0.00  0.00     0.028 H 
ATOM     29  H   LIG d   1       5.563  -3.643  -3.519  0.00  0.00     0.028 H 
ATOM     30  H   LIG d   1       4.920 -10.015  -6.741  0.00  0.00     0.063 H 
ATOM     31  H   LIG d   1       3.698  -9.350  -8.766  0.00  0.00     0.066 H 
ENDROOT
BRANCH   1  32
ATOM     32  N   LIG d   1       3.962  -0.046  -3.378  0.00  0.00     0.239 N 
ATOM     33  H   LIG d   1       3.816   0.445  -4.247  0.00  0.00     0.203 HD
BRANCH  32  34
ATOM     34  C   LIG d   1       2.713  -0.706  -2.972  0.00  0.00    -0.043 C 
ATOM     35  H   LIG d   1       2.187  -1.063  -3.856  0.00  0.00     0.078 H 
ATOM     36  H   LIG d   1       2.944  -1.549  -2.320  0.00  0.00     0.078 H 
ATOM     37  H   LIG d   1       2.085   0.005  -2.436  0.00  0.00     0.078 H 
ENDBRANCH  32  34
BRANCH  32  38
ATOM     38  C   LIG d   1       4.372   0.909  -2.339  0.00  0.00    -0.043 C 
ATOM     39  H   LIG d   1       4.527   1.890  -2.788  0.00  0.00     0.078 H 
ATOM     40  H   LIG d   1       3.592   0.976  -1.580  0.00  0.00     0.078 H 
ATOM     41  H   LIG d   1       5.299   0.569  -1.879  0.00  0.00     0.078 H 
ENDBRANCH  32  38
ENDBRANCH   1  32
BRANCH  22  42
ATOM     42  C   LIG d   1       7.742   0.626  -5.790  0.00  0.00     0.244 C 
ATOM     43  O   LIG d   1       7.643   1.833  -5.906  0.00  0.00    -0.270 OA
ATOM     44  N   LIG d   1       8.923   0.021  -6.032  0.00  0.00    -0.325 N 
ATOM     45  H   LIG d   1       9.024  -0.928  -5.863  0.00  0.00     0.145 HD
ATOM     46  H   LIG d   1       9.670   0.535  -6.374  0.00  0.00     0.145 HD
ENDBRANCH  22  42
BRANCH  20  47
ATOM     47  O   LIG d   1       3.410  -0.639  -6.104  0.00  0.00    -0.381 OA
ATOM     48  H   LIG d   1       2.557  -1.094  -6.127  0.00  0.00     0.211 HD
ENDBRANCH  20  47
BRANCH   8  49
ATOM     49  O   LIG d   1       6.963  -5.197  -5.966  0.00  0.00    -0.387 OA
ATOM     50  H   LIG d   1       7.706  -5.399  -5.382  0.00  0.00     0.210 HD
ENDBRANCH   8  49
BRANCH  14  51
ATOM     51  O   LIG d   1       3.222  -6.881  -9.504  0.00  0.00    -0.506 OA
ATOM     52  H   LIG d   1       3.353  -5.957  -9.755  0.00  0.00     0.292 HD
ENDBRANCH  14  51
TORSDOF 7
ENDMDL
MODEL 2
REMARK VINA RESULT:      -6.3      2.825      4.619
REMARK  7 active torsions:
REMARK  status: ('A' for Active; 'I' for Inactive)
REMARK    1  A    between atoms: C_1  and  N_2 
REMARK    2  A    between atoms: N_2  and  C_3 
REMARK    3  A    between atoms: N_2  and  C_4 
REMARK    4  A    between atoms: C_11  and  O_36 
REMARK    5  A    between atoms: C_17  and  O_34 
REMARK    6  A    between atoms: C_23  and  O_32 
REMARK    7  A    between atoms: C_25  and  C_28 
REMARK       I    between atoms: C_28  and  N_30 
ROOT
ATOM      1  C   LIG d   1       6.958  -0.445  -5.295  0.00  0.00     0.049 C 
ATOM      2  H   LIG d   1       7.216   0.326  -6.020  0.00  0.00     0.094 H 
ATOM      3  C   LIG d   1       6.306  -1.609  -6.016  0.00  0.00     0.045 C 
ATOM      4  H   LIG d   1       7.080  -2.116  -6.591  0.00  0.00     0.040 H 
ATOM      5  C   LIG d   1       5.250  -1.112  -7.004  0.00  0.00    -0.032 C 
ATOM      6  C   LIG d   1       4.864  -2.268  -7.930  0.00  0.00     0.018 C 
ATOM      7  H   LIG d   1       5.717  -2.531  -8.554  0.00  0.00     0.038 H 
ATOM      8  C   LIG d   1       3.702  -1.832  -8.820  0.00  0.00     0.089 C 
ATOM      9  H   LIG d   1       4.039  -1.043  -9.491  0.00  0.00     0.065 H 
ATOM     10  C   LIG d   1       3.196  -2.993  -9.634  0.00  0.00     0.014 A 
ATOM     11  C   LIG d   1       2.754  -2.795 -10.926  0.00  0.00     0.048 A 
ATOM     12  C   LIG d   1       2.274  -3.860 -11.670  0.00  0.00    -0.040 A 
ATOM     13  C   LIG d   1       2.229  -5.130 -11.128  0.00  0.00    -0.018 A 
ATOM     14  C   LIG d   1       2.676  -5.348  -9.832  0.00  0.00     0.128 A 
ATOM     15  C   LIG d   1       3.171  -4.275  -9.083  0.00  0.00     0.070 A 
ATOM     16  C   LIG d   1       3.694  -4.493  -7.719  0.00  0.00     0.193 C 
ATOM     17  C   LIG d   1       4.461  -3.464  -7.109  0.00  0.00    -0.003 C 
ATOM     18  C   LIG d   1       4.822  -3.608  -5.830  0.00  0.00    -0.089 C 
ATOM     19  O   LIG d   1       4.384  -4.701  -5.172  0.00  0.00    -0.874 OA
ATOM     20  C   LIG d   1       5.687  -2.629  -5.086  0.00  0.00     0.098 C 
ATOM     21  C   LIG d   1       4.898  -2.005  -3.976  0.00  0.00    -0.080 C 
ATOM     22  C   LIG d   1       5.062  -0.699  -3.590  0.00  0.00     0.076 C 
ATOM     23  C   LIG d   1       6.033   0.137  -4.263  0.00  0.00     0.215 C 
ATOM     24  O   LIG d   1       6.074   1.324  -4.010  0.00  0.00    -0.286 OA
ATOM     25  O   LIG d   1       3.992  -2.756  -3.332  0.00  0.00    -0.874 OA
ATOM     26  O   LIG d   1       3.461  -5.530  -7.126  0.00  0.00    -0.287 OA
ATOM     27 CL   LIG d   1       2.799  -1.204 -11.620  0.00  0.00    -0.083 Cl
ATOM     28  H   LIG d   1       4.370  -0.770  -6.457  0.00  0.00     0.028 H 
ATOM     29  H   LIG d   1       5.659  -0.291  -7.592  0.00  0.00     0.028 H 
ATOM     30  H   LIG d   1       1.931  -3.697 -12.681  0.00  0.00     0.063 H 
ATOM     31  H   LIG d   1       1.847  -5.953 -11.712  0.00  0.00     0.066 H 
ENDROOT
BRANCH   1  32
ATOM     32  N   LIG d   1       8.183  -0.915  -4.633  0.00  0.00     0.239 N 
ATOM     33  H   LIG d   1       7.940  -1.523  -3.866  0.00  0.00     0.203 HD
BRANCH  32  34
ATOM     34  C   LIG d   1       9.010  -1.650  -5.599  0.00  0.00    -0.043 C 
ATOM     35  H   LIG d   1       8.822  -1.268  -6.603  0.00  0.00     0.078 H 
ATOM     36  H   LIG d   1      10.063  -1.517  -5.351  0.00  0.00     0.078 H 
ATOM     37  H   LIG d   1       8.760  -2.710  -5.560  0.00  0.00     0.078 H 
ENDBRANCH  32  34
BRANCH  32  38
ATOM     38  C   LIG d   1       8.936   0.239  -4.122  0.00  0.00    -0.043 C 
ATOM     39  H   LIG d   1       8.690   0.397  -3.072  0.00  0.00     0.078 H 
ATOM     40  H   LIG d   1      10.005   0.047  -4.220  0.00  0.00     0.078 H 
ATOM     41  H   LIG d   1       8.671   1.127  -4.694  0.00  0.00     0.078 H 
ENDBRANCH  32  38
ENDBRANCH   1  32
BRANCH  22  42
ATOM     42  C   LIG d   1       4.266  -0.158  -2.477  0.00  0.00     0.244 C 
ATOM     43  O   LIG d   1       4.663  -0.273  -1.333  0.00  0.00    -0.270 OA
ATOM     44  N   LIG d   1       3.097   0.466  -2.725  0.00  0.00    -0.325 N 
ATOM     45  H   LIG d   1       2.819   0.628  -3.640  0.00  0.00     0.145 HD
ATOM     46  H   LIG d   1       2.535   0.752  -1.989  0.00  0.00     0.145 HD
ENDBRANCH  22  42
BRANCH  20  47
ATOM     47  O   LIG d   1       6.750  -3.366  -4.480  0.00  0.00    -0.381 OA
ATOM     48  H   LIG d   1       7.513  -2.826  -4.235  0.00  0.00     0.211 HD
ENDBRANCH  20  47
BRANCH   8  49
ATOM     49  O   LIG d   1       2.642  -1.333  -8.002  0.00  0.00    -0.387 OA
ATOM     50  H   LIG d   1       2.595  -1.742  -7.127  0.00  0.00     0.210 HD
ENDBRANCH   8  49
BRANCH  14  51
ATOM     51  O   LIG d   1       2.634  -6.593  -9.297  0.00  0.00    -0.506 OA
ATOM     52  H   LIG d   1       2.624  -7.304  -9.953  0.00  0.00     0.292 HD
ENDBRANCH  14  51
TORSDOF 7
ENDMDL
MODEL 3
REMARK VINA RESULT:      -6.3      2.234      4.270
REMARK  7 active torsions:
REMARK  status: ('A' for Active; 'I' for Inactive)
REMARK    1  A    between atoms: C_1  and  N_2 
REMARK    2  A    between atoms: N_2  and  C_3 
REMARK    3  A    between atoms: N_2  and  C_4 
REMARK    4  A    between atoms: C_11  and  O_36 
REMARK    5  A    between atoms: C_17  and  O_34 
REMARK    6  A    between atoms: C_23  and  O_32 
REMARK    7  A    between atoms: C_25  and  C_28 
REMARK       I    between atoms: C_28  and  N_30 
ROOT
ATOM      1  C   LIG d   1       4.463  -0.443  -8.311  0.00  0.00     0.049 C 
ATOM      2  H   LIG d   1       3.992  -0.718  -9.255  0.00  0.00     0.094 H 
ATOM      3  C   LIG d   1       5.167  -1.657  -7.734  0.00  0.00     0.045 C 
ATOM      4  H   LIG d   1       6.041  -1.856  -8.353  0.00  0.00     0.040 H 
ATOM      5  C   LIG d   1       4.264  -2.890  -7.802  0.00  0.00    -0.032 C 
ATOM      6  C   LIG d   1       5.114  -4.133  -7.526  0.00  0.00     0.018 C 
ATOM      7  H   LIG d   1       5.825  -4.272  -8.339  0.00  0.00     0.038 H 
ATOM      8  C   LIG d   1       4.202  -5.355  -7.437  0.00  0.00     0.089 C 
ATOM      9  H   LIG d   1       3.753  -5.540  -8.413  0.00  0.00     0.065 H 
ATOM     10  C   LIG d   1       4.986  -6.568  -7.014  0.00  0.00     0.014 A 
ATOM     11  C   LIG d   1       4.679  -7.809  -7.533  0.00  0.00     0.048 A 
ATOM     12  C   LIG d   1       5.389  -8.929  -7.132  0.00  0.00    -0.040 A 
ATOM     13  C   LIG d   1       6.410  -8.817  -6.207  0.00  0.00    -0.018 A 
ATOM     14  C   LIG d   1       6.735  -7.576  -5.679  0.00  0.00     0.128 A 
ATOM     15  C   LIG d   1       6.025  -6.442  -6.091  0.00  0.00     0.070 A 
ATOM     16  C   LIG d   1       6.386  -5.106  -5.577  0.00  0.00     0.193 C 
ATOM     17  C   LIG d   1       5.865  -3.958  -6.232  0.00  0.00    -0.003 C 
ATOM     18  C   LIG d   1       6.085  -2.756  -5.689  0.00  0.00    -0.089 C 
ATOM     19  O   LIG d   1       6.740  -2.708  -4.512  0.00  0.00    -0.874 OA
ATOM     20  C   LIG d   1       5.647  -1.461  -6.314  0.00  0.00     0.098 C 
ATOM     21  C   LIG d   1       4.628  -0.801  -5.437  0.00  0.00    -0.080 C 
ATOM     22  C   LIG d   1       3.573  -0.079  -5.936  0.00  0.00     0.076 C 
ATOM     23  C   LIG d   1       3.413   0.072  -7.368  0.00  0.00     0.215 C 
ATOM     24  O   LIG d   1       2.407   0.592  -7.802  0.00  0.00    -0.286 OA
ATOM     25  O   LIG d   1       4.750  -0.921  -4.107  0.00  0.00    -0.874 OA
ATOM     26  O   LIG d   1       7.106  -4.992  -4.601  0.00  0.00    -0.287 OA
ATOM     27 CL   LIG d   1       3.398  -7.967  -8.694  0.00  0.00    -0.083 Cl
ATOM     28  H   LIG d   1       3.478  -2.809  -7.051  0.00  0.00     0.028 H 
ATOM     29  H   LIG d   1       3.820  -2.962  -8.795  0.00  0.00     0.028 H 
ATOM     30  H   LIG d   1       5.144  -9.896  -7.544  0.00  0.00     0.063 H 
ATOM     31  H   LIG d   1       6.953  -9.696  -5.894  0.00  0.00     0.066 H 
ENDROOT
BRANCH   1  32
ATOM     32  N   LIG d   1       5.453   0.615  -8.556  0.00  0.00     0.239 N 
ATOM     33  H   LIG d   1       5.925   0.840  -7.694  0.00  0.00     0.203 HD
BRANCH  32  34
ATOM     34  C   LIG d   1       6.434   0.149  -9.546  0.00  0.00    -0.043 C 
ATOM     35  H   LIG d   1       6.809   1.000 -10.113  0.00  0.00     0.078 H 
ATOM     36  H   LIG d   1       7.262  -0.341  -9.033  0.00  0.00     0.078 H 
ATOM     37  H   LIG d   1       5.958  -0.559 -10.224  0.00  0.00     0.078 H 
ENDBRANCH  32  34
BRANCH  32  38
ATOM     38  C   LIG d   1       4.772   1.812  -9.068  0.00  0.00    -0.043 C 
ATOM     39  H   LIG d   1       5.366   2.254  -9.869  0.00  0.00     0.078 H 
ATOM     40  H   LIG d   1       3.791   1.534  -9.455  0.00  0.00     0.078 H 
ATOM     41  H   LIG d   1       4.654   2.536  -8.262  0.00  0.00     0.078 H 
ENDBRANCH  32  38
ENDBRANCH   1  32
BRANCH  22  42
ATOM     42  C   LIG d   1       2.620   0.560  -5.015  0.00  0.00     0.244 C 
ATOM     43  O   LIG d   1       2.793   1.712  -4.663  0.00  0.00    -0.270 OA
ATOM     44  N   LIG d   1       1.555  -0.131  -4.562  0.00  0.00    -0.325 N 
ATOM     45  H   LIG d   1       1.373  -1.020  -4.903  0.00  0.00     0.145 HD
ATOM     46  H   LIG d   1       0.971   0.261  -3.895  0.00  0.00     0.145 HD
ENDBRANCH  22  42
BRANCH  20  47
ATOM     47  O   LIG d   1       6.784  -0.596  -6.355  0.00  0.00    -0.381 OA
ATOM     48  H   LIG d   1       7.169  -0.412  -5.487  0.00  0.00     0.211 HD
ENDBRANCH  20  47
BRANCH   8  49
ATOM     49  O   LIG d   1       3.169  -5.105  -6.483  0.00  0.00    -0.387 OA
ATOM     50  H   LIG d   1       2.579  -4.378  -6.724  0.00  0.00     0.210 HD
ENDBRANCH   8  49
BRANCH  14  51
ATOM     51  O   LIG d   1       7.735  -7.463  -4.770  0.00  0.00    -0.506 OA
ATOM     52  H   LIG d   1       7.434  -7.235  -3.880  0.00  0.00     0.292 HD
ENDBRANCH  14  51
TORSDOF 7
ENDMDL
MODEL 4
REMARK VINA RESULT:      -6.1      4.274      7.136
REMARK  7 active torsions:
REMARK  status: ('A' for Active; 'I' for Inactive)
REMARK    1  A    between atoms: C_1  and  N_2 
REMARK    2  A    between atoms: N_2  and  C_3 
REMARK    3  A    between atoms: N_2  and  C_4 
REMARK    4  A    between atoms: C_11  and  O_36 
REMARK    5  A    between atoms: C_17  and  O_34 
REMARK    6  A    between atoms: C_23  and  O_32 
REMARK    7  A    between atoms: C_25  and  C_28 
REMARK       I    between atoms: C_28  and  N_30 
ROOT
ATOM      1  C   LIG d   1      11.522  -0.435  -6.471  0.00  0.00     0.049 C 
ATOM      2  H   LIG d   1      11.603  -1.513  -6.612  0.00  0.00     0.094 H 
ATOM      3  C   LIG d   1      10.398  -0.144  -5.495  0.00  0.00     0.045 C 
ATOM      4  H   LIG d   1      10.731  -0.459  -4.506  0.00  0.00     0.040 H 
ATOM      5  C   LIG d   1       9.153  -0.961  -5.842  0.00  0.00    -0.032 C 
ATOM      6  C   LIG d   1       8.179  -0.892  -4.663  0.00  0.00     0.018 C 
ATOM      7  H   LIG d   1       8.612  -1.408  -3.807  0.00  0.00     0.038 H 
ATOM      8  C   LIG d   1       6.868  -1.572  -5.054  0.00  0.00     0.089 C 
ATOM      9  H   LIG d   1       7.047  -2.638  -5.202  0.00  0.00     0.065 H 
ATOM     10  C   LIG d   1       5.836  -1.388  -3.974  0.00  0.00     0.014 A 
ATOM     11  C   LIG d   1       4.940  -2.398  -3.691  0.00  0.00     0.048 A 
ATOM     12  C   LIG d   1       3.979  -2.223  -2.708  0.00  0.00    -0.040 A 
ATOM     13  C   LIG d   1       3.904  -1.036  -2.004  0.00  0.00    -0.018 A 
ATOM     14  C   LIG d   1       4.801  -0.012  -2.273  0.00  0.00     0.128 A 
ATOM     15  C   LIG d   1       5.780  -0.191  -3.259  0.00  0.00     0.070 A 
ATOM     16  C   LIG d   1       6.773   0.868  -3.529  0.00  0.00     0.193 C 
ATOM     17  C   LIG d   1       7.922   0.546  -4.299  0.00  0.00    -0.003 C 
ATOM     18  C   LIG d   1       8.752   1.533  -4.653  0.00  0.00    -0.089 C 
ATOM     19  O   LIG d   1       8.416   2.792  -4.306  0.00  0.00    -0.874 OA
ATOM     20  C   LIG d   1      10.033   1.321  -5.409  0.00  0.00     0.098 C 
ATOM     21  C   LIG d   1       9.938   1.979  -6.751  0.00  0.00    -0.080 C 
ATOM     22  C   LIG d   1      10.519   1.457  -7.879  0.00  0.00     0.076 C 
ATOM     23  C   LIG d   1      11.265   0.218  -7.800  0.00  0.00     0.215 C 
ATOM     24  O   LIG d   1      11.656  -0.307  -8.822  0.00  0.00    -0.286 OA
ATOM     25  O   LIG d   1       9.255   3.129  -6.855  0.00  0.00    -0.874 OA
ATOM     26  O   LIG d   1       6.602   1.998  -3.108  0.00  0.00    -0.287 OA
ATOM     27 CL   LIG d   1       5.018  -3.894  -4.568  0.00  0.00    -0.083 Cl
ATOM     28  H   LIG d   1       8.680  -0.546  -6.733  0.00  0.00     0.028 H 
ATOM     29  H   LIG d   1       9.436  -1.997  -6.025  0.00  0.00     0.028 H 
ATOM     30  H   LIG d   1       3.282  -3.019  -2.490  0.00  0.00     0.063 H 
ATOM     31  H   LIG d   1       3.148  -0.905  -1.246  0.00  0.00     0.066 H 
ENDROOT
BRANCH   1  32
ATOM     32  N   LIG d   1      12.784   0.076  -5.919  0.00  0.00     0.239 N 
ATOM     33  H   LIG d   1      12.680   1.053  -5.689  0.00  0.00     0.203 HD
BRANCH  32  34
ATOM     34  C   LIG d   1      13.129  -0.679  -4.706  0.00  0.00    -0.043 C 
ATOM     35  H   LIG d   1      12.259  -1.245  -4.371  0.00  0.00     0.078 H 
ATOM     36  H   LIG d   1      13.947  -1.365  -4.926  0.00  0.00     0.078 H 
ATOM     37  H   LIG d   1      13.436   0.013  -3.923  0.00  0.00     0.078 H 
ENDBRANCH  32  34
BRANCH  32  38
ATOM     38  C   LIG d   1      13.853  -0.082  -6.914  0.00  0.00    -0.043 C 
ATOM     39  H   LIG d   1      13.678  -0.988  -7.495  0.00  0.00     0.078 H 
ATOM     40  H   LIG d   1      13.859   0.781  -7.580  0.00  0.00     0.078 H 
ATOM     41  H   LIG d   1      14.814  -0.157  -6.406  0.00  0.00     0.078 H 
ENDBRANCH  32  38
ENDBRANCH   1  32
BRANCH  22  42
ATOM     42  C   LIG d   1      10.403   2.169  -9.161  0.00  0.00     0.244 C 
ATOM     43  O   LIG d   1      11.260   2.964  -9.496  0.00  0.00    -0.270 OA
ATOM     44  N   LIG d   1       9.344   1.939  -9.965  0.00  0.00    -0.325 N 
ATOM     45  H   LIG d   1       8.703   1.249  -9.737  0.00  0.00     0.145 HD
ATOM     46  H   LIG d   1       9.226   2.464 -10.772  0.00  0.00     0.145 HD
ENDBRANCH  22  42
BRANCH  20  47
ATOM     47  O   LIG d   1      11.073   1.987  -4.690  0.00  0.00    -0.381 OA
ATOM     48  H   LIG d   1      11.425   2.767  -5.141  0.00  0.00     0.211 HD
ENDBRANCH  20  47
BRANCH   8  49
ATOM     49  O   LIG d   1       6.385  -1.002  -6.271  0.00  0.00    -0.387 OA
ATOM     50  H   LIG d   1       6.985  -0.356  -6.668  0.00  0.00     0.210 HD
ENDBRANCH   8  49
BRANCH  14  51
ATOM     51  O   LIG d   1       4.731   1.155  -1.585  0.00  0.00    -0.506 OA
ATOM     52  H   LIG d   1       5.303   1.188  -0.806  0.00  0.00     0.292 HD
ENDBRANCH  14  51
TORSDOF 7
ENDMDL
MODEL 5
REMARK VINA RESULT:      -6.1      4.224      7.363
REMARK  7 active torsions:
REMARK  status: ('A' for Active; 'I' for Inactive)
REMARK    1  A    between atoms: C_1  and  N_2 
REMARK    2  A    between atoms: N_2  and  C_3 
REMARK    3  A    between atoms: N_2  and  C_4 
REMARK    4  A    between atoms: C_11  and  O_36 
REMARK    5  A    between atoms: C_17  and  O_34 
REMARK    6  A    between atoms: C_23  and  O_32 
REMARK    7  A    between atoms: C_25  and  C_28 
REMARK       I    between atoms: C_28  and  N_30 
ROOT
ATOM      1  C   LIG d   1       4.675  -1.804 -11.906  0.00  0.00     0.049 C 
ATOM      2  H   LIG d   1       5.462  -2.554 -11.984  0.00  0.00     0.094 H 
ATOM      3  C   LIG d   1       4.691  -1.209 -10.510  0.00  0.00     0.045 C 
ATOM      4  H   LIG d   1       5.582  -0.587 -10.428  0.00  0.00     0.040 H 
ATOM      5  C   LIG d   1       4.799  -2.309  -9.454  0.00  0.00    -0.032 C 
ATOM      6  C   LIG d   1       5.143  -1.663  -8.109  0.00  0.00     0.018 C 
ATOM      7  H   LIG d   1       6.144  -1.236  -8.159  0.00  0.00     0.038 H 
ATOM      8  C   LIG d   1       5.103  -2.728  -7.015  0.00  0.00     0.089 C 
ATOM      9  H   LIG d   1       5.902  -3.450  -7.186  0.00  0.00     0.065 H 
ATOM     10  C   LIG d   1       5.284  -2.099  -5.660  0.00  0.00     0.014 A 
ATOM     11  C   LIG d   1       5.992  -2.760  -4.677  0.00  0.00     0.048 A 
ATOM     12  C   LIG d   1       6.146  -2.188  -3.424  0.00  0.00    -0.040 A 
ATOM     13  C   LIG d   1       5.591  -0.955  -3.143  0.00  0.00    -0.018 A 
ATOM     14  C   LIG d   1       4.881  -0.274  -4.122  0.00  0.00     0.128 A 
ATOM     15  C   LIG d   1       4.734  -0.845  -5.392  0.00  0.00     0.070 A 
ATOM     16  C   LIG d   1       4.022  -0.117  -6.462  0.00  0.00     0.193 C 
ATOM     17  C   LIG d   1       4.152  -0.572  -7.801  0.00  0.00    -0.003 C 
ATOM     18  C   LIG d   1       3.406   0.005  -8.748  0.00  0.00    -0.089 C 
ATOM     19  O   LIG d   1       2.524   0.950  -8.365  0.00  0.00    -0.874 OA
ATOM     20  C   LIG d   1       3.494  -0.336 -10.209  0.00  0.00     0.098 C 
ATOM     21  C   LIG d   1       2.201  -0.941 -10.662  0.00  0.00    -0.080 C 
ATOM     22  C   LIG d   1       2.134  -1.937 -11.603  0.00  0.00     0.076 C 
ATOM     23  C   LIG d   1       3.350  -2.446 -12.204  0.00  0.00     0.215 C 
ATOM     24  O   LIG d   1       3.294  -3.418 -12.929  0.00  0.00    -0.286 OA
ATOM     25  O   LIG d   1       1.058  -0.489 -10.125  0.00  0.00    -0.874 OA
ATOM     26  O   LIG d   1       3.327   0.847  -6.197  0.00  0.00    -0.287 OA
ATOM     27 CL   LIG d   1       6.693  -4.313  -5.012  0.00  0.00    -0.083 Cl
ATOM     28  H   LIG d   1       3.848  -2.835  -9.375  0.00  0.00     0.028 H 
ATOM     29  H   LIG d   1       5.585  -3.010  -9.735  0.00  0.00     0.028 H 
ATOM     30  H   LIG d   1       6.703  -2.711  -2.660  0.00  0.00     0.063 H 
ATOM     31  H   LIG d   1       5.709  -0.520  -2.162  0.00  0.00     0.066 H 
ENDROOT
BRANCH   1  32
ATOM     32  N   LIG d   1       4.926  -0.738 -12.886  0.00  0.00     0.239 N 
ATOM     33  H   LIG d   1       4.804   0.161 -12.444  0.00  0.00     0.203 HD
BRANCH  32  34
ATOM     34  C   LIG d   1       6.300  -0.853 -13.393  0.00  0.00    -0.043 C 
ATOM     35  H   LIG d   1       6.807   0.107 -13.290  0.00  0.00     0.078 H 
ATOM     36  H   LIG d   1       6.836  -1.610 -12.821  0.00  0.00     0.078 H 
ATOM     37  H   LIG d   1       6.277  -1.141 -14.443  0.00  0.00     0.078 H 
ENDBRANCH  32  34
BRANCH  32  38
ATOM     38  C   LIG d   1       3.980  -0.868 -14.002  0.00  0.00    -0.043 C 
ATOM     39  H   LIG d   1       3.401  -1.784 -13.883  0.00  0.00     0.078 H 
ATOM     40  H   LIG d   1       3.306  -0.011 -14.009  0.00  0.00     0.078 H 
ATOM     41  H   LIG d   1       4.530  -0.906 -14.942  0.00  0.00     0.078 H 
ENDBRANCH  32  38
ENDBRANCH   1  32
BRANCH  22  42
ATOM     42  C   LIG d   1       0.827  -2.471 -12.016  0.00  0.00     0.244 C 
ATOM     43  O   LIG d   1       0.338  -2.131 -13.076  0.00  0.00    -0.270 OA
ATOM     44  N   LIG d   1       0.170  -3.338 -11.218  0.00  0.00    -0.325 N 
ATOM     45  H   LIG d   1       0.594  -3.670 -10.412  0.00  0.00     0.145 HD
ATOM     46  H   LIG d   1      -0.725  -3.628 -11.451  0.00  0.00     0.145 HD
ENDBRANCH  22  42
BRANCH  20  47
ATOM     47  O   LIG d   1       3.656   0.888 -10.928  0.00  0.00    -0.381 OA
ATOM     48  H   LIG d   1       2.933   1.517 -10.801  0.00  0.00     0.211 HD
ENDBRANCH  20  47
BRANCH   8  49
ATOM     49  O   LIG d   1       3.843  -3.401  -7.058  0.00  0.00    -0.387 OA
ATOM     50  H   LIG d   1       3.261  -3.194  -6.313  0.00  0.00     0.210 HD
ENDBRANCH   8  49
BRANCH  14  51
ATOM     51  O   LIG d   1       4.334   0.937  -3.850  0.00  0.00    -0.506 OA
ATOM     52  H   LIG d   1       3.368   0.951  -3.890  0.00  0.00     0.292 HD
ENDBRANCH  14  51
TORSDOF 7
ENDMDL
MODEL 6
REMARK VINA RESULT:      -6.0      7.336     10.688
REMARK  7 active torsions:
REMARK  status: ('A' for Active; 'I' for Inactive)
REMARK    1  A    between atoms: C_1  and  N_2 
REMARK    2  A    between atoms: N_2  and  C_3 
REMARK    3  A    between atoms: N_2  and  C_4 
REMARK    4  A    between atoms: C_11  and  O_36 
REMARK    5  A    between atoms: C_17  and  O_34 
REMARK    6  A    between atoms: C_23  and  O_32 
REMARK    7  A    between atoms: C_25  and  C_28 
REMARK       I    between atoms: C_28  and  N_30 
ROOT
ATOM      1  C   LIG d   1      10.615   6.934  -0.730  0.00  0.00     0.049 C 
ATOM      2  H   LIG d   1       9.833   6.545  -0.077  0.00  0.00     0.094 H 
ATOM      3  C   LIG d   1      10.379   6.434  -2.142  0.00  0.00     0.045 C 
ATOM      4  H   LIG d   1       9.504   6.952  -2.534  0.00  0.00     0.040 H 
ATOM      5  C   LIG d   1      10.065   4.937  -2.142  0.00  0.00    -0.032 C 
ATOM      6  C   LIG d   1       9.516   4.553  -3.518  0.00  0.00     0.018 C 
ATOM      7  H   LIG d   1       8.549   5.034  -3.669  0.00  0.00     0.038 H 
ATOM      8  C   LIG d   1       9.343   3.037  -3.585  0.00  0.00     0.089 C 
ATOM      9  H   LIG d   1       8.565   2.733  -2.884  0.00  0.00     0.065 H 
ATOM     10  C   LIG d   1       8.951   2.612  -4.974  0.00  0.00     0.014 A 
ATOM     11  C   LIG d   1       8.070   1.565  -5.158  0.00  0.00     0.048 A 
ATOM     12  C   LIG d   1       7.722   1.163  -6.437  0.00  0.00    -0.040 A 
ATOM     13  C   LIG d   1       8.254   1.800  -7.542  0.00  0.00    -0.018 A 
ATOM     14  C   LIG d   1       9.137   2.857  -7.375  0.00  0.00     0.128 A 
ATOM     15  C   LIG d   1       9.481   3.272  -6.083  0.00  0.00     0.070 A 
ATOM     16  C   LIG d   1      10.383   4.425  -5.883  0.00  0.00     0.193 C 
ATOM     17  C   LIG d   1      10.469   5.009  -4.591  0.00  0.00    -0.003 C 
ATOM     18  C   LIG d   1      11.380   5.964  -4.381  0.00  0.00    -0.089 C 
ATOM     19  O   LIG d   1      12.209   6.278  -5.397  0.00  0.00    -0.874 OA
ATOM     20  C   LIG d   1      11.531   6.707  -3.083  0.00  0.00     0.098 C 
ATOM     21  C   LIG d   1      12.866   6.396  -2.479  0.00  0.00    -0.080 C 
ATOM     22  C   LIG d   1      13.064   6.291  -1.126  0.00  0.00     0.076 C 
ATOM     23  C   LIG d   1      11.955   6.487  -0.216  0.00  0.00     0.215 C 
ATOM     24  O   LIG d   1      12.107   6.257   0.966  0.00  0.00    -0.286 OA
ATOM     25  O   LIG d   1      13.913   6.211  -3.297  0.00  0.00    -0.874 OA
ATOM     26  O   LIG d   1      11.048   4.857  -6.807  0.00  0.00    -0.287 OA
ATOM     27 CL   LIG d   1       7.395   0.752  -3.781  0.00  0.00    -0.083 Cl
ATOM     28  H   LIG d   1      10.975   4.373  -1.940  0.00  0.00     0.028 H 
ATOM     29  H   LIG d   1       9.320   4.721  -1.376  0.00  0.00     0.028 H 
ATOM     30  H   LIG d   1       7.030   0.345  -6.573  0.00  0.00     0.063 H 
ATOM     31  H   LIG d   1       7.983   1.475  -8.535  0.00  0.00     0.066 H 
ENDROOT
BRANCH   1  32
ATOM     32  N   LIG d   1      10.562   8.402  -0.724  0.00  0.00     0.239 N 
ATOM     33  H   LIG d   1      11.135   8.763  -1.472  0.00  0.00     0.203 HD
BRANCH  32  34
ATOM     34  C   LIG d   1       9.173   8.843  -0.913  0.00  0.00    -0.043 C 
ATOM     35  H   LIG d   1       8.564   8.491  -0.081  0.00  0.00     0.078 H 
ATOM     36  H   LIG d   1       9.140   9.931  -0.954  0.00  0.00     0.078 H 
ATOM     37  H   LIG d   1       8.786   8.433  -1.846  0.00  0.00     0.078 H 
ENDBRANCH  32  34
BRANCH  32  38
ATOM     38  C   LIG d   1      11.064   8.905   0.562  0.00  0.00    -0.043 C 
ATOM     39  H   LIG d   1      10.354   9.622   0.974  0.00  0.00     0.078 H 
ATOM     40  H   LIG d   1      11.183   8.072   1.256  0.00  0.00     0.078 H 
ATOM     41  H   LIG d   1      12.026   9.393   0.410  0.00  0.00     0.078 H 
ENDBRANCH  32  38
ENDBRANCH   1  32
BRANCH  22  42
ATOM     42  C   LIG d   1      14.408   6.003  -0.601  0.00  0.00     0.244 C 
ATOM     43  O   LIG d   1      15.030   6.866  -0.013  0.00  0.00    -0.270 OA
ATOM     44  N   LIG d   1      14.949   4.779  -0.771  0.00  0.00    -0.325 N 
ATOM     45  H   LIG d   1      14.424   4.068  -1.169  0.00  0.00     0.145 HD
ATOM     46  H   LIG d   1      15.864   4.612  -0.496  0.00  0.00     0.145 HD
ENDBRANCH  22  42
BRANCH  20  47
ATOM     47  O   LIG d   1      11.525   8.105  -3.383  0.00  0.00    -0.381 OA
ATOM     48  H   LIG d   1      12.144   8.359  -4.081  0.00  0.00     0.211 HD
ENDBRANCH  20  47
BRANCH   8  49
ATOM     49  O   LIG d   1      10.573   2.405  -3.227  0.00  0.00    -0.387 OA
ATOM     50  H   LIG d   1      10.575   2.023  -2.339  0.00  0.00     0.210 HD
ENDBRANCH   8  49
BRANCH  14  51
ATOM     51  O   LIG d   1       9.661   3.485  -8.457  0.00  0.00    -0.506 OA
ATOM     52  H   LIG d   1       9.893   2.889  -9.184  0.00  0.00     0.292 HD
ENDBRANCH  14  51
TORSDOF 7
ENDMDL
MODEL 7
REMARK VINA RESULT:      -5.9      3.492      6.488
REMARK  7 active torsions:
REMARK  status: ('A' for Active; 'I' for Inactive)
REMARK    1  A    between atoms: C_1  and  N_2 
REMARK    2  A    between atoms: N_2  and  C_3 
REMARK    3  A    between atoms: N_2  and  C_4 
REMARK    4  A    between atoms: C_11  and  O_36 
REMARK    5  A    between atoms: C_17  and  O_34 
REMARK    6  A    between atoms: C_23  and  O_32 
REMARK    7  A    between atoms: C_25  and  C_28 
REMARK       I    between atoms: C_28  and  N_30 
ROOT
ATOM      1  C   LIG d   1       6.326  -5.764  -6.555  0.00  0.00     0.049 C 
ATOM      2  H   LIG d   1       6.481  -6.191  -7.546  0.00  0.00     0.094 H 
ATOM      3  C   LIG d   1       5.567  -4.457  -6.689  0.00  0.00     0.045 C 
ATOM      4  H   LIG d   1       4.543  -4.699  -6.975  0.00  0.00     0.040 H 
ATOM      5  C   LIG d   1       6.164  -3.596  -7.803  0.00  0.00    -0.032 C 
ATOM      6  C   LIG d   1       5.185  -2.463  -8.122  0.00  0.00     0.018 C 
ATOM      7  H   LIG d   1       4.279  -2.881  -8.559  0.00  0.00     0.038 H 
ATOM      8  C   LIG d   1       5.833  -1.506  -9.121  0.00  0.00     0.089 C 
ATOM      9  H   LIG d   1       5.977  -2.021 -10.071  0.00  0.00     0.065 H 
ATOM     10  C   LIG d   1       4.960  -0.300  -9.339  0.00  0.00     0.014 A 
ATOM     11  C   LIG d   1       4.878   0.282 -10.587  0.00  0.00     0.048 A 
ATOM     12  C   LIG d   1       4.086   1.402 -10.785  0.00  0.00    -0.040 A 
ATOM     13  C   LIG d   1       3.374   1.950  -9.736  0.00  0.00    -0.018 A 
ATOM     14  C   LIG d   1       3.440   1.375  -8.475  0.00  0.00     0.128 A 
ATOM     15  C   LIG d   1       4.231   0.237  -8.276  0.00  0.00     0.070 A 
ATOM     16  C   LIG d   1       4.280  -0.419  -6.954  0.00  0.00     0.193 C 
ATOM     17  C   LIG d   1       4.832  -1.724  -6.858  0.00  0.00    -0.003 C 
ATOM     18  C   LIG d   1       4.996  -2.263  -5.646  0.00  0.00    -0.089 C 
ATOM     19  O   LIG d   1       4.679  -1.507  -4.574  0.00  0.00    -0.874 OA
ATOM     20  C   LIG d   1       5.507  -3.656  -5.408  0.00  0.00     0.098 C 
ATOM     21  C   LIG d   1       6.822  -3.593  -4.696  0.00  0.00    -0.080 C 
ATOM     22  C   LIG d   1       7.837  -4.487  -4.927  0.00  0.00     0.076 C 
ATOM     23  C   LIG d   1       7.659  -5.549  -5.896  0.00  0.00     0.215 C 
ATOM     24  O   LIG d   1       8.605  -6.246  -6.195  0.00  0.00    -0.286 OA
ATOM     25  O   LIG d   1       7.017  -2.622  -3.791  0.00  0.00    -0.874 OA
ATOM     26  O   LIG d   1       3.864   0.155  -5.963  0.00  0.00    -0.287 OA
ATOM     27 CL   LIG d   1       5.770  -0.393 -11.915  0.00  0.00    -0.083 Cl
ATOM     28  H   LIG d   1       7.114  -3.176  -7.471  0.00  0.00     0.028 H 
ATOM     29  H   LIG d   1       6.322  -4.206  -8.692  0.00  0.00     0.028 H 
ATOM     30  H   LIG d   1       4.026   1.851 -11.765  0.00  0.00     0.063 H 
ATOM     31  H   LIG d   1       2.765   2.828  -9.897  0.00  0.00     0.066 H 
ENDROOT
BRANCH   1  32
ATOM     32  N   LIG d   1       5.533  -6.699  -5.746  0.00  0.00     0.239 N 
ATOM     33  H   LIG d   1       5.081  -6.197  -4.996  0.00  0.00     0.203 HD
BRANCH  32  34
ATOM     34  C   LIG d   1       4.515  -7.338  -6.592  0.00  0.00    -0.043 C 
ATOM     35  H   LIG d   1       4.225  -6.654  -7.389  0.00  0.00     0.078 H 
ATOM     36  H   LIG d   1       4.924  -8.250  -7.025  0.00  0.00     0.078 H 
ATOM     37  H   LIG d   1       3.642  -7.583  -5.987  0.00  0.00     0.078 H 
ENDBRANCH  32  34
BRANCH  32  38
ATOM     38  C   LIG d   1       6.417  -7.729  -5.182  0.00  0.00    -0.043 C 
ATOM     39  H   LIG d   1       6.353  -7.706  -4.094  0.00  0.00     0.078 H 
ATOM     40  H   LIG d   1       6.109  -8.710  -5.544  0.00  0.00     0.078 H 
ATOM     41  H   LIG d   1       7.444  -7.533  -5.490  0.00  0.00     0.078 H 
ENDBRANCH  32  38
ENDBRANCH   1  32
BRANCH  22  42
ATOM     42  C   LIG d   1       9.097  -4.377  -4.175  0.00  0.00     0.244 C 
ATOM     43  O   LIG d   1       9.235  -4.981  -3.128  0.00  0.00    -0.270 OA
ATOM     44  N   LIG d   1      10.099  -3.608  -4.647  0.00  0.00    -0.325 N 
ATOM     45  H   LIG d   1      10.020  -3.190  -5.519  0.00  0.00     0.145 HD
ATOM     46  H   LIG d   1      10.898  -3.472  -4.115  0.00  0.00     0.145 HD
ENDBRANCH  22  42
BRANCH  20  47
ATOM     47  O   LIG d   1       4.587  -4.309  -4.530  0.00  0.00    -0.381 OA
ATOM     48  H   LIG d   1       4.020  -4.959  -4.967  0.00  0.00     0.211 HD
ENDBRANCH  20  47
BRANCH   8  49
ATOM     49  O   LIG d   1       7.102  -1.084  -8.616  0.00  0.00    -0.387 OA
ATOM     50  H   LIG d   1       7.328  -1.462  -7.755  0.00  0.00     0.210 HD
ENDBRANCH   8  49
BRANCH  14  51
ATOM     51  O   LIG d   1       2.742   1.910  -7.443  0.00  0.00    -0.506 OA
ATOM     52  H   LIG d   1       3.149   2.701  -7.062  0.00  0.00     0.292 HD
ENDBRANCH  14  51
TORSDOF 7
ENDMDL
MODEL 8
REMARK VINA RESULT:      -5.8      9.835     13.931
REMARK  7 active torsions:
REMARK  status: ('A' for Active; 'I' for Inactive)
REMARK    1  A    between atoms: C_1  and  N_2 
REMARK    2  A    between atoms: N_2  and  C_3 
REMARK    3  A    between atoms: N_2  and  C_4 
REMARK    4  A    between atoms: C_11  and  O_36 
REMARK    5  A    between atoms: C_17  and  O_34 
REMARK    6  A    between atoms: C_23  and  O_32 
REMARK    7  A    between atoms: C_25  and  C_28 
REMARK       I    between atoms: C_28  and  N_30 
ROOT
ATOM      1  C   LIG d   1      12.148   3.551  -3.955  0.00  0.00     0.049 C 
ATOM      2  H   LIG d   1      11.983   3.487  -5.030  0.00  0.00     0.094 H 
ATOM      3  C   LIG d   1      11.449   4.785  -3.416  0.00  0.00     0.045 C 
ATOM      4  H   LIG d   1      10.376   4.598  -3.452  0.00  0.00     0.040 H 
ATOM      5  C   LIG d   1      11.733   5.999  -4.303  0.00  0.00    -0.032 C 
ATOM      6  C   LIG d   1      10.761   7.119  -3.924  0.00  0.00     0.018 C 
ATOM      7  H   LIG d   1       9.746   6.821  -4.188  0.00  0.00     0.038 H 
ATOM      8  C   LIG d   1      11.131   8.387  -4.690  0.00  0.00     0.089 C 
ATOM      9  H   LIG d   1      10.963   8.225  -5.755  0.00  0.00     0.065 H 
ATOM     10  C   LIG d   1      10.293   9.547  -4.227  0.00  0.00     0.014 A 
ATOM     11  C   LIG d   1       9.875  10.506  -5.127  0.00  0.00     0.048 A 
ATOM     12  C   LIG d   1       9.117  11.583  -4.698  0.00  0.00    -0.040 A 
ATOM     13  C   LIG d   1       8.773  11.712  -3.366  0.00  0.00    -0.018 A 
ATOM     14  C   LIG d   1       9.181  10.755  -2.448  0.00  0.00     0.128 A 
ATOM     15  C   LIG d   1       9.938   9.660  -2.882  0.00  0.00     0.070 A 
ATOM     16  C   LIG d   1      10.342   8.606  -1.930  0.00  0.00     0.193 C 
ATOM     17  C   LIG d   1      10.833   7.375  -2.442  0.00  0.00    -0.003 C 
ATOM     18  C   LIG d   1      11.320   6.474  -1.583  0.00  0.00    -0.089 C 
ATOM     19  O   LIG d   1      11.372   6.812  -0.278  0.00  0.00    -0.874 OA
ATOM     20  C   LIG d   1      11.809   5.111  -1.984  0.00  0.00     0.098 C 
ATOM     21  C   LIG d   1      13.278   5.004  -1.712  0.00  0.00    -0.080 C 
ATOM     22  C   LIG d   1      14.134   4.295  -2.516  0.00  0.00     0.076 C 
ATOM     23  C   LIG d   1      13.625   3.607  -3.685  0.00  0.00     0.215 C 
ATOM     24  O   LIG d   1      14.406   3.100  -4.464  0.00  0.00    -0.286 OA
ATOM     25  O   LIG d   1      13.779   5.629  -0.636  0.00  0.00    -0.874 OA
ATOM     26  O   LIG d   1      10.266   8.795  -0.729  0.00  0.00    -0.287 OA
ATOM     27 CL   LIG d   1      10.300  10.360  -6.804  0.00  0.00    -0.083 Cl
ATOM     28  H   LIG d   1      12.758   6.334  -4.145  0.00  0.00     0.028 H 
ATOM     29  H   LIG d   1      11.591   5.728  -5.349  0.00  0.00     0.028 H 
ATOM     30  H   LIG d   1       8.792  12.328  -5.410  0.00  0.00     0.063 H 
ATOM     31  H   LIG d   1       8.189  12.559  -3.039  0.00  0.00     0.066 H 
ENDROOT
BRANCH   1  32
ATOM     32  N   LIG d   1      11.584   2.359  -3.308  0.00  0.00     0.239 N 
ATOM     33  H   LIG d   1      11.650   2.456  -2.306  0.00  0.00     0.203 HD
BRANCH  32  34
ATOM     34  C   LIG d   1      10.175   2.211  -3.695  0.00  0.00    -0.043 C 
ATOM     35  H   LIG d   1       9.933   1.152  -3.787  0.00  0.00     0.078 H 
ATOM     36  H   LIG d   1       9.540   2.665  -2.935  0.00  0.00     0.078 H 
ATOM     37  H   LIG d   1      10.007   2.707  -4.651  0.00  0.00     0.078 H 
ENDBRANCH  32  34
BRANCH  32  38
ATOM     38  C   LIG d   1      12.336   1.170  -3.733  0.00  0.00    -0.043 C 
ATOM     39  H   LIG d   1      13.339   1.466  -4.044  0.00  0.00     0.078 H 
ATOM     40  H   LIG d   1      12.405   0.467  -2.903  0.00  0.00     0.078 H 
ATOM     41  H   LIG d   1      11.823   0.696  -4.569  0.00  0.00     0.078 H 
ENDBRANCH  32  38
ENDBRANCH   1  32
BRANCH  22  42
ATOM     42  C   LIG d   1      15.564   4.216  -2.177  0.00  0.00     0.244 C 
ATOM     43  O   LIG d   1      16.362   4.949  -2.729  0.00  0.00    -0.270 OA
ATOM     44  N   LIG d   1      15.989   3.331  -1.252  0.00  0.00    -0.325 N 
ATOM     45  H   LIG d   1      15.346   2.803  -0.755  0.00  0.00     0.145 HD
ATOM     46  H   LIG d   1      16.938   3.223  -1.085  0.00  0.00     0.145 HD
ENDBRANCH  22  42
BRANCH  20  47
ATOM     47  O   LIG d   1      11.159   4.155  -1.144  0.00  0.00    -0.381 OA
ATOM     48  H   LIG d   1      10.589   4.548  -0.469  0.00  0.00     0.211 HD
ENDBRANCH  20  47
BRANCH   8  49
ATOM     49  O   LIG d   1      12.511   8.684  -4.471  0.00  0.00    -0.387 OA
ATOM     50  H   LIG d   1      13.119   8.085  -4.925  0.00  0.00     0.210 HD
ENDBRANCH   8  49
BRANCH  14  51
ATOM     51  O   LIG d   1       8.846  10.879  -1.140  0.00  0.00    -0.506 OA
ATOM     52  H   LIG d   1       9.571  10.690  -0.528  0.00  0.00     0.292 HD
ENDBRANCH  14  51
TORSDOF 7
ENDMDL
MODEL 9
REMARK VINA RESULT:      -5.7      9.008     12.368
REMARK  7 active torsions:
REMARK  status: ('A' for Active; 'I' for Inactive)
REMARK    1  A    between atoms: C_1  and  N_2 
REMARK    2  A    between atoms: N_2  and  C_3 
REMARK    3  A    between atoms: N_2  and  C_4 
REMARK    4  A    between atoms: C_11  and  O_36 
REMARK    5  A    between atoms: C_17  and  O_34 
REMARK    6  A    between atoms: C_23  and  O_32 
REMARK    7  A    between atoms: C_25  and  C_28 
REMARK       I    between atoms: C_28  and  N_30 
ROOT
ATOM      1  C   LIG d   1      12.733   8.949  -2.654  0.00  0.00     0.049 C 
ATOM      2  H   LIG d   1      13.235   9.523  -3.432  0.00  0.00     0.094 H 
ATOM      3  C   LIG d   1      12.173   7.675  -3.256  0.00  0.00     0.045 C 
ATOM      4  H   LIG d   1      13.016   7.022  -3.485  0.00  0.00     0.040 H 
ATOM      5  C   LIG d   1      11.449   7.969  -4.570  0.00  0.00    -0.032 C 
ATOM      6  C   LIG d   1      11.198   6.645  -5.297  0.00  0.00     0.018 C 
ATOM      7  H   LIG d   1      12.151   6.215  -5.603  0.00  0.00     0.038 H 
ATOM      8  C   LIG d   1      10.341   6.906  -6.534  0.00  0.00     0.089 C 
ATOM      9  H   LIG d   1      10.908   7.507  -7.245  0.00  0.00     0.065 H 
ATOM     10  C   LIG d   1       9.947   5.608  -7.186  0.00  0.00     0.014 A 
ATOM     11  C   LIG d   1       9.861   5.519  -8.560  0.00  0.00     0.048 A 
ATOM     12  C   LIG d   1       9.483   4.328  -9.160  0.00  0.00    -0.040 A 
ATOM     13  C   LIG d   1       9.185   3.219  -8.391  0.00  0.00    -0.018 A 
ATOM     14  C   LIG d   1       9.272   3.290  -7.008  0.00  0.00     0.128 A 
ATOM     15  C   LIG d   1       9.664   4.489  -6.401  0.00  0.00     0.070 A 
ATOM     16  C   LIG d   1       9.808   4.572  -4.933  0.00  0.00     0.193 C 
ATOM     17  C   LIG d   1      10.493   5.685  -4.376  0.00  0.00    -0.003 C 
ATOM     18  C   LIG d   1      10.508   5.827  -3.047  0.00  0.00    -0.089 C 
ATOM     19  O   LIG d   1       9.818   4.932  -2.311  0.00  0.00    -0.874 OA
ATOM     20  C   LIG d   1      11.249   6.920  -2.328  0.00  0.00     0.098 C 
ATOM     21  C   LIG d   1      10.271   7.810  -1.625  0.00  0.00    -0.080 C 
ATOM     22  C   LIG d   1      10.456   9.163  -1.496  0.00  0.00     0.076 C 
ATOM     23  C   LIG d   1      11.640   9.787  -2.052  0.00  0.00     0.215 C 
ATOM     24  O   LIG d   1      11.728  10.997  -2.056  0.00  0.00    -0.286 OA
ATOM     25  O   LIG d   1       9.166   7.261  -1.099  0.00  0.00    -0.874 OA
ATOM     26  O   LIG d   1       9.337   3.708  -4.216  0.00  0.00    -0.287 OA
ATOM     27 CL   LIG d   1      10.228   6.904  -9.540  0.00  0.00    -0.083 Cl
ATOM     28  H   LIG d   1      10.497   8.459  -4.361  0.00  0.00     0.028 H 
ATOM     29  H   LIG d   1      12.068   8.617  -5.191  0.00  0.00     0.028 H 
ATOM     30  H   LIG d   1       9.419   4.266 -10.236  0.00  0.00     0.063 H 
ATOM     31  H   LIG d   1       8.884   2.298  -8.867  0.00  0.00     0.066 H 
ENDROOT
BRANCH   1  32
ATOM     32  N   LIG d   1      13.704   8.601  -1.608  0.00  0.00     0.239 N 
ATOM     33  H   LIG d   1      13.280   7.962  -0.953  0.00  0.00     0.203 HD
BRANCH  32  34
ATOM     34  C   LIG d   1      14.879   7.967  -2.222  0.00  0.00    -0.043 C 
ATOM     35  H   LIG d   1      15.131   7.060  -1.672  0.00  0.00     0.078 H 
ATOM     36  H   LIG d   1      14.654   7.714  -3.258  0.00  0.00     0.078 H 
ATOM     37  H   LIG d   1      15.722   8.657  -2.192  0.00  0.00     0.078 H 
ENDBRANCH  32  34
BRANCH  32  38
ATOM     38  C   LIG d   1      14.120   9.820  -0.901  0.00  0.00    -0.043 C 
ATOM     39  H   LIG d   1      13.556   9.912   0.028  0.00  0.00     0.078 H 
ATOM     40  H   LIG d   1      15.185   9.764  -0.676  0.00  0.00     0.078 H 
ATOM     41  H   LIG d   1      13.926  10.688  -1.530  0.00  0.00     0.078 H 
ENDBRANCH  32  38
ENDBRANCH   1  32
BRANCH  22  42
ATOM     42  C   LIG d   1       9.464   9.974  -0.775  0.00  0.00     0.244 C 
ATOM     43  O   LIG d   1       9.685  10.334   0.366  0.00  0.00    -0.270 OA
ATOM     44  N   LIG d   1       8.308  10.319  -1.378  0.00  0.00    -0.325 N 
ATOM     45  H   LIG d   1       8.165  10.101  -2.312  0.00  0.00     0.145 HD
ATOM     46  H   LIG d   1       7.621  10.785  -0.878  0.00  0.00     0.145 HD
ENDBRANCH  22  42
BRANCH  20  47
ATOM     47  O   LIG d   1      12.053   6.304  -1.320  0.00  0.00    -0.381 OA
ATOM     48  H   LIG d   1      12.849   6.803  -1.092  0.00  0.00     0.211 HD
ENDBRANCH  20  47
BRANCH   8  49
ATOM     49  O   LIG d   1       9.163   7.617  -6.151  0.00  0.00    -0.387 OA
ATOM     50  H   LIG d   1       8.829   8.219  -6.830  0.00  0.00     0.210 HD
ENDBRANCH   8  49
BRANCH  14  51
ATOM     51  O   LIG d   1       8.980   2.204  -6.250  0.00  0.00    -0.506 OA
ATOM     52  H   LIG d   1       9.733   1.858  -5.752  0.00  0.00     0.292 HD
ENDBRANCH  14  51
TORSDOF 7
ENDMDL
MODEL 10
REMARK VINA RESULT:      -5.7     10.419     14.418
REMARK  7 active torsions:
REMARK  status: ('A' for Active; 'I' for Inactive)
REMARK    1  A    between atoms: C_1  and  N_2 
REMARK    2  A    between atoms: N_2  and  C_3 
REMARK    3  A    between atoms: N_2  and  C_4 
REMARK    4  A    between atoms: C_11  and  O_36 
REMARK    5  A    between atoms: C_17  and  O_34 
REMARK    6  A    between atoms: C_23  and  O_32 
REMARK    7  A    between atoms: C_25  and  C_28 
REMARK       I    between atoms: C_28  and  N_30 
ROOT
ATOM      1  C   LIG d   1      13.741  10.750  -1.647  0.00  0.00     0.049 C 
ATOM      2  H   LIG d   1      13.799  11.142  -2.662  0.00  0.00     0.094 H 
ATOM      3  C   LIG d   1      13.338   9.288  -1.699  0.00  0.00     0.045 C 
ATOM      4  H   LIG d   1      14.186   8.727  -2.091  0.00  0.00     0.040 H 
ATOM      5  C   LIG d   1      12.166   9.084  -2.660  0.00  0.00    -0.032 C 
ATOM      6  C   LIG d   1      12.014   7.585  -2.932  0.00  0.00     0.018 C 
ATOM      7  H   LIG d   1      12.883   7.228  -3.484  0.00  0.00     0.038 H 
ATOM      8  C   LIG d   1      10.756   7.351  -3.765  0.00  0.00     0.089 C 
ATOM      9  H   LIG d   1      10.889   7.797  -4.751  0.00  0.00     0.065 H 
ATOM     10  C   LIG d   1      10.492   5.877  -3.921  0.00  0.00     0.014 A 
ATOM     11  C   LIG d   1       9.974   5.385  -5.101  0.00  0.00     0.048 A 
ATOM     12  C   LIG d   1       9.716   4.030  -5.239  0.00  0.00    -0.040 A 
ATOM     13  C   LIG d   1       9.971   3.159  -4.197  0.00  0.00    -0.018 A 
ATOM     14  C   LIG d   1      10.497   3.636  -3.005  0.00  0.00     0.128 A 
ATOM     15  C   LIG d   1      10.768   5.003  -2.868  0.00  0.00     0.070 A 
ATOM     16  C   LIG d   1      11.371   5.525  -1.626  0.00  0.00     0.193 C 
ATOM     17  C   LIG d   1      11.913   6.839  -1.628  0.00  0.00    -0.003 C 
ATOM     18  C   LIG d   1      12.338   7.358  -0.472  0.00  0.00    -0.089 C 
ATOM     19  O   LIG d   1      12.174   6.622   0.646  0.00  0.00    -0.874 OA
ATOM     20  C   LIG d   1      12.990   8.707  -0.347  0.00  0.00     0.098 C 
ATOM     21  C   LIG d   1      12.120   9.610   0.472  0.00  0.00    -0.080 C 
ATOM     22  C   LIG d   1      12.005  10.955   0.227  0.00  0.00     0.076 C 
ATOM     23  C   LIG d   1      12.745  11.557  -0.862  0.00  0.00     0.215 C 
ATOM     24  O   LIG d   1      12.532  12.714  -1.158  0.00  0.00    -0.286 OA
ATOM     25  O   LIG d   1      11.424   9.081   1.489  0.00  0.00    -0.874 OA
ATOM     26  O   LIG d   1      11.393   4.846  -0.615  0.00  0.00    -0.287 OA
ATOM     27 CL   LIG d   1       9.645   6.467  -6.418  0.00  0.00    -0.083 Cl
ATOM     28  H   LIG d   1      11.252   9.469  -2.209  0.00  0.00     0.028 H 
ATOM     29  H   LIG d   1      12.365   9.608  -3.595  0.00  0.00     0.028 H 
ATOM     30  H   LIG d   1       9.313   3.652  -6.166  0.00  0.00     0.063 H 
ATOM     31  H   LIG d   1       9.760   2.106  -4.311  0.00  0.00     0.066 H 
ENDROOT
BRANCH   1  32
ATOM     32  N   LIG d   1      15.061  10.862  -1.010  0.00  0.00     0.239 N 
ATOM     33  H   LIG d   1      15.048  10.386  -0.121  0.00  0.00     0.203 HD
BRANCH  32  34
ATOM     34  C   LIG d   1      16.077  10.252  -1.879  0.00  0.00    -0.043 C 
ATOM     35  H   LIG d   1      15.613   9.480  -2.493  0.00  0.00     0.078 H 
ATOM     36  H   LIG d   1      16.511  11.016  -2.522  0.00  0.00     0.078 H 
ATOM     37  H   LIG d   1      16.859   9.807  -1.265  0.00  0.00     0.078 H 
ENDBRANCH  32  34
BRANCH  32  38
ATOM     38  C   LIG d   1      15.384  12.280  -0.802  0.00  0.00    -0.043 C 
ATOM     39  H   LIG d   1      14.464  12.865  -0.792  0.00  0.00     0.078 H 
ATOM     40  H   LIG d   1      15.900  12.399   0.152  0.00  0.00     0.078 H 
ATOM     41  H   LIG d   1      16.027  12.629  -1.609  0.00  0.00     0.078 H 
ENDBRANCH  32  38
ENDBRANCH   1  32
BRANCH  22  42
ATOM     42  C   LIG d   1      11.147  11.786   1.085  0.00  0.00     0.244 C 
ATOM     43  O   LIG d   1      11.611  12.320   2.075  0.00  0.00    -0.270 OA
ATOM     44  N   LIG d   1       9.846  11.956   0.775  0.00  0.00    -0.325 N 
ATOM     45  H   LIG d   1       9.495  11.598  -0.054  0.00  0.00     0.145 HD
ATOM     46  H   LIG d   1       9.262  12.438   1.381  0.00  0.00     0.145 HD
ENDBRANCH  22  42
BRANCH  20  47
ATOM     47  O   LIG d   1      14.209   8.531   0.378  0.00  0.00    -0.381 OA
ATOM     48  H   LIG d   1      14.351   7.628   0.695  0.00  0.00     0.211 HD
ENDBRANCH  20  47
BRANCH   8  49
ATOM     49  O   LIG d   1       9.640   7.964  -3.118  0.00  0.00    -0.387 OA
ATOM     50  H   LIG d   1       9.188   8.628  -3.656  0.00  0.00     0.210 HD
ENDBRANCH   8  49
BRANCH  14  51
ATOM     51  O   LIG d   1      10.748   2.784  -1.981  0.00  0.00    -0.506 OA
ATOM     52  H   LIG d   1       9.955   2.476  -1.522  0.00  0.00     0.292 HD
ENDBRANCH  14  51
TORSDOF 7
ENDMDL
