MODEL 1
REMARK VINA RESULT:      -5.7      0.000      0.000
REMARK  8 active torsions:
REMARK  status: ('A' for Active; 'I' for Inactive)
REMARK    1  A    between atoms: C_1  and  N_2 
REMARK    2  A    between atoms: N_5  and  C_8 
REMARK    3  A    between atoms: C_10  and  C_20 
REMARK    4  A    between atoms: C_13  and  C_18 
REMARK    5  A    between atoms: C_15  and  O_17 
REMARK    6  A    between atoms: C_18  and  O_19 
REMARK    7  A    between atoms: C_20  and  N_21 
REMARK    8  A    between atoms: N_21  and  C_22 
ROOT
ATOM      1  C   LIG d   1       2.443  -0.524  -8.311  0.00  0.00     0.070 C 
ATOM      2  H   LIG d   1       1.497  -1.067  -8.164  0.00  0.00     0.052 H 
ATOM      3  C   LIG d   1       2.904   0.279  -7.075  0.00  0.00     0.117 C 
ATOM      4  H   LIG d   1       2.081   0.637  -6.440  0.00  0.00     0.067 H 
ATOM      5  O   LIG d   1       3.612   1.416  -7.616  0.00  0.00    -0.362 OA
ATOM      6  C   LIG d   1       2.837   1.838  -8.759  0.00  0.00     0.110 C 
ATOM      7  H   LIG d   1       2.001   2.466  -8.415  0.00  0.00     0.065 H 
ATOM      8  C   LIG d   1       2.397   0.525  -9.445  0.00  0.00     0.102 C 
ATOM      9  H   LIG d   1       1.438   0.585  -9.979  0.00  0.00     0.064 H 
ENDROOT
BRANCH   3  10
ATOM     10  C   LIG d   1       3.839  -0.566  -6.208  0.00  0.00    -0.005 C 
ATOM     11  H   LIG d   1       4.042  -1.523  -6.713  0.00  0.00     0.084 H 
ATOM     12  H   LIG d   1       4.784  -0.026  -6.053  0.00  0.00     0.084 H 
BRANCH  10  13
ATOM     13  N   LIG d   1       3.203  -0.824  -4.909  0.00  0.00     0.231 N 
ATOM     14  H   LIG d   1       2.301  -0.203  -4.814  0.00  0.00     0.202 HD
ATOM     15  H   LIG d   1       2.926  -1.886  -4.841  0.00  0.00     0.202 HD
BRANCH  13  16
ATOM     16  C   LIG d   1       4.116  -0.503  -3.803  0.00  0.00    -0.018 C 
ATOM     17  C   LIG d   1       3.542   0.659  -2.986  0.00  0.00     0.014 C 
ATOM     18  C   LIG d   1       4.535   1.038  -1.886  0.00  0.00     0.053 C 
ATOM     19  H   LIG d   1       3.373   1.522  -3.645  0.00  0.00     0.034 H 
ATOM     20  H   LIG d   1       2.588   0.351  -2.532  0.00  0.00     0.034 H 
ATOM     21  O   LIG d   1       5.790   1.381  -2.477  0.00  0.00    -0.379 OA
ATOM     22  H   LIG d   1       4.673   0.185  -1.205  0.00  0.00     0.056 H 
ATOM     23  H   LIG d   1       4.148   1.900  -1.322  0.00  0.00     0.056 H 
ATOM     24  C   LIG d   1       6.398   0.318  -3.215  0.00  0.00     0.053 C 
ATOM     25  C   LIG d   1       5.479  -0.090  -4.369  0.00  0.00     0.014 C 
ATOM     26  H   LIG d   1       6.559  -0.544  -2.551  0.00  0.00     0.056 H 
ATOM     27  H   LIG d   1       7.364   0.656  -3.617  0.00  0.00     0.056 H 
ATOM     28  H   LIG d   1       5.923  -0.938  -4.912  0.00  0.00     0.034 H 
ATOM     29  H   LIG d   1       5.349   0.758  -5.055  0.00  0.00     0.034 H 
ATOM     30  H   LIG d   1       4.206  -1.409  -3.187  0.00  0.00     0.085 H 
ENDBRANCH  13  16
ENDBRANCH  10  13
ENDBRANCH   3  10
BRANCH   1  31
ATOM     31  N   LIG d   1       3.412  -1.583  -8.627  0.00  0.00    -0.284 N 
ATOM     32  C   LIG d   1       2.790  -2.640  -9.437  0.00  0.00     0.040 C 
ATOM     33  C   LIG d   1       3.807  -3.759  -9.677  0.00  0.00    -0.019 C 
ATOM     34  H   LIG d   1       2.469  -2.223 -10.403  0.00  0.00     0.048 H 
ATOM     35  H   LIG d   1       1.918  -3.045  -8.904  0.00  0.00     0.048 H 
ATOM     36  N   LIG d   1       4.988  -3.206 -10.354  0.00  0.00     0.235 N 
ATOM     37  H   LIG d   1       3.353  -4.538 -10.307  0.00  0.00     0.083 H 
ATOM     38  H   LIG d   1       4.107  -4.196  -8.713  0.00  0.00     0.083 H 
ATOM     39  C   LIG d   1       5.609  -2.149  -9.544  0.00  0.00    -0.019 C 
ATOM     40  H   LIG d   1       4.657  -2.758 -11.303  0.00  0.00     0.203 HD
ATOM     41  C   LIG d   1       4.593  -1.030  -9.304  0.00  0.00     0.040 C 
ATOM     42  H   LIG d   1       5.930  -2.568  -8.579  0.00  0.00     0.083 H 
ATOM     43  H   LIG d   1       6.482  -1.745 -10.077  0.00  0.00     0.083 H 
ATOM     44  H   LIG d   1       4.293  -0.593 -10.268  0.00  0.00     0.048 H 
ATOM     45  H   LIG d   1       5.046  -0.251  -8.674  0.00  0.00     0.048 H 
BRANCH  36  46
ATOM     46  C   LIG d   1       5.956  -4.265 -10.670  0.00  0.00    -0.043 C 
ATOM     47  H   LIG d   1       5.471  -5.248 -10.570  0.00  0.00     0.078 H 
ATOM     48  H   LIG d   1       6.807  -4.203  -9.975  0.00  0.00     0.078 H 
ATOM     49  H   LIG d   1       6.317  -4.137 -11.701  0.00  0.00     0.078 H 
ENDBRANCH  36  46
ENDBRANCH   1  31
BRANCH   8  50
ATOM     50  O   LIG d   1       3.308   0.173 -10.489  0.00  0.00    -0.388 OA
ATOM     51  H   LIG d   1       4.390   0.298 -10.340  0.00  0.00     0.210 HD
ENDBRANCH   8  50
BRANCH   6  52
ATOM     52  C   LIG d   1       3.696   2.673  -9.710  0.00  0.00     0.073 C 
ATOM     53  H   LIG d   1       3.479   2.385 -10.749  0.00  0.00     0.058 H 
ATOM     54  H   LIG d   1       3.468   3.740  -9.569  0.00  0.00     0.058 H 
BRANCH  52  55
ATOM     55  O   LIG d   1       5.079   2.441  -9.430  0.00  0.00    -0.392 OA
ATOM     56  H   LIG d   1       5.845   3.107  -9.856  0.00  0.00     0.209 HD
ENDBRANCH  52  55
ENDBRANCH   6  52
TORSDOF 8
ENDMDL
MODEL 2
REMARK VINA RESULT:      -5.5      2.117      2.807
REMARK  8 active torsions:
REMARK  status: ('A' for Active; 'I' for Inactive)
REMARK    1  A    between atoms: C_1  and  N_2 
REMARK    2  A    between atoms: N_5  and  C_8 
REMARK    3  A    between atoms: C_10  and  C_20 
REMARK    4  A    between atoms: C_13  and  C_18 
REMARK    5  A    between atoms: C_15  and  O_17 
REMARK    6  A    between atoms: C_18  and  O_19 
REMARK    7  A    between atoms: C_20  and  N_21 
REMARK    8  A    between atoms: N_21  and  C_22 
ROOT
ATOM      1  C   LIG d   1       3.586  -0.864  -7.585  0.00  0.00     0.070 C 
ATOM      2  H   LIG d   1       3.118  -1.851  -7.459  0.00  0.00     0.052 H 
ATOM      3  C   LIG d   1       2.690   0.316  -7.147  0.00  0.00     0.117 C 
ATOM      4  H   LIG d   1       1.612   0.127  -7.257  0.00  0.00     0.067 H 
ATOM      5  O   LIG d   1       3.069   1.409  -8.013  0.00  0.00    -0.362 OA
ATOM      6  C   LIG d   1       3.248   0.816  -9.318  0.00  0.00     0.110 C 
ATOM      7  H   LIG d   1       2.266   0.713  -9.804  0.00  0.00     0.065 H 
ATOM      8  C   LIG d   1       3.961  -0.528  -9.047  0.00  0.00     0.102 C 
ATOM      9  H   LIG d   1       3.736  -1.321  -9.774  0.00  0.00     0.064 H 
ENDROOT
BRANCH   3  10
ATOM     10  C   LIG d   1       2.962   0.677  -5.686  0.00  0.00    -0.005 C 
ATOM     11  H   LIG d   1       4.019   0.480  -5.450  0.00  0.00     0.084 H 
ATOM     12  H   LIG d   1       2.742   1.742  -5.523  0.00  0.00     0.084 H 
BRANCH  10  13
ATOM     13  N   LIG d   1       2.106  -0.138  -4.812  0.00  0.00     0.231 N 
ATOM     14  H   LIG d   1       1.117   0.334  -4.725  0.00  0.00     0.202 HD
ATOM     15  H   LIG d   1       1.996  -1.144  -5.243  0.00  0.00     0.202 HD
BRANCH  13  16
ATOM     16  C   LIG d   1       2.690  -0.261  -3.470  0.00  0.00    -0.018 C 
ATOM     17  C   LIG d   1       3.589   0.948  -3.189  0.00  0.00     0.014 C 
ATOM     18  C   LIG d   1       4.254   0.773  -1.822  0.00  0.00     0.053 C 
ATOM     19  H   LIG d   1       4.360   1.020  -3.970  0.00  0.00     0.034 H 
ATOM     20  H   LIG d   1       2.980   1.864  -3.190  0.00  0.00     0.034 H 
ATOM     21  O   LIG d   1       4.996  -0.448  -1.808  0.00  0.00    -0.379 OA
ATOM     22  H   LIG d   1       3.482   0.741  -1.039  0.00  0.00     0.056 H 
ATOM     23  H   LIG d   1       4.934   1.617  -1.634  0.00  0.00     0.056 H 
ATOM     24  C   LIG d   1       4.201  -1.617  -2.018  0.00  0.00     0.053 C 
ATOM     25  C   LIG d   1       3.534  -1.538  -3.393  0.00  0.00     0.014 C 
ATOM     26  H   LIG d   1       3.428  -1.680  -1.238  0.00  0.00     0.056 H 
ATOM     27  H   LIG d   1       4.842  -2.509  -1.972  0.00  0.00     0.056 H 
ATOM     28  H   LIG d   1       2.885  -2.415  -3.540  0.00  0.00     0.034 H 
ATOM     29  H   LIG d   1       4.304  -1.516  -4.177  0.00  0.00     0.034 H 
ATOM     30  H   LIG d   1       1.854  -0.301  -2.758  0.00  0.00     0.085 H 
ENDBRANCH  13  16
ENDBRANCH  10  13
ENDBRANCH   3  10
BRANCH   1  31
ATOM     31  N   LIG d   1       4.790  -0.934  -6.748  0.00  0.00    -0.284 N 
ATOM     32  C   LIG d   1       5.259  -2.320  -6.615  0.00  0.00     0.040 C 
ATOM     33  C   LIG d   1       6.465  -2.361  -5.673  0.00  0.00    -0.019 C 
ATOM     34  H   LIG d   1       5.552  -2.707  -7.602  0.00  0.00     0.048 H 
ATOM     35  H   LIG d   1       4.451  -2.943  -6.203  0.00  0.00     0.048 H 
ATOM     36  N   LIG d   1       7.528  -1.498  -6.206  0.00  0.00     0.235 N 
ATOM     37  H   LIG d   1       6.835  -3.394  -5.595  0.00  0.00     0.083 H 
ATOM     38  H   LIG d   1       6.165  -2.002  -4.677  0.00  0.00     0.083 H 
ATOM     39  C   LIG d   1       7.059  -0.111  -6.339  0.00  0.00    -0.019 C 
ATOM     40  H   LIG d   1       7.793  -1.865  -7.209  0.00  0.00     0.203 HD
ATOM     41  C   LIG d   1       5.853  -0.071  -7.280  0.00  0.00     0.040 C 
ATOM     42  H   LIG d   1       6.767   0.273  -5.350  0.00  0.00     0.083 H 
ATOM     43  H   LIG d   1       7.868   0.511  -6.750  0.00  0.00     0.083 H 
ATOM     44  H   LIG d   1       6.153  -0.429  -8.276  0.00  0.00     0.048 H 
ATOM     45  H   LIG d   1       5.483   0.962  -7.359  0.00  0.00     0.048 H 
BRANCH  36  46
ATOM     46  C   LIG d   1       8.733  -1.568  -5.368  0.00  0.00    -0.043 C 
ATOM     47  H   LIG d   1       8.551  -1.040  -4.420  0.00  0.00     0.078 H 
ATOM     48  H   LIG d   1       9.574  -1.094  -5.896  0.00  0.00     0.078 H 
ATOM     49  H   LIG d   1       8.976  -2.620  -5.162  0.00  0.00     0.078 H 
ENDBRANCH  36  46
ENDBRANCH   1  31
BRANCH   8  50
ATOM     50  O   LIG d   1       5.376  -0.382  -9.179  0.00  0.00    -0.388 OA
ATOM     51  H   LIG d   1       6.042  -1.220  -8.928  0.00  0.00     0.210 HD
ENDBRANCH   8  50
BRANCH   6  52
ATOM     52  C   LIG d   1       4.119   1.713 -10.198  0.00  0.00     0.073 C 
ATOM     53  H   LIG d   1       4.763   1.088 -10.834  0.00  0.00     0.058 H 
ATOM     54  H   LIG d   1       3.476   2.341 -10.832  0.00  0.00     0.058 H 
BRANCH  52  55
ATOM     55  O   LIG d   1       4.932   2.547  -9.371  0.00  0.00    -0.392 OA
ATOM     56  H   LIG d   1       5.343   2.155  -8.428  0.00  0.00     0.209 HD
ENDBRANCH  52  55
ENDBRANCH   6  52
TORSDOF 8
ENDMDL
MODEL 3
REMARK VINA RESULT:      -5.5      3.297      5.689
REMARK  8 active torsions:
REMARK  status: ('A' for Active; 'I' for Inactive)
REMARK    1  A    between atoms: C_1  and  N_2 
REMARK    2  A    between atoms: N_5  and  C_8 
REMARK    3  A    between atoms: C_10  and  C_20 
REMARK    4  A    between atoms: C_13  and  C_18 
REMARK    5  A    between atoms: C_15  and  O_17 
REMARK    6  A    between atoms: C_18  and  O_19 
REMARK    7  A    between atoms: C_20  and  N_21 
REMARK    8  A    between atoms: N_21  and  C_22 
ROOT
ATOM      1  C   LIG d   1       6.129  -0.982  -3.234  0.00  0.00     0.070 C 
ATOM      2  H   LIG d   1       6.697  -1.818  -2.798  0.00  0.00     0.052 H 
ATOM      3  C   LIG d   1       6.888   0.363  -3.231  0.00  0.00     0.117 C 
ATOM      4  H   LIG d   1       7.606   0.471  -2.405  0.00  0.00     0.067 H 
ATOM      5  O   LIG d   1       5.859   1.367  -3.097  0.00  0.00    -0.362 OA
ATOM      6  C   LIG d   1       4.924   0.829  -2.137  0.00  0.00     0.110 C 
ATOM      7  H   LIG d   1       5.302   1.018  -1.121  0.00  0.00     0.065 H 
ATOM      8  C   LIG d   1       4.807  -0.669  -2.497  0.00  0.00     0.102 C 
ATOM      9  H   LIG d   1       4.585  -1.330  -1.646  0.00  0.00     0.064 H 
ENDROOT
BRANCH   3  10
ATOM     10  C   LIG d   1       7.646   0.550  -4.546  0.00  0.00    -0.005 C 
ATOM     11  H   LIG d   1       7.641  -0.396  -5.110  0.00  0.00     0.084 H 
ATOM     12  H   LIG d   1       7.159   1.335  -5.142  0.00  0.00     0.084 H 
BRANCH  10  13
ATOM     13  N   LIG d   1       9.033   0.941  -4.261  0.00  0.00     0.231 N 
ATOM     14  H   LIG d   1       9.431   0.313  -3.451  0.00  0.00     0.202 HD
ATOM     15  H   LIG d   1       9.645   0.806  -5.165  0.00  0.00     0.202 HD
BRANCH  13  16
ATOM     16  C   LIG d   1       9.108   2.349  -3.848  0.00  0.00    -0.018 C 
ATOM     17  C   LIG d   1       9.155   3.246  -5.089  0.00  0.00     0.014 C 
ATOM     18  C   LIG d   1       9.313   4.703  -4.650  0.00  0.00     0.053 C 
ATOM     19  H   LIG d   1      10.009   2.955  -5.719  0.00  0.00     0.034 H 
ATOM     20  H   LIG d   1       8.222   3.130  -5.660  0.00  0.00     0.034 H 
ATOM     21  O   LIG d   1      10.495   4.836  -3.860  0.00  0.00    -0.379 OA
ATOM     22  H   LIG d   1       8.438   5.004  -4.054  0.00  0.00     0.056 H 
ATOM     23  H   LIG d   1       9.391   5.348  -5.538  0.00  0.00     0.056 H 
ATOM     24  C   LIG d   1      10.488   4.057  -2.661  0.00  0.00     0.053 C 
ATOM     25  C   LIG d   1      10.378   2.573  -3.021  0.00  0.00     0.014 C 
ATOM     26  H   LIG d   1       9.629   4.349  -2.039  0.00  0.00     0.056 H 
ATOM     27  H   LIG d   1      11.420   4.231  -2.105  0.00  0.00     0.056 H 
ATOM     28  H   LIG d   1      10.327   1.973  -2.100  0.00  0.00     0.034 H 
ATOM     29  H   LIG d   1      11.256   2.269  -3.608  0.00  0.00     0.034 H 
ATOM     30  H   LIG d   1       8.210   2.556  -3.249  0.00  0.00     0.085 H 
ENDBRANCH  13  16
ENDBRANCH  10  13
ENDBRANCH   3  10
BRANCH   1  31
ATOM     31  N   LIG d   1       5.860  -1.418  -4.611  0.00  0.00    -0.284 N 
ATOM     32  C   LIG d   1       5.596  -2.863  -4.663  0.00  0.00     0.040 C 
ATOM     33  C   LIG d   1       5.400  -3.291  -6.120  0.00  0.00    -0.019 C 
ATOM     34  H   LIG d   1       4.686  -3.092  -4.089  0.00  0.00     0.048 H 
ATOM     35  H   LIG d   1       6.448  -3.408  -4.232  0.00  0.00     0.048 H 
ATOM     36  N   LIG d   1       4.286  -2.533  -6.704  0.00  0.00     0.235 N 
ATOM     37  H   LIG d   1       5.173  -4.366  -6.160  0.00  0.00     0.083 H 
ATOM     38  H   LIG d   1       6.320  -3.089  -6.689  0.00  0.00     0.083 H 
ATOM     39  C   LIG d   1       4.550  -1.088  -6.652  0.00  0.00    -0.019 C 
ATOM     40  H   LIG d   1       3.385  -2.736  -6.106  0.00  0.00     0.203 HD
ATOM     41  C   LIG d   1       4.746  -0.660  -5.195  0.00  0.00     0.040 C 
ATOM     42  H   LIG d   1       5.460  -0.861  -7.227  0.00  0.00     0.083 H 
ATOM     43  H   LIG d   1       3.698  -0.544  -7.084  0.00  0.00     0.083 H 
ATOM     44  H   LIG d   1       3.826  -0.862  -4.626  0.00  0.00     0.048 H 
ATOM     45  H   LIG d   1       4.973   0.415  -5.156  0.00  0.00     0.048 H 
BRANCH  36  46
ATOM     46  C   LIG d   1       4.017  -2.968  -8.081  0.00  0.00    -0.043 C 
ATOM     47  H   LIG d   1       3.817  -4.051  -8.091  0.00  0.00     0.078 H 
ATOM     48  H   LIG d   1       4.892  -2.752  -8.712  0.00  0.00     0.078 H 
ATOM     49  H   LIG d   1       3.141  -2.431  -8.473  0.00  0.00     0.078 H 
ENDBRANCH  36  46
ENDBRANCH   1  31
BRANCH   8  50
ATOM     50  O   LIG d   1       3.688  -0.893  -3.359  0.00  0.00    -0.388 OA
ATOM     51  H   LIG d   1       3.405  -0.134  -4.102  0.00  0.00     0.210 HD
ENDBRANCH   8  50
BRANCH   6  52
ATOM     52  C   LIG d   1       3.564   1.517  -2.270  0.00  0.00     0.073 C 
ATOM     53  H   LIG d   1       2.764   0.764  -2.201  0.00  0.00     0.058 H 
ATOM     54  H   LIG d   1       3.445   2.255  -1.463  0.00  0.00     0.058 H 
BRANCH  52  55
ATOM     55  O   LIG d   1       3.487   2.178  -3.535  0.00  0.00    -0.392 OA
ATOM     56  H   LIG d   1       2.513   2.304  -4.031  0.00  0.00     0.209 HD
ENDBRANCH  52  55
ENDBRANCH   6  52
TORSDOF 8
ENDMDL
MODEL 4
REMARK VINA RESULT:      -5.4      2.434      3.916
REMARK  8 active torsions:
REMARK  status: ('A' for Active; 'I' for Inactive)
REMARK    1  A    between atoms: C_1  and  N_2 
REMARK    2  A    between atoms: N_5  and  C_8 
REMARK    3  A    between atoms: C_10  and  C_20 
REMARK    4  A    between atoms: C_13  and  C_18 
REMARK    5  A    between atoms: C_15  and  O_17 
REMARK    6  A    between atoms: C_18  and  O_19 
REMARK    7  A    between atoms: C_20  and  N_21 
REMARK    8  A    between atoms: N_21  and  C_22 
ROOT
ATOM      1  C   LIG d   1       5.655  -0.548  -8.188  0.00  0.00     0.070 C 
ATOM      2  H   LIG d   1       6.371  -1.183  -8.731  0.00  0.00     0.052 H 
ATOM      3  C   LIG d   1       4.445  -1.316  -7.611  0.00  0.00     0.117 C 
ATOM      4  H   LIG d   1       4.162  -2.207  -8.189  0.00  0.00     0.067 H 
ATOM      5  O   LIG d   1       3.357  -0.367  -7.642  0.00  0.00    -0.362 OA
ATOM      6  C   LIG d   1       3.497   0.332  -8.898  0.00  0.00     0.110 C 
ATOM      7  H   LIG d   1       3.049  -0.275  -9.699  0.00  0.00     0.065 H 
ATOM      8  C   LIG d   1       5.017   0.561  -9.055  0.00  0.00     0.102 C 
ATOM      9  H   LIG d   1       5.370   0.594 -10.096  0.00  0.00     0.064 H 
ENDROOT
BRANCH   3  10
ATOM     10  C   LIG d   1       4.730  -1.753  -6.172  0.00  0.00    -0.005 C 
ATOM     11  H   LIG d   1       4.834  -2.848  -6.135  0.00  0.00     0.084 H 
ATOM     12  H   LIG d   1       5.661  -1.283  -5.823  0.00  0.00     0.084 H 
BRANCH  10  13
ATOM     13  N   LIG d   1       3.617  -1.338  -5.306  0.00  0.00     0.231 N 
ATOM     14  H   LIG d   1       2.868  -0.800  -5.905  0.00  0.00     0.202 HD
ATOM     15  H   LIG d   1       3.155  -2.227  -4.852  0.00  0.00     0.202 HD
BRANCH  13  16
ATOM     16  C   LIG d   1       4.089  -0.452  -4.233  0.00  0.00    -0.018 C 
ATOM     17  C   LIG d   1       4.082  -1.210  -2.902  0.00  0.00     0.014 C 
ATOM     18  C   LIG d   1       4.498  -0.258  -1.779  0.00  0.00     0.053 C 
ATOM     19  H   LIG d   1       3.072  -1.596  -2.705  0.00  0.00     0.034 H 
ATOM     20  H   LIG d   1       4.791  -2.050  -2.956  0.00  0.00     0.034 H 
ATOM     21  O   LIG d   1       3.610   0.861  -1.751  0.00  0.00    -0.379 OA
ATOM     22  H   LIG d   1       5.525   0.095  -1.958  0.00  0.00     0.056 H 
ATOM     23  H   LIG d   1       4.454  -0.785  -0.815  0.00  0.00     0.056 H 
ATOM     24  C   LIG d   1       3.608   1.636  -2.952  0.00  0.00     0.053 C 
ATOM     25  C   LIG d   1       3.156   0.759  -4.122  0.00  0.00     0.014 C 
ATOM     26  H   LIG d   1       4.623   2.013  -3.146  0.00  0.00     0.056 H 
ATOM     27  H   LIG d   1       2.917   2.483  -2.841  0.00  0.00     0.056 H 
ATOM     28  H   LIG d   1       3.196   1.339  -5.056  0.00  0.00     0.034 H 
ATOM     29  H   LIG d   1       2.127   0.414  -3.949  0.00  0.00     0.034 H 
ATOM     30  H   LIG d   1       5.108  -0.137  -4.500  0.00  0.00     0.085 H 
ENDBRANCH  13  16
ENDBRANCH  10  13
ENDBRANCH   3  10
BRANCH   1  31
ATOM     31  N   LIG d   1       6.455   0.041  -7.106  0.00  0.00    -0.284 N 
ATOM     32  C   LIG d   1       7.180  -0.998  -6.362  0.00  0.00     0.040 C 
ATOM     33  C   LIG d   1       7.936  -0.355  -5.197  0.00  0.00    -0.019 C 
ATOM     34  H   LIG d   1       7.896  -1.499  -7.031  0.00  0.00     0.048 H 
ATOM     35  H   LIG d   1       6.466  -1.737  -5.972  0.00  0.00     0.048 H 
ATOM     36  N   LIG d   1       8.863   0.659  -5.719  0.00  0.00     0.235 N 
ATOM     37  H   LIG d   1       8.503  -1.127  -4.656  0.00  0.00     0.083 H 
ATOM     38  H   LIG d   1       7.219   0.121  -4.512  0.00  0.00     0.083 H 
ATOM     39  C   LIG d   1       8.137   1.698  -6.462  0.00  0.00    -0.019 C 
ATOM     40  H   LIG d   1       9.554   0.162  -6.415  0.00  0.00     0.203 HD
ATOM     41  C   LIG d   1       7.381   1.055  -7.627  0.00  0.00     0.040 C 
ATOM     42  H   LIG d   1       7.423   2.198  -5.791  0.00  0.00     0.083 H 
ATOM     43  H   LIG d   1       8.853   2.437  -6.852  0.00  0.00     0.083 H 
ATOM     44  H   LIG d   1       8.099   0.579  -8.312  0.00  0.00     0.048 H 
ATOM     45  H   LIG d   1       6.814   1.827  -8.168  0.00  0.00     0.048 H 
BRANCH  36  46
ATOM     46  C   LIG d   1       9.663   1.248  -4.636  0.00  0.00    -0.043 C 
ATOM     47  H   LIG d   1       9.968   0.458  -3.934  0.00  0.00     0.078 H 
ATOM     48  H   LIG d   1       9.062   2.000  -4.103  0.00  0.00     0.078 H 
ATOM     49  H   LIG d   1      10.558   1.727  -5.060  0.00  0.00     0.078 H 
ENDBRANCH  36  46
ENDBRANCH   1  31
BRANCH   8  50
ATOM     50  O   LIG d   1       5.384   1.853  -8.565  0.00  0.00    -0.388 OA
ATOM     51  H   LIG d   1       5.950   2.544  -9.206  0.00  0.00     0.210 HD
ENDBRANCH   8  50
BRANCH   6  52
ATOM     52  C   LIG d   1       2.758   1.671  -8.850  0.00  0.00     0.073 C 
ATOM     53  H   LIG d   1       3.260   2.390  -9.515  0.00  0.00     0.058 H 
ATOM     54  H   LIG d   1       1.718   1.529  -9.180  0.00  0.00     0.058 H 
BRANCH  52  55
ATOM     55  O   LIG d   1       2.768   2.173  -7.512  0.00  0.00    -0.392 OA
ATOM     56  H   LIG d   1       2.452   1.527  -6.680  0.00  0.00     0.209 HD
ENDBRANCH  52  55
ENDBRANCH   6  52
TORSDOF 8
ENDMDL
MODEL 5
REMARK VINA RESULT:      -5.3      3.923      5.595
REMARK  8 active torsions:
REMARK  status: ('A' for Active; 'I' for Inactive)
REMARK    1  A    between atoms: C_1  and  N_2 
REMARK    2  A    between atoms: N_5  and  C_8 
REMARK    3  A    between atoms: C_10  and  C_20 
REMARK    4  A    between atoms: C_13  and  C_18 
REMARK    5  A    between atoms: C_15  and  O_17 
REMARK    6  A    between atoms: C_18  and  O_19 
REMARK    7  A    between atoms: C_20  and  N_21 
REMARK    8  A    between atoms: N_21  and  C_22 
ROOT
ATOM      1  C   LIG d   1       5.169  -1.209  -2.945  0.00  0.00     0.070 C 
ATOM      2  H   LIG d   1       5.374  -1.713  -1.989  0.00  0.00     0.052 H 
ATOM      3  C   LIG d   1       5.578   0.281  -2.969  0.00  0.00     0.117 C 
ATOM      4  H   LIG d   1       5.529   0.776  -1.989  0.00  0.00     0.067 H 
ATOM      5  O   LIG d   1       4.632   0.909  -3.863  0.00  0.00    -0.362 OA
ATOM      6  C   LIG d   1       3.358   0.303  -3.556  0.00  0.00     0.110 C 
ATOM      7  H   LIG d   1       2.925   0.802  -2.676  0.00  0.00     0.065 H 
ATOM      8  C   LIG d   1       3.674  -1.194  -3.339  0.00  0.00     0.102 C 
ATOM      9  H   LIG d   1       3.006  -1.706  -2.632  0.00  0.00     0.064 H 
ENDROOT
BRANCH   3  10
ATOM     10  C   LIG d   1       7.001   0.433  -3.509  0.00  0.00    -0.005 C 
ATOM     11  H   LIG d   1       7.718   0.367  -2.676  0.00  0.00     0.084 H 
ATOM     12  H   LIG d   1       7.207  -0.368  -4.234  0.00  0.00     0.084 H 
BRANCH  10  13
ATOM     13  N   LIG d   1       7.138   1.738  -4.169  0.00  0.00     0.231 N 
ATOM     14  H   LIG d   1       6.485   1.771  -5.054  0.00  0.00     0.202 HD
ATOM     15  H   LIG d   1       6.848   2.535  -3.470  0.00  0.00     0.202 HD
BRANCH  13  16
ATOM     16  C   LIG d   1       8.524   1.968  -4.598  0.00  0.00    -0.018 C 
ATOM     17  C   LIG d   1       9.169   0.633  -4.984  0.00  0.00     0.014 C 
ATOM     18  C   LIG d   1      10.635   0.872  -5.353  0.00  0.00     0.053 C 
ATOM     19  H   LIG d   1       9.110  -0.061  -4.133  0.00  0.00     0.034 H 
ATOM     20  H   LIG d   1       8.636   0.204  -5.845  0.00  0.00     0.034 H 
ATOM     21  O   LIG d   1      11.309   1.483  -4.251  0.00  0.00    -0.379 OA
ATOM     22  H   LIG d   1      10.690   1.535  -6.229  0.00  0.00     0.056 H 
ATOM     23  H   LIG d   1      11.115  -0.089  -5.589  0.00  0.00     0.056 H 
ATOM     24  C   LIG d   1      10.779   2.756  -3.876  0.00  0.00     0.053 C 
ATOM     25  C   LIG d   1       9.319   2.593  -3.447  0.00  0.00     0.014 C 
ATOM     26  H   LIG d   1      10.836   3.444  -4.733  0.00  0.00     0.056 H 
ATOM     27  H   LIG d   1      11.364   3.165  -3.039  0.00  0.00     0.056 H 
ATOM     28  H   LIG d   1       8.894   3.578  -3.200  0.00  0.00     0.034 H 
ATOM     29  H   LIG d   1       9.264   1.939  -2.566  0.00  0.00     0.034 H 
ATOM     30  H   LIG d   1       8.485   2.649  -5.461  0.00  0.00     0.085 H 
ENDBRANCH  13  16
ENDBRANCH  10  13
ENDBRANCH   3  10
BRANCH   1  31
ATOM     31  N   LIG d   1       5.952  -1.974  -3.924  0.00  0.00    -0.284 N 
ATOM     32  C   LIG d   1       7.296  -2.269  -3.408  0.00  0.00     0.040 C 
ATOM     33  C   LIG d   1       8.105  -2.995  -4.485  0.00  0.00    -0.019 C 
ATOM     34  H   LIG d   1       7.216  -2.909  -2.517  0.00  0.00     0.048 H 
ATOM     35  H   LIG d   1       7.801  -1.330  -3.141  0.00  0.00     0.048 H 
ATOM     36  N   LIG d   1       7.408  -4.231  -4.868  0.00  0.00     0.235 N 
ATOM     37  H   LIG d   1       9.102  -3.243  -4.091  0.00  0.00     0.083 H 
ATOM     38  H   LIG d   1       8.211  -2.345  -5.366  0.00  0.00     0.083 H 
ATOM     39  C   LIG d   1       6.064  -3.935  -5.384  0.00  0.00    -0.019 C 
ATOM     40  H   LIG d   1       7.297  -4.852  -3.967  0.00  0.00     0.203 HD
ATOM     41  C   LIG d   1       5.255  -3.209  -4.307  0.00  0.00     0.040 C 
ATOM     42  H   LIG d   1       6.146  -3.296  -6.276  0.00  0.00     0.083 H 
ATOM     43  H   LIG d   1       5.560  -4.875  -5.652  0.00  0.00     0.083 H 
ATOM     44  H   LIG d   1       5.149  -3.859  -3.426  0.00  0.00     0.048 H 
ATOM     45  H   LIG d   1       4.258  -2.961  -4.701  0.00  0.00     0.048 H 
BRANCH  36  46
ATOM     46  C   LIG d   1       8.191  -4.996  -5.847  0.00  0.00    -0.043 C 
ATOM     47  H   LIG d   1       7.520  -5.653  -6.420  0.00  0.00     0.078 H 
ATOM     48  H   LIG d   1       8.941  -5.605  -5.322  0.00  0.00     0.078 H 
ATOM     49  H   LIG d   1       8.699  -4.303  -6.534  0.00  0.00     0.078 H 
ENDBRANCH  36  46
ENDBRANCH   1  31
BRANCH   8  50
ATOM     50  O   LIG d   1       3.467  -1.932  -4.546  0.00  0.00    -0.388 OA
ATOM     51  H   LIG d   1       2.458  -2.272  -4.816  0.00  0.00     0.210 HD
ENDBRANCH   8  50
BRANCH   6  52
ATOM     52  C   LIG d   1       2.387   0.478  -4.724  0.00  0.00     0.073 C 
ATOM     53  H   LIG d   1       1.756  -0.419  -4.815  0.00  0.00     0.058 H 
ATOM     54  H   LIG d   1       1.750   1.357  -4.544  0.00  0.00     0.058 H 
BRANCH  52  55
ATOM     55  O   LIG d   1       3.125   0.665  -5.934  0.00  0.00    -0.392 OA
ATOM     56  H   LIG d   1       3.902  -0.058  -6.221  0.00  0.00     0.209 HD
ENDBRANCH  52  55
ENDBRANCH   6  52
TORSDOF 8
ENDMDL
MODEL 6
REMARK VINA RESULT:      -5.3      2.926      5.283
REMARK  8 active torsions:
REMARK  status: ('A' for Active; 'I' for Inactive)
REMARK    1  A    between atoms: C_1  and  N_2 
REMARK    2  A    between atoms: N_5  and  C_8 
REMARK    3  A    between atoms: C_10  and  C_20 
REMARK    4  A    between atoms: C_13  and  C_18 
REMARK    5  A    between atoms: C_15  and  O_17 
REMARK    6  A    between atoms: C_18  and  O_19 
REMARK    7  A    between atoms: C_20  and  N_21 
REMARK    8  A    between atoms: N_21  and  C_22 
ROOT
ATOM      1  C   LIG d   1       5.530  -1.497  -3.869  0.00  0.00     0.070 C 
ATOM      2  H   LIG d   1       5.881  -2.513  -3.632  0.00  0.00     0.052 H 
ATOM      3  C   LIG d   1       6.562  -0.389  -3.565  0.00  0.00     0.117 C 
ATOM      4  H   LIG d   1       7.246  -0.627  -2.737  0.00  0.00     0.067 H 
ATOM      5  O   LIG d   1       5.770   0.765  -3.208  0.00  0.00    -0.362 OA
ATOM      6  C   LIG d   1       4.695   0.251  -2.392  0.00  0.00     0.110 C 
ATOM      7  H   LIG d   1       5.056   0.124  -1.360  0.00  0.00     0.065 H 
ATOM      8  C   LIG d   1       4.273  -1.067  -3.079  0.00  0.00     0.102 C 
ATOM      9  H   LIG d   1       3.873  -1.831  -2.397  0.00  0.00     0.064 H 
ENDROOT
BRANCH   3  10
ATOM     10  C   LIG d   1       7.405  -0.092  -4.806  0.00  0.00    -0.005 C 
ATOM     11  H   LIG d   1       8.425  -0.480  -4.659  0.00  0.00     0.084 H 
ATOM     12  H   LIG d   1       6.952  -0.577  -5.683  0.00  0.00     0.084 H 
BRANCH  10  13
ATOM     13  N   LIG d   1       7.461   1.360  -5.025  0.00  0.00     0.231 N 
ATOM     14  H   LIG d   1       7.081   1.594  -6.030  0.00  0.00     0.202 HD
ATOM     15  H   LIG d   1       6.843   1.868  -4.271  0.00  0.00     0.202 HD
BRANCH  13  16
ATOM     16  C   LIG d   1       8.840   1.856  -4.915  0.00  0.00    -0.018 C 
ATOM     17  C   LIG d   1       9.819   0.688  -5.079  0.00  0.00     0.014 C 
ATOM     18  C   LIG d   1      11.248   1.199  -4.885  0.00  0.00     0.053 C 
ATOM     19  H   LIG d   1       9.597  -0.084  -4.328  0.00  0.00     0.034 H 
ATOM     20  H   LIG d   1       9.713   0.260  -6.087  0.00  0.00     0.034 H 
ATOM     21  O   LIG d   1      11.364   1.806  -3.596  0.00  0.00    -0.379 OA
ATOM     22  H   LIG d   1      11.481   1.943  -5.662  0.00  0.00     0.056 H 
ATOM     23  H   LIG d   1      11.952   0.358  -4.959  0.00  0.00     0.056 H 
ATOM     24  C   LIG d   1      10.507   2.933  -3.402  0.00  0.00     0.053 C 
ATOM     25  C   LIG d   1       9.048   2.491  -3.536  0.00  0.00     0.014 C 
ATOM     26  H   LIG d   1      10.730   3.699  -4.160  0.00  0.00     0.056 H 
ATOM     27  H   LIG d   1      10.673   3.351  -2.399  0.00  0.00     0.056 H 
ATOM     28  H   LIG d   1       8.386   3.364  -3.432  0.00  0.00     0.034 H 
ATOM     29  H   LIG d   1       8.811   1.756  -2.755  0.00  0.00     0.034 H 
ATOM     30  H   LIG d   1       8.979   2.599  -5.713  0.00  0.00     0.085 H 
ENDBRANCH  13  16
ENDBRANCH  10  13
ENDBRANCH   3  10
BRANCH   1  31
ATOM     31  N   LIG d   1       5.240  -1.550  -5.308  0.00  0.00    -0.284 N 
ATOM     32  C   LIG d   1       4.815  -2.898  -5.710  0.00  0.00     0.040 C 
ATOM     33  C   LIG d   1       4.601  -2.932  -7.225  0.00  0.00    -0.019 C 
ATOM     34  H   LIG d   1       3.874  -3.155  -5.201  0.00  0.00     0.048 H 
ATOM     35  H   LIG d   1       5.592  -3.626  -5.433  0.00  0.00     0.048 H 
ATOM     36  N   LIG d   1       3.590  -1.932  -7.596  0.00  0.00     0.235 N 
ATOM     37  H   LIG d   1       4.255  -3.932  -7.525  0.00  0.00     0.083 H 
ATOM     38  H   LIG d   1       5.548  -2.704  -7.736  0.00  0.00     0.083 H 
ATOM     39  C   LIG d   1       4.015  -0.584  -7.194  0.00  0.00    -0.019 C 
ATOM     40  H   LIG d   1       2.661  -2.171  -7.057  0.00  0.00     0.203 HD
ATOM     41  C   LIG d   1       4.230  -0.550  -5.679  0.00  0.00     0.040 C 
ATOM     42  H   LIG d   1       4.956  -0.329  -7.705  0.00  0.00     0.083 H 
ATOM     43  H   LIG d   1       3.238   0.143  -7.472  0.00  0.00     0.083 H 
ATOM     44  H   LIG d   1       3.283  -0.778  -5.169  0.00  0.00     0.048 H 
ATOM     45  H   LIG d   1       4.576   0.450  -5.379  0.00  0.00     0.048 H 
BRANCH  36  46
ATOM     46  C   LIG d   1       3.301  -1.985  -9.035  0.00  0.00    -0.043 C 
ATOM     47  H   LIG d   1       2.240  -2.235  -9.187  0.00  0.00     0.078 H 
ATOM     48  H   LIG d   1       3.929  -2.754  -9.508  0.00  0.00     0.078 H 
ATOM     49  H   LIG d   1       3.515  -1.007  -9.490  0.00  0.00     0.078 H 
ENDBRANCH  36  46
ENDBRANCH   1  31
BRANCH   8  50
ATOM     50  O   LIG d   1       3.176  -0.842  -3.967  0.00  0.00    -0.388 OA
ATOM     51  H   LIG d   1       3.051  -1.474  -4.858  0.00  0.00     0.210 HD
ENDBRANCH   8  50
BRANCH   6  52
ATOM     52  C   LIG d   1       3.525   1.237  -2.366  0.00  0.00     0.073 C 
ATOM     53  H   LIG d   1       2.577   0.680  -2.395  0.00  0.00     0.058 H 
ATOM     54  H   LIG d   1       3.571   1.837  -1.445  0.00  0.00     0.058 H 
BRANCH  52  55
ATOM     55  O   LIG d   1       3.605   2.101  -3.501  0.00  0.00    -0.392 OA
ATOM     56  H   LIG d   1       4.500   2.719  -3.660  0.00  0.00     0.209 HD
ENDBRANCH  52  55
ENDBRANCH   6  52
TORSDOF 8
ENDMDL
MODEL 7
REMARK VINA RESULT:      -5.3      3.804      5.773
REMARK  8 active torsions:
REMARK  status: ('A' for Active; 'I' for Inactive)
REMARK    1  A    between atoms: C_1  and  N_2 
REMARK    2  A    between atoms: N_5  and  C_8 
REMARK    3  A    between atoms: C_10  and  C_20 
REMARK    4  A    between atoms: C_13  and  C_18 
REMARK    5  A    between atoms: C_15  and  O_17 
REMARK    6  A    between atoms: C_18  and  O_19 
REMARK    7  A    between atoms: C_20  and  N_21 
REMARK    8  A    between atoms: N_21  and  C_22 
ROOT
ATOM      1  C   LIG d   1       5.189  -2.341  -3.725  0.00  0.00     0.070 C 
ATOM      2  H   LIG d   1       5.247  -3.419  -3.512  0.00  0.00     0.052 H 
ATOM      3  C   LIG d   1       6.415  -1.537  -3.238  0.00  0.00     0.117 C 
ATOM      4  H   LIG d   1       6.909  -1.964  -2.352  0.00  0.00     0.067 H 
ATOM      5  O   LIG d   1       5.892  -0.232  -2.904  0.00  0.00    -0.362 OA
ATOM      6  C   LIG d   1       4.630  -0.484  -2.249  0.00  0.00     0.110 C 
ATOM      7  H   LIG d   1       4.815  -0.729  -1.193  0.00  0.00     0.065 H 
ATOM      8  C   LIG d   1       3.987  -1.633  -3.059  0.00  0.00     0.102 C 
ATOM      9  H   LIG d   1       3.328  -2.292  -2.476  0.00  0.00     0.064 H 
ENDROOT
BRANCH   3  10
ATOM     10  C   LIG d   1       7.455  -1.424  -4.353  0.00  0.00    -0.005 C 
ATOM     11  H   LIG d   1       7.071  -1.909  -5.264  0.00  0.00     0.084 H 
ATOM     12  H   LIG d   1       7.657  -0.363  -4.561  0.00  0.00     0.084 H 
BRANCH  10  13
ATOM     13  N   LIG d   1       8.698  -2.086  -3.934  0.00  0.00     0.231 N 
ATOM     14  H   LIG d   1       9.472  -1.930  -4.699  0.00  0.00     0.202 HD
ATOM     15  H   LIG d   1       9.036  -1.659  -2.978  0.00  0.00     0.202 HD
BRANCH  13  16
ATOM     16  C   LIG d   1       8.492  -3.530  -3.759  0.00  0.00    -0.018 C 
ATOM     17  C   LIG d   1       9.704  -4.138  -3.047  0.00  0.00     0.014 C 
ATOM     18  C   LIG d   1       9.516  -5.653  -2.940  0.00  0.00     0.053 C 
ATOM     19  H   LIG d   1      10.615  -3.918  -3.622  0.00  0.00     0.034 H 
ATOM     20  H   LIG d   1       9.793  -3.705  -2.039  0.00  0.00     0.034 H 
ATOM     21  O   LIG d   1       9.343  -6.204  -4.247  0.00  0.00    -0.379 OA
ATOM     22  H   LIG d   1       8.626  -5.871  -2.330  0.00  0.00     0.056 H 
ATOM     23  H   LIG d   1      10.403  -6.101  -2.468  0.00  0.00     0.056 H 
ATOM     24  C   LIG d   1       8.197  -5.707  -4.943  0.00  0.00     0.053 C 
ATOM     25  C   LIG d   1       8.333  -4.194  -5.130  0.00  0.00     0.014 C 
ATOM     26  H   LIG d   1       7.291  -5.925  -4.359  0.00  0.00     0.056 H 
ATOM     27  H   LIG d   1       8.127  -6.194  -5.926  0.00  0.00     0.056 H 
ATOM     28  H   LIG d   1       7.433  -3.801  -5.626  0.00  0.00     0.034 H 
ATOM     29  H   LIG d   1       9.216  -3.976  -5.747  0.00  0.00     0.034 H 
ATOM     30  H   LIG d   1       7.580  -3.654  -3.156  0.00  0.00     0.085 H 
ENDBRANCH  13  16
ENDBRANCH  10  13
ENDBRANCH   3  10
BRANCH   1  31
ATOM     31  N   LIG d   1       5.079  -2.275  -5.188  0.00  0.00    -0.284 N 
ATOM     32  C   LIG d   1       4.516  -3.520  -5.730  0.00  0.00     0.040 C 
ATOM     33  C   LIG d   1       4.492  -3.443  -7.258  0.00  0.00    -0.019 C 
ATOM     34  H   LIG d   1       3.491  -3.654  -5.354  0.00  0.00     0.048 H 
ATOM     35  H   LIG d   1       5.136  -4.372  -5.415  0.00  0.00     0.048 H 
ATOM     36  N   LIG d   1       3.695  -2.282  -7.675  0.00  0.00     0.235 N 
ATOM     37  H   LIG d   1       4.044  -4.362  -7.665  0.00  0.00     0.083 H 
ATOM     38  H   LIG d   1       5.520  -3.338  -7.637  0.00  0.00     0.083 H 
ATOM     39  C   LIG d   1       4.258  -1.038  -7.134  0.00  0.00    -0.019 C 
ATOM     40  H   LIG d   1       2.680  -2.402  -7.267  0.00  0.00     0.203 HD
ATOM     41  C   LIG d   1       4.282  -1.114  -5.605  0.00  0.00     0.040 C 
ATOM     42  H   LIG d   1       5.283  -0.905  -7.511  0.00  0.00     0.083 H 
ATOM     43  H   LIG d   1       3.637  -0.187  -7.450  0.00  0.00     0.083 H 
ATOM     44  H   LIG d   1       3.254  -1.220  -5.227  0.00  0.00     0.048 H 
ATOM     45  H   LIG d   1       4.730  -0.196  -5.198  0.00  0.00     0.048 H 
BRANCH  36  46
ATOM     46  C   LIG d   1       3.585  -2.217  -9.139  0.00  0.00    -0.043 C 
ATOM     47  H   LIG d   1       4.502  -1.773  -9.556  0.00  0.00     0.078 H 
ATOM     48  H   LIG d   1       2.720  -1.595  -9.414  0.00  0.00     0.078 H 
ATOM     49  H   LIG d   1       3.451  -3.231  -9.543  0.00  0.00     0.078 H 
ENDBRANCH  36  46
ENDBRANCH   1  31
BRANCH   8  50
ATOM     50  O   LIG d   1       3.100  -1.113  -4.052  0.00  0.00    -0.388 OA
ATOM     51  H   LIG d   1       2.357  -0.349  -3.780  0.00  0.00     0.210 HD
ENDBRANCH   8  50
BRANCH   6  52
ATOM     52  C   LIG d   1       3.744   0.762  -2.298  0.00  0.00     0.073 C 
ATOM     53  H   LIG d   1       2.706   0.466  -2.512  0.00  0.00     0.058 H 
ATOM     54  H   LIG d   1       3.785   1.279  -1.327  0.00  0.00     0.058 H 
BRANCH  52  55
ATOM     55  O   LIG d   1       4.211   1.639  -3.325  0.00  0.00    -0.392 OA
ATOM     56  H   LIG d   1       4.315   1.271  -4.357  0.00  0.00     0.209 HD
ENDBRANCH  52  55
ENDBRANCH   6  52
TORSDOF 8
ENDMDL
MODEL 8
REMARK VINA RESULT:      -5.3      2.380      5.412
REMARK  8 active torsions:
REMARK  status: ('A' for Active; 'I' for Inactive)
REMARK    1  A    between atoms: C_1  and  N_2 
REMARK    2  A    between atoms: N_5  and  C_8 
REMARK    3  A    between atoms: C_10  and  C_20 
REMARK    4  A    between atoms: C_13  and  C_18 
REMARK    5  A    between atoms: C_15  and  O_17 
REMARK    6  A    between atoms: C_18  and  O_19 
REMARK    7  A    between atoms: C_20  and  N_21 
REMARK    8  A    between atoms: N_21  and  C_22 
ROOT
ATOM      1  C   LIG d   1       5.499  -1.825  -5.648  0.00  0.00     0.070 C 
ATOM      2  H   LIG d   1       6.526  -2.219  -5.669  0.00  0.00     0.052 H 
ATOM      3  C   LIG d   1       5.385  -0.345  -6.075  0.00  0.00     0.117 C 
ATOM      4  H   LIG d   1       6.280   0.255  -5.856  0.00  0.00     0.067 H 
ATOM      5  O   LIG d   1       4.270   0.173  -5.317  0.00  0.00    -0.362 OA
ATOM      6  C   LIG d   1       4.404  -0.403  -4.000  0.00  0.00     0.110 C 
ATOM      7  H   LIG d   1       5.130   0.188  -3.421  0.00  0.00     0.065 H 
ATOM      8  C   LIG d   1       4.839  -1.864  -4.250  0.00  0.00     0.102 C 
ATOM      9  H   LIG d   1       5.465  -2.299  -3.457  0.00  0.00     0.064 H 
ENDROOT
BRANCH   3  10
ATOM     10  C   LIG d   1       5.102  -0.245  -7.575  0.00  0.00    -0.005 C 
ATOM     11  H   LIG d   1       6.049  -0.106  -8.119  0.00  0.00     0.084 H 
ATOM     12  H   LIG d   1       4.613  -1.168  -7.919  0.00  0.00     0.084 H 
BRANCH  10  13
ATOM     13  N   LIG d   1       4.219   0.902  -7.831  0.00  0.00     0.231 N 
ATOM     14  H   LIG d   1       3.614   1.104  -6.935  0.00  0.00     0.202 HD
ATOM     15  H   LIG d   1       4.827   1.786  -8.071  0.00  0.00     0.202 HD
BRANCH  13  16
ATOM     16  C   LIG d   1       3.317   0.630  -8.958  0.00  0.00    -0.018 C 
ATOM     17  C   LIG d   1       2.384  -0.531  -8.599  0.00  0.00     0.014 C 
ATOM     18  C   LIG d   1       1.502  -0.860  -9.806  0.00  0.00     0.053 C 
ATOM     19  H   LIG d   1       2.983  -1.412  -8.328  0.00  0.00     0.034 H 
ATOM     20  H   LIG d   1       1.751  -0.242  -7.746  0.00  0.00     0.034 H 
ATOM     21  O   LIG d   1       2.330  -1.178 -10.926  0.00  0.00    -0.379 OA
ATOM     22  H   LIG d   1       0.875   0.011 -10.050  0.00  0.00     0.056 H 
ATOM     23  H   LIG d   1       0.860  -1.720  -9.568  0.00  0.00     0.056 H 
ATOM     24  C   LIG d   1       3.191  -0.113 -11.338  0.00  0.00     0.053 C 
ATOM     25  C   LIG d   1       4.140   0.245 -10.191  0.00  0.00     0.014 C 
ATOM     26  H   LIG d   1       2.585   0.767 -11.601  0.00  0.00     0.056 H 
ATOM     27  H   LIG d   1       3.776  -0.432 -12.212  0.00  0.00     0.056 H 
ATOM     28  H   LIG d   1       4.774   1.094 -10.489  0.00  0.00     0.034 H 
ATOM     29  H   LIG d   1       4.775  -0.621  -9.953  0.00  0.00     0.034 H 
ATOM     30  H   LIG d   1       2.745   1.550  -9.141  0.00  0.00     0.085 H 
ENDBRANCH  13  16
ENDBRANCH  10  13
ENDBRANCH   3  10
BRANCH   1  31
ATOM     31  N   LIG d   1       4.770  -2.689  -6.586  0.00  0.00    -0.284 N 
ATOM     32  C   LIG d   1       5.422  -2.705  -7.902  0.00  0.00     0.040 C 
ATOM     33  C   LIG d   1       4.590  -3.550  -8.871  0.00  0.00    -0.019 C 
ATOM     34  H   LIG d   1       6.429  -3.138  -7.810  0.00  0.00     0.048 H 
ATOM     35  H   LIG d   1       5.499  -1.677  -8.286  0.00  0.00     0.048 H 
ATOM     36  N   LIG d   1       4.456  -4.912  -8.337  0.00  0.00     0.235 N 
ATOM     37  H   LIG d   1       5.091  -3.587  -9.849  0.00  0.00     0.083 H 
ATOM     38  H   LIG d   1       3.592  -3.101  -8.986  0.00  0.00     0.083 H 
ATOM     39  C   LIG d   1       3.804  -4.896  -7.020  0.00  0.00    -0.019 C 
ATOM     40  H   LIG d   1       5.467  -5.329  -8.212  0.00  0.00     0.203 HD
ATOM     41  C   LIG d   1       4.636  -4.051  -6.051  0.00  0.00     0.040 C 
ATOM     42  H   LIG d   1       2.797  -4.463  -7.114  0.00  0.00     0.083 H 
ATOM     43  H   LIG d   1       3.727  -5.924  -6.637  0.00  0.00     0.083 H 
ATOM     44  H   LIG d   1       5.633  -4.500  -5.936  0.00  0.00     0.048 H 
ATOM     45  H   LIG d   1       4.135  -4.014  -5.073  0.00  0.00     0.048 H 
BRANCH  36  46
ATOM     46  C   LIG d   1       3.727  -5.776  -9.275  0.00  0.00    -0.043 C 
ATOM     47  H   LIG d   1       4.133  -5.641 -10.289  0.00  0.00     0.078 H 
ATOM     48  H   LIG d   1       2.660  -5.506  -9.268  0.00  0.00     0.078 H 
ATOM     49  H   LIG d   1       3.841  -6.826  -8.971  0.00  0.00     0.078 H 
ENDBRANCH  36  46
ENDBRANCH   1  31
BRANCH   8  50
ATOM     50  O   LIG d   1       3.704  -2.732  -4.257  0.00  0.00    -0.388 OA
ATOM     51  H   LIG d   1       2.708  -2.337  -4.011  0.00  0.00     0.210 HD
ENDBRANCH   8  50
BRANCH   6  52
ATOM     52  C   LIG d   1       3.066  -0.365  -3.260  0.00  0.00     0.073 C 
ATOM     53  H   LIG d   1       3.026  -1.188  -2.532  0.00  0.00     0.058 H 
ATOM     54  H   LIG d   1       2.965   0.597  -2.734  0.00  0.00     0.058 H 
BRANCH  52  55
ATOM     55  O   LIG d   1       1.999  -0.508  -4.200  0.00  0.00    -0.392 OA
ATOM     56  H   LIG d   1       1.462  -1.465  -4.281  0.00  0.00     0.209 HD
ENDBRANCH  52  55
ENDBRANCH   6  52
TORSDOF 8
ENDMDL
MODEL 9
REMARK VINA RESULT:      -5.2      2.814      5.274
REMARK  8 active torsions:
REMARK  status: ('A' for Active; 'I' for Inactive)
REMARK    1  A    between atoms: C_1  and  N_2 
REMARK    2  A    between atoms: N_5  and  C_8 
REMARK    3  A    between atoms: C_10  and  C_20 
REMARK    4  A    between atoms: C_13  and  C_18 
REMARK    5  A    between atoms: C_15  and  O_17 
REMARK    6  A    between atoms: C_18  and  O_19 
REMARK    7  A    between atoms: C_20  and  N_21 
REMARK    8  A    between atoms: N_21  and  C_22 
ROOT
ATOM      1  C   LIG d   1       5.247  -2.075  -3.540  0.00  0.00     0.070 C 
ATOM      2  H   LIG d   1       5.405  -3.127  -3.260  0.00  0.00     0.052 H 
ATOM      3  C   LIG d   1       6.383  -1.129  -3.094  0.00  0.00     0.117 C 
ATOM      4  H   LIG d   1       6.903  -1.451  -2.180  0.00  0.00     0.067 H 
ATOM      5  O   LIG d   1       5.733   0.137  -2.847  0.00  0.00    -0.362 OA
ATOM      6  C   LIG d   1       4.492  -0.194  -2.188  0.00  0.00     0.110 C 
ATOM      7  H   LIG d   1       4.684  -0.355  -1.117  0.00  0.00     0.065 H 
ATOM      8  C   LIG d   1       3.973  -1.447  -2.930  0.00  0.00     0.102 C 
ATOM      9  H   LIG d   1       3.373  -2.130  -2.312  0.00  0.00     0.064 H 
ENDROOT
BRANCH   3  10
ATOM     10  C   LIG d   1       7.423  -0.984  -4.207  0.00  0.00    -0.005 C 
ATOM     11  H   LIG d   1       8.117  -1.838  -4.173  0.00  0.00     0.084 H 
ATOM     12  H   LIG d   1       6.917  -0.962  -5.183  0.00  0.00     0.084 H 
BRANCH  10  13
ATOM     13  N   LIG d   1       8.174   0.264  -4.016  0.00  0.00     0.231 N 
ATOM     14  H   LIG d   1       7.511   1.028  -3.585  0.00  0.00     0.202 HD
ATOM     15  H   LIG d   1       9.018   0.083  -3.334  0.00  0.00     0.202 HD
BRANCH  13  16
ATOM     16  C   LIG d   1       8.700   0.762  -5.294  0.00  0.00    -0.018 C 
ATOM     17  C   LIG d   1       8.711   2.295  -5.281  0.00  0.00     0.014 C 
ATOM     18  C   LIG d   1       9.184   2.805  -6.644  0.00  0.00     0.053 C 
ATOM     19  H   LIG d   1       7.696   2.667  -5.078  0.00  0.00     0.034 H 
ATOM     20  H   LIG d   1       9.395   2.649  -4.495  0.00  0.00     0.034 H 
ATOM     21  O   LIG d   1       8.327   2.295  -7.666  0.00  0.00    -0.379 OA
ATOM     22  H   LIG d   1      10.214   2.465  -6.826  0.00  0.00     0.056 H 
ATOM     23  H   LIG d   1       9.154   3.905  -6.655  0.00  0.00     0.056 H 
ATOM     24  C   LIG d   1       8.311   0.869  -7.758  0.00  0.00     0.053 C 
ATOM     25  C   LIG d   1       7.803   0.280  -6.439  0.00  0.00     0.014 C 
ATOM     26  H   LIG d   1       9.330   0.503  -7.954  0.00  0.00     0.056 H 
ATOM     27  H   LIG d   1       7.646   0.561  -8.577  0.00  0.00     0.056 H 
ATOM     28  H   LIG d   1       7.832  -0.819  -6.490  0.00  0.00     0.034 H 
ATOM     29  H   LIG d   1       6.770   0.612  -6.261  0.00  0.00     0.034 H 
ATOM     30  H   LIG d   1       9.719   0.364  -5.401  0.00  0.00     0.085 H 
ENDBRANCH  13  16
ENDBRANCH  10  13
ENDBRANCH   3  10
BRANCH   1  31
ATOM     31  N   LIG d   1       5.152  -2.111  -5.006  0.00  0.00    -0.284 N 
ATOM     32  C   LIG d   1       4.625  -3.402  -5.468  0.00  0.00     0.040 C 
ATOM     33  C   LIG d   1       4.616  -3.429  -6.998  0.00  0.00    -0.019 C 
ATOM     34  H   LIG d   1       3.599  -3.537  -5.094  0.00  0.00     0.048 H 
ATOM     35  H   LIG d   1       5.262  -4.215  -5.091  0.00  0.00     0.048 H 
ATOM     36  N   LIG d   1       3.796  -2.318  -7.500  0.00  0.00     0.235 N 
ATOM     37  H   LIG d   1       4.195  -4.383  -7.347  0.00  0.00     0.083 H 
ATOM     38  H   LIG d   1       5.645  -3.323  -7.373  0.00  0.00     0.083 H 
ATOM     39  C   LIG d   1       4.323  -1.027  -7.038  0.00  0.00    -0.019 C 
ATOM     40  H   LIG d   1       2.779  -2.436  -7.095  0.00  0.00     0.203 HD
ATOM     41  C   LIG d   1       4.331  -1.000  -5.508  0.00  0.00     0.040 C 
ATOM     42  H   LIG d   1       5.348  -0.894  -7.414  0.00  0.00     0.083 H 
ATOM     43  H   LIG d   1       3.685  -0.214  -7.416  0.00  0.00     0.083 H 
ATOM     44  H   LIG d   1       3.302  -1.105  -5.133  0.00  0.00     0.048 H 
ATOM     45  H   LIG d   1       4.752  -0.046  -5.159  0.00  0.00     0.048 H 
BRANCH  36  46
ATOM     46  C   LIG d   1       3.701  -2.353  -8.966  0.00  0.00    -0.043 C 
ATOM     47  H   LIG d   1       3.406  -1.361  -9.338  0.00  0.00     0.078 H 
ATOM     48  H   LIG d   1       2.947  -3.096  -9.267  0.00  0.00     0.078 H 
ATOM     49  H   LIG d   1       4.677  -2.629  -9.391  0.00  0.00     0.078 H 
ENDBRANCH  36  46
ENDBRANCH   1  31
BRANCH   8  50
ATOM     50  O   LIG d   1       3.054  -1.077  -3.961  0.00  0.00    -0.388 OA
ATOM     51  H   LIG d   1       2.177  -0.460  -3.720  0.00  0.00     0.210 HD
ENDBRANCH   8  50
BRANCH   6  52
ATOM     52  C   LIG d   1       3.491   0.955  -2.322  0.00  0.00     0.073 C 
ATOM     53  H   LIG d   1       2.494   0.549  -2.545  0.00  0.00     0.058 H 
ATOM     54  H   LIG d   1       3.455   1.521  -1.379  0.00  0.00     0.058 H 
BRANCH  52  55
ATOM     55  O   LIG d   1       3.900   1.822  -3.382  0.00  0.00    -0.392 OA
ATOM     56  H   LIG d   1       3.170   2.151  -4.136  0.00  0.00     0.209 HD
ENDBRANCH  52  55
ENDBRANCH   6  52
TORSDOF 8
ENDMDL
