MODEL 1
REMARK VINA RESULT:      -5.6      0.000      0.000
REMARK  4 active torsions:
REMARK  status: ('A' for Active; 'I' for Inactive)
REMARK    1  A    between atoms: C_3  and  N_14 
REMARK    2  A    between atoms: C_4  and  O_9 
REMARK    3  A    between atoms: C_6  and  C_7 
REMARK    4  A    between atoms: O_9  and  C_10 
ROOT
ATOM      1  C   LIG d   1       6.572  -3.802  -4.950  0.00  0.00    -0.051 A 
ATOM      2  C   LIG d   1       7.324  -2.821  -4.342  0.00  0.00    -0.037 A 
ATOM      3  C   LIG d   1       6.709  -1.677  -3.848  0.00  0.00     0.067 A 
ATOM      4  C   LIG d   1       5.326  -1.520  -3.961  0.00  0.00     0.151 A 
ATOM      5  C   LIG d   1       4.568  -2.497  -4.573  0.00  0.00    -0.009 A 
ATOM      6  C   LIG d   1       5.188  -3.649  -5.070  0.00  0.00     0.001 A 
ATOM      7  H   LIG d   1       7.052  -4.691  -5.332  0.00  0.00     0.062 H 
ATOM      8  H   LIG d   1       8.393  -2.942  -4.251  0.00  0.00     0.064 H 
ATOM      9  H   LIG d   1       3.499  -2.375  -4.664  0.00  0.00     0.066 H 
ENDROOT
BRANCH   4  10
ATOM     10  O   LIG d   1       4.726  -0.401  -3.471  0.00  0.00    -0.404 OA
BRANCH  10  11
ATOM     11  C   LIG d   1       4.003  -0.537  -2.246  0.00  0.00     0.575 C 
ATOM     12  F   LIG d   1       4.508  -1.625  -1.524  0.00  0.00    -0.133 F 
ATOM     13  F   LIG d   1       4.145   0.631  -1.489  0.00  0.00    -0.133 F 
ATOM     14  F   LIG d   1       2.649  -0.751  -2.524  0.00  0.00    -0.133 F 
ENDBRANCH  10  11
ENDBRANCH   4  10
BRANCH   3  15
ATOM     15  N   LIG d   1       7.472  -0.687  -3.235  0.00  0.00    -0.355 N 
ATOM     16  H   LIG d   1       8.201  -0.933  -2.643  0.00  0.00     0.142 HD
ATOM     17  H   LIG d   1       7.280   0.248  -3.404  0.00  0.00     0.142 HD
ENDBRANCH   3  15
BRANCH   6  18
ATOM     18  C   LIG d   1       4.382  -4.699  -5.720  0.00  0.00     0.072 C 
ATOM     19  O   LIG d   1       4.003  -4.552  -6.864  0.00  0.00    -0.545 OA
ATOM     20  O   LIG d   1       4.065  -5.821  -5.044  0.00  0.00    -0.545 OA
ENDBRANCH   6  18
TORSDOF 4
ENDMDL
MODEL 2
REMARK VINA RESULT:      -5.4      3.053      4.026
REMARK  4 active torsions:
REMARK  status: ('A' for Active; 'I' for Inactive)
REMARK    1  A    between atoms: C_3  and  N_14 
REMARK    2  A    between atoms: C_4  and  O_9 
REMARK    3  A    between atoms: C_6  and  C_7 
REMARK    4  A    between atoms: O_9  and  C_10 
ROOT
ATOM      1  C   LIG d   1       4.215  -1.129  -6.961  0.00  0.00    -0.051 A 
ATOM      2  C   LIG d   1       4.684  -1.912  -5.930  0.00  0.00    -0.037 A 
ATOM      3  C   LIG d   1       4.334  -1.619  -4.617  0.00  0.00     0.067 A 
ATOM      4  C   LIG d   1       3.500  -0.533  -4.340  0.00  0.00     0.151 A 
ATOM      5  C   LIG d   1       3.031   0.257  -5.369  0.00  0.00    -0.009 A 
ATOM      6  C   LIG d   1       3.383  -0.039  -6.690  0.00  0.00     0.001 A 
ATOM      7  H   LIG d   1       4.488  -1.360  -7.981  0.00  0.00     0.062 H 
ATOM      8  H   LIG d   1       5.326  -2.754  -6.142  0.00  0.00     0.064 H 
ATOM      9  H   LIG d   1       2.389   1.099  -5.155  0.00  0.00     0.066 H 
ENDROOT
BRANCH   4  10
ATOM     10  O   LIG d   1       3.154  -0.253  -3.054  0.00  0.00    -0.404 OA
BRANCH  10  11
ATOM     11  C   LIG d   1       3.982   0.673  -2.348  0.00  0.00     0.575 C 
ATOM     12  F   LIG d   1       3.221   1.785  -1.969  0.00  0.00    -0.133 F 
ATOM     13  F   LIG d   1       4.504   0.055  -1.207  0.00  0.00    -0.133 F 
ATOM     14  F   LIG d   1       5.031   1.086  -3.176  0.00  0.00    -0.133 F 
ENDBRANCH  10  11
ENDBRANCH   4  10
BRANCH   3  15
ATOM     15  N   LIG d   1       4.811  -2.412  -3.577  0.00  0.00    -0.355 N 
ATOM     16  H   LIG d   1       4.190  -2.806  -2.943  0.00  0.00     0.142 HD
ATOM     17  H   LIG d   1       5.763  -2.577  -3.489  0.00  0.00     0.142 HD
ENDBRANCH   3  15
BRANCH   6  18
ATOM     18  C   LIG d   1       2.881   0.799  -7.794  0.00  0.00     0.072 C 
ATOM     19  O   LIG d   1       2.447   0.279  -8.802  0.00  0.00    -0.545 OA
ATOM     20  O   LIG d   1       2.903   2.143  -7.684  0.00  0.00    -0.545 OA
ENDBRANCH   6  18
TORSDOF 4
ENDMDL
MODEL 3
REMARK VINA RESULT:      -5.2      1.945      2.462
REMARK  4 active torsions:
REMARK  status: ('A' for Active; 'I' for Inactive)
REMARK    1  A    between atoms: C_3  and  N_14 
REMARK    2  A    between atoms: C_4  and  O_9 
REMARK    3  A    between atoms: C_6  and  C_7 
REMARK    4  A    between atoms: O_9  and  C_10 
ROOT
ATOM      1  C   LIG d   1       4.695  -2.604  -6.491  0.00  0.00    -0.051 A 
ATOM      2  C   LIG d   1       4.291  -1.287  -6.507  0.00  0.00    -0.037 A 
ATOM      3  C   LIG d   1       3.889  -0.666  -5.330  0.00  0.00     0.067 A 
ATOM      4  C   LIG d   1       3.901  -1.373  -4.126  0.00  0.00     0.151 A 
ATOM      5  C   LIG d   1       4.300  -2.693  -4.104  0.00  0.00    -0.009 A 
ATOM      6  C   LIG d   1       4.704  -3.318  -5.289  0.00  0.00     0.001 A 
ATOM      7  H   LIG d   1       5.008  -3.084  -7.407  0.00  0.00     0.062 H 
ATOM      8  H   LIG d   1       4.285  -0.738  -7.437  0.00  0.00     0.064 H 
ATOM      9  H   LIG d   1       4.305  -3.242  -3.174  0.00  0.00     0.066 H 
ENDROOT
BRANCH   4  10
ATOM     10  O   LIG d   1       3.513  -0.760  -2.974  0.00  0.00    -0.404 OA
BRANCH  10  11
ATOM     11  C   LIG d   1       4.537  -0.455  -2.026  0.00  0.00     0.575 C 
ATOM     12  F   LIG d   1       4.231   0.746  -1.378  0.00  0.00    -0.133 F 
ATOM     13  F   LIG d   1       4.622  -1.485  -1.084  0.00  0.00    -0.133 F 
ATOM     14  F   LIG d   1       5.763  -0.327  -2.689  0.00  0.00    -0.133 F 
ENDBRANCH  10  11
ENDBRANCH   4  10
BRANCH   3  15
ATOM     15  N   LIG d   1       3.481   0.665  -5.352  0.00  0.00    -0.355 N 
ATOM     16  H   LIG d   1       3.843   1.294  -4.707  0.00  0.00     0.142 HD
ATOM     17  H   LIG d   1       2.840   0.965  -6.014  0.00  0.00     0.142 HD
ENDBRANCH   3  15
BRANCH   6  18
ATOM     18  C   LIG d   1       5.137  -4.727  -5.270  0.00  0.00     0.072 C 
ATOM     19  O   LIG d   1       6.312  -5.003  -5.407  0.00  0.00    -0.545 OA
ATOM     20  O   LIG d   1       4.228  -5.709  -5.103  0.00  0.00    -0.545 OA
ENDBRANCH   6  18
TORSDOF 4
ENDMDL
MODEL 4
REMARK VINA RESULT:      -5.1      3.354      5.118
REMARK  4 active torsions:
REMARK  status: ('A' for Active; 'I' for Inactive)
REMARK    1  A    between atoms: C_3  and  N_14 
REMARK    2  A    between atoms: C_4  and  O_9 
REMARK    3  A    between atoms: C_6  and  C_7 
REMARK    4  A    between atoms: O_9  and  C_10 
ROOT
ATOM      1  C   LIG d   1       4.963  -1.538  -2.849  0.00  0.00    -0.051 A 
ATOM      2  C   LIG d   1       4.615  -2.637  -3.603  0.00  0.00    -0.037 A 
ATOM      3  C   LIG d   1       4.357  -2.498  -4.961  0.00  0.00     0.067 A 
ATOM      4  C   LIG d   1       4.455  -1.244  -5.568  0.00  0.00     0.151 A 
ATOM      5  C   LIG d   1       4.798  -0.139  -4.818  0.00  0.00    -0.009 A 
ATOM      6  C   LIG d   1       5.058  -0.280  -3.450  0.00  0.00     0.001 A 
ATOM      7  H   LIG d   1       5.164  -1.649  -1.793  0.00  0.00     0.062 H 
ATOM      8  H   LIG d   1       4.542  -3.609  -3.136  0.00  0.00     0.064 H 
ATOM      9  H   LIG d   1       4.871   0.832  -5.285  0.00  0.00     0.066 H 
ENDROOT
BRANCH   4  10
ATOM     10  O   LIG d   1       4.207  -1.112  -6.900  0.00  0.00    -0.404 OA
BRANCH  10  11
ATOM     11  C   LIG d   1       3.143  -0.236  -7.277  0.00  0.00     0.575 C 
ATOM     12  F   LIG d   1       2.397  -0.824  -8.305  0.00  0.00    -0.133 F 
ATOM     13  F   LIG d   1       2.315  -0.007  -6.173  0.00  0.00    -0.133 F 
ATOM     14  F   LIG d   1       3.674   0.978  -7.723  0.00  0.00    -0.133 F 
ENDBRANCH  10  11
ENDBRANCH   4  10
BRANCH   3  15
ATOM     15  N   LIG d   1       4.005  -3.611  -5.719  0.00  0.00    -0.355 N 
ATOM     16  H   LIG d   1       3.158  -3.628  -6.194  0.00  0.00     0.142 HD
ATOM     17  H   LIG d   1       4.608  -4.369  -5.778  0.00  0.00     0.142 HD
ENDBRANCH   3  15
BRANCH   6  18
ATOM     18  C   LIG d   1       5.430   0.897  -2.644  0.00  0.00     0.072 C 
ATOM     19  O   LIG d   1       4.885   1.100  -1.578  0.00  0.00    -0.545 OA
ATOM     20  O   LIG d   1       6.375   1.749  -3.091  0.00  0.00    -0.545 OA
ENDBRANCH   6  18
TORSDOF 4
ENDMDL
MODEL 5
REMARK VINA RESULT:      -5.1      2.815      3.443
REMARK  4 active torsions:
REMARK  status: ('A' for Active; 'I' for Inactive)
REMARK    1  A    between atoms: C_3  and  N_14 
REMARK    2  A    between atoms: C_4  and  O_9 
REMARK    3  A    between atoms: C_6  and  C_7 
REMARK    4  A    between atoms: O_9  and  C_10 
ROOT
ATOM      1  C   LIG d   1       5.998  -2.746  -5.119  0.00  0.00    -0.051 A 
ATOM      2  C   LIG d   1       4.657  -2.437  -5.056  0.00  0.00    -0.037 A 
ATOM      3  C   LIG d   1       4.150  -1.749  -3.961  0.00  0.00     0.067 A 
ATOM      4  C   LIG d   1       5.000  -1.362  -2.922  0.00  0.00     0.151 A 
ATOM      5  C   LIG d   1       6.342  -1.672  -2.977  0.00  0.00    -0.009 A 
ATOM      6  C   LIG d   1       6.852  -2.365  -4.080  0.00  0.00     0.001 A 
ATOM      7  H   LIG d   1       6.389  -3.281  -5.972  0.00  0.00     0.062 H 
ATOM      8  H   LIG d   1       3.999  -2.732  -5.860  0.00  0.00     0.064 H 
ATOM      9  H   LIG d   1       6.999  -1.377  -2.172  0.00  0.00     0.066 H 
ENDROOT
BRANCH   4  10
ATOM     10  O   LIG d   1       4.501  -0.682  -1.853  0.00  0.00    -0.404 OA
BRANCH  10  11
ATOM     11  C   LIG d   1       4.502   0.745  -1.936  0.00  0.00     0.575 C 
ATOM     12  F   LIG d   1       5.362   1.153  -2.961  0.00  0.00    -0.133 F 
ATOM     13  F   LIG d   1       3.206   1.196  -2.207  0.00  0.00    -0.133 F 
ATOM     14  F   LIG d   1       4.938   1.282  -0.720  0.00  0.00    -0.133 F 
ENDBRANCH  10  11
ENDBRANCH   4  10
BRANCH   3  15
ATOM     15  N   LIG d   1       2.794  -1.439  -3.901  0.00  0.00    -0.355 N 
ATOM     16  H   LIG d   1       2.429  -0.743  -4.472  0.00  0.00     0.142 HD
ATOM     17  H   LIG d   1       2.212  -1.922  -3.294  0.00  0.00     0.142 HD
ENDBRANCH   3  15
BRANCH   6  18
ATOM     18  C   LIG d   1       8.287  -2.695  -4.146  0.00  0.00     0.072 C 
ATOM     19  O   LIG d   1       8.789  -3.396  -3.290  0.00  0.00    -0.545 OA
ATOM     20  O   LIG d   1       9.043  -2.219  -5.155  0.00  0.00    -0.545 OA
ENDBRANCH   6  18
TORSDOF 4
ENDMDL
MODEL 6
REMARK VINA RESULT:      -5.0      2.777      3.098
REMARK  4 active torsions:
REMARK  status: ('A' for Active; 'I' for Inactive)
REMARK    1  A    between atoms: C_3  and  N_14 
REMARK    2  A    between atoms: C_4  and  O_9 
REMARK    3  A    between atoms: C_6  and  C_7 
REMARK    4  A    between atoms: O_9  and  C_10 
ROOT
ATOM      1  C   LIG d   1       5.905  -0.273  -6.814  0.00  0.00    -0.051 A 
ATOM      2  C   LIG d   1       6.902  -0.082  -5.883  0.00  0.00    -0.037 A 
ATOM      3  C   LIG d   1       6.598  -0.081  -4.526  0.00  0.00     0.067 A 
ATOM      4  C   LIG d   1       5.283  -0.281  -4.103  0.00  0.00     0.151 A 
ATOM      5  C   LIG d   1       4.280  -0.468  -5.031  0.00  0.00    -0.009 A 
ATOM      6  C   LIG d   1       4.586  -0.469  -6.396  0.00  0.00     0.001 A 
ATOM      7  H   LIG d   1       6.144  -0.274  -7.868  0.00  0.00     0.062 H 
ATOM      8  H   LIG d   1       7.921   0.069  -6.208  0.00  0.00     0.064 H 
ATOM      9  H   LIG d   1       3.261  -0.619  -4.704  0.00  0.00     0.066 H 
ENDROOT
BRANCH   4  10
ATOM     10  O   LIG d   1       4.990  -0.287  -2.773  0.00  0.00    -0.404 OA
BRANCH  10  11
ATOM     11  C   LIG d   1       4.316   0.861  -2.254  0.00  0.00     0.575 C 
ATOM     12  F   LIG d   1       2.934   0.647  -2.289  0.00  0.00    -0.133 F 
ATOM     13  F   LIG d   1       4.720   1.081  -0.933  0.00  0.00    -0.133 F 
ATOM     14  F   LIG d   1       4.634   1.980  -3.031  0.00  0.00    -0.133 F 
ENDBRANCH  10  11
ENDBRANCH   4  10
BRANCH   3  15
ATOM     15  N   LIG d   1       7.609   0.112  -3.588  0.00  0.00    -0.355 N 
ATOM     16  H   LIG d   1       8.096  -0.649  -3.235  0.00  0.00     0.142 HD
ATOM     17  H   LIG d   1       7.830   1.009  -3.291  0.00  0.00     0.142 HD
ENDBRANCH   3  15
BRANCH   6  18
ATOM     18  C   LIG d   1       3.518  -0.673  -7.392  0.00  0.00     0.072 C 
ATOM     19  O   LIG d   1       2.476  -0.057  -7.300  0.00  0.00    -0.545 OA
ATOM     20  O   LIG d   1       3.698  -1.545  -8.404  0.00  0.00    -0.545 OA
ENDBRANCH   6  18
TORSDOF 4
ENDMDL
MODEL 7
REMARK VINA RESULT:      -4.6      2.703      4.203
REMARK  4 active torsions:
REMARK  status: ('A' for Active; 'I' for Inactive)
REMARK    1  A    between atoms: C_3  and  N_14 
REMARK    2  A    between atoms: C_4  and  O_9 
REMARK    3  A    between atoms: C_6  and  C_7 
REMARK    4  A    between atoms: O_9  and  C_10 
ROOT
ATOM      1  C   LIG d   1       6.183  -0.519  -6.724  0.00  0.00    -0.051 A 
ATOM      2  C   LIG d   1       5.327  -1.598  -6.740  0.00  0.00    -0.037 A 
ATOM      3  C   LIG d   1       4.971  -2.223  -5.551  0.00  0.00     0.067 A 
ATOM      4  C   LIG d   1       5.476  -1.756  -4.336  0.00  0.00     0.151 A 
ATOM      5  C   LIG d   1       6.337  -0.679  -4.314  0.00  0.00    -0.009 A 
ATOM      6  C   LIG d   1       6.695  -0.050  -5.511  0.00  0.00     0.001 A 
ATOM      7  H   LIG d   1       6.458  -0.034  -7.650  0.00  0.00     0.062 H 
ATOM      8  H   LIG d   1       4.933  -1.958  -7.679  0.00  0.00     0.064 H 
ATOM      9  H   LIG d   1       6.731  -0.320  -3.374  0.00  0.00     0.066 H 
ENDROOT
BRANCH   4  10
ATOM     10  O   LIG d   1       5.120  -2.367  -3.172  0.00  0.00    -0.404 OA
BRANCH  10  11
ATOM     11  C   LIG d   1       4.033  -1.792  -2.445  0.00  0.00     0.575 C 
ATOM     12  F   LIG d   1       3.310  -2.806  -1.806  0.00  0.00    -0.133 F 
ATOM     13  F   LIG d   1       4.533  -0.902  -1.488  0.00  0.00    -0.133 F 
ATOM     14  F   LIG d   1       3.193  -1.105  -3.327  0.00  0.00    -0.133 F 
ENDBRANCH  10  11
ENDBRANCH   4  10
BRANCH   3  15
ATOM     15  N   LIG d   1       4.106  -3.314  -5.572  0.00  0.00    -0.355 N 
ATOM     16  H   LIG d   1       3.198  -3.206  -5.897  0.00  0.00     0.142 HD
ATOM     17  H   LIG d   1       4.411  -4.182  -5.266  0.00  0.00     0.142 HD
ENDBRANCH   3  15
BRANCH   6  18
ATOM     18  C   LIG d   1       7.612   1.105  -5.493  0.00  0.00     0.072 C 
ATOM     19  O   LIG d   1       7.483   1.969  -4.649  0.00  0.00    -0.545 OA
ATOM     20  O   LIG d   1       8.592   1.202  -6.413  0.00  0.00    -0.545 OA
ENDBRANCH   6  18
TORSDOF 4
ENDMDL
MODEL 8
REMARK VINA RESULT:      -4.6      2.975      3.772
REMARK  4 active torsions:
REMARK  status: ('A' for Active; 'I' for Inactive)
REMARK    1  A    between atoms: C_3  and  N_14 
REMARK    2  A    between atoms: C_4  and  O_9 
REMARK    3  A    between atoms: C_6  and  C_7 
REMARK    4  A    between atoms: O_9  and  C_10 
ROOT
ATOM      1  C   LIG d   1       5.470  -1.529  -6.406  0.00  0.00    -0.051 A 
ATOM      2  C   LIG d   1       4.722  -2.232  -5.488  0.00  0.00    -0.037 A 
ATOM      3  C   LIG d   1       4.687  -1.826  -4.159  0.00  0.00     0.067 A 
ATOM      4  C   LIG d   1       5.406  -0.700  -3.752  0.00  0.00     0.151 A 
ATOM      5  C   LIG d   1       6.161   0.005  -4.665  0.00  0.00    -0.009 A 
ATOM      6  C   LIG d   1       6.195  -0.404  -6.003  0.00  0.00     0.001 A 
ATOM      7  H   LIG d   1       5.496  -1.846  -7.439  0.00  0.00     0.062 H 
ATOM      8  H   LIG d   1       4.163  -3.101  -5.802  0.00  0.00     0.064 H 
ATOM      9  H   LIG d   1       6.720   0.874  -4.350  0.00  0.00     0.066 H 
ENDROOT
BRANCH   4  10
ATOM     10  O   LIG d   1       5.364  -0.302  -2.451  0.00  0.00    -0.404 OA
BRANCH  10  11
ATOM     11  C   LIG d   1       4.489   0.782  -2.133  0.00  0.00     0.575 C 
ATOM     12  F   LIG d   1       4.717   1.195  -0.816  0.00  0.00    -0.133 F 
ATOM     13  F   LIG d   1       4.733   1.849  -3.005  0.00  0.00    -0.133 F 
ATOM     14  F   LIG d   1       3.161   0.364  -2.267  0.00  0.00    -0.133 F 
ENDBRANCH  10  11
ENDBRANCH   4  10
BRANCH   3  15
ATOM     15  N   LIG d   1       3.930  -2.540  -3.234  0.00  0.00    -0.355 N 
ATOM     16  H   LIG d   1       4.329  -2.823  -2.395  0.00  0.00     0.142 HD
ATOM     17  H   LIG d   1       3.003  -2.751  -3.425  0.00  0.00     0.142 HD
ENDBRANCH   3  15
BRANCH   6  18
ATOM     18  C   LIG d   1       6.997   0.349  -6.985  0.00  0.00     0.072 C 
ATOM     19  O   LIG d   1       8.168   0.075  -7.150  0.00  0.00    -0.545 OA
ATOM     20  O   LIG d   1       6.429   1.343  -7.698  0.00  0.00    -0.545 OA
ENDBRANCH   6  18
TORSDOF 4
ENDMDL
MODEL 9
REMARK VINA RESULT:      -4.6      2.477      3.298
REMARK  4 active torsions:
REMARK  status: ('A' for Active; 'I' for Inactive)
REMARK    1  A    between atoms: C_3  and  N_14 
REMARK    2  A    between atoms: C_4  and  O_9 
REMARK    3  A    between atoms: C_6  and  C_7 
REMARK    4  A    between atoms: O_9  and  C_10 
ROOT
ATOM      1  C   LIG d   1       6.101  -0.059  -6.746  0.00  0.00    -0.051 A 
ATOM      2  C   LIG d   1       7.032  -0.425  -5.800  0.00  0.00    -0.037 A 
ATOM      3  C   LIG d   1       6.630  -1.085  -4.644  0.00  0.00     0.067 A 
ATOM      4  C   LIG d   1       5.281  -1.384  -4.442  0.00  0.00     0.151 A 
ATOM      5  C   LIG d   1       4.344  -1.015  -5.384  0.00  0.00    -0.009 A 
ATOM      6  C   LIG d   1       4.749  -0.351  -6.547  0.00  0.00     0.001 A 
ATOM      7  H   LIG d   1       6.416   0.454  -7.643  0.00  0.00     0.062 H 
ATOM      8  H   LIG d   1       8.077  -0.198  -5.956  0.00  0.00     0.064 H 
ATOM      9  H   LIG d   1       3.299  -1.243  -5.227  0.00  0.00     0.066 H 
ENDROOT
BRANCH   4  10
ATOM     10  O   LIG d   1       4.891  -2.036  -3.313  0.00  0.00    -0.404 OA
BRANCH  10  11
ATOM     11  C   LIG d   1       4.151  -1.281  -2.352  0.00  0.00     0.575 C 
ATOM     12  F   LIG d   1       2.782  -1.499  -2.542  0.00  0.00    -0.133 F 
ATOM     13  F   LIG d   1       4.513  -1.686  -1.063  0.00  0.00    -0.133 F 
ATOM     14  F   LIG d   1       4.433   0.080  -2.511  0.00  0.00    -0.133 F 
ENDBRANCH  10  11
ENDBRANCH   4  10
BRANCH   3  15
ATOM     15  N   LIG d   1       7.574  -1.454  -3.690  0.00  0.00    -0.355 N 
ATOM     16  H   LIG d   1       8.260  -0.823  -3.417  0.00  0.00     0.142 HD
ATOM     17  H   LIG d   1       7.545  -2.339  -3.294  0.00  0.00     0.142 HD
ENDBRANCH   3  15
BRANCH   6  18
ATOM     18  C   LIG d   1       3.751   0.042  -7.559  0.00  0.00     0.072 C 
ATOM     19  O   LIG d   1       2.965  -0.780  -7.987  0.00  0.00    -0.545 OA
ATOM     20  O   LIG d   1       3.712   1.311  -8.010  0.00  0.00    -0.545 OA
ENDBRANCH   6  18
TORSDOF 4
ENDMDL
MODEL 10
REMARK VINA RESULT:      -4.5      8.382      9.038
REMARK  4 active torsions:
REMARK  status: ('A' for Active; 'I' for Inactive)
REMARK    1  A    between atoms: C_3  and  N_14 
REMARK    2  A    between atoms: C_4  and  O_9 
REMARK    3  A    between atoms: C_6  and  C_7 
REMARK    4  A    between atoms: O_9  and  C_10 
ROOT
ATOM      1  C   LIG d   1       5.483  -9.348  -4.390  0.00  0.00    -0.051 A 
ATOM      2  C   LIG d   1       6.802  -9.008  -4.184  0.00  0.00    -0.037 A 
ATOM      3  C   LIG d   1       7.423  -9.322  -2.980  0.00  0.00     0.067 A 
ATOM      4  C   LIG d   1       6.714  -9.988  -1.979  0.00  0.00     0.151 A 
ATOM      5  C   LIG d   1       5.392 -10.327  -2.178  0.00  0.00    -0.009 A 
ATOM      6  C   LIG d   1       4.767 -10.011  -3.389  0.00  0.00     0.001 A 
ATOM      7  H   LIG d   1       5.003  -9.104  -5.326  0.00  0.00     0.062 H 
ATOM      8  H   LIG d   1       7.353  -8.496  -4.958  0.00  0.00     0.064 H 
ATOM      9  H   LIG d   1       4.841 -10.839  -1.402  0.00  0.00     0.066 H 
ENDROOT
BRANCH   4  10
ATOM     10  O   LIG d   1       7.327 -10.300  -0.804  0.00  0.00    -0.404 OA
BRANCH  10  11
ATOM     11  C   LIG d   1       7.739 -11.657  -0.629  0.00  0.00     0.575 C 
ATOM     12  F   LIG d   1       6.664 -12.413  -0.149  0.00  0.00    -0.133 F 
ATOM     13  F   LIG d   1       8.164 -12.177  -1.856  0.00  0.00    -0.133 F 
ATOM     14  F   LIG d   1       8.793 -11.709   0.290  0.00  0.00    -0.133 F 
ENDBRANCH  10  11
ENDBRANCH   4  10
BRANCH   3  15
ATOM     15  N   LIG d   1       8.756  -8.976  -2.776  0.00  0.00    -0.355 N 
ATOM     16  H   LIG d   1       9.209  -9.250  -1.962  0.00  0.00     0.142 HD
ATOM     17  H   LIG d   1       9.234  -8.467  -3.449  0.00  0.00     0.142 HD
ENDBRANCH   3  15
BRANCH   6  18
ATOM     18  C   LIG d   1       3.355 -10.375  -3.609  0.00  0.00     0.072 C 
ATOM     19  O   LIG d   1       2.475  -9.769  -3.030  0.00  0.00    -0.545 OA
ATOM     20  O   LIG d   1       3.041 -11.379  -4.450  0.00  0.00    -0.545 OA
ENDBRANCH   6  18
TORSDOF 4
ENDMDL
