MODEL 1
REMARK VINA RESULT:      -7.3      0.000      0.000
REMARK  6 active torsions:
REMARK  status: ('A' for Active; 'I' for Inactive)
REMARK    1  A    between atoms: C_6  and  C_7 
REMARK    2  A    between atoms: C_7  and  O_8 
REMARK    3  A    between atoms: O_8  and  C_9 
REMARK    4  A    between atoms: C_9  and  C_11 
REMARK    5  A    between atoms: C_11  and  C_12 
REMARK    6  A    between atoms: C_11  and  C_16 
ROOT
ATOM      1  C   LIG d   1       2.640   0.101  -6.135  0.00  0.00     0.118 C 
ATOM      2  H   LIG d   1       1.651   0.478  -5.876  0.00  0.00     0.075 H 
ATOM      3  H   LIG d   1       2.659  -0.983  -6.020  0.00  0.00     0.075 H 
ENDROOT
BRANCH   1   4
ATOM      4  C   LIG d   1       2.953   0.458  -7.566  0.00  0.00    -0.010 A 
ATOM      5  C   LIG d   1       2.980   1.783  -7.957  0.00  0.00    -0.053 A 
ATOM      6  C   LIG d   1       3.266   2.112  -9.269  0.00  0.00    -0.026 A 
ATOM      7  H   LIG d   1       2.781   2.563  -7.238  0.00  0.00     0.062 H 
ATOM      8  C   LIG d   1       3.528   1.112 -10.191  0.00  0.00     0.123 A 
ATOM      9  H   LIG d   1       3.287   3.147  -9.575  0.00  0.00     0.065 H 
ATOM     10  C   LIG d   1       3.501  -0.215  -9.798  0.00  0.00    -0.026 A 
ATOM     11  F   LIG d   1       3.808   1.431 -11.474  0.00  0.00    -0.205 F 
ATOM     12  C   LIG d   1       3.214  -0.541  -8.486  0.00  0.00    -0.053 A 
ATOM     13  H   LIG d   1       3.704  -0.996 -10.516  0.00  0.00     0.065 H 
ATOM     14  H   LIG d   1       3.193  -1.576  -8.178  0.00  0.00     0.062 H 
ENDBRANCH   1   4
BRANCH   1  15
ATOM     15  O   LIG d   1       3.616   0.688  -5.274  0.00  0.00    -0.459 OA
BRANCH  15  16
ATOM     16  C   LIG d   1       4.601  -0.110  -4.835  0.00  0.00     0.342 C 
ATOM     17  O   LIG d   1       5.292  -0.709  -5.626  0.00  0.00    -0.249 OA
BRANCH  16  18
ATOM     18  C   LIG d   1       4.847  -0.263  -3.356  0.00  0.00     0.309 C 
ATOM     19 BR   LIG d   1       6.537  -1.226  -3.068  0.00  0.00    -0.054 Br
BRANCH  18  20
ATOM     20  C   LIG d   1       4.931   1.119  -2.706  0.00  0.00     0.424 C 
ATOM     21  F   LIG d   1       4.914   0.983  -1.315  0.00  0.00    -0.168 F 
ATOM     22  F   LIG d   1       6.118   1.748  -3.099  0.00  0.00    -0.168 F 
ATOM     23  F   LIG d   1       3.838   1.892  -3.113  0.00  0.00    -0.168 F 
ENDBRANCH  18  20
BRANCH  18  24
ATOM     24  C   LIG d   1       3.697  -1.053  -2.727  0.00  0.00     0.424 C 
ATOM     25  F   LIG d   1       4.131  -1.638  -1.532  0.00  0.00    -0.168 F 
ATOM     26  F   LIG d   1       2.628  -0.190  -2.463  0.00  0.00    -0.168 F 
ATOM     27  F   LIG d   1       3.281  -2.053  -3.612  0.00  0.00    -0.168 F 
ENDBRANCH  18  24
ENDBRANCH  16  18
ENDBRANCH  15  16
ENDBRANCH   1  15
TORSDOF 6
ENDMDL
MODEL 2
REMARK VINA RESULT:      -7.2      1.277      2.558
REMARK  6 active torsions:
REMARK  status: ('A' for Active; 'I' for Inactive)
REMARK    1  A    between atoms: C_6  and  C_7 
REMARK    2  A    between atoms: C_7  and  O_8 
REMARK    3  A    between atoms: O_8  and  C_9 
REMARK    4  A    between atoms: C_9  and  C_11 
REMARK    5  A    between atoms: C_11  and  C_12 
REMARK    6  A    between atoms: C_11  and  C_16 
ROOT
ATOM      1  C   LIG d   1       2.783   0.595  -6.266  0.00  0.00     0.118 C 
ATOM      2  H   LIG d   1       3.007   1.528  -5.749  0.00  0.00     0.075 H 
ATOM      3  H   LIG d   1       1.724   0.361  -6.151  0.00  0.00     0.075 H 
ENDROOT
BRANCH   1   4
ATOM      4  C   LIG d   1       3.107   0.742  -7.731  0.00  0.00    -0.010 A 
ATOM      5  C   LIG d   1       3.470  -0.367  -8.472  0.00  0.00    -0.053 A 
ATOM      6  C   LIG d   1       3.768  -0.233  -9.815  0.00  0.00    -0.026 A 
ATOM      7  H   LIG d   1       3.518  -1.338  -8.004  0.00  0.00     0.062 H 
ATOM      8  C   LIG d   1       3.701   1.012 -10.418  0.00  0.00     0.123 A 
ATOM      9  H   LIG d   1       4.053  -1.099 -10.395  0.00  0.00     0.065 H 
ATOM     10  C   LIG d   1       3.337   2.121  -9.674  0.00  0.00    -0.026 A 
ATOM     11  F   LIG d   1       3.993   1.144 -11.731  0.00  0.00    -0.205 F 
ATOM     12  C   LIG d   1       3.039   1.985  -8.332  0.00  0.00    -0.053 A 
ATOM     13  H   LIG d   1       3.285   3.093 -10.143  0.00  0.00     0.065 H 
ATOM     14  H   LIG d   1       2.755   2.850  -7.751  0.00  0.00     0.062 H 
ENDBRANCH   1   4
BRANCH   1  15
ATOM     15  O   LIG d   1       3.567  -0.461  -5.709  0.00  0.00    -0.459 OA
BRANCH  15  16
ATOM     16  C   LIG d   1       4.547  -0.110  -4.862  0.00  0.00     0.342 C 
ATOM     17  O   LIG d   1       5.597   0.306  -5.293  0.00  0.00    -0.249 OA
BRANCH  16  18
ATOM     18  C   LIG d   1       4.341  -0.235  -3.375  0.00  0.00     0.309 C 
ATOM     19 BR   LIG d   1       2.489  -0.786  -3.013  0.00  0.00    -0.054 Br
BRANCH  18  20
ATOM     20  C   LIG d   1       5.304  -1.281  -2.811  0.00  0.00     0.424 C 
ATOM     21  F   LIG d   1       6.568  -0.707  -2.639  0.00  0.00    -0.168 F 
ATOM     22  F   LIG d   1       4.827  -1.737  -1.577  0.00  0.00    -0.168 F 
ATOM     23  F   LIG d   1       5.398  -2.356  -3.702  0.00  0.00    -0.168 F 
ENDBRANCH  18  20
BRANCH  18  24
ATOM     24  C   LIG d   1       4.609   1.117  -2.709  0.00  0.00     0.424 C 
ATOM     25  F   LIG d   1       4.515   0.980  -1.319  0.00  0.00    -0.168 F 
ATOM     26  F   LIG d   1       5.893   1.558  -3.048  0.00  0.00    -0.168 F 
ATOM     27  F   LIG d   1       3.664   2.050  -3.150  0.00  0.00    -0.168 F 
ENDBRANCH  18  24
ENDBRANCH  16  18
ENDBRANCH  15  16
ENDBRANCH   1  15
TORSDOF 6
ENDMDL
MODEL 3
REMARK VINA RESULT:      -7.1      1.345      1.736
REMARK  6 active torsions:
REMARK  status: ('A' for Active; 'I' for Inactive)
REMARK    1  A    between atoms: C_6  and  C_7 
REMARK    2  A    between atoms: C_7  and  O_8 
REMARK    3  A    between atoms: O_8  and  C_9 
REMARK    4  A    between atoms: C_9  and  C_11 
REMARK    5  A    between atoms: C_11  and  C_12 
REMARK    6  A    between atoms: C_11  and  C_16 
ROOT
ATOM      1  C   LIG d   1       4.813  -0.347  -6.759  0.00  0.00     0.118 C 
ATOM      2  H   LIG d   1       5.710  -0.871  -7.090  0.00  0.00     0.075 H 
ATOM      3  H   LIG d   1       5.056   0.696  -6.553  0.00  0.00     0.075 H 
ENDROOT
BRANCH   1   4
ATOM      4  C   LIG d   1       3.766  -0.413  -7.842  0.00  0.00    -0.010 A 
ATOM      5  C   LIG d   1       3.173   0.748  -8.301  0.00  0.00    -0.053 A 
ATOM      6  C   LIG d   1       2.213   0.689  -9.293  0.00  0.00    -0.026 A 
ATOM      7  H   LIG d   1       3.463   1.703  -7.888  0.00  0.00     0.062 H 
ATOM      8  C   LIG d   1       1.845  -0.535  -9.827  0.00  0.00     0.123 A 
ATOM      9  H   LIG d   1       1.750   1.597  -9.652  0.00  0.00     0.065 H 
ATOM     10  C   LIG d   1       2.439  -1.696  -9.366  0.00  0.00    -0.026 A 
ATOM     11  F   LIG d   1       0.905  -0.594 -10.797  0.00  0.00    -0.205 F 
ATOM     12  C   LIG d   1       3.399  -1.635  -8.374  0.00  0.00    -0.053 A 
ATOM     13  H   LIG d   1       2.153  -2.652  -9.781  0.00  0.00     0.065 H 
ATOM     14  H   LIG d   1       3.863  -2.541  -8.014  0.00  0.00     0.062 H 
ENDBRANCH   1   4
BRANCH   1  15
ATOM     15  O   LIG d   1       4.310  -0.962  -5.572  0.00  0.00    -0.459 OA
BRANCH  15  16
ATOM     16  C   LIG d   1       3.982  -0.149  -4.556  0.00  0.00     0.342 C 
ATOM     17  O   LIG d   1       3.194   0.750  -4.731  0.00  0.00    -0.249 OA
BRANCH  16  18
ATOM     18  C   LIG d   1       4.597  -0.356  -3.196  0.00  0.00     0.309 C 
ATOM     19 BR   LIG d   1       6.530  -0.656  -3.388  0.00  0.00    -0.054 Br
BRANCH  18  20
ATOM     20  C   LIG d   1       4.357   0.884  -2.333  0.00  0.00     0.424 C 
ATOM     21  F   LIG d   1       2.983   1.123  -2.232  0.00  0.00    -0.168 F 
ATOM     22  F   LIG d   1       4.888   0.674  -1.056  0.00  0.00    -0.168 F 
ATOM     23  F   LIG d   1       4.981   1.989  -2.922  0.00  0.00    -0.168 F 
ENDBRANCH  18  20
BRANCH  18  24
ATOM     24  C   LIG d   1       3.957  -1.575  -2.527  0.00  0.00     0.424 C 
ATOM     25  F   LIG d   1       4.401  -1.669  -1.204  0.00  0.00    -0.168 F 
ATOM     26  F   LIG d   1       2.564  -1.438  -2.542  0.00  0.00    -0.168 F 
ATOM     27  F   LIG d   1       4.318  -2.733  -3.225  0.00  0.00    -0.168 F 
ENDBRANCH  18  24
ENDBRANCH  16  18
ENDBRANCH  15  16
ENDBRANCH   1  15
TORSDOF 6
ENDMDL
MODEL 4
REMARK VINA RESULT:      -7.1      1.549      2.199
REMARK  6 active torsions:
REMARK  status: ('A' for Active; 'I' for Inactive)
REMARK    1  A    between atoms: C_6  and  C_7 
REMARK    2  A    between atoms: C_7  and  O_8 
REMARK    3  A    between atoms: O_8  and  C_9 
REMARK    4  A    between atoms: C_9  and  C_11 
REMARK    5  A    between atoms: C_11  and  C_12 
REMARK    6  A    between atoms: C_11  and  C_16 
ROOT
ATOM      1  C   LIG d   1       4.722  -1.168  -7.043  0.00  0.00     0.118 C 
ATOM      2  H   LIG d   1       3.887  -1.865  -6.968  0.00  0.00     0.075 H 
ATOM      3  H   LIG d   1       5.588  -1.681  -7.459  0.00  0.00     0.075 H 
ENDROOT
BRANCH   1   4
ATOM      4  C   LIG d   1       4.339  -0.021  -7.943  0.00  0.00    -0.010 A 
ATOM      5  C   LIG d   1       5.129   0.296  -9.031  0.00  0.00    -0.053 A 
ATOM      6  C   LIG d   1       4.780   1.348  -9.857  0.00  0.00    -0.026 A 
ATOM      7  H   LIG d   1       6.018  -0.280  -9.239  0.00  0.00     0.062 H 
ATOM      8  C   LIG d   1       3.636   2.084  -9.594  0.00  0.00     0.123 A 
ATOM      9  H   LIG d   1       5.397   1.595 -10.708  0.00  0.00     0.065 H 
ATOM     10  C   LIG d   1       2.846   1.765  -8.503  0.00  0.00    -0.026 A 
ATOM     11  F   LIG d   1       3.293   3.112 -10.400  0.00  0.00    -0.205 F 
ATOM     12  C   LIG d   1       3.197   0.713  -7.679  0.00  0.00    -0.053 A 
ATOM     13  H   LIG d   1       1.953   2.338  -8.296  0.00  0.00     0.065 H 
ATOM     14  H   LIG d   1       2.581   0.463  -6.828  0.00  0.00     0.062 H 
ENDBRANCH   1   4
BRANCH   1  15
ATOM     15  O   LIG d   1       5.043  -0.667  -5.744  0.00  0.00    -0.459 OA
BRANCH  15  16
ATOM     16  C   LIG d   1       4.450  -1.262  -4.698  0.00  0.00     0.342 C 
ATOM     17  O   LIG d   1       3.966  -2.362  -4.822  0.00  0.00    -0.249 OA
BRANCH  16  18
ATOM     18  C   LIG d   1       4.386  -0.559  -3.366  0.00  0.00     0.309 C 
ATOM     19 BR   LIG d   1       5.755   0.851  -3.302  0.00  0.00    -0.054 Br
BRANCH  18  20
ATOM     20  C   LIG d   1       3.002   0.066  -3.184  0.00  0.00     0.424 C 
ATOM     21  F   LIG d   1       2.104  -0.910  -2.739  0.00  0.00    -0.168 F 
ATOM     22  F   LIG d   1       3.076   1.097  -2.241  0.00  0.00    -0.168 F 
ATOM     23  F   LIG d   1       2.560   0.583  -4.407  0.00  0.00    -0.168 F 
ENDBRANCH  18  20
BRANCH  18  24
ATOM     24  C   LIG d   1       4.642  -1.568  -2.244  0.00  0.00     0.424 C 
ATOM     25  F   LIG d   1       4.575  -0.918  -1.007  0.00  0.00    -0.168 F 
ATOM     26  F   LIG d   1       3.674  -2.577  -2.294  0.00  0.00    -0.168 F 
ATOM     27  F   LIG d   1       5.912  -2.133  -2.406  0.00  0.00    -0.168 F 
ENDBRANCH  18  24
ENDBRANCH  16  18
ENDBRANCH  15  16
ENDBRANCH   1  15
TORSDOF 6
ENDMDL
MODEL 5
REMARK VINA RESULT:      -6.9      1.869      2.609
REMARK  6 active torsions:
REMARK  status: ('A' for Active; 'I' for Inactive)
REMARK    1  A    between atoms: C_6  and  C_7 
REMARK    2  A    between atoms: C_7  and  O_8 
REMARK    3  A    between atoms: O_8  and  C_9 
REMARK    4  A    between atoms: C_9  and  C_11 
REMARK    5  A    between atoms: C_11  and  C_12 
REMARK    6  A    between atoms: C_11  and  C_16 
ROOT
ATOM      1  C   LIG d   1       4.588  -1.830  -6.940  0.00  0.00     0.118 C 
ATOM      2  H   LIG d   1       4.775  -2.904  -6.908  0.00  0.00     0.075 H 
ATOM      3  H   LIG d   1       5.519  -1.305  -7.152  0.00  0.00     0.075 H 
ENDROOT
BRANCH   1   4
ATOM      4  C   LIG d   1       3.584  -1.527  -8.022  0.00  0.00    -0.010 A 
ATOM      5  C   LIG d   1       3.213  -2.514  -8.916  0.00  0.00    -0.053 A 
ATOM      6  C   LIG d   1       2.293  -2.237  -9.909  0.00  0.00    -0.026 A 
ATOM      7  H   LIG d   1       3.639  -3.503  -8.836  0.00  0.00     0.062 H 
ATOM      8  C   LIG d   1       1.741  -0.970 -10.008  0.00  0.00     0.123 A 
ATOM      9  H   LIG d   1       2.003  -3.008 -10.608  0.00  0.00     0.065 H 
ATOM     10  C   LIG d   1       2.114   0.017  -9.112  0.00  0.00    -0.026 A 
ATOM     11  F   LIG d   1       0.842  -0.698 -10.979  0.00  0.00    -0.205 F 
ATOM     12  C   LIG d   1       3.034  -0.262  -8.120  0.00  0.00    -0.053 A 
ATOM     13  H   LIG d   1       1.685   1.006  -9.188  0.00  0.00     0.065 H 
ATOM     14  H   LIG d   1       3.325   0.508  -7.420  0.00  0.00     0.062 H 
ENDBRANCH   1   4
BRANCH   1  15
ATOM     15  O   LIG d   1       4.074  -1.398  -5.679  0.00  0.00    -0.459 OA
BRANCH  15  16
ATOM     16  C   LIG d   1       4.825  -0.534  -4.979  0.00  0.00     0.342 C 
ATOM     17  O   LIG d   1       5.725   0.063  -5.521  0.00  0.00    -0.249 OA
BRANCH  16  18
ATOM     18  C   LIG d   1       4.547  -0.306  -3.515  0.00  0.00     0.309 C 
ATOM     19 BR   LIG d   1       5.721   1.117  -2.838  0.00  0.00    -0.054 Br
BRANCH  18  20
ATOM     20  C   LIG d   1       3.086   0.107  -3.330  0.00  0.00     0.424 C 
ATOM     21  F   LIG d   1       2.292  -1.036  -3.192  0.00  0.00    -0.168 F 
ATOM     22  F   LIG d   1       2.966   0.900  -2.184  0.00  0.00    -0.168 F 
ATOM     23  F   LIG d   1       2.663   0.836  -4.448  0.00  0.00    -0.168 F 
ENDBRANCH  18  20
BRANCH  18  24
ATOM     24  C   LIG d   1       4.814  -1.598  -2.739  0.00  0.00     0.424 C 
ATOM     25  F   LIG d   1       4.444  -1.424  -1.401  0.00  0.00    -0.168 F 
ATOM     26  F   LIG d   1       4.066  -2.641  -3.297  0.00  0.00    -0.168 F 
ATOM     27  F   LIG d   1       6.175  -1.912  -2.810  0.00  0.00    -0.168 F 
ENDBRANCH  18  24
ENDBRANCH  16  18
ENDBRANCH  15  16
ENDBRANCH   1  15
TORSDOF 6
ENDMDL
MODEL 6
REMARK VINA RESULT:      -6.5      2.122      3.144
REMARK  6 active torsions:
REMARK  status: ('A' for Active; 'I' for Inactive)
REMARK    1  A    between atoms: C_6  and  C_7 
REMARK    2  A    between atoms: C_7  and  O_8 
REMARK    3  A    between atoms: O_8  and  C_9 
REMARK    4  A    between atoms: C_9  and  C_11 
REMARK    5  A    between atoms: C_11  and  C_12 
REMARK    6  A    between atoms: C_11  and  C_16 
ROOT
ATOM      1  C   LIG d   1       4.226  -0.344  -7.119  0.00  0.00     0.118 C 
ATOM      2  H   LIG d   1       5.267  -0.508  -7.395  0.00  0.00     0.075 H 
ATOM      3  H   LIG d   1       4.033   0.727  -7.048  0.00  0.00     0.075 H 
ENDROOT
BRANCH   1   4
ATOM      4  C   LIG d   1       3.327  -0.946  -8.169  0.00  0.00    -0.010 A 
ATOM      5  C   LIG d   1       2.332  -0.182  -8.747  0.00  0.00    -0.053 A 
ATOM      6  C   LIG d   1       1.507  -0.734  -9.709  0.00  0.00    -0.026 A 
ATOM      7  H   LIG d   1       2.200   0.847  -8.450  0.00  0.00     0.062 H 
ATOM      8  C   LIG d   1       1.680  -2.053 -10.094  0.00  0.00     0.123 A 
ATOM      9  H   LIG d   1       0.729  -0.137 -10.161  0.00  0.00     0.065 H 
ATOM     10  C   LIG d   1       2.677  -2.817  -9.514  0.00  0.00    -0.026 A 
ATOM     11  F   LIG d   1       0.874  -2.594 -11.035  0.00  0.00    -0.205 F 
ATOM     12  C   LIG d   1       3.501  -2.263  -8.552  0.00  0.00    -0.053 A 
ATOM     13  H   LIG d   1       2.813  -3.847  -9.813  0.00  0.00     0.065 H 
ATOM     14  H   LIG d   1       4.280  -2.859  -8.099  0.00  0.00     0.062 H 
ENDBRANCH   1   4
BRANCH   1  15
ATOM     15  O   LIG d   1       3.963  -0.959  -5.857  0.00  0.00    -0.459 OA
BRANCH  15  16
ATOM     16  C   LIG d   1       3.767  -0.143  -4.810  0.00  0.00     0.342 C 
ATOM     17  O   LIG d   1       3.000   0.786  -4.903  0.00  0.00    -0.249 OA
BRANCH  16  18
ATOM     18  C   LIG d   1       4.504  -0.384  -3.517  0.00  0.00     0.309 C 
ATOM     19 BR   LIG d   1       4.372   1.215  -2.381  0.00  0.00    -0.054 Br
BRANCH  18  20
ATOM     20  C   LIG d   1       3.884  -1.579  -2.791  0.00  0.00     0.424 C 
ATOM     21  F   LIG d   1       2.501  -1.395  -2.686  0.00  0.00    -0.168 F 
ATOM     22  F   LIG d   1       4.146  -2.750  -3.510  0.00  0.00    -0.168 F 
ATOM     23  F   LIG d   1       4.438  -1.683  -1.510  0.00  0.00    -0.168 F 
ENDBRANCH  18  20
BRANCH  18  24
ATOM     24  C   LIG d   1       5.976  -0.676  -3.817  0.00  0.00     0.424 C 
ATOM     25  F   LIG d   1       6.467   0.274  -4.718  0.00  0.00    -0.168 F 
ATOM     26  F   LIG d   1       6.714  -0.618  -2.629  0.00  0.00    -0.168 F 
ATOM     27  F   LIG d   1       6.093  -1.953  -4.376  0.00  0.00    -0.168 F 
ENDBRANCH  18  24
ENDBRANCH  16  18
ENDBRANCH  15  16
ENDBRANCH   1  15
TORSDOF 6
ENDMDL
MODEL 7
REMARK VINA RESULT:      -6.5      2.396      6.860
REMARK  6 active torsions:
REMARK  status: ('A' for Active; 'I' for Inactive)
REMARK    1  A    between atoms: C_6  and  C_7 
REMARK    2  A    between atoms: C_7  and  O_8 
REMARK    3  A    between atoms: O_8  and  C_9 
REMARK    4  A    between atoms: C_9  and  C_11 
REMARK    5  A    between atoms: C_11  and  C_12 
REMARK    6  A    between atoms: C_11  and  C_16 
ROOT
ATOM      1  C   LIG d   1       4.382  -1.024  -5.964  0.00  0.00     0.118 C 
ATOM      2  H   LIG d   1       5.015  -1.910  -6.014  0.00  0.00     0.075 H 
ATOM      3  H   LIG d   1       3.349  -1.304  -6.172  0.00  0.00     0.075 H 
ENDROOT
BRANCH   1   4
ATOM      4  C   LIG d   1       4.469  -0.421  -4.586  0.00  0.00    -0.010 A 
ATOM      5  C   LIG d   1       3.336  -0.325  -3.801  0.00  0.00    -0.053 A 
ATOM      6  C   LIG d   1       3.415   0.229  -2.537  0.00  0.00    -0.026 A 
ATOM      7  H   LIG d   1       2.389  -0.686  -4.173  0.00  0.00     0.062 H 
ATOM      8  C   LIG d   1       4.631   0.687  -2.057  0.00  0.00     0.123 A 
ATOM      9  H   LIG d   1       2.530   0.304  -1.923  0.00  0.00     0.065 H 
ATOM     10  C   LIG d   1       5.765   0.590  -2.845  0.00  0.00    -0.026 A 
ATOM     11  F   LIG d   1       4.710   1.229  -0.822  0.00  0.00    -0.205 F 
ATOM     12  C   LIG d   1       5.684   0.036  -4.108  0.00  0.00    -0.053 A 
ATOM     13  H   LIG d   1       6.715   0.948  -2.472  0.00  0.00     0.065 H 
ATOM     14  H   LIG d   1       6.568  -0.040  -4.723  0.00  0.00     0.062 H 
ENDBRANCH   1   4
BRANCH   1  15
ATOM     15  O   LIG d   1       4.820  -0.069  -6.931  0.00  0.00    -0.459 OA
BRANCH  15  16
ATOM     16  C   LIG d   1       3.872   0.541  -7.659  0.00  0.00     0.342 C 
ATOM     17  O   LIG d   1       2.981   1.145  -7.109  0.00  0.00    -0.249 OA
BRANCH  16  18
ATOM     18  C   LIG d   1       3.915   0.472  -9.164  0.00  0.00     0.309 C 
ATOM     19 BR   LIG d   1       5.660  -0.226  -9.739  0.00  0.00    -0.054 Br
BRANCH  18  20
ATOM     20  C   LIG d   1       2.805  -0.454  -9.666  0.00  0.00     0.424 C 
ATOM     21  F   LIG d   1       1.606   0.261  -9.755  0.00  0.00    -0.168 F 
ATOM     22  F   LIG d   1       3.147  -0.951 -10.928  0.00  0.00    -0.168 F 
ATOM     23  F   LIG d   1       2.647  -1.519  -8.772  0.00  0.00    -0.168 F 
ENDBRANCH  18  20
BRANCH  18  24
ATOM     24  C   LIG d   1       3.711   1.873  -9.744  0.00  0.00     0.424 C 
ATOM     25  F   LIG d   1       3.710   1.805 -11.142  0.00  0.00    -0.168 F 
ATOM     26  F   LIG d   1       2.488   2.388  -9.302  0.00  0.00    -0.168 F 
ATOM     27  F   LIG d   1       4.750   2.709  -9.319  0.00  0.00    -0.168 F 
ENDBRANCH  18  24
ENDBRANCH  16  18
ENDBRANCH  15  16
ENDBRANCH   1  15
TORSDOF 6
ENDMDL
MODEL 8
REMARK VINA RESULT:      -6.4      2.587      6.709
REMARK  6 active torsions:
REMARK  status: ('A' for Active; 'I' for Inactive)
REMARK    1  A    between atoms: C_6  and  C_7 
REMARK    2  A    between atoms: C_7  and  O_8 
REMARK    3  A    between atoms: O_8  and  C_9 
REMARK    4  A    between atoms: C_9  and  C_11 
REMARK    5  A    between atoms: C_11  and  C_12 
REMARK    6  A    between atoms: C_11  and  C_16 
ROOT
ATOM      1  C   LIG d   1       4.311  -1.112  -6.041  0.00  0.00     0.118 C 
ATOM      2  H   LIG d   1       5.310  -1.375  -6.387  0.00  0.00     0.075 H 
ATOM      3  H   LIG d   1       3.697  -2.012  -5.986  0.00  0.00     0.075 H 
ENDROOT
BRANCH   1   4
ATOM      4  C   LIG d   1       4.401  -0.484  -4.674  0.00  0.00    -0.010 A 
ATOM      5  C   LIG d   1       3.251  -0.244  -3.946  0.00  0.00    -0.053 A 
ATOM      6  C   LIG d   1       3.333   0.333  -2.693  0.00  0.00    -0.026 A 
ATOM      7  H   LIG d   1       2.288  -0.510  -4.355  0.00  0.00     0.062 H 
ATOM      8  C   LIG d   1       4.568   0.670  -2.166  0.00  0.00     0.123 A 
ATOM      9  H   LIG d   1       2.433   0.521  -2.125  0.00  0.00     0.065 H 
ATOM     10  C   LIG d   1       5.719   0.429  -2.895  0.00  0.00    -0.026 A 
ATOM     11  F   LIG d   1       4.650   1.234  -0.941  0.00  0.00    -0.205 F 
ATOM     12  C   LIG d   1       5.635  -0.148  -4.148  0.00  0.00    -0.053 A 
ATOM     13  H   LIG d   1       6.684   0.691  -2.486  0.00  0.00     0.065 H 
ATOM     14  H   LIG d   1       6.533  -0.337  -4.718  0.00  0.00     0.062 H 
ENDBRANCH   1   4
BRANCH   1  15
ATOM     15  O   LIG d   1       3.718  -0.186  -6.952  0.00  0.00    -0.459 OA
BRANCH  15  16
ATOM     16  C   LIG d   1       4.534   0.406  -7.837  0.00  0.00     0.342 C 
ATOM     17  O   LIG d   1       5.694   0.596  -7.555  0.00  0.00    -0.249 OA
BRANCH  16  18
ATOM     18  C   LIG d   1       4.007   0.837  -9.181  0.00  0.00     0.309 C 
ATOM     19 BR   LIG d   1       2.271  -0.026  -9.511  0.00  0.00    -0.054 Br
BRANCH  18  20
ATOM     20  C   LIG d   1       3.833   2.356  -9.200  0.00  0.00     0.424 C 
ATOM     21  F   LIG d   1       3.290   2.749 -10.428  0.00  0.00    -0.168 F 
ATOM     22  F   LIG d   1       2.973   2.740  -8.165  0.00  0.00    -0.168 F 
ATOM     23  F   LIG d   1       5.078   2.970  -9.023  0.00  0.00    -0.168 F 
ENDBRANCH  18  20
BRANCH  18  24
ATOM     24  C   LIG d   1       4.996   0.423 -10.273  0.00  0.00     0.424 C 
ATOM     25  F   LIG d   1       5.274  -0.944 -10.158  0.00  0.00    -0.168 F 
ATOM     26  F   LIG d   1       4.439   0.681 -11.530  0.00  0.00    -0.168 F 
ATOM     27  F   LIG d   1       6.181   1.153 -10.129  0.00  0.00    -0.168 F 
ENDBRANCH  18  24
ENDBRANCH  16  18
ENDBRANCH  15  16
ENDBRANCH   1  15
TORSDOF 6
ENDMDL
MODEL 9
REMARK VINA RESULT:      -6.4      3.576      5.230
REMARK  6 active torsions:
REMARK  status: ('A' for Active; 'I' for Inactive)
REMARK    1  A    between atoms: C_6  and  C_7 
REMARK    2  A    between atoms: C_7  and  O_8 
REMARK    3  A    between atoms: O_8  and  C_9 
REMARK    4  A    between atoms: C_9  and  C_11 
REMARK    5  A    between atoms: C_11  and  C_12 
REMARK    6  A    between atoms: C_11  and  C_16 
ROOT
ATOM      1  C   LIG d   1       7.635  -0.184  -5.048  0.00  0.00     0.118 C 
ATOM      2  H   LIG d   1       7.234  -0.321  -6.052  0.00  0.00     0.075 H 
ATOM      3  H   LIG d   1       8.381  -0.953  -4.846  0.00  0.00     0.075 H 
ENDROOT
BRANCH   1   4
ATOM      4  C   LIG d   1       8.276   1.176  -4.945  0.00  0.00    -0.010 A 
ATOM      5  C   LIG d   1       8.612   1.870  -6.092  0.00  0.00    -0.053 A 
ATOM      6  C   LIG d   1       9.201   3.117  -5.999  0.00  0.00    -0.026 A 
ATOM      7  H   LIG d   1       8.411   1.440  -7.062  0.00  0.00     0.062 H 
ATOM      8  C   LIG d   1       9.453   3.672  -4.755  0.00  0.00     0.123 A 
ATOM      9  H   LIG d   1       9.463   3.659  -6.896  0.00  0.00     0.065 H 
ATOM     10  C   LIG d   1       9.117   2.975  -3.607  0.00  0.00    -0.026 A 
ATOM     11  F   LIG d   1      10.029   4.890  -4.663  0.00  0.00    -0.205 F 
ATOM     12  C   LIG d   1       8.528   1.728  -3.703  0.00  0.00    -0.053 A 
ATOM     13  H   LIG d   1       9.313   3.406  -2.636  0.00  0.00     0.065 H 
ATOM     14  H   LIG d   1       8.265   1.185  -2.807  0.00  0.00     0.062 H 
ENDBRANCH   1   4
BRANCH   1  15
ATOM     15  O   LIG d   1       6.577  -0.285  -4.093  0.00  0.00    -0.459 OA
BRANCH  15  16
ATOM     16  C   LIG d   1       5.328  -0.099  -4.546  0.00  0.00     0.342 C 
ATOM     17  O   LIG d   1       5.138   0.145  -5.714  0.00  0.00    -0.249 OA
BRANCH  16  18
ATOM     18  C   LIG d   1       4.160  -0.192  -3.598  0.00  0.00     0.309 C 
ATOM     19 BR   LIG d   1       2.500   0.237  -4.559  0.00  0.00    -0.054 Br
BRANCH  18  20
ATOM     20  C   LIG d   1       4.071  -1.611  -3.034  0.00  0.00     0.424 C 
ATOM     21  F   LIG d   1       4.107  -2.534  -4.085  0.00  0.00    -0.168 F 
ATOM     22  F   LIG d   1       5.151  -1.841  -2.174  0.00  0.00    -0.168 F 
ATOM     23  F   LIG d   1       2.872  -1.757  -2.327  0.00  0.00    -0.168 F 
ENDBRANCH  18  20
BRANCH  18  24
ATOM     24  C   LIG d   1       4.355   0.801  -2.451  0.00  0.00     0.424 C 
ATOM     25  F   LIG d   1       5.374   1.701  -2.780  0.00  0.00    -0.168 F 
ATOM     26  F   LIG d   1       3.165   1.504  -2.234  0.00  0.00    -0.168 F 
ATOM     27  F   LIG d   1       4.704   0.107  -1.287  0.00  0.00    -0.168 F 
ENDBRANCH  18  24
ENDBRANCH  16  18
ENDBRANCH  15  16
ENDBRANCH   1  15
TORSDOF 6
ENDMDL
