MODEL 1
REMARK VINA RESULT:      -5.5      0.000      0.000
REMARK  9 active torsions:
REMARK  status: ('A' for Active; 'I' for Inactive)
REMARK    1  A    between atoms: C_1  and  C_2 
REMARK    2  A    between atoms: C_3  and  O_26 
REMARK    3  A    between atoms: C_4  and  C_23 
REMARK    4  A    between atoms: C_7  and  O_8 
REMARK    5  A    between atoms: C_9  and  C_22 
REMARK    6  A    between atoms: C_14  and  C_18 
REMARK    7  A    between atoms: C_18  and  C_20 
REMARK    8  A    between atoms: C_18  and  O_19 
REMARK    9  A    between atoms: C_23  and  C_25 
ROOT
ATOM      1  C   LIG d   1       3.674  -0.270  -3.807  0.00  0.00     0.034 A 
ATOM      2  C   LIG d   1       3.316   0.287  -5.016  0.00  0.00     0.137 A 
ATOM      3  C   LIG d   1       3.730  -0.278  -6.242  0.00  0.00     0.101 A 
ATOM      4  C   LIG d   1       4.536  -1.439  -6.178  0.00  0.00     0.150 A 
ATOM      5  C   LIG d   1       4.871  -1.988  -4.937  0.00  0.00     0.058 A 
ATOM      6  C   LIG d   1       4.459  -1.424  -3.739  0.00  0.00     0.131 A 
ATOM      7  C   LIG d   1       5.688  -3.197  -5.244  0.00  0.00     0.120 C 
ATOM      8  C   LIG d   1       6.006  -3.007  -6.725  0.00  0.00     0.127 C 
ATOM      9  C   LIG d   1       7.055  -4.742  -7.380  0.00  0.00     0.025 C 
ATOM     10  C   LIG d   1       8.064  -4.202  -6.563  0.00  0.00     0.196 C 
ATOM     11  O   LIG d   1       9.016  -3.658  -7.088  0.00  0.00    -0.287 OA
ATOM     12  C   LIG d   1       8.006  -4.273  -5.060  0.00  0.00     0.102 C 
ATOM     13  C   LIG d   1       7.020  -3.241  -4.538  0.00  0.00     0.188 C 
ATOM     14  O   LIG d   1       7.285  -2.504  -3.618  0.00  0.00    -0.290 OA
ATOM     15  O   LIG d   1       5.091  -2.142  -7.181  0.00  0.00    -0.458 OA
ATOM     16  H   LIG d   1       7.123  -4.639  -8.453  0.00  0.00     0.069 H 
ENDROOT
BRANCH  12  17
ATOM     17  C   LIG d   1       8.946  -5.344  -4.572  0.00  0.00     0.105 C 
BRANCH  17  18
ATOM     18  C   LIG d   1       9.394  -5.355  -3.133  0.00  0.00    -0.006 C 
ATOM     19  H   LIG d   1      10.038  -4.495  -2.947  0.00  0.00     0.031 H 
ATOM     20  H   LIG d   1       9.946  -6.273  -2.931  0.00  0.00     0.031 H 
ATOM     21  H   LIG d   1       8.523  -5.304  -2.480  0.00  0.00     0.031 H 
ENDBRANCH  17  18
BRANCH  17  22
ATOM     22  O   LIG d   1       9.340  -6.194  -5.333  0.00  0.00    -0.510 OA
ATOM     23  H   LIG d   1       8.705  -6.966  -5.329  0.00  0.00     0.292 HD
ENDBRANCH  17  22
ENDBRANCH  12  17
BRANCH   7  24
ATOM     24  C   LIG d   1       4.898  -4.486  -5.007  0.00  0.00    -0.041 C 
ATOM     25  H   LIG d   1       5.462  -5.333  -5.398  0.00  0.00     0.025 H 
ATOM     26  H   LIG d   1       4.734  -4.620  -3.939  0.00  0.00     0.025 H 
ATOM     27  H   LIG d   1       3.938  -4.422  -5.519  0.00  0.00     0.025 H 
ENDBRANCH   7  24
BRANCH   6  28
ATOM     28  O   LIG d   1       4.808  -1.968  -2.547  0.00  0.00    -0.506 OA
ATOM     29  H   LIG d   1       5.377  -2.747  -2.621  0.00  0.00     0.292 HD
ENDBRANCH   6  28
BRANCH   3  30
ATOM     30  C   LIG d   1       3.344   0.311  -7.523  0.00  0.00     0.167 C 
ATOM     31  O   LIG d   1       3.826   1.367  -7.875  0.00  0.00    -0.292 OA
BRANCH  30  32
ATOM     32  C   LIG d   1       2.346  -0.394  -8.407  0.00  0.00    -0.001 C 
ATOM     33  H   LIG d   1       2.577  -0.228  -9.366  0.00  0.00     0.031 H 
ATOM     34  H   LIG d   1       2.374  -1.464  -8.206  0.00  0.00     0.031 H 
ATOM     35  H   LIG d   1       1.346  -0.011  -8.202  0.00  0.00     0.031 H 
ENDBRANCH  30  32
ENDBRANCH   3  30
BRANCH   1  36
ATOM     36  C   LIG d   1       3.207   0.379  -2.529  0.00  0.00    -0.033 C 
ATOM     37  H   LIG d   1       2.118   0.389  -2.503  0.00  0.00     0.028 H 
ATOM     38  H   LIG d   1       3.586  -0.186  -1.676  0.00  0.00     0.028 H 
ATOM     39  H   LIG d   1       3.582   1.402  -2.483  0.00  0.00     0.028 H 
ENDBRANCH   1  36
BRANCH   2  40
ATOM     40  O   LIG d   1       2.549   1.404  -5.029  0.00  0.00    -0.506 OA
ATOM     41  H   LIG d   1       1.971   1.476  -5.802  0.00  0.00     0.292 HD
ENDBRANCH   2  40
TORSDOF 9
ENDMDL
MODEL 2
REMARK VINA RESULT:      -5.5      2.326      5.859
REMARK  9 active torsions:
REMARK  status: ('A' for Active; 'I' for Inactive)
REMARK    1  A    between atoms: C_1  and  C_2 
REMARK    2  A    between atoms: C_3  and  O_26 
REMARK    3  A    between atoms: C_4  and  C_23 
REMARK    4  A    between atoms: C_7  and  O_8 
REMARK    5  A    between atoms: C_9  and  C_22 
REMARK    6  A    between atoms: C_14  and  C_18 
REMARK    7  A    between atoms: C_18  and  C_20 
REMARK    8  A    between atoms: C_18  and  O_19 
REMARK    9  A    between atoms: C_23  and  C_25 
ROOT
ATOM      1  C   LIG d   1       6.093  -2.195  -4.642  0.00  0.00     0.034 A 
ATOM      2  C   LIG d   1       5.264  -1.507  -3.781  0.00  0.00     0.137 A 
ATOM      3  C   LIG d   1       4.179  -0.737  -4.254  0.00  0.00     0.101 A 
ATOM      4  C   LIG d   1       3.982  -0.695  -5.654  0.00  0.00     0.150 A 
ATOM      5  C   LIG d   1       4.831  -1.413  -6.501  0.00  0.00     0.058 A 
ATOM      6  C   LIG d   1       5.894  -2.165  -6.024  0.00  0.00     0.131 A 
ATOM      7  C   LIG d   1       4.320  -1.166  -7.880  0.00  0.00     0.120 C 
ATOM      8  C   LIG d   1       3.358  -0.000  -7.666  0.00  0.00     0.127 C 
ATOM      9  C   LIG d   1       2.408   0.394  -9.533  0.00  0.00     0.025 C 
ATOM     10  C   LIG d   1       3.696   0.845  -9.871  0.00  0.00     0.196 C 
ATOM     11  O   LIG d   1       3.901   2.041  -9.936  0.00  0.00    -0.287 OA
ATOM     12  C   LIG d   1       4.832  -0.103 -10.154  0.00  0.00     0.102 C 
ATOM     13  C   LIG d   1       5.365  -0.667  -8.848  0.00  0.00     0.188 C 
ATOM     14  O   LIG d   1       6.546  -0.713  -8.599  0.00  0.00    -0.290 OA
ATOM     15  O   LIG d   1       3.062  -0.013  -6.360  0.00  0.00    -0.458 OA
ATOM     16  H   LIG d   1       1.633   1.110  -9.305  0.00  0.00     0.069 H 
ENDROOT
BRANCH  12  17
ATOM     17  C   LIG d   1       5.064  -0.177 -11.641  0.00  0.00     0.105 C 
BRANCH  17  18
ATOM     18  C   LIG d   1       6.246  -0.939 -12.182  0.00  0.00    -0.006 C 
ATOM     19  H   LIG d   1       7.149  -0.629 -11.656  0.00  0.00     0.031 H 
ATOM     20  H   LIG d   1       6.357  -0.731 -13.246  0.00  0.00     0.031 H 
ATOM     21  H   LIG d   1       6.089  -2.007 -12.035  0.00  0.00     0.031 H 
ENDBRANCH  17  18
BRANCH  17  22
ATOM     22  O   LIG d   1       4.303   0.375 -12.399  0.00  0.00    -0.510 OA
ATOM     23  H   LIG d   1       3.825   1.109 -11.917  0.00  0.00     0.292 HD
ENDBRANCH  17  22
ENDBRANCH  12  17
BRANCH   7  24
ATOM     24  C   LIG d   1       3.593  -2.390  -8.440  0.00  0.00    -0.041 C 
ATOM     25  H   LIG d   1       4.316  -3.058  -8.908  0.00  0.00     0.025 H 
ATOM     26  H   LIG d   1       3.087  -2.913  -7.629  0.00  0.00     0.025 H 
ATOM     27  H   LIG d   1       2.861  -2.070  -9.181  0.00  0.00     0.025 H 
ENDBRANCH   7  24
BRANCH   6  28
ATOM     28  O   LIG d   1       6.711  -2.844  -6.867  0.00  0.00    -0.506 OA
ATOM     29  H   LIG d   1       6.668  -3.805  -6.769  0.00  0.00     0.292 HD
ENDBRANCH   6  28
BRANCH   3  30
ATOM     30  C   LIG d   1       3.299  -0.014  -3.339  0.00  0.00     0.167 C 
ATOM     31  O   LIG d   1       2.389  -0.596  -2.786  0.00  0.00    -0.292 OA
BRANCH  30  32
ATOM     32  C   LIG d   1       3.520   1.455  -3.082  0.00  0.00    -0.001 C 
ATOM     33  H   LIG d   1       3.673   1.925  -3.952  0.00  0.00     0.031 H 
ATOM     34  H   LIG d   1       2.642   1.874  -2.593  0.00  0.00     0.031 H 
ATOM     35  H   LIG d   1       4.392   1.584  -2.441  0.00  0.00     0.031 H 
ENDBRANCH  30  32
ENDBRANCH   3  30
BRANCH   1  36
ATOM     36  C   LIG d   1       7.238  -2.997  -4.079  0.00  0.00    -0.033 C 
ATOM     37  H   LIG d   1       7.708  -3.569  -4.879  0.00  0.00     0.028 H 
ATOM     38  H   LIG d   1       7.971  -2.321  -3.637  0.00  0.00     0.028 H 
ATOM     39  H   LIG d   1       6.865  -3.679  -3.315  0.00  0.00     0.028 H 
ENDBRANCH   1  36
BRANCH   2  40
ATOM     40  O   LIG d   1       5.496  -1.571  -2.447  0.00  0.00    -0.506 OA
ATOM     41  H   LIG d   1       4.695  -1.536  -1.905  0.00  0.00     0.292 HD
ENDBRANCH   2  40
TORSDOF 9
ENDMDL
MODEL 3
REMARK VINA RESULT:      -5.4      2.943      5.476
REMARK  9 active torsions:
REMARK  status: ('A' for Active; 'I' for Inactive)
REMARK    1  A    between atoms: C_1  and  C_2 
REMARK    2  A    between atoms: C_3  and  O_26 
REMARK    3  A    between atoms: C_4  and  C_23 
REMARK    4  A    between atoms: C_7  and  O_8 
REMARK    5  A    between atoms: C_9  and  C_22 
REMARK    6  A    between atoms: C_14  and  C_18 
REMARK    7  A    between atoms: C_18  and  C_20 
REMARK    8  A    between atoms: C_18  and  O_19 
REMARK    9  A    between atoms: C_23  and  C_25 
ROOT
ATOM      1  C   LIG d   1       4.021  -0.082  -9.615  0.00  0.00     0.034 A 
ATOM      2  C   LIG d   1       5.208   0.376 -10.148  0.00  0.00     0.137 A 
ATOM      3  C   LIG d   1       6.383   0.466  -9.370  0.00  0.00     0.101 A 
ATOM      4  C   LIG d   1       6.289   0.072  -8.014  0.00  0.00     0.150 A 
ATOM      5  C   LIG d   1       5.075  -0.400  -7.506  0.00  0.00     0.058 A 
ATOM      6  C   LIG d   1       3.928  -0.482  -8.280  0.00  0.00     0.131 A 
ATOM      7  C   LIG d   1       5.347  -0.743  -6.081  0.00  0.00     0.120 C 
ATOM      8  C   LIG d   1       6.705  -0.087  -5.841  0.00  0.00     0.127 C 
ATOM      9  C   LIG d   1       7.328  -0.609  -3.872  0.00  0.00     0.025 C 
ATOM     10  C   LIG d   1       6.271   0.248  -3.520  0.00  0.00     0.196 C 
ATOM     11  O   LIG d   1       6.532   1.360  -3.104  0.00  0.00    -0.287 OA
ATOM     12  C   LIG d   1       4.827  -0.161  -3.641  0.00  0.00     0.102 C 
ATOM     13  C   LIG d   1       4.399  -0.102  -5.097  0.00  0.00     0.188 C 
ATOM     14  O   LIG d   1       3.369   0.423  -5.446  0.00  0.00    -0.290 OA
ATOM     15  O   LIG d   1       7.234   0.098  -7.058  0.00  0.00    -0.458 OA
ATOM     16  H   LIG d   1       8.347  -0.261  -3.800  0.00  0.00     0.069 H 
ENDROOT
BRANCH  12  17
ATOM     17  C   LIG d   1       4.285  -0.494  -2.275  0.00  0.00     0.105 C 
BRANCH  17  18
ATOM     18  C   LIG d   1       3.881  -1.909  -1.949  0.00  0.00    -0.006 C 
ATOM     19  H   LIG d   1       2.826  -2.049  -2.183  0.00  0.00     0.031 H 
ATOM     20  H   LIG d   1       4.046  -2.099  -0.889  0.00  0.00     0.031 H 
ATOM     21  H   LIG d   1       4.479  -2.603  -2.540  0.00  0.00     0.031 H 
ENDBRANCH  17  18
BRANCH  17  22
ATOM     22  O   LIG d   1       4.172   0.373  -1.442  0.00  0.00    -0.510 OA
ATOM     23  H   LIG d   1       4.743   1.154  -1.694  0.00  0.00     0.292 HD
ENDBRANCH  17  22
ENDBRANCH  12  17
BRANCH   7  24
ATOM     24  C   LIG d   1       5.418  -2.256  -5.869  0.00  0.00    -0.041 C 
ATOM     25  H   LIG d   1       5.580  -2.749  -6.828  0.00  0.00     0.025 H 
ATOM     26  H   LIG d   1       6.241  -2.491  -5.196  0.00  0.00     0.025 H 
ATOM     27  H   LIG d   1       4.481  -2.607  -5.436  0.00  0.00     0.025 H 
ENDBRANCH   7  24
BRANCH   6  28
ATOM     28  O   LIG d   1       2.758  -0.933  -7.761  0.00  0.00    -0.506 OA
ATOM     29  H   LIG d   1       2.163  -1.325  -8.413  0.00  0.00     0.292 HD
ENDBRANCH   6  28
BRANCH   3  30
ATOM     30  C   LIG d   1       7.640   0.945  -9.939  0.00  0.00     0.167 C 
ATOM     31  O   LIG d   1       7.992   2.092  -9.756  0.00  0.00    -0.292 OA
BRANCH  30  32
ATOM     32  C   LIG d   1       8.502   0.015 -10.755  0.00  0.00    -0.001 C 
ATOM     33  H   LIG d   1       8.972   0.537 -11.468  0.00  0.00     0.031 H 
ATOM     34  H   LIG d   1       9.238  -0.460 -10.108  0.00  0.00     0.031 H 
ATOM     35  H   LIG d   1       7.876  -0.748 -11.217  0.00  0.00     0.031 H 
ENDBRANCH  30  32
ENDBRANCH   3  30
BRANCH   1  36
ATOM     36  C   LIG d   1       2.797  -0.152 -10.493  0.00  0.00    -0.033 C 
ATOM     37  H   LIG d   1       3.100  -0.169 -11.539  0.00  0.00     0.028 H 
ATOM     38  H   LIG d   1       2.238  -1.059 -10.262  0.00  0.00     0.028 H 
ATOM     39  H   LIG d   1       2.168   0.719 -10.309  0.00  0.00     0.028 H 
ENDBRANCH   1  36
BRANCH   2  40
ATOM     40  O   LIG d   1       5.248   0.748 -11.451  0.00  0.00    -0.506 OA
ATOM     41  H   LIG d   1       4.678   1.501 -11.663  0.00  0.00     0.292 HD
ENDBRANCH   2  40
TORSDOF 9
ENDMDL
MODEL 4
REMARK VINA RESULT:      -5.3      1.832      6.673
REMARK  9 active torsions:
REMARK  status: ('A' for Active; 'I' for Inactive)
REMARK    1  A    between atoms: C_1  and  C_2 
REMARK    2  A    between atoms: C_3  and  O_26 
REMARK    3  A    between atoms: C_4  and  C_23 
REMARK    4  A    between atoms: C_7  and  O_8 
REMARK    5  A    between atoms: C_9  and  C_22 
REMARK    6  A    between atoms: C_14  and  C_18 
REMARK    7  A    between atoms: C_18  and  C_20 
REMARK    8  A    between atoms: C_18  and  O_19 
REMARK    9  A    between atoms: C_23  and  C_25 
ROOT
ATOM      1  C   LIG d   1       5.588  -6.769  -5.955  0.00  0.00     0.034 A 
ATOM      2  C   LIG d   1       6.936  -6.871  -5.688  0.00  0.00     0.137 A 
ATOM      3  C   LIG d   1       7.685  -5.765  -5.227  0.00  0.00     0.101 A 
ATOM      4  C   LIG d   1       6.992  -4.544  -5.058  0.00  0.00     0.150 A 
ATOM      5  C   LIG d   1       5.621  -4.475  -5.325  0.00  0.00     0.058 A 
ATOM      6  C   LIG d   1       4.898  -5.567  -5.778  0.00  0.00     0.131 A 
ATOM      7  C   LIG d   1       5.225  -3.071  -5.017  0.00  0.00     0.120 C 
ATOM      8  C   LIG d   1       6.577  -2.371  -4.897  0.00  0.00     0.127 C 
ATOM      9  C   LIG d   1       6.203  -0.359  -4.302  0.00  0.00     0.025 C 
ATOM     10  C   LIG d   1       5.691  -0.273  -5.608  0.00  0.00     0.196 C 
ATOM     11  O   LIG d   1       6.346   0.299  -6.458  0.00  0.00    -0.287 OA
ATOM     12  C   LIG d   1       4.362  -0.866  -5.993  0.00  0.00     0.102 C 
ATOM     13  C   LIG d   1       4.496  -2.372  -6.137  0.00  0.00     0.188 C 
ATOM     14  O   LIG d   1       4.049  -2.972  -7.085  0.00  0.00    -0.290 OA
ATOM     15  O   LIG d   1       7.469  -3.346  -4.676  0.00  0.00    -0.458 OA
ATOM     16  H   LIG d   1       7.176   0.052  -4.079  0.00  0.00     0.069 H 
ENDROOT
BRANCH  12  17
ATOM     17  C   LIG d   1       3.338   0.234  -6.108  0.00  0.00     0.105 C 
BRANCH  17  18
ATOM     18  C   LIG d   1       2.371   0.483  -4.979  0.00  0.00    -0.006 C 
ATOM     19  H   LIG d   1       1.532   1.076  -5.344  0.00  0.00     0.031 H 
ATOM     20  H   LIG d   1       2.877   1.024  -4.179  0.00  0.00     0.031 H 
ATOM     21  H   LIG d   1       2.003  -0.470  -4.597  0.00  0.00     0.031 H 
ENDBRANCH  17  18
BRANCH  17  22
ATOM     22  O   LIG d   1       3.291   0.914  -7.104  0.00  0.00    -0.510 OA
ATOM     23  H   LIG d   1       2.474   1.491  -7.076  0.00  0.00     0.292 HD
ENDBRANCH  17  22
ENDBRANCH  12  17
BRANCH   7  24
ATOM     24  C   LIG d   1       4.438  -2.982  -3.709  0.00  0.00    -0.041 C 
ATOM     25  H   LIG d   1       5.124  -2.784  -2.885  0.00  0.00     0.025 H 
ATOM     26  H   LIG d   1       3.709  -2.175  -3.777  0.00  0.00     0.025 H 
ATOM     27  H   LIG d   1       3.921  -3.925  -3.531  0.00  0.00     0.025 H 
ENDBRANCH   7  24
BRANCH   6  28
ATOM     28  O   LIG d   1       3.570  -5.472  -6.043  0.00  0.00    -0.506 OA
ATOM     29  H   LIG d   1       3.003  -5.667  -5.284  0.00  0.00     0.292 HD
ENDBRANCH   6  28
BRANCH   3  30
ATOM     30  C   LIG d   1       9.113  -5.878  -4.937  0.00  0.00     0.167 C 
ATOM     31  O   LIG d   1       9.910  -5.980  -5.847  0.00  0.00    -0.292 OA
BRANCH  30  32
ATOM     32  C   LIG d   1       9.596  -5.868  -3.509  0.00  0.00    -0.001 C 
ATOM     33  H   LIG d   1      10.366  -5.234  -3.423  0.00  0.00     0.031 H 
ATOM     34  H   LIG d   1       8.787  -5.547  -2.854  0.00  0.00     0.031 H 
ATOM     35  H   LIG d   1       9.917  -6.870  -3.228  0.00  0.00     0.031 H 
ENDBRANCH  30  32
ENDBRANCH   3  30
BRANCH   1  36
ATOM     36  C   LIG d   1       4.840  -7.981  -6.450  0.00  0.00    -0.033 C 
ATOM     37  H   LIG d   1       4.248  -7.711  -7.324  0.00  0.00     0.028 H 
ATOM     38  H   LIG d   1       5.554  -8.760  -6.722  0.00  0.00     0.028 H 
ATOM     39  H   LIG d   1       4.182  -8.349  -5.663  0.00  0.00     0.028 H 
ENDBRANCH   1  36
BRANCH   2  40
ATOM     40  O   LIG d   1       7.560  -8.060  -5.871  0.00  0.00    -0.506 OA
ATOM     41  H   LIG d   1       6.964  -8.823  -5.860  0.00  0.00     0.292 HD
ENDBRANCH   2  40
TORSDOF 9
ENDMDL
MODEL 5
REMARK VINA RESULT:      -5.3     10.101     11.844
REMARK  9 active torsions:
REMARK  status: ('A' for Active; 'I' for Inactive)
REMARK    1  A    between atoms: C_1  and  C_2 
REMARK    2  A    between atoms: C_3  and  O_26 
REMARK    3  A    between atoms: C_4  and  C_23 
REMARK    4  A    between atoms: C_7  and  O_8 
REMARK    5  A    between atoms: C_9  and  C_22 
REMARK    6  A    between atoms: C_14  and  C_18 
REMARK    7  A    between atoms: C_18  and  C_20 
REMARK    8  A    between atoms: C_18  and  O_19 
REMARK    9  A    between atoms: C_23  and  C_25 
ROOT
ATOM      1  C   LIG d   1       9.581   7.445  -5.825  0.00  0.00     0.034 A 
ATOM      2  C   LIG d   1       9.663   6.088  -6.055  0.00  0.00     0.137 A 
ATOM      3  C   LIG d   1       9.901   5.172  -5.006  0.00  0.00     0.101 A 
ATOM      4  C   LIG d   1      10.059   5.708  -3.707  0.00  0.00     0.150 A 
ATOM      5  C   LIG d   1       9.958   7.087  -3.503  0.00  0.00     0.058 A 
ATOM      6  C   LIG d   1       9.724   7.976  -4.541  0.00  0.00     0.131 A 
ATOM      7  C   LIG d   1      10.146   7.288  -2.037  0.00  0.00     0.120 C 
ATOM      8  C   LIG d   1      10.680   5.930  -1.589  0.00  0.00     0.127 C 
ATOM      9  C   LIG d   1      10.866   5.986   0.533  0.00  0.00     0.025 C 
ATOM     10  C   LIG d   1      11.910   6.874   0.223  0.00  0.00     0.196 C 
ATOM     11  O   LIG d   1      13.059   6.487   0.321  0.00  0.00    -0.287 OA
ATOM     12  C   LIG d   1      11.657   8.289  -0.227  0.00  0.00     0.102 C 
ATOM     13  C   LIG d   1      11.215   8.291  -1.681  0.00  0.00     0.188 C 
ATOM     14  O   LIG d   1      11.687   9.045  -2.498  0.00  0.00    -0.290 OA
ATOM     15  O   LIG d   1      10.332   5.070  -2.555  0.00  0.00    -0.458 OA
ATOM     16  H   LIG d   1      11.094   4.970   0.820  0.00  0.00     0.069 H 
ENDROOT
BRANCH  12  17
ATOM     17  C   LIG d   1      11.927   9.234   0.914  0.00  0.00     0.105 C 
BRANCH  17  18
ATOM     18  C   LIG d   1      11.296  10.603   0.925  0.00  0.00    -0.006 C 
ATOM     19  H   LIG d   1      10.314  10.546   1.395  0.00  0.00     0.031 H 
ATOM     20  H   LIG d   1      11.188  10.961  -0.099  0.00  0.00     0.031 H 
ATOM     21  H   LIG d   1      11.928  11.291   1.486  0.00  0.00     0.031 H 
ENDBRANCH  17  18
BRANCH  17  22
ATOM     22  O   LIG d   1      12.650   8.896   1.821  0.00  0.00    -0.510 OA
ATOM     23  H   LIG d   1      12.397   9.392   2.651  0.00  0.00     0.292 HD
ENDBRANCH  17  22
ENDBRANCH  12  17
BRANCH   7  24
ATOM     24  C   LIG d   1       8.825   7.621  -1.340  0.00  0.00    -0.041 C 
ATOM     25  H   LIG d   1       8.628   6.880  -0.565  0.00  0.00     0.025 H 
ATOM     26  H   LIG d   1       8.892   8.610  -0.889  0.00  0.00     0.025 H 
ATOM     27  H   LIG d   1       8.016   7.608  -2.070  0.00  0.00     0.025 H 
ENDBRANCH   7  24
BRANCH   6  28
ATOM     28  O   LIG d   1       9.642   9.312  -4.319  0.00  0.00    -0.506 OA
ATOM     29  H   LIG d   1       9.127   9.790  -4.982  0.00  0.00     0.292 HD
ENDBRANCH   6  28
BRANCH   3  30
ATOM     30  C   LIG d   1       9.981   3.734  -5.252  0.00  0.00     0.167 C 
ATOM     31  O   LIG d   1      10.962   3.264  -5.791  0.00  0.00    -0.292 OA
BRANCH  30  32
ATOM     32  C   LIG d   1       8.845   2.833  -4.838  0.00  0.00    -0.001 C 
ATOM     33  H   LIG d   1       8.908   1.968  -5.337  0.00  0.00     0.031 H 
ATOM     34  H   LIG d   1       8.906   2.640  -3.768  0.00  0.00     0.031 H 
ATOM     35  H   LIG d   1       7.896   3.317  -5.068  0.00  0.00     0.031 H 
ENDBRANCH  30  32
ENDBRANCH   3  30
BRANCH   1  36
ATOM     36  C   LIG d   1       9.330   8.375  -6.983  0.00  0.00    -0.033 C 
ATOM     37  H   LIG d   1      10.087   8.213  -7.750  0.00  0.00     0.028 H 
ATOM     38  H   LIG d   1       8.342   8.177  -7.400  0.00  0.00     0.028 H 
ATOM     39  H   LIG d   1       9.377   9.408  -6.637  0.00  0.00     0.028 H 
ENDBRANCH   1  36
BRANCH   2  40
ATOM     40  O   LIG d   1       9.512   5.620  -7.318  0.00  0.00    -0.506 OA
ATOM     41  H   LIG d   1       8.826   6.075  -7.827  0.00  0.00     0.292 HD
ENDBRANCH   2  40
TORSDOF 9
ENDMDL
MODEL 6
REMARK VINA RESULT:      -5.1     12.063     13.748
REMARK  9 active torsions:
REMARK  status: ('A' for Active; 'I' for Inactive)
REMARK    1  A    between atoms: C_1  and  C_2 
REMARK    2  A    between atoms: C_3  and  O_26 
REMARK    3  A    between atoms: C_4  and  C_23 
REMARK    4  A    between atoms: C_7  and  O_8 
REMARK    5  A    between atoms: C_9  and  C_22 
REMARK    6  A    between atoms: C_14  and  C_18 
REMARK    7  A    between atoms: C_18  and  C_20 
REMARK    8  A    between atoms: C_18  and  O_19 
REMARK    9  A    between atoms: C_23  and  C_25 
ROOT
ATOM      1  C   LIG d   1       9.509  11.930  -4.177  0.00  0.00     0.034 A 
ATOM      2  C   LIG d   1       9.598  11.021  -5.210  0.00  0.00     0.137 A 
ATOM      3  C   LIG d   1       9.832   9.649  -4.971  0.00  0.00     0.101 A 
ATOM      4  C   LIG d   1       9.979   9.246  -3.622  0.00  0.00     0.150 A 
ATOM      5  C   LIG d   1       9.870  10.189  -2.596  0.00  0.00     0.058 A 
ATOM      6  C   LIG d   1       9.641  11.534  -2.844  0.00  0.00     0.131 A 
ATOM      7  C   LIG d   1      10.046   9.421  -1.330  0.00  0.00     0.120 C 
ATOM      8  C   LIG d   1      10.583   8.083  -1.833  0.00  0.00     0.127 C 
ATOM      9  C   LIG d   1      10.753   6.789  -0.149  0.00  0.00     0.025 C 
ATOM     10  C   LIG d   1      11.796   7.673   0.179  0.00  0.00     0.196 C 
ATOM     11  O   LIG d   1      12.945   7.309   0.021  0.00  0.00    -0.287 OA
ATOM     12  C   LIG d   1      11.541   9.055   0.718  0.00  0.00     0.102 C 
ATOM     13  C   LIG d   1      11.109   9.973  -0.413  0.00  0.00     0.188 C 
ATOM     14  O   LIG d   1      11.584  11.073  -0.568  0.00  0.00    -0.290 OA
ATOM     15  O   LIG d   1      10.245   8.024  -3.128  0.00  0.00    -0.458 OA
ATOM     16  H   LIG d   1      10.983   5.819  -0.564  0.00  0.00     0.069 H 
ENDROOT
BRANCH  12  17
ATOM     17  C   LIG d   1      11.798   9.070   2.203  0.00  0.00     0.105 C 
BRANCH  17  18
ATOM     18  C   LIG d   1      12.283  10.331   2.871  0.00  0.00    -0.006 C 
ATOM     19  H   LIG d   1      11.431  10.880   3.271  0.00  0.00     0.031 H 
ATOM     20  H   LIG d   1      12.805  10.951   2.142  0.00  0.00     0.031 H 
ATOM     21  H   LIG d   1      12.963  10.074   3.683  0.00  0.00     0.031 H 
ENDBRANCH  17  18
BRANCH  17  22
ATOM     22  O   LIG d   1      11.618   8.071   2.857  0.00  0.00    -0.510 OA
ATOM     23  H   LIG d   1      11.302   8.324   3.771  0.00  0.00     0.292 HD
ENDBRANCH  17  22
ENDBRANCH  12  17
BRANCH   7  24
ATOM     24  C   LIG d   1       8.719   9.243  -0.590  0.00  0.00    -0.041 C 
ATOM     25  H   LIG d   1       8.084   8.554  -1.147  0.00  0.00     0.025 H 
ATOM     26  H   LIG d   1       8.910   8.839   0.404  0.00  0.00     0.025 H 
ATOM     27  H   LIG d   1       8.220  10.208  -0.502  0.00  0.00     0.025 H 
ENDBRANCH   7  24
BRANCH   6  28
ATOM     28  O   LIG d   1       9.552  12.431  -1.831  0.00  0.00    -0.506 OA
ATOM     29  H   LIG d   1       8.760  12.984  -1.863  0.00  0.00     0.292 HD
ENDBRANCH   6  28
BRANCH   3  30
ATOM     30  C   LIG d   1       9.920   8.687  -6.067  0.00  0.00     0.167 C 
ATOM     31  O   LIG d   1       8.927   8.398  -6.703  0.00  0.00    -0.292 OA
BRANCH  30  32
ATOM     32  C   LIG d   1      11.243   8.051  -6.409  0.00  0.00    -0.001 C 
ATOM     33  H   LIG d   1      11.342   7.195  -5.900  0.00  0.00     0.031 H 
ATOM     34  H   LIG d   1      11.282   7.844  -7.477  0.00  0.00     0.031 H 
ATOM     35  H   LIG d   1      12.052   8.729  -6.139  0.00  0.00     0.031 H 
ENDBRANCH  30  32
ENDBRANCH   3  30
BRANCH   1  36
ATOM     36  C   LIG d   1       9.263  13.383  -4.493  0.00  0.00    -0.033 C 
ATOM     37  H   LIG d   1      10.140  13.968  -4.219  0.00  0.00     0.028 H 
ATOM     38  H   LIG d   1       9.071  13.494  -5.560  0.00  0.00     0.028 H 
ATOM     39  H   LIG d   1       8.399  13.736  -3.929  0.00  0.00     0.028 H 
ENDBRANCH   1  36
BRANCH   2  40
ATOM     40  O   LIG d   1       9.458  11.454  -6.487  0.00  0.00    -0.506 OA
ATOM     41  H   LIG d   1       8.543  11.469  -6.800  0.00  0.00     0.292 HD
ENDBRANCH   2  40
TORSDOF 9
ENDMDL
MODEL 7
REMARK VINA RESULT:      -5.1      2.552      3.507
REMARK  9 active torsions:
REMARK  status: ('A' for Active; 'I' for Inactive)
REMARK    1  A    between atoms: C_1  and  C_2 
REMARK    2  A    between atoms: C_3  and  O_26 
REMARK    3  A    between atoms: C_4  and  C_23 
REMARK    4  A    between atoms: C_7  and  O_8 
REMARK    5  A    between atoms: C_9  and  C_22 
REMARK    6  A    between atoms: C_14  and  C_18 
REMARK    7  A    between atoms: C_18  and  C_20 
REMARK    8  A    between atoms: C_18  and  O_19 
REMARK    9  A    between atoms: C_23  and  C_25 
ROOT
ATOM      1  C   LIG d   1       4.520   0.044  -3.459  0.00  0.00     0.034 A 
ATOM      2  C   LIG d   1       5.706   0.721  -3.650  0.00  0.00     0.137 A 
ATOM      3  C   LIG d   1       6.671   0.275  -4.579  0.00  0.00     0.101 A 
ATOM      4  C   LIG d   1       6.372  -0.904  -5.302  0.00  0.00     0.150 A 
ATOM      5  C   LIG d   1       5.156  -1.561  -5.096  0.00  0.00     0.058 A 
ATOM      6  C   LIG d   1       4.216  -1.113  -4.180  0.00  0.00     0.131 A 
ATOM      7  C   LIG d   1       5.169  -2.724  -6.029  0.00  0.00     0.120 C 
ATOM      8  C   LIG d   1       6.630  -2.774  -6.467  0.00  0.00     0.127 C 
ATOM      9  C   LIG d   1       6.803  -4.305  -7.939  0.00  0.00     0.025 C 
ATOM     10  C   LIG d   1       6.570  -5.131  -6.826  0.00  0.00     0.196 C 
ATOM     11  O   LIG d   1       7.502  -5.747  -6.347  0.00  0.00    -0.287 OA
ATOM     12  C   LIG d   1       5.207  -5.279  -6.205  0.00  0.00     0.102 C 
ATOM     13  C   LIG d   1       4.890  -4.051  -5.368  0.00  0.00     0.188 C 
ATOM     14  O   LIG d   1       4.445  -4.131  -4.248  0.00  0.00    -0.290 OA
ATOM     15  O   LIG d   1       7.126  -1.557  -6.204  0.00  0.00    -0.458 OA
ATOM     16  H   LIG d   1       7.804  -4.203  -8.331  0.00  0.00     0.069 H 
ENDROOT
BRANCH  12  17
ATOM     17  C   LIG d   1       4.608  -6.598  -6.620  0.00  0.00     0.105 C 
BRANCH  17  18
ATOM     18  C   LIG d   1       4.881  -7.838  -5.808  0.00  0.00    -0.006 C 
ATOM     19  H   LIG d   1       5.711  -7.651  -5.126  0.00  0.00     0.031 H 
ATOM     20  H   LIG d   1       5.138  -8.660  -6.475  0.00  0.00     0.031 H 
ATOM     21  H   LIG d   1       3.992  -8.101  -5.234  0.00  0.00     0.031 H 
ENDBRANCH  17  18
BRANCH  17  22
ATOM     22  O   LIG d   1       3.910  -6.662  -7.603  0.00  0.00    -0.510 OA
ATOM     23  H   LIG d   1       4.120  -7.500  -8.106  0.00  0.00     0.292 HD
ENDBRANCH  17  22
ENDBRANCH  12  17
BRANCH   7  24
ATOM     24  C   LIG d   1       4.239  -2.498  -7.223  0.00  0.00    -0.041 C 
ATOM     25  H   LIG d   1       4.691  -1.775  -7.902  0.00  0.00     0.025 H 
ATOM     26  H   LIG d   1       4.085  -3.442  -7.746  0.00  0.00     0.025 H 
ATOM     27  H   LIG d   1       3.281  -2.116  -6.871  0.00  0.00     0.025 H 
ENDBRANCH   7  24
BRANCH   6  28
ATOM     28  O   LIG d   1       3.048  -1.775  -3.989  0.00  0.00    -0.506 OA
ATOM     29  H   LIG d   1       2.473  -1.791  -4.766  0.00  0.00     0.292 HD
ENDBRANCH   6  28
BRANCH   3  30
ATOM     30  C   LIG d   1       7.924   0.998  -4.784  0.00  0.00     0.167 C 
ATOM     31  O   LIG d   1       8.738   1.070  -3.886  0.00  0.00    -0.292 OA
BRANCH  30  32
ATOM     32  C   LIG d   1       8.207   1.656  -6.111  0.00  0.00    -0.001 C 
ATOM     33  H   LIG d   1       9.142   1.442  -6.395  0.00  0.00     0.031 H 
ATOM     34  H   LIG d   1       7.506   1.285  -6.858  0.00  0.00     0.031 H 
ATOM     35  H   LIG d   1       8.096   2.736  -6.012  0.00  0.00     0.031 H 
ENDBRANCH  30  32
ENDBRANCH   3  30
BRANCH   1  36
ATOM     36  C   LIG d   1       3.528   0.565  -2.450  0.00  0.00    -0.033 C 
ATOM     37  H   LIG d   1       3.988   0.578  -1.462  0.00  0.00     0.028 H 
ATOM     38  H   LIG d   1       3.228   1.576  -2.725  0.00  0.00     0.028 H 
ATOM     39  H   LIG d   1       2.651  -0.083  -2.435  0.00  0.00     0.028 H 
ENDBRANCH   1  36
BRANCH   2  40
ATOM     40  O   LIG d   1       5.951   1.842  -2.929  0.00  0.00    -0.506 OA
ATOM     41  H   LIG d   1       5.581   2.649  -3.316  0.00  0.00     0.292 HD
ENDBRANCH   2  40
TORSDOF 9
ENDMDL
MODEL 8
REMARK VINA RESULT:      -5.1     10.216     12.171
REMARK  9 active torsions:
REMARK  status: ('A' for Active; 'I' for Inactive)
REMARK    1  A    between atoms: C_1  and  C_2 
REMARK    2  A    between atoms: C_3  and  O_26 
REMARK    3  A    between atoms: C_4  and  C_23 
REMARK    4  A    between atoms: C_7  and  O_8 
REMARK    5  A    between atoms: C_9  and  C_22 
REMARK    6  A    between atoms: C_14  and  C_18 
REMARK    7  A    between atoms: C_18  and  C_20 
REMARK    8  A    between atoms: C_18  and  O_19 
REMARK    9  A    between atoms: C_23  and  C_25 
ROOT
ATOM      1  C   LIG d   1       9.816   4.333  -3.883  0.00  0.00     0.034 A 
ATOM      2  C   LIG d   1       9.754   4.641  -5.225  0.00  0.00     0.137 A 
ATOM      3  C   LIG d   1       9.997   5.950  -5.696  0.00  0.00     0.101 A 
ATOM      4  C   LIG d   1      10.299   6.937  -4.729  0.00  0.00     0.150 A 
ATOM      5  C   LIG d   1      10.367   6.592  -3.376  0.00  0.00     0.058 A 
ATOM      6  C   LIG d   1      10.126   5.302  -2.926  0.00  0.00     0.131 A 
ATOM      7  C   LIG d   1      10.729   7.849  -2.661  0.00  0.00     0.120 C 
ATOM      8  C   LIG d   1      10.505   8.910  -3.736  0.00  0.00     0.127 C 
ATOM      9  C   LIG d   1      11.126  10.780  -2.926  0.00  0.00     0.025 C 
ATOM     10  C   LIG d   1       9.979  10.598  -2.135  0.00  0.00     0.196 C 
ATOM     11  O   LIG d   1       8.984  11.250  -2.384  0.00  0.00    -0.287 OA
ATOM     12  C   LIG d   1       9.938   9.621  -0.989  0.00  0.00     0.102 C 
ATOM     13  C   LIG d   1       9.801   8.207  -1.528  0.00  0.00     0.188 C 
ATOM     14  O   LIG d   1       9.002   7.421  -1.078  0.00  0.00    -0.290 OA
ATOM     15  O   LIG d   1      10.527   8.251  -4.902  0.00  0.00    -0.458 OA
ATOM     16  H   LIG d   1      11.099  11.468  -3.759  0.00  0.00     0.069 H 
ENDROOT
BRANCH  12  17
ATOM     17  C   LIG d   1      10.048  10.372   0.313  0.00  0.00     0.105 C 
BRANCH  17  18
ATOM     18  C   LIG d   1      11.254  10.179   1.195  0.00  0.00    -0.006 C 
ATOM     19  H   LIG d   1      11.092   9.324   1.851  0.00  0.00     0.031 H 
ATOM     20  H   LIG d   1      11.412  11.074   1.796  0.00  0.00     0.031 H 
ATOM     21  H   LIG d   1      12.133   9.999   0.575  0.00  0.00     0.031 H 
ENDBRANCH  17  18
BRANCH  17  22
ATOM     22  O   LIG d   1       9.168  11.127   0.651  0.00  0.00    -0.510 OA
ATOM     23  H   LIG d   1       8.399  10.601   1.014  0.00  0.00     0.292 HD
ENDBRANCH  17  22
ENDBRANCH  12  17
BRANCH   7  24
ATOM     24  C   LIG d   1      12.186   7.832  -2.195  0.00  0.00    -0.041 C 
ATOM     25  H   LIG d   1      12.248   8.244  -1.187  0.00  0.00     0.025 H 
ATOM     26  H   LIG d   1      12.554   6.807  -2.192  0.00  0.00     0.025 H 
ATOM     27  H   LIG d   1      12.791   8.436  -2.871  0.00  0.00     0.025 H 
ENDBRANCH   7  24
BRANCH   6  28
ATOM     28  O   LIG d   1      10.186   4.994  -1.606  0.00  0.00    -0.506 OA
ATOM     29  H   LIG d   1      10.781   4.261  -1.399  0.00  0.00     0.292 HD
ENDBRANCH   6  28
BRANCH   3  30
ATOM     30  C   LIG d   1       9.937   6.272  -7.120  0.00  0.00     0.167 C 
ATOM     31  O   LIG d   1      10.508   5.567  -7.926  0.00  0.00    -0.292 OA
BRANCH  30  32
ATOM     32  C   LIG d   1       9.168   7.481  -7.588  0.00  0.00    -0.001 C 
ATOM     33  H   LIG d   1       8.243   7.455  -7.208  0.00  0.00     0.031 H 
ATOM     34  H   LIG d   1       9.673   8.386  -7.252  0.00  0.00     0.031 H 
ATOM     35  H   LIG d   1       9.113   7.478  -8.677  0.00  0.00     0.031 H 
ENDBRANCH  30  32
ENDBRANCH   3  30
BRANCH   1  36
ATOM     36  C   LIG d   1       9.543   2.919  -3.437  0.00  0.00    -0.033 C 
ATOM     37  H   LIG d   1      10.190   2.234  -3.984  0.00  0.00     0.028 H 
ATOM     38  H   LIG d   1       9.742   2.831  -2.368  0.00  0.00     0.028 H 
ATOM     39  H   LIG d   1       8.500   2.671  -3.635  0.00  0.00     0.028 H 
ENDBRANCH   1  36
BRANCH   2  40
ATOM     40  O   LIG d   1       9.454   3.664  -6.115  0.00  0.00    -0.506 OA
ATOM     41  H   LIG d   1       8.620   3.803  -6.586  0.00  0.00     0.292 HD
ENDBRANCH   2  40
TORSDOF 9
ENDMDL
MODEL 9
REMARK VINA RESULT:      -5.0      9.505     10.989
REMARK  9 active torsions:
REMARK  status: ('A' for Active; 'I' for Inactive)
REMARK    1  A    between atoms: C_1  and  C_2 
REMARK    2  A    between atoms: C_3  and  O_26 
REMARK    3  A    between atoms: C_4  and  C_23 
REMARK    4  A    between atoms: C_7  and  O_8 
REMARK    5  A    between atoms: C_9  and  C_22 
REMARK    6  A    between atoms: C_14  and  C_18 
REMARK    7  A    between atoms: C_18  and  C_20 
REMARK    8  A    between atoms: C_18  and  O_19 
REMARK    9  A    between atoms: C_23  and  C_25 
ROOT
ATOM      1  C   LIG d   1      10.015   9.130  -1.774  0.00  0.00     0.034 A 
ATOM      2  C   LIG d   1      10.368   8.777  -0.489  0.00  0.00     0.137 A 
ATOM      3  C   LIG d   1      10.834   7.481  -0.179  0.00  0.00     0.101 A 
ATOM      4  C   LIG d   1      10.916   6.554  -1.244  0.00  0.00     0.150 A 
ATOM      5  C   LIG d   1      10.563   6.945  -2.539  0.00  0.00     0.058 A 
ATOM      6  C   LIG d   1      10.106   8.221  -2.830  0.00  0.00     0.131 A 
ATOM      7  C   LIG d   1      10.796   5.746  -3.394  0.00  0.00     0.120 C 
ATOM      8  C   LIG d   1      10.973   4.637  -2.359  0.00  0.00     0.127 C 
ATOM      9  C   LIG d   1      11.471   2.854  -3.413  0.00  0.00     0.025 C 
ATOM     10  C   LIG d   1      10.134   2.960  -3.832  0.00  0.00     0.196 C 
ATOM     11  O   LIG d   1       9.306   2.216  -3.344  0.00  0.00    -0.287 OA
ATOM     12  C   LIG d   1       9.690   3.963  -4.864  0.00  0.00     0.102 C 
ATOM     13  C   LIG d   1       9.608   5.343  -4.232  0.00  0.00     0.188 C 
ATOM     14  O   LIG d   1       8.657   6.069  -4.391  0.00  0.00    -0.290 OA
ATOM     15  O   LIG d   1      11.283   5.260  -1.215  0.00  0.00    -0.458 OA
ATOM     16  H   LIG d   1      11.738   2.142  -2.647  0.00  0.00     0.069 H 
ENDROOT
BRANCH  12  17
ATOM     17  C   LIG d   1       9.473   3.265  -6.181  0.00  0.00     0.105 C 
BRANCH  17  18
ATOM     18  C   LIG d   1       9.732   3.997  -7.473  0.00  0.00    -0.006 C 
ATOM     19  H   LIG d   1      10.271   3.343  -8.159  0.00  0.00     0.031 H 
ATOM     20  H   LIG d   1      10.329   4.886  -7.274  0.00  0.00     0.031 H 
ATOM     21  H   LIG d   1       8.783   4.290  -7.922  0.00  0.00     0.031 H 
ENDBRANCH  17  18
BRANCH  17  22
ATOM     22  O   LIG d   1       9.091   2.120  -6.202  0.00  0.00    -0.510 OA
ATOM     23  H   LIG d   1       9.106   1.746  -5.275  0.00  0.00     0.292 HD
ENDBRANCH  17  22
ENDBRANCH  12  17
BRANCH   7  24
ATOM     24  C   LIG d   1      12.049   5.904  -4.257  0.00  0.00    -0.041 C 
ATOM     25  H   LIG d   1      12.244   4.972  -4.786  0.00  0.00     0.025 H 
ATOM     26  H   LIG d   1      11.895   6.706  -4.978  0.00  0.00     0.025 H 
ATOM     27  H   LIG d   1      12.900   6.145  -3.620  0.00  0.00     0.025 H 
ENDBRANCH   7  24
BRANCH   6  28
ATOM     28  O   LIG d   1       9.758   8.573  -4.093  0.00  0.00    -0.506 OA
ATOM     29  H   LIG d   1      10.031   9.466  -4.343  0.00  0.00     0.292 HD
ENDBRANCH   6  28
BRANCH   3  30
ATOM     30  C   LIG d   1      11.214   7.112   1.183  0.00  0.00     0.167 C 
ATOM     31  O   LIG d   1      11.771   7.919   1.899  0.00  0.00    -0.292 OA
BRANCH  30  32
ATOM     32  C   LIG d   1      10.917   5.727   1.700  0.00  0.00    -0.001 C 
ATOM     33  H   LIG d   1      10.374   5.794   2.538  0.00  0.00     0.031 H 
ATOM     34  H   LIG d   1      10.358   5.171   0.949  0.00  0.00     0.031 H 
ATOM     35  H   LIG d   1      11.853   5.211   1.914  0.00  0.00     0.031 H 
ENDBRANCH  30  32
ENDBRANCH   3  30
BRANCH   1  36
ATOM     36  C   LIG d   1       9.519  10.528  -2.045  0.00  0.00    -0.033 C 
ATOM     37  H   LIG d   1       9.500  10.704  -3.120  0.00  0.00     0.028 H 
ATOM     38  H   LIG d   1       8.513  10.640  -1.641  0.00  0.00     0.028 H 
ATOM     39  H   LIG d   1      10.185  11.248  -1.569  0.00  0.00     0.028 H 
ENDBRANCH   1  36
BRANCH   2  40
ATOM     40  O   LIG d   1      10.266   9.697   0.502  0.00  0.00    -0.506 OA
ATOM     41  H   LIG d   1       9.708  10.455   0.280  0.00  0.00     0.292 HD
ENDBRANCH   2  40
TORSDOF 9
ENDMDL
MODEL 10
REMARK VINA RESULT:      -4.9     12.387     13.753
REMARK  9 active torsions:
REMARK  status: ('A' for Active; 'I' for Inactive)
REMARK    1  A    between atoms: C_1  and  C_2 
REMARK    2  A    between atoms: C_3  and  O_26 
REMARK    3  A    between atoms: C_4  and  C_23 
REMARK    4  A    between atoms: C_7  and  O_8 
REMARK    5  A    between atoms: C_9  and  C_22 
REMARK    6  A    between atoms: C_14  and  C_18 
REMARK    7  A    between atoms: C_18  and  C_20 
REMARK    8  A    between atoms: C_18  and  O_19 
REMARK    9  A    between atoms: C_23  and  C_25 
ROOT
ATOM      1  C   LIG d   1      10.427  12.948  -1.020  0.00  0.00     0.034 A 
ATOM      2  C   LIG d   1      10.424  13.216  -2.373  0.00  0.00     0.137 A 
ATOM      3  C   LIG d   1      10.297  12.187  -3.331  0.00  0.00     0.101 A 
ATOM      4  C   LIG d   1      10.181  10.864  -2.844  0.00  0.00     0.150 A 
ATOM      5  C   LIG d   1      10.175  10.624  -1.467  0.00  0.00     0.058 A 
ATOM      6  C   LIG d   1      10.301  11.644  -0.536  0.00  0.00     0.131 A 
ATOM      7  C   LIG d   1      10.011   9.150  -1.321  0.00  0.00     0.120 C 
ATOM      8  C   LIG d   1      10.274   8.650  -2.739  0.00  0.00     0.127 C 
ATOM      9  C   LIG d   1       9.931   6.547  -2.750  0.00  0.00     0.025 C 
ATOM     10  C   LIG d   1      11.105   6.548  -1.977  0.00  0.00     0.196 C 
ATOM     11  O   LIG d   1      12.146   6.191  -2.492  0.00  0.00    -0.287 OA
ATOM     12  C   LIG d   1      11.119   6.978  -0.534  0.00  0.00     0.102 C 
ATOM     13  C   LIG d   1      11.055   8.494  -0.452  0.00  0.00     0.188 C 
ATOM     14  O   LIG d   1      11.791   9.132   0.262  0.00  0.00    -0.290 OA
ATOM     15  O   LIG d   1      10.091   9.713  -3.534  0.00  0.00    -0.458 OA
ATOM     16  H   LIG d   1       9.974   6.263  -3.790  0.00  0.00     0.069 H 
ENDROOT
BRANCH  12  17
ATOM     17  C   LIG d   1      11.192   5.760   0.350  0.00  0.00     0.105 C 
BRANCH  17  18
ATOM     18  C   LIG d   1      10.993   5.897   1.838  0.00  0.00    -0.006 C 
ATOM     19  H   LIG d   1      10.477   6.833   2.051  0.00  0.00     0.031 H 
ATOM     20  H   LIG d   1      11.962   5.894   2.336  0.00  0.00     0.031 H 
ATOM     21  H   LIG d   1      10.395   5.062   2.203  0.00  0.00     0.031 H 
ENDBRANCH  17  18
BRANCH  17  22
ATOM     22  O   LIG d   1      11.411   4.675  -0.132  0.00  0.00    -0.510 OA
ATOM     23  H   LIG d   1      10.844   3.988   0.321  0.00  0.00     0.292 HD
ENDBRANCH  17  22
ENDBRANCH  12  17
BRANCH   7  24
ATOM     24  C   LIG d   1       8.601   8.783  -0.857  0.00  0.00    -0.041 C 
ATOM     25  H   LIG d   1       8.360   9.342   0.048  0.00  0.00     0.025 H 
ATOM     26  H   LIG d   1       7.885   9.031  -1.639  0.00  0.00     0.025 H 
ATOM     27  H   LIG d   1       8.554   7.714  -0.646  0.00  0.00     0.025 H 
ENDBRANCH   7  24
BRANCH   6  28
ATOM     28  O   LIG d   1      10.304  11.384   0.796  0.00  0.00    -0.506 OA
ATOM     29  H   LIG d   1      10.559  10.479   1.020  0.00  0.00     0.292 HD
ENDBRANCH   6  28
BRANCH   3  30
ATOM     30  C   LIG d   1      10.287  12.475  -4.764  0.00  0.00     0.167 C 
ATOM     31  O   LIG d   1       9.294  12.940  -5.283  0.00  0.00    -0.292 OA
BRANCH  30  32
ATOM     32  C   LIG d   1      11.511  12.194  -5.598  0.00  0.00    -0.001 C 
ATOM     33  H   LIG d   1      11.385  11.334  -6.094  0.00  0.00     0.031 H 
ATOM     34  H   LIG d   1      11.660  13.005  -6.310  0.00  0.00     0.031 H 
ATOM     35  H   LIG d   1      12.383  12.114  -4.949  0.00  0.00     0.031 H 
ENDBRANCH  30  32
ENDBRANCH   3  30
BRANCH   1  36
ATOM     36  C   LIG d   1      10.570  14.086  -0.043  0.00  0.00    -0.033 C 
ATOM     37  H   LIG d   1       9.713  14.753  -0.133  0.00  0.00     0.028 H 
ATOM     38  H   LIG d   1      10.616  13.689   0.972  0.00  0.00     0.028 H 
ATOM     39  H   LIG d   1      11.485  14.638  -0.259  0.00  0.00     0.028 H 
ENDBRANCH   1  36
BRANCH   2  40
ATOM     40  O   LIG d   1      10.545  14.499  -2.793  0.00  0.00    -0.506 OA
ATOM     41  H   LIG d   1      10.050  14.698  -3.600  0.00  0.00     0.292 HD
ENDBRANCH   2  40
TORSDOF 9
ENDMDL
