MODEL 1
REMARK VINA RESULT:      -6.4      0.000      0.000
REMARK  1 active torsions:
REMARK  status: ('A' for Active; 'I' for Inactive)
REMARK    1  A    between atoms: CA_10  and  C_13 
ROOT
ATOM      1  C   LIG d   1       7.357  -2.354  -3.987  0.00  0.00    -0.061 A 
ATOM      2  C   LIG d   1       6.482  -3.304  -4.492  0.00  0.00    -0.060 A 
ATOM      3  C   LIG d   1       5.118  -3.113  -4.421  0.00  0.00    -0.040 A 
ATOM      4  C   LIG d   1       4.609  -1.965  -3.827  0.00  0.00     0.038 A 
ATOM      5  C   LIG d   1       5.496  -0.999  -3.316  0.00  0.00     0.038 A 
ATOM      6  C   LIG d   1       6.875  -1.206  -3.400  0.00  0.00    -0.050 A 
ATOM      7  C   LIG d   1       4.951   0.219  -2.698  0.00  0.00     0.167 C 
ATOM      8  O   LIG d   1       5.655   1.182  -2.480  0.00  0.00    -0.292 OA
ATOM      9  C   LIG d   1       3.477   0.226  -2.344  0.00  0.00     0.034 C 
ATOM     10  CA  LIG d   1       2.711  -0.413  -3.511  0.00  0.00     0.067 C 
ATOM     11  HA  LIG d   1       1.651  -0.470  -3.265  0.00  0.00     0.056 H 
ATOM     12  N   LIG d   1       3.240  -1.764  -3.741  0.00  0.00    -0.335 N 
ATOM     13  H   LIG d   1       8.423  -2.517  -4.052  0.00  0.00     0.062 H 
ATOM     14  H   LIG d   1       6.873  -4.201  -4.950  0.00  0.00     0.062 H 
ATOM     15  H   LIG d   1       4.445  -3.857  -4.822  0.00  0.00     0.064 H 
ATOM     16  H   LIG d   1       7.559  -0.467  -3.007  0.00  0.00     0.062 H 
ATOM     17  H   LIG d   1       3.333  -0.297  -1.504  0.00  0.00     0.037 H 
ATOM     18  H   LIG d   1       3.138   1.252  -2.197  0.00  0.00     0.037 H 
ATOM     19  H   LIG d   1       2.632  -2.514  -3.833  0.00  0.00     0.147 HD
ENDROOT
BRANCH  10  20
ATOM     20  C   LIG d   1       2.896   0.420  -4.753  0.00  0.00     0.062 C 
ATOM     21  O   LIG d   1       2.754   1.619  -4.703  0.00  0.00    -0.548 OA
ATOM     22  OXT LIG d   1       3.218  -0.171  -5.915  0.00  0.00    -0.548 OA
ENDBRANCH  10  20
TORSDOF 1
ENDMDL
MODEL 2
REMARK VINA RESULT:      -5.9      2.247      3.591
REMARK  1 active torsions:
REMARK  status: ('A' for Active; 'I' for Inactive)
REMARK    1  A    between atoms: CA_10  and  C_13 
ROOT
ATOM      1  C   LIG d   1       4.293  -1.014  -1.635  0.00  0.00    -0.061 A 
ATOM      2  C   LIG d   1       4.702   0.301  -1.806  0.00  0.00    -0.060 A 
ATOM      3  C   LIG d   1       5.159   0.742  -3.030  0.00  0.00    -0.040 A 
ATOM      4  C   LIG d   1       5.225  -0.138  -4.103  0.00  0.00     0.038 A 
ATOM      5  C   LIG d   1       4.809  -1.471  -3.931  0.00  0.00     0.038 A 
ATOM      6  C   LIG d   1       4.344  -1.901  -2.687  0.00  0.00    -0.050 A 
ATOM      7  C   LIG d   1       4.871  -2.394  -5.074  0.00  0.00     0.167 C 
ATOM      8  O   LIG d   1       4.293  -3.461  -5.053  0.00  0.00    -0.292 OA
ATOM      9  C   LIG d   1       5.682  -1.964  -6.280  0.00  0.00     0.034 C 
ATOM     10  CA  LIG d   1       5.378  -0.483  -6.546  0.00  0.00     0.067 C 
ATOM     11  HA  LIG d   1       5.987  -0.128  -7.377  0.00  0.00     0.056 H 
ATOM     12  N   LIG d   1       5.692   0.290  -5.336  0.00  0.00    -0.335 N 
ATOM     13  H   LIG d   1       3.935  -1.344  -0.670  0.00  0.00     0.062 H 
ATOM     14  H   LIG d   1       4.657   0.987  -0.973  0.00  0.00     0.062 H 
ATOM     15  H   LIG d   1       5.471   1.769  -3.153  0.00  0.00     0.064 H 
ATOM     16  H   LIG d   1       4.024  -2.924  -2.551  0.00  0.00     0.062 H 
ATOM     17  H   LIG d   1       6.656  -2.091  -6.089  0.00  0.00     0.037 H 
ATOM     18  H   LIG d   1       5.400  -2.561  -7.147  0.00  0.00     0.037 H 
ATOM     19  H   LIG d   1       6.224   1.098  -5.402  0.00  0.00     0.147 HD
ENDROOT
BRANCH  10  20
ATOM     20  C   LIG d   1       3.918  -0.319  -6.884  0.00  0.00     0.062 C 
ATOM     21  O   LIG d   1       3.279   0.577  -6.385  0.00  0.00    -0.548 OA
ATOM     22  OXT LIG d   1       3.329  -1.169  -7.740  0.00  0.00    -0.548 OA
ENDBRANCH  10  20
TORSDOF 1
ENDMDL
MODEL 3
REMARK VINA RESULT:      -5.7      1.984      3.199
REMARK  1 active torsions:
REMARK  status: ('A' for Active; 'I' for Inactive)
REMARK    1  A    between atoms: CA_10  and  C_13 
ROOT
ATOM      1  C   LIG d   1       4.929  -0.438  -7.434  0.00  0.00    -0.061 A 
ATOM      2  C   LIG d   1       3.647   0.085  -7.515  0.00  0.00    -0.060 A 
ATOM      3  C   LIG d   1       2.856   0.186  -6.390  0.00  0.00    -0.040 A 
ATOM      4  C   LIG d   1       3.338  -0.250  -5.162  0.00  0.00     0.038 A 
ATOM      5  C   LIG d   1       4.639  -0.779  -5.078  0.00  0.00     0.038 A 
ATOM      6  C   LIG d   1       5.430  -0.871  -6.226  0.00  0.00    -0.050 A 
ATOM      7  C   LIG d   1       5.147  -1.229  -3.774  0.00  0.00     0.167 C 
ATOM      8  O   LIG d   1       6.328  -1.447  -3.600  0.00  0.00    -0.292 OA
ATOM      9  C   LIG d   1       4.142  -1.411  -2.655  0.00  0.00     0.034 C 
ATOM     10  CA  LIG d   1       3.173  -0.221  -2.696  0.00  0.00     0.067 C 
ATOM     11  HA  LIG d   1       2.404  -0.348  -1.934  0.00  0.00     0.056 H 
ATOM     12  N   LIG d   1       2.550  -0.164  -4.025  0.00  0.00    -0.335 N 
ATOM     13  H   LIG d   1       5.538  -0.508  -8.324  0.00  0.00     0.062 H 
ATOM     14  H   LIG d   1       3.266   0.421  -8.468  0.00  0.00     0.062 H 
ATOM     15  H   LIG d   1       1.861   0.599  -6.463  0.00  0.00     0.064 H 
ATOM     16  H   LIG d   1       6.429  -1.277  -6.166  0.00  0.00     0.062 H 
ATOM     17  H   LIG d   1       3.645  -2.270  -2.788  0.00  0.00     0.037 H 
ATOM     18  H   LIG d   1       4.658  -1.435  -1.694  0.00  0.00     0.037 H 
ATOM     19  H   LIG d   1       1.588  -0.064  -4.106  0.00  0.00     0.147 HD
ENDROOT
BRANCH  10  20
ATOM     20  C   LIG d   1       3.931   1.056  -2.439  0.00  0.00     0.062 C 
ATOM     21  O   LIG d   1       4.701   1.125  -1.509  0.00  0.00    -0.548 OA
ATOM     22  OXT LIG d   1       3.751   2.117  -3.241  0.00  0.00    -0.548 OA
ENDBRANCH  10  20
TORSDOF 1
ENDMDL
MODEL 4
REMARK VINA RESULT:      -5.7      2.325      4.243
REMARK  1 active torsions:
REMARK  status: ('A' for Active; 'I' for Inactive)
REMARK    1  A    between atoms: CA_10  and  C_13 
ROOT
ATOM      1  C   LIG d   1       3.018  -0.009  -2.500  0.00  0.00    -0.061 A 
ATOM      2  C   LIG d   1       3.892   1.023  -2.189  0.00  0.00    -0.060 A 
ATOM      3  C   LIG d   1       5.234   0.924  -2.490  0.00  0.00    -0.040 A 
ATOM      4  C   LIG d   1       5.724  -0.224  -3.100  0.00  0.00     0.038 A 
ATOM      5  C   LIG d   1       4.840  -1.271  -3.417  0.00  0.00     0.038 A 
ATOM      6  C   LIG d   1       3.482  -1.153  -3.109  0.00  0.00    -0.050 A 
ATOM      7  C   LIG d   1       5.364  -2.479  -4.071  0.00  0.00     0.167 C 
ATOM      8  O   LIG d   1       4.621  -3.285  -4.591  0.00  0.00    -0.292 OA
ATOM      9  C   LIG d   1       6.866  -2.680  -4.072  0.00  0.00     0.034 C 
ATOM     10  CA  LIG d   1       7.520  -1.328  -4.391  0.00  0.00     0.067 C 
ATOM     11  HA  LIG d   1       8.604  -1.427  -4.349  0.00  0.00     0.056 H 
ATOM     12  N   LIG d   1       7.073  -0.341  -3.399  0.00  0.00    -0.335 N 
ATOM     13  H   LIG d   1       1.969   0.085  -2.260  0.00  0.00     0.062 H 
ATOM     14  H   LIG d   1       3.515   1.916  -1.711  0.00  0.00     0.062 H 
ATOM     15  H   LIG d   1       5.904   1.736  -2.249  0.00  0.00     0.064 H 
ATOM     16  H   LIG d   1       2.800  -1.955  -3.351  0.00  0.00     0.062 H 
ATOM     17  H   LIG d   1       7.160  -3.007  -3.174  0.00  0.00     0.037 H 
ATOM     18  H   LIG d   1       7.140  -3.412  -4.833  0.00  0.00     0.037 H 
ATOM     19  H   LIG d   1       7.721   0.229  -2.956  0.00  0.00     0.147 HD
ENDROOT
BRANCH  10  20
ATOM     20  C   LIG d   1       7.108  -0.880  -5.770  0.00  0.00     0.062 C 
ATOM     21  O   LIG d   1       6.802   0.273  -5.964  0.00  0.00    -0.548 OA
ATOM     22  OXT LIG d   1       7.083  -1.761  -6.782  0.00  0.00    -0.548 OA
ENDBRANCH  10  20
TORSDOF 1
ENDMDL
MODEL 5
REMARK VINA RESULT:      -5.0      1.301      1.911
REMARK  1 active torsions:
REMARK  status: ('A' for Active; 'I' for Inactive)
REMARK    1  A    between atoms: CA_10  and  C_13 
ROOT
ATOM      1  C   LIG d   1       7.629  -4.089  -5.278  0.00  0.00    -0.061 A 
ATOM      2  C   LIG d   1       6.486  -4.774  -5.664  0.00  0.00    -0.060 A 
ATOM      3  C   LIG d   1       5.238  -4.340  -5.269  0.00  0.00    -0.040 A 
ATOM      4  C   LIG d   1       5.118  -3.213  -4.466  0.00  0.00     0.038 A 
ATOM      5  C   LIG d   1       6.276  -2.516  -4.075  0.00  0.00     0.038 A 
ATOM      6  C   LIG d   1       7.533  -2.965  -4.487  0.00  0.00    -0.050 A 
ATOM      7  C   LIG d   1       6.142  -1.318  -3.234  0.00  0.00     0.167 C 
ATOM      8  O   LIG d   1       7.067  -0.546  -3.086  0.00  0.00    -0.292 OA
ATOM      9  C   LIG d   1       4.806  -1.082  -2.557  0.00  0.00     0.034 C 
ATOM     10  CA  LIG d   1       3.703  -1.392  -3.578  0.00  0.00     0.067 C 
ATOM     11  HA  LIG d   1       2.726  -1.281  -3.106  0.00  0.00     0.056 H 
ATOM     12  N   LIG d   1       3.870  -2.772  -4.053  0.00  0.00    -0.335 N 
ATOM     13  H   LIG d   1       8.599  -4.439  -5.598  0.00  0.00     0.062 H 
ATOM     14  H   LIG d   1       6.575  -5.654  -6.284  0.00  0.00     0.062 H 
ATOM     15  H   LIG d   1       4.354  -4.878  -5.579  0.00  0.00     0.064 H 
ATOM     16  H   LIG d   1       8.424  -2.433  -4.189  0.00  0.00     0.062 H 
ATOM     17  H   LIG d   1       4.724  -1.683  -1.762  0.00  0.00     0.037 H 
ATOM     18  H   LIG d   1       4.733  -0.042  -2.237  0.00  0.00     0.037 H 
ATOM     19  H   LIG d   1       3.109  -3.372  -4.079  0.00  0.00     0.147 HD
ENDROOT
BRANCH  10  20
ATOM     20  C   LIG d   1       3.809  -0.441  -4.743  0.00  0.00     0.062 C 
ATOM     21  O   LIG d   1       3.880  -0.871  -5.869  0.00  0.00    -0.548 OA
ATOM     22  OXT LIG d   1       3.826   0.884  -4.528  0.00  0.00    -0.548 OA
ENDBRANCH  10  20
TORSDOF 1
ENDMDL
MODEL 6
REMARK VINA RESULT:      -4.9      1.875      2.038
REMARK  1 active torsions:
REMARK  status: ('A' for Active; 'I' for Inactive)
REMARK    1  A    between atoms: CA_10  and  C_13 
ROOT
ATOM      1  C   LIG d   1       6.671  -1.196  -6.836  0.00  0.00    -0.061 A 
ATOM      2  C   LIG d   1       5.576  -1.916  -7.293  0.00  0.00    -0.060 A 
ATOM      3  C   LIG d   1       4.556  -2.266  -6.433  0.00  0.00    -0.040 A 
ATOM      4  C   LIG d   1       4.626  -1.909  -5.092  0.00  0.00     0.038 A 
ATOM      5  C   LIG d   1       5.735  -1.177  -4.629  0.00  0.00     0.038 A 
ATOM      6  C   LIG d   1       6.757  -0.826  -5.513  0.00  0.00    -0.050 A 
ATOM      7  C   LIG d   1       5.798  -0.793  -3.211  0.00  0.00     0.167 C 
ATOM      8  O   LIG d   1       6.586   0.043  -2.820  0.00  0.00    -0.292 OA
ATOM      9  C   LIG d   1       4.843  -1.479  -2.255  0.00  0.00     0.034 C 
ATOM     10  CA  LIG d   1       3.470  -1.552  -2.937  0.00  0.00     0.067 C 
ATOM     11  HA  LIG d   1       2.771  -2.088  -2.295  0.00  0.00     0.056 H 
ATOM     12  N   LIG d   1       3.613  -2.263  -4.215  0.00  0.00    -0.335 N 
ATOM     13  H   LIG d   1       7.460  -0.926  -7.523  0.00  0.00     0.062 H 
ATOM     14  H   LIG d   1       5.519  -2.200  -8.333  0.00  0.00     0.062 H 
ATOM     15  H   LIG d   1       3.706  -2.822  -6.799  0.00  0.00     0.064 H 
ATOM     16  H   LIG d   1       7.611  -0.264  -5.161  0.00  0.00     0.062 H 
ATOM     17  H   LIG d   1       5.180  -2.398  -2.049  0.00  0.00     0.037 H 
ATOM     18  H   LIG d   1       4.767  -0.903  -1.332  0.00  0.00     0.037 H 
ATOM     19  H   LIG d   1       2.999  -2.978  -4.444  0.00  0.00     0.147 HD
ENDROOT
BRANCH  10  20
ATOM     20  C   LIG d   1       2.955  -0.159  -3.189  0.00  0.00     0.062 C 
ATOM     21  O   LIG d   1       3.099   0.699  -2.350  0.00  0.00    -0.548 OA
ATOM     22  OXT LIG d   1       2.337   0.129  -4.345  0.00  0.00    -0.548 OA
ENDBRANCH  10  20
TORSDOF 1
ENDMDL
MODEL 7
REMARK VINA RESULT:      -4.8      5.611      6.890
REMARK  1 active torsions:
REMARK  status: ('A' for Active; 'I' for Inactive)
REMARK    1  A    between atoms: CA_10  and  C_13 
ROOT
ATOM      1  C   LIG d   1       2.077  -2.272 -10.498  0.00  0.00    -0.061 A 
ATOM      2  C   LIG d   1       2.530  -1.818 -11.728  0.00  0.00    -0.060 A 
ATOM      3  C   LIG d   1       3.094  -0.565 -11.850  0.00  0.00    -0.040 A 
ATOM      4  C   LIG d   1       3.201   0.259 -10.737  0.00  0.00     0.038 A 
ATOM      5  C   LIG d   1       2.743  -0.202  -9.489  0.00  0.00     0.038 A 
ATOM      6  C   LIG d   1       2.179  -1.475  -9.380  0.00  0.00    -0.050 A 
ATOM      7  C   LIG d   1       2.869   0.671  -8.313  0.00  0.00     0.167 C 
ATOM      8  O   LIG d   1       2.733   0.236  -7.188  0.00  0.00    -0.292 OA
ATOM      9  C   LIG d   1       3.175   2.136  -8.556  0.00  0.00     0.034 C 
ATOM     10  CA  LIG d   1       4.249   2.215  -9.649  0.00  0.00     0.067 C 
ATOM     11  HA  LIG d   1       4.455   3.259  -9.885  0.00  0.00     0.056 H 
ATOM     12  N   LIG d   1       3.757   1.524 -10.848  0.00  0.00    -0.335 N 
ATOM     13  H   LIG d   1       1.640  -3.257 -10.417  0.00  0.00     0.062 H 
ATOM     14  H   LIG d   1       2.445  -2.453 -12.597  0.00  0.00     0.062 H 
ATOM     15  H   LIG d   1       3.448  -0.223 -12.811  0.00  0.00     0.064 H 
ATOM     16  H   LIG d   1       1.826  -1.832  -8.423  0.00  0.00     0.062 H 
ATOM     17  H   LIG d   1       2.342   2.606  -8.850  0.00  0.00     0.037 H 
ATOM     18  H   LIG d   1       3.546   2.593  -7.638  0.00  0.00     0.037 H 
ATOM     19  H   LIG d   1       3.822   1.953 -11.716  0.00  0.00     0.147 HD
ENDROOT
BRANCH  10  20
ATOM     20  C   LIG d   1       5.512   1.550  -9.166  0.00  0.00     0.062 C 
ATOM     21  O   LIG d   1       6.309   1.116  -9.964  0.00  0.00    -0.548 OA
ATOM     22  OXT LIG d   1       5.751   1.439  -7.850  0.00  0.00    -0.548 OA
ENDBRANCH  10  20
TORSDOF 1
ENDMDL
MODEL 8
REMARK VINA RESULT:      -4.4      8.536     10.197
REMARK  1 active torsions:
REMARK  status: ('A' for Active; 'I' for Inactive)
REMARK    1  A    between atoms: CA_10  and  C_13 
ROOT
ATOM      1  C   LIG d   1      10.512   8.342   0.137  0.00  0.00    -0.061 A 
ATOM      2  C   LIG d   1      11.210   7.503   0.993  0.00  0.00    -0.060 A 
ATOM      3  C   LIG d   1      11.453   6.189   0.648  0.00  0.00    -0.040 A 
ATOM      4  C   LIG d   1      10.986   5.694  -0.563  0.00  0.00     0.038 A 
ATOM      5  C   LIG d   1      10.280   6.544  -1.433  0.00  0.00     0.038 A 
ATOM      6  C   LIG d   1      10.046   7.873  -1.071  0.00  0.00    -0.050 A 
ATOM      7  C   LIG d   1       9.797   6.016  -2.717  0.00  0.00     0.167 C 
ATOM      8  O   LIG d   1       9.418   6.757  -3.600  0.00  0.00    -0.292 OA
ATOM      9  C   LIG d   1       9.790   4.511  -2.898  0.00  0.00     0.034 C 
ATOM     10  CA  LIG d   1      11.105   3.964  -2.324  0.00  0.00     0.067 C 
ATOM     11  HA  LIG d   1      11.109   2.876  -2.392  0.00  0.00     0.056 H 
ATOM     12  N   LIG d   1      11.214   4.373  -0.918  0.00  0.00    -0.335 N 
ATOM     13  H   LIG d   1      10.333   9.369   0.420  0.00  0.00     0.062 H 
ATOM     14  H   LIG d   1      11.571   7.883   1.937  0.00  0.00     0.062 H 
ATOM     15  H   LIG d   1      12.002   5.546   1.319  0.00  0.00     0.064 H 
ATOM     16  H   LIG d   1       9.503   8.529  -1.736  0.00  0.00     0.062 H 
ATOM     17  H   LIG d   1       9.008   4.120  -2.412  0.00  0.00     0.037 H 
ATOM     18  H   LIG d   1       9.719   4.267  -3.958  0.00  0.00     0.037 H 
ATOM     19  H   LIG d   1      11.447   3.720  -0.239  0.00  0.00     0.147 HD
ENDROOT
BRANCH  10  20
ATOM     20  C   LIG d   1      12.268   4.521  -3.104  0.00  0.00     0.062 C 
ATOM     21  O   LIG d   1      13.282   4.843  -2.530  0.00  0.00    -0.548 OA
ATOM     22  OXT LIG d   1      12.177   4.662  -4.436  0.00  0.00    -0.548 OA
ENDBRANCH  10  20
TORSDOF 1
ENDMDL
MODEL 9
REMARK VINA RESULT:      -4.4      4.664      5.702
REMARK  1 active torsions:
REMARK  status: ('A' for Active; 'I' for Inactive)
REMARK    1  A    between atoms: CA_10  and  C_13 
ROOT
ATOM      1  C   LIG d   1       3.787  -3.477  -8.394  0.00  0.00    -0.061 A 
ATOM      2  C   LIG d   1       2.858  -3.490  -9.424  0.00  0.00    -0.060 A 
ATOM      3  C   LIG d   1       2.278  -2.318  -9.864  0.00  0.00    -0.040 A 
ATOM      4  C   LIG d   1       2.616  -1.111  -9.264  0.00  0.00     0.038 A 
ATOM      5  C   LIG d   1       3.559  -1.097  -8.221  0.00  0.00     0.038 A 
ATOM      6  C   LIG d   1       4.141  -2.291  -7.790  0.00  0.00    -0.050 A 
ATOM      7  C   LIG d   1       3.920   0.186  -7.598  0.00  0.00     0.167 C 
ATOM      8  O   LIG d   1       4.898   0.287  -6.887  0.00  0.00    -0.292 OA
ATOM      9  C   LIG d   1       3.025   1.376  -7.877  0.00  0.00     0.034 C 
ATOM     10  CA  LIG d   1       2.671   1.358  -9.371  0.00  0.00     0.067 C 
ATOM     11  HA  LIG d   1       1.984   2.174  -9.594  0.00  0.00     0.056 H 
ATOM     12  N   LIG d   1       2.034   0.073  -9.690  0.00  0.00    -0.335 N 
ATOM     13  H   LIG d   1       4.234  -4.403  -8.063  0.00  0.00     0.062 H 
ATOM     14  H   LIG d   1       2.589  -4.427  -9.890  0.00  0.00     0.062 H 
ATOM     15  H   LIG d   1       1.560  -2.339 -10.670  0.00  0.00     0.064 H 
ATOM     16  H   LIG d   1       4.865  -2.284  -6.989  0.00  0.00     0.062 H 
ATOM     17  H   LIG d   1       2.196   1.308  -7.321  0.00  0.00     0.037 H 
ATOM     18  H   LIG d   1       3.551   2.300  -7.633  0.00  0.00     0.037 H 
ATOM     19  H   LIG d   1       1.208   0.054 -10.199  0.00  0.00     0.147 HD
ENDROOT
BRANCH  10  20
ATOM     20  C   LIG d   1       3.926   1.517 -10.189  0.00  0.00     0.062 C 
ATOM     21  O   LIG d   1       4.007   0.996 -11.277  0.00  0.00    -0.548 OA
ATOM     22  OXT LIG d   1       4.953   2.236  -9.711  0.00  0.00    -0.548 OA
ENDBRANCH  10  20
TORSDOF 1
ENDMDL
