MODEL 1
REMARK VINA RESULT:      -5.8      0.000      0.000
REMARK  15 active torsions:
REMARK  status: ('A' for Active; 'I' for Inactive)
REMARK    1  A    between atoms: C_1  and  C_2 
REMARK    2  A    between atoms: C_2  and  O_3 
REMARK    3  A    between atoms: O_3  and  C_4 
REMARK    4  A    between atoms: C_4  and  C_6 
REMARK    5  A    between atoms: C_7  and  C_35 
REMARK    6  A    between atoms: N_8  and  C_27 
REMARK    7  A    between atoms: C_9  and  C_26 
REMARK    8  A    between atoms: C_10  and  C_21 
REMARK    9  A    between atoms: C_11  and  C_12 
REMARK   10  A    between atoms: C_16  and  N_18 
REMARK   11  A    between atoms: C_21  and  O_23 
REMARK   12  A    between atoms: O_23  and  C_24 
REMARK   13  A    between atoms: C_24  and  C_25 
REMARK   14  A    between atoms: C_30  and  O_33 
REMARK   15  A    between atoms: O_33  and  C_34 
ROOT
ATOM      1  C   LIG d   1       5.853  -2.953  -6.827  0.00  0.00     0.066 C 
ATOM      2  C   LIG d   1       5.703  -4.256  -7.122  0.00  0.00     0.023 C 
ATOM      3  N   LIG d   1       6.349  -5.218  -6.391  0.00  0.00    -0.276 N 
ATOM      4  C   LIG d   1       7.417  -4.884  -5.601  0.00  0.00     0.023 C 
ATOM      5  C   LIG d   1       7.636  -3.607  -5.244  0.00  0.00     0.066 C 
ATOM      6  C   LIG d   1       6.721  -2.501  -5.687  0.00  0.00     0.051 C 
ATOM      7  H   LIG d   1       7.319  -1.648  -6.007  0.00  0.00     0.045 H 
ENDROOT
BRANCH   3   8
ATOM      8  C   LIG d   1       5.916  -6.548  -6.452  0.00  0.00     0.038 A 
ATOM      9  C   LIG d   1       6.311  -7.361  -7.506  0.00  0.00    -0.037 A 
ATOM     10  C   LIG d   1       5.884  -8.673  -7.565  0.00  0.00    -0.018 A 
ATOM     11  H   LIG d   1       6.955  -6.967  -8.279  0.00  0.00     0.064 H 
ATOM     12  C   LIG d   1       5.057  -9.179  -6.572  0.00  0.00     0.120 A 
ATOM     13  H   LIG d   1       6.193  -9.304  -8.384  0.00  0.00     0.066 H 
ATOM     14  C   LIG d   1       4.661  -8.367  -5.519  0.00  0.00    -0.018 A 
ATOM     15  C   LIG d   1       5.093  -7.057  -5.455  0.00  0.00    -0.037 A 
ATOM     16  H   LIG d   1       4.018  -8.762  -4.746  0.00  0.00     0.066 H 
ATOM     17  H   LIG d   1       4.788  -6.427  -4.632  0.00  0.00     0.064 H 
BRANCH  12  18
ATOM     18  O   LIG d   1       4.637 -10.470  -6.631  0.00  0.00    -0.495 OA
BRANCH  18  19
ATOM     19  C   LIG d   1       4.257 -11.085  -5.399  0.00  0.00     0.079 C 
ATOM     20  H   LIG d   1       5.144 -11.469  -4.896  0.00  0.00     0.066 H 
ATOM     21  H   LIG d   1       3.768 -10.349  -4.760  0.00  0.00     0.066 H 
ATOM     22  H   LIG d   1       3.569 -11.907  -5.599  0.00  0.00     0.066 H 
ENDBRANCH  18  19
ENDBRANCH  12  18
ENDBRANCH   3   8
BRANCH   2  23
ATOM     23  C   LIG d   1       4.816  -4.663  -8.269  0.00  0.00    -0.025 C 
ATOM     24  H   LIG d   1       5.432  -4.996  -9.104  0.00  0.00     0.029 H 
ATOM     25  H   LIG d   1       4.163  -5.478  -7.952  0.00  0.00     0.029 H 
ATOM     26  H   LIG d   1       4.210  -3.813  -8.580  0.00  0.00     0.029 H 
ENDBRANCH   2  23
BRANCH   4  27
ATOM     27  C   LIG d   1       8.356  -5.962  -5.124  0.00  0.00    -0.025 C 
ATOM     28  H   LIG d   1       7.962  -6.938  -5.404  0.00  0.00     0.029 H 
ATOM     29  H   LIG d   1       9.335  -5.820  -5.583  0.00  0.00     0.029 H 
ATOM     30  H   LIG d   1       8.451  -5.907  -4.039  0.00  0.00     0.029 H 
ENDBRANCH   4  27
BRANCH   1  31
ATOM     31  C   LIG d   1       5.177  -1.987  -7.607  0.00  0.00     0.338 C 
ATOM     32  O   LIG d   1       5.722  -1.503  -8.581  0.00  0.00    -0.245 OA
BRANCH  31  33
ATOM     33  O   LIG d   1       3.928  -1.602  -7.271  0.00  0.00    -0.462 OA
BRANCH  33  34
ATOM     34  C   LIG d   1       3.675  -0.197  -7.221  0.00  0.00     0.090 C 
ATOM     35  H   LIG d   1       4.621   0.345  -7.244  0.00  0.00     0.070 H 
ATOM     36  H   LIG d   1       3.068   0.094  -8.078  0.00  0.00     0.070 H 
BRANCH  34  37
ATOM     37  C   LIG d   1       2.926   0.141  -5.929  0.00  0.00    -0.031 C 
ATOM     38  H   LIG d   1       1.855   0.012  -6.087  0.00  0.00     0.026 H 
ATOM     39  H   LIG d   1       3.259  -0.523  -5.131  0.00  0.00     0.026 H 
ATOM     40  H   LIG d   1       3.130   1.175  -5.651  0.00  0.00     0.026 H 
ENDBRANCH  34  37
ENDBRANCH  33  34
ENDBRANCH  31  33
ENDBRANCH   1  31
BRANCH   5  41
ATOM     41  C   LIG d   1       8.753  -3.297  -4.433  0.00  0.00     0.338 C 
ATOM     42  O   LIG d   1       9.725  -2.750  -4.920  0.00  0.00    -0.245 OA
BRANCH  41  43
ATOM     43  O   LIG d   1       8.741  -3.607  -3.120  0.00  0.00    -0.462 OA
BRANCH  43  44
ATOM     44  C   LIG d   1       9.962  -4.087  -2.554  0.00  0.00     0.090 C 
ATOM     45  H   LIG d   1      10.650  -4.360  -3.355  0.00  0.00     0.070 H 
ATOM     46  H   LIG d   1      10.410  -3.305  -1.941  0.00  0.00     0.070 H 
BRANCH  44  47
ATOM     47  C   LIG d   1       9.676  -5.315  -1.688  0.00  0.00    -0.031 C 
ATOM     48  H   LIG d   1       9.337  -4.994  -0.702  0.00  0.00     0.026 H 
ATOM     49  H   LIG d   1       8.900  -5.919  -2.159  0.00  0.00     0.026 H 
ATOM     50  H   LIG d   1      10.584  -5.907  -1.585  0.00  0.00     0.026 H 
ENDBRANCH  44  47
ENDBRANCH  43  44
ENDBRANCH  41  43
ENDBRANCH   5  41
BRANCH   6  51
ATOM     51  C   LIG d   1       5.847  -2.088  -4.531  0.00  0.00    -0.029 A 
ATOM     52  C   LIG d   1       5.966  -0.820  -3.992  0.00  0.00     0.020 A 
ATOM     53  C   LIG d   1       5.161  -0.440  -2.935  0.00  0.00     0.273 A 
ATOM     54  H   LIG d   1       6.686  -0.127  -4.400  0.00  0.00     0.069 H 
ATOM     55  C   LIG d   1       4.243  -1.331  -2.410  0.00  0.00     0.016 A 
ATOM     56  C   LIG d   1       4.123  -2.598  -2.950  0.00  0.00    -0.055 A 
ATOM     57  H   LIG d   1       3.617  -1.034  -1.582  0.00  0.00     0.069 H 
ATOM     58  C   LIG d   1       4.925  -2.977  -4.009  0.00  0.00    -0.057 A 
ATOM     59  H   LIG d   1       3.403  -3.292  -2.542  0.00  0.00     0.062 H 
ATOM     60  H   LIG d   1       4.832  -3.967  -4.430  0.00  0.00     0.062 H 
BRANCH  53  61
ATOM     61  N   LIG d   1       5.285   0.918  -2.362  0.00  0.00     0.080 N 
ATOM     62  O   LIG d   1       5.888   1.784  -2.970  0.00  0.00     0.041 OA
ATOM     63  O   LIG d   1       4.781   1.172  -1.281  0.00  0.00    -0.576 OA
ENDBRANCH  53  61
ENDBRANCH   6  51
TORSDOF 15
ENDMDL
MODEL 2
REMARK VINA RESULT:      -5.7      3.301      7.871
REMARK  15 active torsions:
REMARK  status: ('A' for Active; 'I' for Inactive)
REMARK    1  A    between atoms: C_1  and  C_2 
REMARK    2  A    between atoms: C_2  and  O_3 
REMARK    3  A    between atoms: O_3  and  C_4 
REMARK    4  A    between atoms: C_4  and  C_6 
REMARK    5  A    between atoms: C_7  and  C_35 
REMARK    6  A    between atoms: N_8  and  C_27 
REMARK    7  A    between atoms: C_9  and  C_26 
REMARK    8  A    between atoms: C_10  and  C_21 
REMARK    9  A    between atoms: C_11  and  C_12 
REMARK   10  A    between atoms: C_16  and  N_18 
REMARK   11  A    between atoms: C_21  and  O_23 
REMARK   12  A    between atoms: O_23  and  C_24 
REMARK   13  A    between atoms: C_24  and  C_25 
REMARK   14  A    between atoms: C_30  and  O_33 
REMARK   15  A    between atoms: O_33  and  C_34 
ROOT
ATOM      1  C   LIG d   1       7.676  -1.960  -5.458  0.00  0.00     0.066 C 
ATOM      2  C   LIG d   1       8.469  -0.918  -5.762  0.00  0.00     0.023 C 
ATOM      3  N   LIG d   1       7.969   0.172  -6.423  0.00  0.00    -0.276 N 
ATOM      4  C   LIG d   1       6.780   0.085  -7.099  0.00  0.00     0.023 C 
ATOM      5  C   LIG d   1       5.919  -0.916  -6.849  0.00  0.00     0.066 C 
ATOM      6  C   LIG d   1       6.218  -1.970  -5.821  0.00  0.00     0.051 C 
ATOM      7  H   LIG d   1       5.955  -2.948  -6.222  0.00  0.00     0.045 H 
ENDROOT
BRANCH   3   8
ATOM      8  C   LIG d   1       8.676   1.381  -6.410  0.00  0.00     0.038 A 
ATOM      9  C   LIG d   1       8.513   2.271  -5.357  0.00  0.00    -0.037 A 
ATOM     10  C   LIG d   1       9.211   3.462  -5.345  0.00  0.00    -0.018 A 
ATOM     11  H   LIG d   1       7.841   2.030  -4.546  0.00  0.00     0.064 H 
ATOM     12  C   LIG d   1      10.073   3.772  -6.387  0.00  0.00     0.120 A 
ATOM     13  H   LIG d   1       9.084   4.153  -4.525  0.00  0.00     0.066 H 
ATOM     14  C   LIG d   1      10.236   2.884  -7.439  0.00  0.00    -0.018 A 
ATOM     15  C   LIG d   1       9.545   1.689  -7.450  0.00  0.00    -0.037 A 
ATOM     16  H   LIG d   1      10.908   3.125  -8.250  0.00  0.00     0.066 H 
ATOM     17  H   LIG d   1       9.675   0.995  -8.268  0.00  0.00     0.064 H 
BRANCH  12  18
ATOM     18  O   LIG d   1      10.759   4.945  -6.374  0.00  0.00    -0.495 OA
BRANCH  18  19
ATOM     19  C   LIG d   1       9.991   6.144  -6.257  0.00  0.00     0.079 C 
ATOM     20  H   LIG d   1       9.033   5.918  -5.789  0.00  0.00     0.066 H 
ATOM     21  H   LIG d   1      10.532   6.865  -5.644  0.00  0.00     0.066 H 
ATOM     22  H   LIG d   1       9.820   6.565  -7.248  0.00  0.00     0.066 H 
ENDBRANCH  18  19
ENDBRANCH  12  18
ENDBRANCH   3   8
BRANCH   2  23
ATOM     23  C   LIG d   1       9.923  -0.949  -5.372  0.00  0.00    -0.025 C 
ATOM     24  H   LIG d   1      10.525  -0.533  -6.179  0.00  0.00     0.029 H 
ATOM     25  H   LIG d   1      10.069  -0.357  -4.467  0.00  0.00     0.029 H 
ATOM     26  H   LIG d   1      10.228  -1.979  -5.184  0.00  0.00     0.029 H 
ENDBRANCH   2  23
BRANCH   4  27
ATOM     27  C   LIG d   1       6.433   1.125  -8.132  0.00  0.00    -0.025 C 
ATOM     28  H   LIG d   1       7.339   1.642  -8.447  0.00  0.00     0.029 H 
ATOM     29  H   LIG d   1       5.972   0.643  -8.994  0.00  0.00     0.029 H 
ATOM     30  H   LIG d   1       5.736   1.846  -7.702  0.00  0.00     0.029 H 
ENDBRANCH   4  27
BRANCH   1  31
ATOM     31  C   LIG d   1       8.228  -3.072  -4.781  0.00  0.00     0.338 C 
ATOM     32  O   LIG d   1       8.315  -3.063  -3.568  0.00  0.00    -0.245 OA
BRANCH  31  33
ATOM     33  O   LIG d   1       8.658  -4.143  -5.481  0.00  0.00    -0.462 OA
BRANCH  33  34
ATOM     34  C   LIG d   1       8.176  -5.423  -5.070  0.00  0.00     0.090 C 
ATOM     35  H   LIG d   1       8.839  -6.200  -5.449  0.00  0.00     0.070 H 
ATOM     36  H   LIG d   1       8.148  -5.468  -3.981  0.00  0.00     0.070 H 
BRANCH  34  37
ATOM     37  C   LIG d   1       6.766  -5.640  -5.626  0.00  0.00    -0.031 C 
ATOM     38  H   LIG d   1       6.760  -5.423  -6.693  0.00  0.00     0.026 H 
ATOM     39  H   LIG d   1       6.467  -6.677  -5.464  0.00  0.00     0.026 H 
ATOM     40  H   LIG d   1       6.068  -4.977  -5.115  0.00  0.00     0.026 H 
ENDBRANCH  34  37
ENDBRANCH  33  34
ENDBRANCH  31  33
ENDBRANCH   1  31
BRANCH   5  41
ATOM     41  C   LIG d   1       4.704  -0.980  -7.571  0.00  0.00     0.338 C 
ATOM     42  O   LIG d   1       4.594  -1.743  -8.512  0.00  0.00    -0.245 OA
BRANCH  41  43
ATOM     43  O   LIG d   1       3.666  -0.195  -7.214  0.00  0.00    -0.462 OA
BRANCH  43  44
ATOM     44  C   LIG d   1       2.752   0.183  -8.247  0.00  0.00     0.090 C 
ATOM     45  H   LIG d   1       3.015  -0.334  -9.169  0.00  0.00     0.070 H 
ATOM     46  H   LIG d   1       1.739  -0.090  -7.952  0.00  0.00     0.070 H 
BRANCH  44  47
ATOM     47  C   LIG d   1       2.830   1.694  -8.469  0.00  0.00    -0.031 C 
ATOM     48  H   LIG d   1       3.273   2.168  -7.592  0.00  0.00     0.026 H 
ATOM     49  H   LIG d   1       3.447   1.902  -9.343  0.00  0.00     0.026 H 
ATOM     50  H   LIG d   1       1.828   2.090  -8.628  0.00  0.00     0.026 H 
ENDBRANCH  44  47
ENDBRANCH  43  44
ENDBRANCH  41  43
ENDBRANCH   5  41
BRANCH   6  51
ATOM     51  C   LIG d   1       5.398  -1.704  -4.585  0.00  0.00    -0.029 A 
ATOM     52  C   LIG d   1       5.303  -0.421  -4.080  0.00  0.00     0.020 A 
ATOM     53  C   LIG d   1       4.547  -0.176  -2.949  0.00  0.00     0.273 A 
ATOM     54  H   LIG d   1       5.817   0.391  -4.572  0.00  0.00     0.069 H 
ATOM     55  C   LIG d   1       3.894  -1.217  -2.317  0.00  0.00     0.016 A 
ATOM     56  C   LIG d   1       3.987  -2.501  -2.822  0.00  0.00    -0.055 A 
ATOM     57  H   LIG d   1       3.306  -1.027  -1.431  0.00  0.00     0.069 H 
ATOM     58  C   LIG d   1       4.739  -2.745  -3.955  0.00  0.00    -0.057 A 
ATOM     59  H   LIG d   1       3.473  -3.313  -2.330  0.00  0.00     0.062 H 
ATOM     60  H   LIG d   1       4.813  -3.747  -4.349  0.00  0.00     0.062 H 
BRANCH  53  61
ATOM     61  N   LIG d   1       4.441   1.198  -2.413  0.00  0.00     0.080 N 
ATOM     62  O   LIG d   1       4.013   2.096  -3.116  0.00  0.00     0.041 OA
ATOM     63  O   LIG d   1       4.782   1.433  -1.266  0.00  0.00    -0.576 OA
ENDBRANCH  53  61
ENDBRANCH   6  51
TORSDOF 15
ENDMDL
MODEL 3
REMARK VINA RESULT:      -5.6      3.072      6.473
REMARK  15 active torsions:
REMARK  status: ('A' for Active; 'I' for Inactive)
REMARK    1  A    between atoms: C_1  and  C_2 
REMARK    2  A    between atoms: C_2  and  O_3 
REMARK    3  A    between atoms: O_3  and  C_4 
REMARK    4  A    between atoms: C_4  and  C_6 
REMARK    5  A    between atoms: C_7  and  C_35 
REMARK    6  A    between atoms: N_8  and  C_27 
REMARK    7  A    between atoms: C_9  and  C_26 
REMARK    8  A    between atoms: C_10  and  C_21 
REMARK    9  A    between atoms: C_11  and  C_12 
REMARK   10  A    between atoms: C_16  and  N_18 
REMARK   11  A    between atoms: C_21  and  O_23 
REMARK   12  A    between atoms: O_23  and  C_24 
REMARK   13  A    between atoms: C_24  and  C_25 
REMARK   14  A    between atoms: C_30  and  O_33 
REMARK   15  A    between atoms: O_33  and  C_34 
ROOT
ATOM      1  C   LIG d   1       3.784  -0.803  -6.007  0.00  0.00     0.066 C 
ATOM      2  C   LIG d   1       4.683  -1.730  -5.635  0.00  0.00     0.023 C 
ATOM      3  N   LIG d   1       5.207  -2.603  -6.551  0.00  0.00    -0.276 N 
ATOM      4  C   LIG d   1       4.584  -2.797  -7.756  0.00  0.00     0.023 C 
ATOM      5  C   LIG d   1       3.680  -1.913  -8.213  0.00  0.00     0.066 C 
ATOM      6  C   LIG d   1       3.325  -0.679  -7.432  0.00  0.00     0.051 C 
ATOM      7  H   LIG d   1       2.244  -0.543  -7.451  0.00  0.00     0.045 H 
ENDROOT
BRANCH   3   8
ATOM      8  C   LIG d   1       6.385  -3.301  -6.255  0.00  0.00     0.038 A 
ATOM      9  C   LIG d   1       6.323  -4.524  -5.602  0.00  0.00    -0.037 A 
ATOM     10  C   LIG d   1       7.485  -5.211  -5.311  0.00  0.00    -0.018 A 
ATOM     11  H   LIG d   1       5.366  -4.939  -5.322  0.00  0.00     0.064 H 
ATOM     12  C   LIG d   1       8.715  -4.678  -5.670  0.00  0.00     0.120 A 
ATOM     13  H   LIG d   1       7.436  -6.163  -4.803  0.00  0.00     0.066 H 
ATOM     14  C   LIG d   1       8.777  -3.456  -6.322  0.00  0.00    -0.018 A 
ATOM     15  C   LIG d   1       7.616  -2.770  -6.620  0.00  0.00    -0.037 A 
ATOM     16  H   LIG d   1       9.735  -3.041  -6.602  0.00  0.00     0.066 H 
ATOM     17  H   LIG d   1       7.665  -1.821  -7.133  0.00  0.00     0.064 H 
BRANCH  12  18
ATOM     18  O   LIG d   1       9.858  -5.355  -5.383  0.00  0.00    -0.495 OA
BRANCH  18  19
ATOM     19  C   LIG d   1      11.086  -4.764  -5.810  0.00  0.00     0.079 C 
ATOM     20  H   LIG d   1      10.914  -4.181  -6.714  0.00  0.00     0.066 H 
ATOM     21  H   LIG d   1      11.469  -4.112  -5.025  0.00  0.00     0.066 H 
ATOM     22  H   LIG d   1      11.815  -5.549  -6.018  0.00  0.00     0.066 H 
ENDBRANCH  18  19
ENDBRANCH  12  18
ENDBRANCH   3   8
BRANCH   2  23
ATOM     23  C   LIG d   1       5.119  -1.810  -4.196  0.00  0.00    -0.025 C 
ATOM     24  H   LIG d   1       4.992  -0.838  -3.722  0.00  0.00     0.029 H 
ATOM     25  H   LIG d   1       4.512  -2.552  -3.673  0.00  0.00     0.029 H 
ATOM     26  H   LIG d   1       6.168  -2.103  -4.149  0.00  0.00     0.029 H 
ENDBRANCH   2  23
BRANCH   4  27
ATOM     27  C   LIG d   1       4.917  -4.015  -8.578  0.00  0.00    -0.025 C 
ATOM     28  H   LIG d   1       4.211  -4.813  -8.349  0.00  0.00     0.029 H 
ATOM     29  H   LIG d   1       4.853  -3.767  -9.637  0.00  0.00     0.029 H 
ATOM     30  H   LIG d   1       5.929  -4.347  -8.342  0.00  0.00     0.029 H 
ENDBRANCH   4  27
BRANCH   1  31
ATOM     31  C   LIG d   1       3.258   0.078  -5.033  0.00  0.00     0.338 C 
ATOM     32  O   LIG d   1       2.057   0.128  -4.844  0.00  0.00    -0.245 OA
BRANCH  31  33
ATOM     33  O   LIG d   1       4.088   0.862  -4.314  0.00  0.00    -0.462 OA
BRANCH  33  34
ATOM     34  C   LIG d   1       3.568   1.424  -3.108  0.00  0.00     0.090 C 
ATOM     35  H   LIG d   1       3.607   2.512  -3.167  0.00  0.00     0.070 H 
ATOM     36  H   LIG d   1       2.534   1.105  -2.975  0.00  0.00     0.070 H 
BRANCH  34  37
ATOM     37  C   LIG d   1       4.405   0.946  -1.919  0.00  0.00    -0.031 C 
ATOM     38  H   LIG d   1       5.216   1.652  -1.740  0.00  0.00     0.026 H 
ATOM     39  H   LIG d   1       3.774   0.885  -1.032  0.00  0.00     0.026 H 
ATOM     40  H   LIG d   1       4.821  -0.037  -2.139  0.00  0.00     0.026 H 
ENDBRANCH  34  37
ENDBRANCH  33  34
ENDBRANCH  31  33
ENDBRANCH   1  31
BRANCH   5  41
ATOM     41  C   LIG d   1       3.051  -2.149  -9.457  0.00  0.00     0.338 C 
ATOM     42  O   LIG d   1       1.934  -2.630  -9.492  0.00  0.00    -0.245 OA
BRANCH  41  43
ATOM     43  O   LIG d   1       3.688  -1.839 -10.606  0.00  0.00    -0.462 OA
BRANCH  43  44
ATOM     44  C   LIG d   1       3.086  -0.841 -11.434  0.00  0.00     0.090 C 
ATOM     45  H   LIG d   1       2.659  -1.313 -12.318  0.00  0.00     0.070 H 
ATOM     46  H   LIG d   1       2.298  -0.334 -10.876  0.00  0.00     0.070 H 
BRANCH  44  47
ATOM     47  C   LIG d   1       4.146   0.176 -11.860  0.00  0.00    -0.031 C 
ATOM     48  H   LIG d   1       5.122  -0.310 -11.897  0.00  0.00     0.026 H 
ATOM     49  H   LIG d   1       3.898   0.568 -12.846  0.00  0.00     0.026 H 
ATOM     50  H   LIG d   1       4.175   0.993 -11.140  0.00  0.00     0.026 H 
ENDBRANCH  44  47
ENDBRANCH  43  44
ENDBRANCH  41  43
ENDBRANCH   5  41
BRANCH   6  51
ATOM     51  C   LIG d   1       3.988   0.517  -8.065  0.00  0.00    -0.029 A 
ATOM     52  C   LIG d   1       5.363   0.557  -8.195  0.00  0.00     0.020 A 
ATOM     53  C   LIG d   1       5.970   1.653  -8.780  0.00  0.00     0.273 A 
ATOM     54  H   LIG d   1       5.962  -0.269  -7.844  0.00  0.00     0.069 H 
ATOM     55  C   LIG d   1       5.202   2.712  -9.225  0.00  0.00     0.016 A 
ATOM     56  C   LIG d   1       3.826   2.672  -9.096  0.00  0.00    -0.055 A 
ATOM     57  H   LIG d   1       5.677   3.570  -9.679  0.00  0.00     0.069 H 
ATOM     58  C   LIG d   1       3.219   1.575  -8.516  0.00  0.00    -0.057 A 
ATOM     59  H   LIG d   1       3.226   3.498  -9.448  0.00  0.00     0.062 H 
ATOM     60  H   LIG d   1       2.144   1.543  -8.413  0.00  0.00     0.062 H 
BRANCH  53  61
ATOM     61  N   LIG d   1       7.442   1.694  -8.925  0.00  0.00     0.080 N 
ATOM     62  O   LIG d   1       7.972   2.624  -9.507  0.00  0.00     0.041 OA
ATOM     63  O   LIG d   1       8.125   0.798  -8.461  0.00  0.00    -0.576 OA
ENDBRANCH  53  61
ENDBRANCH   6  51
TORSDOF 15
ENDMDL
MODEL 4
REMARK VINA RESULT:      -5.4      2.960      6.484
REMARK  15 active torsions:
REMARK  status: ('A' for Active; 'I' for Inactive)
REMARK    1  A    between atoms: C_1  and  C_2 
REMARK    2  A    between atoms: C_2  and  O_3 
REMARK    3  A    between atoms: O_3  and  C_4 
REMARK    4  A    between atoms: C_4  and  C_6 
REMARK    5  A    between atoms: C_7  and  C_35 
REMARK    6  A    between atoms: N_8  and  C_27 
REMARK    7  A    between atoms: C_9  and  C_26 
REMARK    8  A    between atoms: C_10  and  C_21 
REMARK    9  A    between atoms: C_11  and  C_12 
REMARK   10  A    between atoms: C_16  and  N_18 
REMARK   11  A    between atoms: C_21  and  O_23 
REMARK   12  A    between atoms: O_23  and  C_24 
REMARK   13  A    between atoms: C_24  and  C_25 
REMARK   14  A    between atoms: C_30  and  O_33 
REMARK   15  A    between atoms: O_33  and  C_34 
ROOT
ATOM      1  C   LIG d   1       4.546  -1.420  -4.927  0.00  0.00     0.066 C 
ATOM      2  C   LIG d   1       5.763  -1.820  -4.521  0.00  0.00     0.023 C 
ATOM      3  N   LIG d   1       6.560  -2.575  -5.339  0.00  0.00    -0.276 N 
ATOM      4  C   LIG d   1       6.021  -3.235  -6.412  0.00  0.00     0.023 C 
ATOM      5  C   LIG d   1       4.814  -2.892  -6.894  0.00  0.00     0.066 C 
ATOM      6  C   LIG d   1       4.016  -1.773  -6.287  0.00  0.00     0.051 C 
ATOM      7  H   LIG d   1       2.975  -2.084  -6.197  0.00  0.00     0.045 H 
ENDROOT
BRANCH   3   8
ATOM      8  C   LIG d   1       7.933  -2.674  -5.078  0.00  0.00     0.038 A 
ATOM      9  C   LIG d   1       8.818  -1.775  -5.657  0.00  0.00    -0.037 A 
ATOM     10  C   LIG d   1      10.171  -1.873  -5.399  0.00  0.00    -0.018 A 
ATOM     11  H   LIG d   1       8.448  -0.996  -6.308  0.00  0.00     0.064 H 
ATOM     12  C   LIG d   1      10.647  -2.874  -4.562  0.00  0.00     0.120 A 
ATOM     13  H   LIG d   1      10.858  -1.173  -5.849  0.00  0.00     0.066 H 
ATOM     14  C   LIG d   1       9.763  -3.773  -3.985  0.00  0.00    -0.018 A 
ATOM     15  C   LIG d   1       8.409  -3.672  -4.236  0.00  0.00    -0.037 A 
ATOM     16  H   LIG d   1      10.134  -4.551  -3.333  0.00  0.00     0.066 H 
ATOM     17  H   LIG d   1       7.721  -4.369  -3.782  0.00  0.00     0.064 H 
BRANCH  12  18
ATOM     18  O   LIG d   1      11.979  -2.970  -4.310  0.00  0.00    -0.495 OA
BRANCH  18  19
ATOM     19  C   LIG d   1      12.697  -1.746  -4.143  0.00  0.00     0.079 C 
ATOM     20  H   LIG d   1      12.957  -1.342  -5.121  0.00  0.00     0.066 H 
ATOM     21  H   LIG d   1      12.075  -1.029  -3.608  0.00  0.00     0.066 H 
ATOM     22  H   LIG d   1      13.608  -1.933  -3.573  0.00  0.00     0.066 H 
ENDBRANCH  18  19
ENDBRANCH  12  18
ENDBRANCH   3   8
BRANCH   2  23
ATOM     23  C   LIG d   1       6.257  -1.434  -3.151  0.00  0.00    -0.025 C 
ATOM     24  H   LIG d   1       7.253  -1.845  -2.995  0.00  0.00     0.029 H 
ATOM     25  H   LIG d   1       6.295  -0.346  -3.071  0.00  0.00     0.029 H 
ATOM     26  H   LIG d   1       5.578  -1.829  -2.395  0.00  0.00     0.029 H 
ENDBRANCH   2  23
BRANCH   4  27
ATOM     27  C   LIG d   1       6.791  -4.357  -7.060  0.00  0.00    -0.025 C 
ATOM     28  H   LIG d   1       7.860  -4.177  -6.948  0.00  0.00     0.029 H 
ATOM     29  H   LIG d   1       6.530  -5.301  -6.581  0.00  0.00     0.029 H 
ATOM     30  H   LIG d   1       6.540  -4.405  -8.120  0.00  0.00     0.029 H 
ENDBRANCH   4  27
BRANCH   1  31
ATOM     31  C   LIG d   1       3.747  -0.647  -4.053  0.00  0.00     0.338 C 
ATOM     32  O   LIG d   1       2.872  -1.180  -3.397  0.00  0.00    -0.245 OA
BRANCH  31  33
ATOM     33  O   LIG d   1       3.954   0.683  -3.947  0.00  0.00    -0.462 OA
BRANCH  33  34
ATOM     34  C   LIG d   1       3.491   1.318  -2.755  0.00  0.00     0.090 C 
ATOM     35  H   LIG d   1       3.343   2.381  -2.944  0.00  0.00     0.070 H 
ATOM     36  H   LIG d   1       2.548   0.869  -2.446  0.00  0.00     0.070 H 
BRANCH  34  37
ATOM     37  C   LIG d   1       4.529   1.138  -1.644  0.00  0.00    -0.031 C 
ATOM     38  H   LIG d   1       4.105   1.464  -0.695  0.00  0.00     0.026 H 
ATOM     39  H   LIG d   1       4.809   0.086  -1.575  0.00  0.00     0.026 H 
ATOM     40  H   LIG d   1       5.413   1.735  -1.872  0.00  0.00     0.026 H 
ENDBRANCH  34  37
ENDBRANCH  33  34
ENDBRANCH  31  33
ENDBRANCH   1  31
BRANCH   5  41
ATOM     41  C   LIG d   1       4.284  -3.600  -7.998  0.00  0.00     0.338 C 
ATOM     42  O   LIG d   1       3.569  -4.567  -7.815  0.00  0.00    -0.245 OA
BRANCH  41  43
ATOM     43  O   LIG d   1       4.571  -3.201  -9.256  0.00  0.00    -0.462 OA
BRANCH  43  44
ATOM     44  C   LIG d   1       3.472  -2.792 -10.073  0.00  0.00     0.090 C 
ATOM     45  H   LIG d   1       3.202  -3.602 -10.750  0.00  0.00     0.070 H 
ATOM     46  H   LIG d   1       2.619  -2.548  -9.439  0.00  0.00     0.070 H 
BRANCH  44  47
ATOM     47  C   LIG d   1       3.873  -1.560 -10.886  0.00  0.00    -0.031 C 
ATOM     48  H   LIG d   1       3.938  -1.826 -11.942  0.00  0.00     0.026 H 
ATOM     49  H   LIG d   1       3.125  -0.778 -10.755  0.00  0.00     0.026 H 
ATOM     50  H   LIG d   1       4.841  -1.198 -10.544  0.00  0.00     0.026 H 
ENDBRANCH  44  47
ENDBRANCH  43  44
ENDBRANCH  41  43
ENDBRANCH   5  41
BRANCH   6  51
ATOM     51  C   LIG d   1       4.097  -0.563  -7.182  0.00  0.00    -0.029 A 
ATOM     52  C   LIG d   1       5.328  -0.088  -7.592  0.00  0.00     0.020 A 
ATOM     53  C   LIG d   1       5.402   1.019  -8.416  0.00  0.00     0.273 A 
ATOM     54  H   LIG d   1       6.232  -0.584  -7.271  0.00  0.00     0.069 H 
ATOM     55  C   LIG d   1       4.245   1.657  -8.822  0.00  0.00     0.016 A 
ATOM     56  C   LIG d   1       3.013   1.181  -8.412  0.00  0.00    -0.055 A 
ATOM     57  H   LIG d   1       4.304   2.524  -9.463  0.00  0.00     0.069 H 
ATOM     58  C   LIG d   1       2.939   0.071  -7.592  0.00  0.00    -0.057 A 
ATOM     59  H   LIG d   1       2.109   1.677  -8.733  0.00  0.00     0.062 H 
ATOM     60  H   LIG d   1       1.977  -0.299  -7.272  0.00  0.00     0.062 H 
BRANCH  53  61
ATOM     61  N   LIG d   1       6.720   1.525  -8.860  0.00  0.00     0.080 N 
ATOM     62  O   LIG d   1       7.692   0.791  -8.842  0.00  0.00     0.041 OA
ATOM     63  O   LIG d   1       6.834   2.676  -9.245  0.00  0.00    -0.576 OA
ENDBRANCH  53  61
ENDBRANCH   6  51
TORSDOF 15
ENDMDL
MODEL 5
REMARK VINA RESULT:      -5.4      3.029      7.429
REMARK  15 active torsions:
REMARK  status: ('A' for Active; 'I' for Inactive)
REMARK    1  A    between atoms: C_1  and  C_2 
REMARK    2  A    between atoms: C_2  and  O_3 
REMARK    3  A    between atoms: O_3  and  C_4 
REMARK    4  A    between atoms: C_4  and  C_6 
REMARK    5  A    between atoms: C_7  and  C_35 
REMARK    6  A    between atoms: N_8  and  C_27 
REMARK    7  A    between atoms: C_9  and  C_26 
REMARK    8  A    between atoms: C_10  and  C_21 
REMARK    9  A    between atoms: C_11  and  C_12 
REMARK   10  A    between atoms: C_16  and  N_18 
REMARK   11  A    between atoms: C_21  and  O_23 
REMARK   12  A    between atoms: O_23  and  C_24 
REMARK   13  A    between atoms: C_24  and  C_25 
REMARK   14  A    between atoms: C_30  and  O_33 
REMARK   15  A    between atoms: O_33  and  C_34 
ROOT
ATOM      1  C   LIG d   1       5.724  -1.505  -3.609  0.00  0.00     0.066 C 
ATOM      2  C   LIG d   1       6.415  -0.354  -3.669  0.00  0.00     0.023 C 
ATOM      3  N   LIG d   1       7.611  -0.289  -4.333  0.00  0.00    -0.276 N 
ATOM      4  C   LIG d   1       8.297  -1.436  -4.634  0.00  0.00     0.023 C 
ATOM      5  C   LIG d   1       7.682  -2.631  -4.613  0.00  0.00     0.066 C 
ATOM      6  C   LIG d   1       6.224  -2.757  -4.271  0.00  0.00     0.051 C 
ATOM      7  H   LIG d   1       6.086  -3.600  -3.595  0.00  0.00     0.045 H 
ENDROOT
BRANCH   3   8
ATOM      8  C   LIG d   1       8.135   0.954  -4.708  0.00  0.00     0.038 A 
ATOM      9  C   LIG d   1       8.063   1.370  -6.030  0.00  0.00    -0.037 A 
ATOM     10  C   LIG d   1       8.580   2.596  -6.398  0.00  0.00    -0.018 A 
ATOM     11  H   LIG d   1       7.601   0.734  -6.772  0.00  0.00     0.064 H 
ATOM     12  C   LIG d   1       9.174   3.413  -5.446  0.00  0.00     0.120 A 
ATOM     13  H   LIG d   1       8.523   2.919  -7.427  0.00  0.00     0.066 H 
ATOM     14  C   LIG d   1       9.246   2.998  -4.125  0.00  0.00    -0.018 A 
ATOM     15  C   LIG d   1       8.724   1.775  -3.753  0.00  0.00    -0.037 A 
ATOM     16  H   LIG d   1       9.709   3.635  -3.384  0.00  0.00     0.066 H 
ATOM     17  H   LIG d   1       8.777   1.455  -2.724  0.00  0.00     0.064 H 
BRANCH  12  18
ATOM     18  O   LIG d   1       9.683   4.620  -5.810  0.00  0.00    -0.495 OA
BRANCH  18  19
ATOM     19  C   LIG d   1       9.459   5.713  -4.917  0.00  0.00     0.079 C 
ATOM     20  H   LIG d   1       9.699   6.649  -5.421  0.00  0.00     0.066 H 
ATOM     21  H   LIG d   1       8.413   5.724  -4.611  0.00  0.00     0.066 H 
ATOM     22  H   LIG d   1      10.094   5.601  -4.038  0.00  0.00     0.066 H 
ENDBRANCH  18  19
ENDBRANCH  12  18
ENDBRANCH   3   8
BRANCH   2  23
ATOM     23  C   LIG d   1       5.870   0.879  -2.996  0.00  0.00    -0.025 C 
ATOM     24  H   LIG d   1       5.458   1.551  -3.748  0.00  0.00     0.029 H 
ATOM     25  H   LIG d   1       5.085   0.593  -2.295  0.00  0.00     0.029 H 
ATOM     26  H   LIG d   1       6.672   1.384  -2.457  0.00  0.00     0.029 H 
ENDBRANCH   2  23
BRANCH   4  27
ATOM     27  C   LIG d   1       9.758  -1.358  -4.993  0.00  0.00    -0.025 C 
ATOM     28  H   LIG d   1       9.912  -0.562  -5.722  0.00  0.00     0.029 H 
ATOM     29  H   LIG d   1      10.342  -1.147  -4.097  0.00  0.00     0.029 H 
ATOM     30  H   LIG d   1      10.079  -2.308  -5.422  0.00  0.00     0.029 H 
ENDBRANCH   4  27
BRANCH   1  31
ATOM     31  C   LIG d   1       4.496  -1.537  -2.907  0.00  0.00     0.338 C 
ATOM     32  O   LIG d   1       4.492  -1.562  -1.691  0.00  0.00    -0.245 OA
BRANCH  31  33
ATOM     33  O   LIG d   1       3.331  -1.540  -3.587  0.00  0.00    -0.462 OA
BRANCH  33  34
ATOM     34  C   LIG d   1       2.520  -0.368  -3.490  0.00  0.00     0.090 C 
ATOM     35  H   LIG d   1       1.495  -0.653  -3.253  0.00  0.00     0.070 H 
ATOM     36  H   LIG d   1       2.908   0.278  -2.703  0.00  0.00     0.070 H 
BRANCH  34  37
ATOM     37  C   LIG d   1       2.545   0.383  -4.824  0.00  0.00    -0.031 C 
ATOM     38  H   LIG d   1       1.741   1.119  -4.840  0.00  0.00     0.026 H 
ATOM     39  H   LIG d   1       3.504   0.889  -4.938  0.00  0.00     0.026 H 
ATOM     40  H   LIG d   1       2.407  -0.325  -5.641  0.00  0.00     0.026 H 
ENDBRANCH  34  37
ENDBRANCH  33  34
ENDBRANCH  31  33
ENDBRANCH   1  31
BRANCH   5  41
ATOM     41  C   LIG d   1       8.423  -3.796  -4.921  0.00  0.00     0.338 C 
ATOM     42  O   LIG d   1       8.646  -4.087  -6.081  0.00  0.00    -0.245 OA
BRANCH  41  43
ATOM     43  O   LIG d   1       8.883  -4.585  -3.928  0.00  0.00    -0.462 OA
BRANCH  43  44
ATOM     44  C   LIG d   1      10.226  -5.061  -4.046  0.00  0.00     0.090 C 
ATOM     45  H   LIG d   1      10.267  -6.107  -3.746  0.00  0.00     0.070 H 
ATOM     46  H   LIG d   1      10.555  -4.965  -5.081  0.00  0.00     0.070 H 
BRANCH  44  47
ATOM     47  C   LIG d   1      11.141  -4.234  -3.141  0.00  0.00    -0.031 C 
ATOM     48  H   LIG d   1      11.734  -3.550  -3.750  0.00  0.00     0.026 H 
ATOM     49  H   LIG d   1      10.537  -3.663  -2.437  0.00  0.00     0.026 H 
ATOM     50  H   LIG d   1      11.807  -4.900  -2.592  0.00  0.00     0.026 H 
ENDBRANCH  44  47
ENDBRANCH  43  44
ENDBRANCH  41  43
ENDBRANCH   5  41
BRANCH   6  51
ATOM     51  C   LIG d   1       5.437  -3.000  -5.533  0.00  0.00    -0.029 A 
ATOM     52  C   LIG d   1       4.987  -4.272  -5.834  0.00  0.00     0.020 A 
ATOM     53  C   LIG d   1       4.262  -4.493  -6.989  0.00  0.00     0.273 A 
ATOM     54  H   LIG d   1       5.200  -5.091  -5.163  0.00  0.00     0.069 H 
ATOM     55  C   LIG d   1       3.995  -3.445  -7.849  0.00  0.00     0.016 A 
ATOM     56  C   LIG d   1       4.444  -2.172  -7.548  0.00  0.00    -0.055 A 
ATOM     57  H   LIG d   1       3.430  -3.619  -8.753  0.00  0.00     0.069 H 
ATOM     58  C   LIG d   1       5.165  -1.949  -6.391  0.00  0.00    -0.057 A 
ATOM     59  H   LIG d   1       4.232  -1.352  -8.218  0.00  0.00     0.062 H 
ATOM     60  H   LIG d   1       5.517  -0.956  -6.157  0.00  0.00     0.062 H 
BRANCH  53  61
ATOM     61  N   LIG d   1       3.775  -5.853  -7.308  0.00  0.00     0.080 N 
ATOM     62  O   LIG d   1       3.144  -6.051  -8.331  0.00  0.00     0.041 OA
ATOM     63  O   LIG d   1       4.006  -6.777  -6.547  0.00  0.00    -0.576 OA
ENDBRANCH  53  61
ENDBRANCH   6  51
TORSDOF 15
ENDMDL
MODEL 6
REMARK VINA RESULT:      -5.3      2.945      5.884
REMARK  15 active torsions:
REMARK  status: ('A' for Active; 'I' for Inactive)
REMARK    1  A    between atoms: C_1  and  C_2 
REMARK    2  A    between atoms: C_2  and  O_3 
REMARK    3  A    between atoms: O_3  and  C_4 
REMARK    4  A    between atoms: C_4  and  C_6 
REMARK    5  A    between atoms: C_7  and  C_35 
REMARK    6  A    between atoms: N_8  and  C_27 
REMARK    7  A    between atoms: C_9  and  C_26 
REMARK    8  A    between atoms: C_10  and  C_21 
REMARK    9  A    between atoms: C_11  and  C_12 
REMARK   10  A    between atoms: C_16  and  N_18 
REMARK   11  A    between atoms: C_21  and  O_23 
REMARK   12  A    between atoms: O_23  and  C_24 
REMARK   13  A    between atoms: C_24  and  C_25 
REMARK   14  A    between atoms: C_30  and  O_33 
REMARK   15  A    between atoms: O_33  and  C_34 
ROOT
ATOM      1  C   LIG d   1       6.655  -0.431  -6.905  0.00  0.00     0.066 C 
ATOM      2  C   LIG d   1       7.451  -1.292  -6.248  0.00  0.00     0.023 C 
ATOM      3  N   LIG d   1       6.990  -1.975  -5.155  0.00  0.00    -0.276 N 
ATOM      4  C   LIG d   1       5.867  -1.549  -4.495  0.00  0.00     0.023 C 
ATOM      5  C   LIG d   1       5.007  -0.698  -5.082  0.00  0.00     0.066 C 
ATOM      6  C   LIG d   1       5.235  -0.190  -6.478  0.00  0.00     0.051 C 
ATOM      7  H   LIG d   1       5.028   0.879  -6.508  0.00  0.00     0.045 H 
ENDROOT
BRANCH   3   8
ATOM      8  C   LIG d   1       7.670  -3.116  -4.707  0.00  0.00     0.038 A 
ATOM      9  C   LIG d   1       7.412  -4.351  -5.286  0.00  0.00    -0.037 A 
ATOM     10  C   LIG d   1       8.082  -5.474  -4.845  0.00  0.00    -0.018 A 
ATOM     11  H   LIG d   1       6.688  -4.433  -6.084  0.00  0.00     0.064 H 
ATOM     12  C   LIG d   1       9.012  -5.369  -3.820  0.00  0.00     0.120 A 
ATOM     13  H   LIG d   1       7.882  -6.434  -5.296  0.00  0.00     0.066 H 
ATOM     14  C   LIG d   1       9.270  -4.136  -3.241  0.00  0.00    -0.018 A 
ATOM     15  C   LIG d   1       8.606  -3.010  -3.685  0.00  0.00    -0.037 A 
ATOM     16  H   LIG d   1       9.994  -4.055  -2.443  0.00  0.00     0.066 H 
ATOM     17  H   LIG d   1       8.810  -2.049  -3.238  0.00  0.00     0.064 H 
BRANCH  12  18
ATOM     18  O   LIG d   1       9.671  -6.476  -3.386  0.00  0.00    -0.495 OA
BRANCH  18  19
ATOM     19  C   LIG d   1      10.025  -6.519  -2.002  0.00  0.00     0.079 C 
ATOM     20  H   LIG d   1       9.413  -5.807  -1.448  0.00  0.00     0.066 H 
ATOM     21  H   LIG d   1       9.854  -7.523  -1.614  0.00  0.00     0.066 H 
ATOM     22  H   LIG d   1      11.078  -6.259  -1.887  0.00  0.00     0.066 H 
ENDBRANCH  18  19
ENDBRANCH  12  18
ENDBRANCH   3   8
BRANCH   2  23
ATOM     23  C   LIG d   1       8.866  -1.507  -6.718  0.00  0.00    -0.025 C 
ATOM     24  H   LIG d   1       8.861  -1.779  -7.773  0.00  0.00     0.029 H 
ATOM     25  H   LIG d   1       9.437  -0.587  -6.583  0.00  0.00     0.029 H 
ATOM     26  H   LIG d   1       9.325  -2.307  -6.138  0.00  0.00     0.029 H 
ENDBRANCH   2  23
BRANCH   4  27
ATOM     27  C   LIG d   1       5.593  -2.040  -3.098  0.00  0.00    -0.025 C 
ATOM     28  H   LIG d   1       6.402  -2.696  -2.777  0.00  0.00     0.029 H 
ATOM     29  H   LIG d   1       5.524  -1.189  -2.420  0.00  0.00     0.029 H 
ATOM     30  H   LIG d   1       4.652  -2.592  -3.085  0.00  0.00     0.029 H 
ENDBRANCH   4  27
BRANCH   1  31
ATOM     31  C   LIG d   1       7.167   0.264  -8.026  0.00  0.00     0.338 C 
ATOM     32  O   LIG d   1       7.584   1.399  -7.899  0.00  0.00    -0.245 OA
BRANCH  31  33
ATOM     33  O   LIG d   1       7.191  -0.333  -9.236  0.00  0.00    -0.462 OA
BRANCH  33  34
ATOM     34  C   LIG d   1       6.334   0.206 -10.243  0.00  0.00     0.090 C 
ATOM     35  H   LIG d   1       5.570   0.827  -9.775  0.00  0.00     0.070 H 
ATOM     36  H   LIG d   1       6.921   0.812 -10.934  0.00  0.00     0.070 H 
BRANCH  34  37
ATOM     37  C   LIG d   1       5.664  -0.936 -11.010  0.00  0.00    -0.031 C 
ATOM     38  H   LIG d   1       6.426  -1.528 -11.517  0.00  0.00     0.026 H 
ATOM     39  H   LIG d   1       5.115  -1.570 -10.312  0.00  0.00     0.026 H 
ATOM     40  H   LIG d   1       4.974  -0.524 -11.746  0.00  0.00     0.026 H 
ENDBRANCH  34  37
ENDBRANCH  33  34
ENDBRANCH  31  33
ENDBRANCH   1  31
BRANCH   5  41
ATOM     41  C   LIG d   1       3.862  -0.272  -4.370  0.00  0.00     0.338 C 
ATOM     42  O   LIG d   1       2.939  -1.042  -4.186  0.00  0.00    -0.245 OA
BRANCH  41  43
ATOM     43  O   LIG d   1       3.795   0.989  -3.893  0.00  0.00    -0.462 OA
BRANCH  43  44
ATOM     44  C   LIG d   1       3.394   1.147  -2.530  0.00  0.00     0.090 C 
ATOM     45  H   LIG d   1       2.955   2.134  -2.393  0.00  0.00     0.070 H 
ATOM     46  H   LIG d   1       2.658   0.383  -2.278  0.00  0.00     0.070 H 
BRANCH  44  47
ATOM     47  C   LIG d   1       4.614   1.001  -1.619  0.00  0.00    -0.031 C 
ATOM     48  H   LIG d   1       4.993  -0.020  -1.679  0.00  0.00     0.026 H 
ATOM     49  H   LIG d   1       5.391   1.695  -1.937  0.00  0.00     0.026 H 
ATOM     50  H   LIG d   1       4.328   1.221  -0.591  0.00  0.00     0.026 H 
ENDBRANCH  44  47
ENDBRANCH  43  44
ENDBRANCH  41  43
ENDBRANCH   5  41
BRANCH   6  51
ATOM     51  C   LIG d   1       4.304  -0.904  -7.423  0.00  0.00    -0.029 A 
ATOM     52  C   LIG d   1       4.454  -2.259  -7.650  0.00  0.00     0.020 A 
ATOM     53  C   LIG d   1       3.597  -2.914  -8.515  0.00  0.00     0.273 A 
ATOM     54  H   LIG d   1       5.238  -2.806  -7.149  0.00  0.00     0.069 H 
ATOM     55  C   LIG d   1       2.597  -2.212  -9.160  0.00  0.00     0.016 A 
ATOM     56  C   LIG d   1       2.446  -0.856  -8.932  0.00  0.00    -0.055 A 
ATOM     57  H   LIG d   1       1.929  -2.723  -9.838  0.00  0.00     0.069 H 
ATOM     58  C   LIG d   1       3.300  -0.202  -8.065  0.00  0.00    -0.057 A 
ATOM     59  H   LIG d   1       1.661  -0.309  -9.433  0.00  0.00     0.062 H 
ATOM     60  H   LIG d   1       3.183   0.857  -7.888  0.00  0.00     0.062 H 
BRANCH  53  61
ATOM     61  N   LIG d   1       3.754  -4.366  -8.753  0.00  0.00     0.080 N 
ATOM     62  O   LIG d   1       3.173  -5.167  -8.043  0.00  0.00     0.041 OA
ATOM     63  O   LIG d   1       4.463  -4.761  -9.662  0.00  0.00    -0.576 OA
ENDBRANCH  53  61
ENDBRANCH   6  51
TORSDOF 15
ENDMDL
MODEL 7
REMARK VINA RESULT:      -5.3      3.491      7.743
REMARK  15 active torsions:
REMARK  status: ('A' for Active; 'I' for Inactive)
REMARK    1  A    between atoms: C_1  and  C_2 
REMARK    2  A    between atoms: C_2  and  O_3 
REMARK    3  A    between atoms: O_3  and  C_4 
REMARK    4  A    between atoms: C_4  and  C_6 
REMARK    5  A    between atoms: C_7  and  C_35 
REMARK    6  A    between atoms: N_8  and  C_27 
REMARK    7  A    between atoms: C_9  and  C_26 
REMARK    8  A    between atoms: C_10  and  C_21 
REMARK    9  A    between atoms: C_11  and  C_12 
REMARK   10  A    between atoms: C_16  and  N_18 
REMARK   11  A    between atoms: C_21  and  O_23 
REMARK   12  A    between atoms: O_23  and  C_24 
REMARK   13  A    between atoms: C_24  and  C_25 
REMARK   14  A    between atoms: C_30  and  O_33 
REMARK   15  A    between atoms: O_33  and  C_34 
ROOT
ATOM      1  C   LIG d   1       6.690  -2.160  -6.988  0.00  0.00     0.066 C 
ATOM      2  C   LIG d   1       7.466  -1.198  -7.516  0.00  0.00     0.023 C 
ATOM      3  N   LIG d   1       6.941   0.024  -7.844  0.00  0.00    -0.276 N 
ATOM      4  C   LIG d   1       5.587   0.179  -7.985  0.00  0.00     0.023 C 
ATOM      5  C   LIG d   1       4.734  -0.728  -7.476  0.00  0.00     0.066 C 
ATOM      6  C   LIG d   1       5.227  -1.935  -6.729  0.00  0.00     0.051 C 
ATOM      7  H   LIG d   1       4.666  -2.811  -7.055  0.00  0.00     0.045 H 
ENDROOT
BRANCH   3   8
ATOM      8  C   LIG d   1       7.791   1.120  -8.036  0.00  0.00     0.038 A 
ATOM      9  C   LIG d   1       8.248   1.846  -6.945  0.00  0.00    -0.037 A 
ATOM     10  C   LIG d   1       9.087   2.926  -7.136  0.00  0.00    -0.018 A 
ATOM     11  H   LIG d   1       7.949   1.564  -5.946  0.00  0.00     0.064 H 
ATOM     12  C   LIG d   1       9.471   3.288  -8.420  0.00  0.00     0.120 A 
ATOM     13  H   LIG d   1       9.442   3.490  -6.287  0.00  0.00     0.066 H 
ATOM     14  C   LIG d   1       9.014   2.564  -9.510  0.00  0.00    -0.018 A 
ATOM     15  C   LIG d   1       8.181   1.479  -9.321  0.00  0.00    -0.037 A 
ATOM     16  H   LIG d   1       9.313   2.846 -10.510  0.00  0.00     0.066 H 
ATOM     17  H   LIG d   1       7.829   0.912 -10.170  0.00  0.00     0.064 H 
BRANCH  12  18
ATOM     18  O   LIG d   1      10.296   4.352  -8.606  0.00  0.00    -0.495 OA
BRANCH  18  19
ATOM     19  C   LIG d   1      11.372   4.509  -7.680  0.00  0.00     0.079 C 
ATOM     20  H   LIG d   1      11.219   5.415  -7.095  0.00  0.00     0.066 H 
ATOM     21  H   LIG d   1      11.405   3.647  -7.012  0.00  0.00     0.066 H 
ATOM     22  H   LIG d   1      12.313   4.582  -8.224  0.00  0.00     0.066 H 
ENDBRANCH  18  19
ENDBRANCH  12  18
ENDBRANCH   3   8
BRANCH   2  23
ATOM     23  C   LIG d   1       8.930  -1.466  -7.750  0.00  0.00    -0.025 C 
ATOM     24  H   LIG d   1       9.432  -1.603  -6.793  0.00  0.00     0.029 H 
ATOM     25  H   LIG d   1       9.041  -2.369  -8.352  0.00  0.00     0.029 H 
ATOM     26  H   LIG d   1       9.374  -0.622  -8.277  0.00  0.00     0.029 H 
ENDBRANCH   2  23
BRANCH   4  27
ATOM     27  C   LIG d   1       5.047   1.380  -8.717  0.00  0.00    -0.025 C 
ATOM     28  H   LIG d   1       4.036   1.169  -9.067  0.00  0.00     0.029 H 
ATOM     29  H   LIG d   1       5.026   2.237  -8.044  0.00  0.00     0.029 H 
ATOM     30  H   LIG d   1       5.687   1.603  -9.571  0.00  0.00     0.029 H 
ENDBRANCH   4  27
BRANCH   1  31
ATOM     31  C   LIG d   1       7.264  -3.412  -6.669  0.00  0.00     0.338 C 
ATOM     32  O   LIG d   1       6.857  -4.423  -7.209  0.00  0.00    -0.245 OA
BRANCH  31  33
ATOM     33  O   LIG d   1       8.263  -3.485  -5.764  0.00  0.00    -0.462 OA
BRANCH  33  34
ATOM     34  C   LIG d   1       7.930  -3.991  -4.471  0.00  0.00     0.090 C 
ATOM     35  H   LIG d   1       6.910  -4.376  -4.482  0.00  0.00     0.070 H 
ATOM     36  H   LIG d   1       8.618  -4.794  -4.207  0.00  0.00     0.070 H 
BRANCH  34  37
ATOM     37  C   LIG d   1       8.040  -2.867  -3.438  0.00  0.00    -0.031 C 
ATOM     38  H   LIG d   1       9.012  -2.917  -2.949  0.00  0.00     0.026 H 
ATOM     39  H   LIG d   1       7.934  -1.903  -3.937  0.00  0.00     0.026 H 
ATOM     40  H   LIG d   1       7.251  -2.979  -2.694  0.00  0.00     0.026 H 
ENDBRANCH  34  37
ENDBRANCH  33  34
ENDBRANCH  31  33
ENDBRANCH   1  31
BRANCH   5  41
ATOM     41  C   LIG d   1       3.343  -0.541  -7.646  0.00  0.00     0.338 C 
ATOM     42  O   LIG d   1       2.724   0.164  -6.872  0.00  0.00    -0.245 OA
BRANCH  41  43
ATOM     43  O   LIG d   1       2.702  -1.143  -8.670  0.00  0.00    -0.462 OA
BRANCH  43  44
ATOM     44  C   LIG d   1       1.808  -0.336  -9.441  0.00  0.00     0.090 C 
ATOM     45  H   LIG d   1       0.862  -0.235  -8.910  0.00  0.00     0.070 H 
ATOM     46  H   LIG d   1       2.248   0.650  -9.592  0.00  0.00     0.070 H 
BRANCH  44  47
ATOM     47  C   LIG d   1       1.564  -1.000 -10.797  0.00  0.00    -0.031 C 
ATOM     48  H   LIG d   1       0.519  -0.868 -11.084  0.00  0.00     0.026 H 
ATOM     49  H   LIG d   1       2.206  -0.541 -11.548  0.00  0.00     0.026 H 
ATOM     50  H   LIG d   1       1.789  -2.063 -10.727  0.00  0.00     0.026 H 
ENDBRANCH  44  47
ENDBRANCH  43  44
ENDBRANCH  41  43
ENDBRANCH   5  41
BRANCH   6  51
ATOM     51  C   LIG d   1       5.010  -1.728  -5.253  0.00  0.00    -0.029 A 
ATOM     52  C   LIG d   1       5.365  -0.530  -4.663  0.00  0.00     0.020 A 
ATOM     53  C   LIG d   1       5.162  -0.339  -3.309  0.00  0.00     0.273 A 
ATOM     54  H   LIG d   1       5.798   0.258  -5.261  0.00  0.00     0.069 H 
ATOM     55  C   LIG d   1       4.613  -1.350  -2.543  0.00  0.00     0.016 A 
ATOM     56  C   LIG d   1       4.257  -2.549  -3.133  0.00  0.00    -0.055 A 
ATOM     57  H   LIG d   1       4.458  -1.202  -1.484  0.00  0.00     0.069 H 
ATOM     58  C   LIG d   1       4.456  -2.738  -4.487  0.00  0.00    -0.057 A 
ATOM     59  H   LIG d   1       3.824  -3.337  -2.535  0.00  0.00     0.062 H 
ATOM     60  H   LIG d   1       4.179  -3.675  -4.948  0.00  0.00     0.062 H 
BRANCH  53  61
ATOM     61  N   LIG d   1       5.537   0.946  -2.678  0.00  0.00     0.080 N 
ATOM     62  O   LIG d   1       6.342   1.680  -3.223  0.00  0.00     0.041 OA
ATOM     63  O   LIG d   1       5.040   1.271  -1.614  0.00  0.00    -0.576 OA
ENDBRANCH  53  61
ENDBRANCH   6  51
TORSDOF 15
ENDMDL
MODEL 8
REMARK VINA RESULT:      -5.2      2.972      6.748
REMARK  15 active torsions:
REMARK  status: ('A' for Active; 'I' for Inactive)
REMARK    1  A    between atoms: C_1  and  C_2 
REMARK    2  A    between atoms: C_2  and  O_3 
REMARK    3  A    between atoms: O_3  and  C_4 
REMARK    4  A    between atoms: C_4  and  C_6 
REMARK    5  A    between atoms: C_7  and  C_35 
REMARK    6  A    between atoms: N_8  and  C_27 
REMARK    7  A    between atoms: C_9  and  C_26 
REMARK    8  A    between atoms: C_10  and  C_21 
REMARK    9  A    between atoms: C_11  and  C_12 
REMARK   10  A    between atoms: C_16  and  N_18 
REMARK   11  A    between atoms: C_21  and  O_23 
REMARK   12  A    between atoms: O_23  and  C_24 
REMARK   13  A    between atoms: C_24  and  C_25 
REMARK   14  A    between atoms: C_30  and  O_33 
REMARK   15  A    between atoms: O_33  and  C_34 
ROOT
ATOM      1  C   LIG d   1       4.399  -3.658  -6.796  0.00  0.00     0.066 C 
ATOM      2  C   LIG d   1       4.078  -3.222  -8.026  0.00  0.00     0.023 C 
ATOM      3  N   LIG d   1       4.031  -1.882  -8.303  0.00  0.00    -0.276 N 
ATOM      4  C   LIG d   1       3.952  -0.968  -7.286  0.00  0.00     0.023 C 
ATOM      5  C   LIG d   1       4.269  -1.313  -6.026  0.00  0.00     0.066 C 
ATOM      6  C   LIG d   1       4.727  -2.702  -5.685  0.00  0.00     0.051 C 
ATOM      7  H   LIG d   1       4.231  -3.030  -4.772  0.00  0.00     0.045 H 
ENDROOT
BRANCH   3   8
ATOM      8  C   LIG d   1       4.065  -1.443  -9.633  0.00  0.00     0.038 A 
ATOM      9  C   LIG d   1       2.880  -1.228 -10.325  0.00  0.00    -0.037 A 
ATOM     10  C   LIG d   1       2.914  -0.795 -11.635  0.00  0.00    -0.018 A 
ATOM     11  H   LIG d   1       1.932  -1.398  -9.837  0.00  0.00     0.064 H 
ATOM     12  C   LIG d   1       4.133  -0.576 -12.263  0.00  0.00     0.120 A 
ATOM     13  H   LIG d   1       1.992  -0.627 -12.172  0.00  0.00     0.066 H 
ATOM     14  C   LIG d   1       5.316  -0.791 -11.572  0.00  0.00    -0.018 A 
ATOM     15  C   LIG d   1       5.285  -1.218 -10.260  0.00  0.00    -0.037 A 
ATOM     16  H   LIG d   1       6.265  -0.621 -12.061  0.00  0.00     0.066 H 
ATOM     17  H   LIG d   1       6.206  -1.380  -9.721  0.00  0.00     0.064 H 
BRANCH  12  18
ATOM     18  O   LIG d   1       4.165  -0.150 -13.553  0.00  0.00    -0.495 OA
BRANCH  18  19
ATOM     19  C   LIG d   1       4.047  -1.149 -14.568  0.00  0.00     0.079 C 
ATOM     20  H   LIG d   1       5.035  -1.540 -14.810  0.00  0.00     0.066 H 
ATOM     21  H   LIG d   1       3.414  -1.960 -14.209  0.00  0.00     0.066 H 
ATOM     22  H   LIG d   1       3.602  -0.709 -15.461  0.00  0.00     0.066 H 
ENDBRANCH  18  19
ENDBRANCH  12  18
ENDBRANCH   3   8
BRANCH   2  23
ATOM     23  C   LIG d   1       3.764  -4.218  -9.112  0.00  0.00    -0.025 C 
ATOM     24  H   LIG d   1       4.680  -4.725  -9.416  0.00  0.00     0.029 H 
ATOM     25  H   LIG d   1       3.050  -4.952  -8.736  0.00  0.00     0.029 H 
ATOM     26  H   LIG d   1       3.334  -3.699  -9.969  0.00  0.00     0.029 H 
ENDBRANCH   2  23
BRANCH   4  27
ATOM     27  C   LIG d   1       3.507   0.441  -7.583  0.00  0.00    -0.025 C 
ATOM     28  H   LIG d   1       2.646   0.417  -8.251  0.00  0.00     0.029 H 
ATOM     29  H   LIG d   1       3.231   0.939  -6.654  0.00  0.00     0.029 H 
ATOM     30  H   LIG d   1       4.322   0.986  -8.061  0.00  0.00     0.029 H 
ENDBRANCH   4  27
BRANCH   1  31
ATOM     31  C   LIG d   1       4.430  -5.049  -6.544  0.00  0.00     0.338 C 
ATOM     32  O   LIG d   1       3.460  -5.601  -6.060  0.00  0.00    -0.245 OA
BRANCH  31  33
ATOM     33  O   LIG d   1       5.536  -5.764  -6.838  0.00  0.00    -0.462 OA
BRANCH  33  34
ATOM     34  C   LIG d   1       6.164  -6.461  -5.760  0.00  0.00     0.090 C 
ATOM     35  H   LIG d   1       5.753  -6.111  -4.813  0.00  0.00     0.070 H 
ATOM     36  H   LIG d   1       5.979  -7.530  -5.862  0.00  0.00     0.070 H 
BRANCH  34  37
ATOM     37  C   LIG d   1       7.671  -6.199  -5.791  0.00  0.00    -0.031 C 
ATOM     38  H   LIG d   1       8.203  -7.104  -5.498  0.00  0.00     0.026 H 
ATOM     39  H   LIG d   1       7.970  -5.913  -6.800  0.00  0.00     0.026 H 
ATOM     40  H   LIG d   1       7.914  -5.393  -5.098  0.00  0.00     0.026 H 
ENDBRANCH  34  37
ENDBRANCH  33  34
ENDBRANCH  31  33
ENDBRANCH   1  31
BRANCH   5  41
ATOM     41  C   LIG d   1       4.168  -0.346  -4.998  0.00  0.00     0.338 C 
ATOM     42  O   LIG d   1       5.081   0.435  -4.806  0.00  0.00    -0.245 OA
BRANCH  41  43
ATOM     43  O   LIG d   1       3.058  -0.289  -4.232  0.00  0.00    -0.462 OA
BRANCH  43  44
ATOM     44  C   LIG d   1       3.245  -0.334  -2.815  0.00  0.00     0.090 C 
ATOM     45  H   LIG d   1       4.038   0.357  -2.532  0.00  0.00     0.070 H 
ATOM     46  H   LIG d   1       2.318  -0.046  -2.318  0.00  0.00     0.070 H 
BRANCH  44  47
ATOM     47  C   LIG d   1       3.630  -1.753  -2.396  0.00  0.00    -0.031 C 
ATOM     48  H   LIG d   1       3.576  -2.415  -3.262  0.00  0.00     0.026 H 
ATOM     49  H   LIG d   1       4.646  -1.753  -2.003  0.00  0.00     0.026 H 
ATOM     50  H   LIG d   1       2.943  -2.105  -1.628  0.00  0.00     0.026 H 
ENDBRANCH  44  47
ENDBRANCH  43  44
ENDBRANCH  41  43
ENDBRANCH   5  41
BRANCH   6  51
ATOM     51  C   LIG d   1       6.218  -2.692  -5.462  0.00  0.00    -0.029 A 
ATOM     52  C   LIG d   1       7.073  -2.445  -6.519  0.00  0.00     0.020 A 
ATOM     53  C   LIG d   1       8.440  -2.431  -6.314  0.00  0.00     0.273 A 
ATOM     54  H   LIG d   1       6.673  -2.258  -7.504  0.00  0.00     0.069 H 
ATOM     55  C   LIG d   1       8.952  -2.675  -5.053  0.00  0.00     0.016 A 
ATOM     56  C   LIG d   1       8.096  -2.922  -3.995  0.00  0.00    -0.055 A 
ATOM     57  H   LIG d   1      10.020  -2.668  -4.894  0.00  0.00     0.069 H 
ATOM     58  C   LIG d   1       6.729  -2.931  -4.199  0.00  0.00    -0.057 A 
ATOM     59  H   LIG d   1       8.496  -3.108  -3.010  0.00  0.00     0.062 H 
ATOM     60  H   LIG d   1       6.061  -3.125  -3.374  0.00  0.00     0.062 H 
BRANCH  53  61
ATOM     61  N   LIG d   1       9.355  -2.161  -7.444  0.00  0.00     0.080 N 
ATOM     62  O   LIG d   1      10.536  -2.447  -7.354  0.00  0.00     0.041 OA
ATOM     63  O   LIG d   1       8.928  -1.653  -8.467  0.00  0.00    -0.576 OA
ENDBRANCH  53  61
ENDBRANCH   6  51
TORSDOF 15
ENDMDL
MODEL 9
REMARK VINA RESULT:      -5.2      3.153      6.280
REMARK  15 active torsions:
REMARK  status: ('A' for Active; 'I' for Inactive)
REMARK    1  A    between atoms: C_1  and  C_2 
REMARK    2  A    between atoms: C_2  and  O_3 
REMARK    3  A    between atoms: O_3  and  C_4 
REMARK    4  A    between atoms: C_4  and  C_6 
REMARK    5  A    between atoms: C_7  and  C_35 
REMARK    6  A    between atoms: N_8  and  C_27 
REMARK    7  A    between atoms: C_9  and  C_26 
REMARK    8  A    between atoms: C_10  and  C_21 
REMARK    9  A    between atoms: C_11  and  C_12 
REMARK   10  A    between atoms: C_16  and  N_18 
REMARK   11  A    between atoms: C_21  and  O_23 
REMARK   12  A    between atoms: O_23  and  C_24 
REMARK   13  A    between atoms: C_24  and  C_25 
REMARK   14  A    between atoms: C_30  and  O_33 
REMARK   15  A    between atoms: O_33  and  C_34 
ROOT
ATOM      1  C   LIG d   1       5.771  -0.843  -4.632  0.00  0.00     0.066 C 
ATOM      2  C   LIG d   1       4.819  -0.556  -5.537  0.00  0.00     0.023 C 
ATOM      3  N   LIG d   1       5.123  -0.468  -6.869  0.00  0.00    -0.276 N 
ATOM      4  C   LIG d   1       6.423  -0.311  -7.272  0.00  0.00     0.023 C 
ATOM      5  C   LIG d   1       7.440  -0.588  -6.437  0.00  0.00     0.066 C 
ATOM      6  C   LIG d   1       7.196  -1.087  -5.042  0.00  0.00     0.051 C 
ATOM      7  H   LIG d   1       7.861  -0.566  -4.353  0.00  0.00     0.045 H 
ENDROOT
BRANCH   3   8
ATOM      8  C   LIG d   1       4.101  -0.539  -7.824  0.00  0.00     0.038 A 
ATOM      9  C   LIG d   1       3.469   0.619  -8.254  0.00  0.00    -0.037 A 
ATOM     10  C   LIG d   1       2.462   0.548  -9.196  0.00  0.00    -0.018 A 
ATOM     11  H   LIG d   1       3.766   1.577  -7.852  0.00  0.00     0.064 H 
ATOM     12  C   LIG d   1       2.080  -0.682  -9.712  0.00  0.00     0.120 A 
ATOM     13  H   LIG d   1       1.971   1.450  -9.530  0.00  0.00     0.066 H 
ATOM     14  C   LIG d   1       2.712  -1.840  -9.283  0.00  0.00    -0.018 A 
ATOM     15  C   LIG d   1       3.723  -1.771  -8.346  0.00  0.00    -0.037 A 
ATOM     16  H   LIG d   1       2.414  -2.798  -9.686  0.00  0.00     0.066 H 
ATOM     17  H   LIG d   1       4.218  -2.672  -8.016  0.00  0.00     0.064 H 
BRANCH  12  18
ATOM     18  O   LIG d   1       1.089  -0.751 -10.639  0.00  0.00    -0.495 OA
BRANCH  18  19
ATOM     19  C   LIG d   1       1.145  -1.834 -11.569  0.00  0.00     0.079 C 
ATOM     20  H   LIG d   1       0.863  -2.759 -11.067  0.00  0.00     0.066 H 
ATOM     21  H   LIG d   1       0.455  -1.644 -12.392  0.00  0.00     0.066 H 
ATOM     22  H   LIG d   1       2.159  -1.927 -11.959  0.00  0.00     0.066 H 
ENDBRANCH  18  19
ENDBRANCH  12  18
ENDBRANCH   3   8
BRANCH   2  23
ATOM     23  C   LIG d   1       3.402  -0.328  -5.080  0.00  0.00    -0.025 C 
ATOM     24  H   LIG d   1       2.778  -0.083  -5.940  0.00  0.00     0.029 H 
ATOM     25  H   LIG d   1       3.023  -1.233  -4.603  0.00  0.00     0.029 H 
ATOM     26  H   LIG d   1       3.377   0.496  -4.367  0.00  0.00     0.029 H 
ENDBRANCH   2  23
BRANCH   4  27
ATOM     27  C   LIG d   1       6.717   0.177  -8.667  0.00  0.00    -0.025 C 
ATOM     28  H   LIG d   1       7.734   0.566  -8.710  0.00  0.00     0.029 H 
ATOM     29  H   LIG d   1       6.613  -0.648  -9.370  0.00  0.00     0.029 H 
ATOM     30  H   LIG d   1       6.014   0.970  -8.929  0.00  0.00     0.029 H 
ENDBRANCH   4  27
BRANCH   1  31
ATOM     31  C   LIG d   1       5.422  -0.919  -3.264  0.00  0.00     0.338 C 
ATOM     32  O   LIG d   1       4.927  -1.937  -2.818  0.00  0.00    -0.245 OA
BRANCH  31  33
ATOM     33  O   LIG d   1       5.637   0.138  -2.453  0.00  0.00    -0.462 OA
BRANCH  33  34
ATOM     34  C   LIG d   1       4.561   0.530  -1.600  0.00  0.00     0.090 C 
ATOM     35  H   LIG d   1       3.979  -0.349  -1.321  0.00  0.00     0.070 H 
ATOM     36  H   LIG d   1       4.961   1.000  -0.702  0.00  0.00     0.070 H 
BRANCH  34  37
ATOM     37  C   LIG d   1       3.660   1.524  -2.337  0.00  0.00    -0.031 C 
ATOM     38  H   LIG d   1       4.274   2.182  -2.952  0.00  0.00     0.026 H 
ATOM     39  H   LIG d   1       2.960   0.980  -2.972  0.00  0.00     0.026 H 
ATOM     40  H   LIG d   1       3.105   2.119  -1.611  0.00  0.00     0.026 H 
ENDBRANCH  34  37
ENDBRANCH  33  34
ENDBRANCH  31  33
ENDBRANCH   1  31
BRANCH   5  41
ATOM     41  C   LIG d   1       8.770  -0.407  -6.884  0.00  0.00     0.338 C 
ATOM     42  O   LIG d   1       9.374   0.611  -6.600  0.00  0.00    -0.245 OA
BRANCH  41  43
ATOM     43  O   LIG d   1       9.370  -1.363  -7.623  0.00  0.00    -0.462 OA
BRANCH  43  44
ATOM     44  C   LIG d   1      10.517  -1.999  -7.055  0.00  0.00     0.090 C 
ATOM     45  H   LIG d   1      11.418  -1.620  -7.537  0.00  0.00     0.070 H 
ATOM     46  H   LIG d   1      10.559  -1.785  -5.987  0.00  0.00     0.070 H 
BRANCH  44  47
ATOM     47  C   LIG d   1      10.421  -3.510  -7.270  0.00  0.00    -0.031 C 
ATOM     48  H   LIG d   1       9.657  -3.924  -6.610  0.00  0.00     0.026 H 
ATOM     49  H   LIG d   1      10.154  -3.714  -8.306  0.00  0.00     0.026 H 
ATOM     50  H   LIG d   1      11.382  -3.971  -7.045  0.00  0.00     0.026 H 
ENDBRANCH  44  47
ENDBRANCH  43  44
ENDBRANCH  41  43
ENDBRANCH   5  41
BRANCH   6  51
ATOM     51  C   LIG d   1       7.483  -2.565  -4.985  0.00  0.00    -0.029 A 
ATOM     52  C   LIG d   1       8.418  -3.055  -4.093  0.00  0.00     0.020 A 
ATOM     53  C   LIG d   1       8.677  -4.411  -4.039  0.00  0.00     0.273 A 
ATOM     54  H   LIG d   1       8.942  -2.377  -3.436  0.00  0.00     0.069 H 
ATOM     55  C   LIG d   1       8.009  -5.277  -4.884  0.00  0.00     0.016 A 
ATOM     56  C   LIG d   1       7.073  -4.787  -5.776  0.00  0.00    -0.055 A 
ATOM     57  H   LIG d   1       8.215  -6.337  -4.843  0.00  0.00     0.069 H 
ATOM     58  C   LIG d   1       6.810  -3.432  -5.827  0.00  0.00    -0.057 A 
ATOM     59  H   LIG d   1       6.548  -5.465  -6.433  0.00  0.00     0.062 H 
ATOM     60  H   LIG d   1       6.080  -3.050  -6.525  0.00  0.00     0.062 H 
BRANCH  53  61
ATOM     61  N   LIG d   1       9.674  -4.936  -3.080  0.00  0.00     0.080 N 
ATOM     62  O   LIG d   1       9.634  -4.594  -1.911  0.00  0.00     0.041 OA
ATOM     63  O   LIG d   1      10.535  -5.711  -3.458  0.00  0.00    -0.576 OA
ENDBRANCH  53  61
ENDBRANCH   6  51
TORSDOF 15
ENDMDL
MODEL 10
REMARK VINA RESULT:      -5.1      2.718      6.334
REMARK  15 active torsions:
REMARK  status: ('A' for Active; 'I' for Inactive)
REMARK    1  A    between atoms: C_1  and  C_2 
REMARK    2  A    between atoms: C_2  and  O_3 
REMARK    3  A    between atoms: O_3  and  C_4 
REMARK    4  A    between atoms: C_4  and  C_6 
REMARK    5  A    between atoms: C_7  and  C_35 
REMARK    6  A    between atoms: N_8  and  C_27 
REMARK    7  A    between atoms: C_9  and  C_26 
REMARK    8  A    between atoms: C_10  and  C_21 
REMARK    9  A    between atoms: C_11  and  C_12 
REMARK   10  A    between atoms: C_16  and  N_18 
REMARK   11  A    between atoms: C_21  and  O_23 
REMARK   12  A    between atoms: O_23  and  C_24 
REMARK   13  A    between atoms: C_24  and  C_25 
REMARK   14  A    between atoms: C_30  and  O_33 
REMARK   15  A    between atoms: O_33  and  C_34 
ROOT
ATOM      1  C   LIG d   1       5.399  -1.821  -4.862  0.00  0.00     0.066 C 
ATOM      2  C   LIG d   1       6.582  -2.171  -4.329  0.00  0.00     0.023 C 
ATOM      3  N   LIG d   1       7.188  -3.347  -4.682  0.00  0.00    -0.276 N 
ATOM      4  C   LIG d   1       6.465  -4.343  -5.285  0.00  0.00     0.023 C 
ATOM      5  C   LIG d   1       5.277  -4.080  -5.857  0.00  0.00     0.066 C 
ATOM      6  C   LIG d   1       4.701  -2.693  -5.867  0.00  0.00     0.051 C 
ATOM      7  H   LIG d   1       3.640  -2.744  -5.621  0.00  0.00     0.045 H 
ENDROOT
BRANCH   3   8
ATOM      8  C   LIG d   1       8.552  -3.535  -4.425  0.00  0.00     0.038 A 
ATOM      9  C   LIG d   1       9.492  -3.221  -5.396  0.00  0.00    -0.037 A 
ATOM     10  C   LIG d   1      10.837  -3.406  -5.142  0.00  0.00    -0.018 A 
ATOM     11  H   LIG d   1       9.172  -2.831  -6.351  0.00  0.00     0.064 H 
ATOM     12  C   LIG d   1      11.248  -3.908  -3.915  0.00  0.00     0.120 A 
ATOM     13  H   LIG d   1      11.568  -3.161  -5.898  0.00  0.00     0.066 H 
ATOM     14  C   LIG d   1      10.309  -4.222  -2.944  0.00  0.00    -0.018 A 
ATOM     15  C   LIG d   1       8.964  -4.031  -3.194  0.00  0.00    -0.037 A 
ATOM     16  H   LIG d   1      10.630  -4.612  -1.989  0.00  0.00     0.066 H 
ATOM     17  H   LIG d   1       8.234  -4.271  -2.436  0.00  0.00     0.064 H 
BRANCH  12  18
ATOM     18  O   LIG d   1      12.572  -4.090  -3.666  0.00  0.00    -0.495 OA
BRANCH  18  19
ATOM     19  C   LIG d   1      13.422  -2.951  -3.815  0.00  0.00     0.079 C 
ATOM     20  H   LIG d   1      14.159  -3.147  -4.593  0.00  0.00     0.066 H 
ATOM     21  H   LIG d   1      12.823  -2.084  -4.093  0.00  0.00     0.066 H 
ATOM     22  H   LIG d   1      13.933  -2.752  -2.872  0.00  0.00     0.066 H 
ENDBRANCH  18  19
ENDBRANCH  12  18
ENDBRANCH   3   8
BRANCH   2  23
ATOM     23  C   LIG d   1       7.249  -1.261  -3.331  0.00  0.00    -0.025 C 
ATOM     24  H   LIG d   1       8.176  -1.718  -2.985  0.00  0.00     0.029 H 
ATOM     25  H   LIG d   1       7.472  -0.303  -3.805  0.00  0.00     0.029 H 
ATOM     26  H   LIG d   1       6.584  -1.099  -2.484  0.00  0.00     0.029 H 
ENDBRANCH   2  23
BRANCH   4  27
ATOM     27  C   LIG d   1       7.009  -5.748  -5.309  0.00  0.00    -0.025 C 
ATOM     28  H   LIG d   1       7.981  -5.770  -4.819  0.00  0.00     0.029 H 
ATOM     29  H   LIG d   1       6.322  -6.413  -4.786  0.00  0.00     0.029 H 
ATOM     30  H   LIG d   1       7.117  -6.078  -6.343  0.00  0.00     0.029 H 
ENDBRANCH   4  27
BRANCH   1  31
ATOM     31  C   LIG d   1       4.799  -0.602  -4.469  0.00  0.00     0.338 C 
ATOM     32  O   LIG d   1       5.211   0.451  -4.919  0.00  0.00    -0.245 OA
BRANCH  31  33
ATOM     33  O   LIG d   1       3.772  -0.607  -3.594  0.00  0.00    -0.462 OA
BRANCH  33  34
ATOM     34  C   LIG d   1       4.103  -0.634  -2.205  0.00  0.00     0.090 C 
ATOM     35  H   LIG d   1       3.253  -1.011  -1.636  0.00  0.00     0.070 H 
ATOM     36  H   LIG d   1       4.962  -1.287  -2.049  0.00  0.00     0.070 H 
BRANCH  34  37
ATOM     37  C   LIG d   1       4.446   0.781  -1.734  0.00  0.00    -0.031 C 
ATOM     38  H   LIG d   1       3.752   1.079  -0.948  0.00  0.00     0.026 H 
ATOM     39  H   LIG d   1       5.465   0.798  -1.344  0.00  0.00     0.026 H 
ATOM     40  H   LIG d   1       4.366   1.473  -2.572  0.00  0.00     0.026 H 
ENDBRANCH  34  37
ENDBRANCH  33  34
ENDBRANCH  31  33
ENDBRANCH   1  31
BRANCH   5  41
ATOM     41  C   LIG d   1       4.554  -5.133  -6.464  0.00  0.00     0.338 C 
ATOM     42  O   LIG d   1       3.651  -5.679  -5.859  0.00  0.00    -0.245 OA
BRANCH  41  43
ATOM     43  O   LIG d   1       4.866  -5.532  -7.716  0.00  0.00    -0.462 OA
BRANCH  43  44
ATOM     44  C   LIG d   1       3.834  -5.443  -8.701  0.00  0.00     0.090 C 
ATOM     45  H   LIG d   1       3.505  -6.445  -8.973  0.00  0.00     0.070 H 
ATOM     46  H   LIG d   1       2.992  -4.881  -8.295  0.00  0.00     0.070 H 
BRANCH  44  47
ATOM     47  C   LIG d   1       4.373  -4.729  -9.941  0.00  0.00    -0.031 C 
ATOM     48  H   LIG d   1       5.357  -4.310  -9.721  0.00  0.00     0.026 H 
ATOM     49  H   LIG d   1       4.458  -5.440 -10.762  0.00  0.00     0.026 H 
ATOM     50  H   LIG d   1       3.693  -3.926 -10.224  0.00  0.00     0.026 H 
ENDBRANCH  44  47
ENDBRANCH  43  44
ENDBRANCH  41  43
ENDBRANCH   5  41
BRANCH   6  51
ATOM     51  C   LIG d   1       4.864  -2.096  -7.241  0.00  0.00    -0.029 A 
ATOM     52  C   LIG d   1       3.763  -1.608  -7.918  0.00  0.00     0.020 A 
ATOM     53  C   LIG d   1       3.914  -1.057  -9.177  0.00  0.00     0.273 A 
ATOM     54  H   LIG d   1       2.786  -1.655  -7.462  0.00  0.00     0.069 H 
ATOM     55  C   LIG d   1       5.165  -1.004  -9.762  0.00  0.00     0.016 A 
ATOM     56  C   LIG d   1       6.268  -1.491  -9.084  0.00  0.00    -0.055 A 
ATOM     57  H   LIG d   1       5.282  -0.576 -10.747  0.00  0.00     0.069 H 
ATOM     58  C   LIG d   1       6.117  -2.038  -7.824  0.00  0.00    -0.057 A 
ATOM     59  H   LIG d   1       7.245  -1.445  -9.540  0.00  0.00     0.062 H 
ATOM     60  H   LIG d   1       6.978  -2.419  -7.295  0.00  0.00     0.062 H 
BRANCH  53  61
ATOM     61  N   LIG d   1       2.736  -0.530  -9.900  0.00  0.00     0.080 N 
ATOM     62  O   LIG d   1       1.613  -0.771  -9.494  0.00  0.00     0.041 OA
ATOM     63  O   LIG d   1       2.888   0.148 -10.901  0.00  0.00    -0.576 OA
ENDBRANCH  53  61
ENDBRANCH   6  51
TORSDOF 15
ENDMDL
