MODEL 1
REMARK VINA RESULT:      -7.6      0.000      0.000
REMARK  5 active torsions:
REMARK  status: ('A' for Active; 'I' for Inactive)
REMARK    1  A    between atoms: C_4  and  C_7 
REMARK    2  A    between atoms: C_7  and  C_8 
REMARK    3  A    between atoms: C_8  and  C_9 
REMARK    4  A    between atoms: C_13  and  C_15 
REMARK       I    between atoms: C_15  and  N_17 
REMARK    5  A    between atoms: N_17  and  N_18 
ROOT
ATOM      1  C   LIG d   1       6.221  -1.879  -5.828  0.00  0.00     0.066 A 
ATOM      2  C   LIG d   1       5.687  -1.058  -6.820  0.00  0.00     0.069 A 
ATOM      3  C   LIG d   1       4.668  -1.571  -7.644  0.00  0.00     0.011 A 
ATOM      4  C   LIG d   1       4.223  -2.873  -7.430  0.00  0.00    -0.021 A 
ATOM      5  C   LIG d   1       4.808  -3.619  -6.413  0.00  0.00     0.128 A 
ATOM      6  N   LIG d   1       5.774  -3.102  -5.657  0.00  0.00    -0.245 NA
ATOM      7  C   LIG d   1       4.313  -0.499  -8.586  0.00  0.00     0.007 A 
ATOM      8  C   LIG d   1       3.378  -0.394  -9.615  0.00  0.00    -0.052 A 
ATOM      9  C   LIG d   1       3.277   0.779 -10.332  0.00  0.00    -0.061 A 
ATOM     10  C   LIG d   1       4.094   1.857 -10.026  0.00  0.00    -0.060 A 
ATOM     11  C   LIG d   1       5.015   1.771  -9.004  0.00  0.00    -0.038 A 
ATOM     12  C   LIG d   1       5.133   0.595  -8.269  0.00  0.00     0.048 A 
ATOM     13  N   LIG d   1       5.950   0.235  -7.213  0.00  0.00    -0.353 N 
ATOM     14  H   LIG d   1       6.725   0.821  -6.696  0.00  0.00     0.166 HD
ATOM     15  H   LIG d   1       3.439  -3.294  -8.043  0.00  0.00     0.065 H 
ATOM     16  H   LIG d   1       2.741  -1.232  -9.856  0.00  0.00     0.062 H 
ATOM     17  H   LIG d   1       2.560   0.858 -11.135  0.00  0.00     0.062 H 
ATOM     18  H   LIG d   1       4.008   2.771 -10.593  0.00  0.00     0.062 H 
ATOM     19  H   LIG d   1       5.646   2.617  -8.775  0.00  0.00     0.064 H 
ENDROOT
BRANCH   1  20
ATOM     20  C   LIG d   1       7.316  -1.356  -4.936  0.00  0.00    -0.004 C 
ATOM     21  H   LIG d   1       7.420  -0.270  -5.079  0.00  0.00     0.033 H 
ATOM     22  H   LIG d   1       8.265  -1.852  -5.190  0.00  0.00     0.033 H 
BRANCH  20  23
ATOM     23  C   LIG d   1       6.966  -1.646  -3.474  0.00  0.00    -0.022 C 
ATOM     24  H   LIG d   1       7.842  -1.441  -2.840  0.00  0.00     0.032 H 
ATOM     25  H   LIG d   1       6.676  -2.702  -3.369  0.00  0.00     0.032 H 
BRANCH  23  26
ATOM     26  C   LIG d   1       5.820  -0.765  -3.048  0.00  0.00    -0.047 A 
ATOM     27  C   LIG d   1       5.964   0.610  -3.055  0.00  0.00    -0.059 A 
ATOM     28  C   LIG d   1       4.913   1.418  -2.664  0.00  0.00    -0.061 A 
ATOM     29  H   LIG d   1       6.899   1.052  -3.368  0.00  0.00     0.062 H 
ATOM     30  C   LIG d   1       3.717   0.850  -2.266  0.00  0.00    -0.062 A 
ATOM     31  H   LIG d   1       5.026   2.491  -2.670  0.00  0.00     0.062 H 
ATOM     32  C   LIG d   1       3.572  -0.524  -2.258  0.00  0.00    -0.061 A 
ATOM     33  H   LIG d   1       2.894   1.481  -1.966  0.00  0.00     0.062 H 
ATOM     34  C   LIG d   1       4.623  -1.332  -2.649  0.00  0.00    -0.059 A 
ATOM     35  H   LIG d   1       2.638  -0.968  -1.947  0.00  0.00     0.062 H 
ATOM     36  H   LIG d   1       4.511  -2.406  -2.643  0.00  0.00     0.062 H 
ENDBRANCH  23  26
ENDBRANCH  20  23
ENDBRANCH   1  20
BRANCH   5  37
ATOM     37  C   LIG d   1       4.353  -5.005  -6.169  0.00  0.00     0.276 C 
ATOM     38  O   LIG d   1       3.230  -5.342  -6.492  0.00  0.00    -0.267 OA
ATOM     39  N   LIG d   1       5.182  -5.895  -5.588  0.00  0.00    -0.248 N 
ATOM     40  H   LIG d   1       6.198  -5.591  -5.296  0.00  0.00     0.169 HD
BRANCH  39  41
ATOM     41  N   LIG d   1       4.760  -7.174  -5.363  0.00  0.00    -0.254 NA
ATOM     42  H   LIG d   1       5.493  -7.695  -4.727  0.00  0.00     0.141 HD
ATOM     43  H   LIG d   1       3.784  -7.155  -4.855  0.00  0.00     0.141 HD
ENDBRANCH  39  41
ENDBRANCH   5  37
TORSDOF 5
ENDMDL
MODEL 2
REMARK VINA RESULT:      -7.5      2.386      3.493
REMARK  5 active torsions:
REMARK  status: ('A' for Active; 'I' for Inactive)
REMARK    1  A    between atoms: C_4  and  C_7 
REMARK    2  A    between atoms: C_7  and  C_8 
REMARK    3  A    between atoms: C_8  and  C_9 
REMARK    4  A    between atoms: C_13  and  C_15 
REMARK       I    between atoms: C_15  and  N_17 
REMARK    5  A    between atoms: N_17  and  N_18 
ROOT
ATOM      1  C   LIG d   1       5.516  -2.109  -5.634  0.00  0.00     0.066 A 
ATOM      2  C   LIG d   1       5.006  -1.141  -6.499  0.00  0.00     0.069 A 
ATOM      3  C   LIG d   1       5.907  -0.281  -7.153  0.00  0.00     0.011 A 
ATOM      4  C   LIG d   1       7.272  -0.435  -6.923  0.00  0.00    -0.021 A 
ATOM      5  C   LIG d   1       7.692  -1.432  -6.049  0.00  0.00     0.128 A 
ATOM      6  N   LIG d   1       6.810  -2.224  -5.443  0.00  0.00    -0.245 NA
ATOM      7  C   LIG d   1       5.096   0.625  -7.980  0.00  0.00     0.007 A 
ATOM      8  C   LIG d   1       5.404   1.664  -8.856  0.00  0.00    -0.052 A 
ATOM      9  C   LIG d   1       4.392   2.336  -9.506  0.00  0.00    -0.061 A 
ATOM     10  C   LIG d   1       3.069   1.974  -9.302  0.00  0.00    -0.060 A 
ATOM     11  C   LIG d   1       2.749   0.941  -8.447  0.00  0.00    -0.038 A 
ATOM     12  C   LIG d   1       3.757   0.251  -7.780  0.00  0.00     0.048 A 
ATOM     13  N   LIG d   1       3.729  -0.804  -6.885  0.00  0.00    -0.353 N 
ATOM     14  H   LIG d   1       2.867  -1.357  -6.481  0.00  0.00     0.166 HD
ATOM     15  H   LIG d   1       7.989   0.207  -7.414  0.00  0.00     0.065 H 
ATOM     16  H   LIG d   1       6.434   1.949  -9.018  0.00  0.00     0.062 H 
ATOM     17  H   LIG d   1       4.630   3.148 -10.178  0.00  0.00     0.062 H 
ATOM     18  H   LIG d   1       2.283   2.507  -9.815  0.00  0.00     0.062 H 
ATOM     19  H   LIG d   1       1.716   0.668  -8.295  0.00  0.00     0.064 H 
ENDROOT
BRANCH   1  20
ATOM     20  C   LIG d   1       4.572  -3.039  -4.917  0.00  0.00    -0.004 C 
ATOM     21  H   LIG d   1       4.796  -4.079  -5.199  0.00  0.00     0.033 H 
ATOM     22  H   LIG d   1       3.536  -2.799  -5.197  0.00  0.00     0.033 H 
BRANCH  20  23
ATOM     23  C   LIG d   1       4.743  -2.873  -3.405  0.00  0.00    -0.022 C 
ATOM     24  H   LIG d   1       5.793  -3.059  -3.132  0.00  0.00     0.032 H 
ATOM     25  H   LIG d   1       4.095  -3.592  -2.882  0.00  0.00     0.032 H 
BRANCH  23  26
ATOM     26  C   LIG d   1       4.362  -1.470  -3.008  0.00  0.00    -0.047 A 
ATOM     27  C   LIG d   1       5.300  -0.636  -2.430  0.00  0.00    -0.059 A 
ATOM     28  C   LIG d   1       4.950   0.650  -2.065  0.00  0.00    -0.061 A 
ATOM     29  H   LIG d   1       6.307  -0.990  -2.264  0.00  0.00     0.062 H 
ATOM     30  C   LIG d   1       3.661   1.103  -2.279  0.00  0.00    -0.062 A 
ATOM     31  H   LIG d   1       5.683   1.302  -1.614  0.00  0.00     0.062 H 
ATOM     32  C   LIG d   1       2.723   0.268  -2.857  0.00  0.00    -0.061 A 
ATOM     33  H   LIG d   1       3.389   2.109  -1.999  0.00  0.00     0.062 H 
ATOM     34  C   LIG d   1       3.072  -1.018  -3.221  0.00  0.00    -0.059 A 
ATOM     35  H   LIG d   1       1.716   0.622  -3.024  0.00  0.00     0.062 H 
ATOM     36  H   LIG d   1       2.339  -1.670  -3.673  0.00  0.00     0.062 H 
ENDBRANCH  23  26
ENDBRANCH  20  23
ENDBRANCH   1  20
BRANCH   5  37
ATOM     37  C   LIG d   1       9.137  -1.614  -5.788  0.00  0.00     0.276 C 
ATOM     38  O   LIG d   1       9.766  -2.446  -6.411  0.00  0.00    -0.267 OA
ATOM     39  N   LIG d   1       9.754  -0.857  -4.859  0.00  0.00    -0.248 N 
ATOM     40  H   LIG d   1       9.184  -0.105  -4.295  0.00  0.00     0.169 HD
BRANCH  39  41
ATOM     41  N   LIG d   1      11.088  -1.027  -4.618  0.00  0.00    -0.254 NA
ATOM     42  H   LIG d   1      11.604  -1.259  -5.562  0.00  0.00     0.141 HD
ATOM     43  H   LIG d   1      11.505  -0.102  -4.191  0.00  0.00     0.141 HD
ENDBRANCH  39  41
ENDBRANCH   5  37
TORSDOF 5
ENDMDL
MODEL 3
REMARK VINA RESULT:      -7.4      1.532      5.295
REMARK  5 active torsions:
REMARK  status: ('A' for Active; 'I' for Inactive)
REMARK    1  A    between atoms: C_4  and  C_7 
REMARK    2  A    between atoms: C_7  and  C_8 
REMARK    3  A    between atoms: C_8  and  C_9 
REMARK    4  A    between atoms: C_13  and  C_15 
REMARK       I    between atoms: C_15  and  N_17 
REMARK    5  A    between atoms: N_17  and  N_18 
ROOT
ATOM      1  C   LIG d   1       4.671  -2.820  -7.130  0.00  0.00     0.066 A 
ATOM      2  C   LIG d   1       4.610  -2.081  -5.948  0.00  0.00     0.069 A 
ATOM      3  C   LIG d   1       4.616  -2.770  -4.722  0.00  0.00     0.011 A 
ATOM      4  C   LIG d   1       4.694  -4.160  -4.732  0.00  0.00    -0.021 A 
ATOM      5  C   LIG d   1       4.758  -4.816  -5.957  0.00  0.00     0.128 A 
ATOM      6  N   LIG d   1       4.744  -4.131  -7.098  0.00  0.00    -0.245 NA
ATOM      7  C   LIG d   1       4.537  -1.748  -3.667  0.00  0.00     0.007 A 
ATOM      8  C   LIG d   1       4.524  -1.801  -2.275  0.00  0.00    -0.052 A 
ATOM      9  C   LIG d   1       4.449  -0.635  -1.544  0.00  0.00    -0.061 A 
ATOM     10  C   LIG d   1       4.398   0.591  -2.190  0.00  0.00    -0.060 A 
ATOM     11  C   LIG d   1       4.421   0.660  -3.566  0.00  0.00    -0.038 A 
ATOM     12  C   LIG d   1       4.496  -0.506  -4.322  0.00  0.00     0.048 A 
ATOM     13  N   LIG d   1       4.534  -0.731  -5.686  0.00  0.00    -0.353 N 
ATOM     14  H   LIG d   1       4.513  -0.010  -6.516  0.00  0.00     0.166 HD
ATOM     15  H   LIG d   1       4.706  -4.718  -3.807  0.00  0.00     0.065 H 
ATOM     16  H   LIG d   1       4.564  -2.755  -1.769  0.00  0.00     0.062 H 
ATOM     17  H   LIG d   1       4.430  -0.676  -0.466  0.00  0.00     0.062 H 
ATOM     18  H   LIG d   1       4.339   1.499  -1.610  0.00  0.00     0.062 H 
ATOM     19  H   LIG d   1       4.380   1.620  -4.059  0.00  0.00     0.064 H 
ENDROOT
BRANCH   1  20
ATOM     20  C   LIG d   1       4.660  -2.107  -8.457  0.00  0.00    -0.004 C 
ATOM     21  H   LIG d   1       4.965  -2.804  -9.251  0.00  0.00     0.033 H 
ATOM     22  H   LIG d   1       5.360  -1.259  -8.423  0.00  0.00     0.033 H 
BRANCH  20  23
ATOM     23  C   LIG d   1       3.248  -1.590  -8.747  0.00  0.00    -0.022 C 
ATOM     24  H   LIG d   1       2.622  -1.714  -7.851  0.00  0.00     0.032 H 
ATOM     25  H   LIG d   1       2.814  -2.161  -9.581  0.00  0.00     0.032 H 
BRANCH  23  26
ATOM     26  C   LIG d   1       3.314  -0.131  -9.116  0.00  0.00    -0.047 A 
ATOM     27  C   LIG d   1       2.856   0.828  -8.232  0.00  0.00    -0.059 A 
ATOM     28  C   LIG d   1       2.915   2.166  -8.571  0.00  0.00    -0.061 A 
ATOM     29  H   LIG d   1       2.452   0.530  -7.276  0.00  0.00     0.062 H 
ATOM     30  C   LIG d   1       3.434   2.547  -9.796  0.00  0.00    -0.062 A 
ATOM     31  H   LIG d   1       2.558   2.915  -7.881  0.00  0.00     0.062 H 
ATOM     32  C   LIG d   1       3.892   1.588 -10.680  0.00  0.00    -0.061 A 
ATOM     33  H   LIG d   1       3.485   3.592 -10.058  0.00  0.00     0.062 H 
ATOM     34  C   LIG d   1       3.832   0.250 -10.341  0.00  0.00    -0.059 A 
ATOM     35  H   LIG d   1       4.297   1.885 -11.636  0.00  0.00     0.062 H 
ATOM     36  H   LIG d   1       4.190  -0.499 -11.032  0.00  0.00     0.062 H 
ENDBRANCH  23  26
ENDBRANCH  20  23
ENDBRANCH   1  20
BRANCH   5  37
ATOM     37  C   LIG d   1       4.840  -6.292  -5.993  0.00  0.00     0.276 C 
ATOM     38  O   LIG d   1       4.015  -6.931  -6.615  0.00  0.00    -0.267 OA
ATOM     39  N   LIG d   1       5.831  -6.928  -5.336  0.00  0.00    -0.248 N 
ATOM     40  H   LIG d   1       6.577  -6.349  -4.773  0.00  0.00     0.169 HD
BRANCH  39  41
ATOM     41  N   LIG d   1       5.905  -8.291  -5.370  0.00  0.00    -0.254 NA
ATOM     42  H   LIG d   1       4.970  -8.699  -5.783  0.00  0.00     0.141 HD
ATOM     43  H   LIG d   1       6.750  -8.598  -6.005  0.00  0.00     0.141 HD
ENDBRANCH  39  41
ENDBRANCH   5  37
TORSDOF 5
ENDMDL
MODEL 4
REMARK VINA RESULT:      -7.4      5.224      7.167
REMARK  5 active torsions:
REMARK  status: ('A' for Active; 'I' for Inactive)
REMARK    1  A    between atoms: C_4  and  C_7 
REMARK    2  A    between atoms: C_7  and  C_8 
REMARK    3  A    between atoms: C_8  and  C_9 
REMARK    4  A    between atoms: C_13  and  C_15 
REMARK       I    between atoms: C_15  and  N_17 
REMARK    5  A    between atoms: N_17  and  N_18 
ROOT
ATOM      1  C   LIG d   1       8.318   1.998  -4.215  0.00  0.00     0.066 A 
ATOM      2  C   LIG d   1       8.602   2.254  -5.556  0.00  0.00     0.069 A 
ATOM      3  C   LIG d   1       9.461   3.323  -5.871  0.00  0.00     0.011 A 
ATOM      4  C   LIG d   1      10.003   4.078  -4.834  0.00  0.00    -0.021 A 
ATOM      5  C   LIG d   1       9.670   3.749  -3.525  0.00  0.00     0.128 A 
ATOM      6  N   LIG d   1       8.849   2.733  -3.265  0.00  0.00    -0.245 NA
ATOM      7  C   LIG d   1       9.569   3.355  -7.338  0.00  0.00     0.007 A 
ATOM      8  C   LIG d   1      10.273   4.157  -8.233  0.00  0.00    -0.052 A 
ATOM      9  C   LIG d   1      10.172   3.925  -9.588  0.00  0.00    -0.061 A 
ATOM     10  C   LIG d   1       9.380   2.890 -10.062  0.00  0.00    -0.060 A 
ATOM     11  C   LIG d   1       8.686   2.081  -9.188  0.00  0.00    -0.038 A 
ATOM     12  C   LIG d   1       8.775   2.300  -7.816  0.00  0.00     0.048 A 
ATOM     13  N   LIG d   1       8.203   1.659  -6.732  0.00  0.00    -0.353 N 
ATOM     14  H   LIG d   1       7.518   0.798  -6.709  0.00  0.00     0.166 HD
ATOM     15  H   LIG d   1      10.669   4.902  -5.043  0.00  0.00     0.065 H 
ATOM     16  H   LIG d   1      10.891   4.965  -7.867  0.00  0.00     0.062 H 
ATOM     17  H   LIG d   1      10.710   4.552 -10.283  0.00  0.00     0.062 H 
ATOM     18  H   LIG d   1       9.307   2.716 -11.125  0.00  0.00     0.062 H 
ATOM     19  H   LIG d   1       8.073   1.278  -9.568  0.00  0.00     0.064 H 
ENDROOT
BRANCH   1  20
ATOM     20  C   LIG d   1       7.397   0.863  -3.851  0.00  0.00    -0.004 C 
ATOM     21  H   LIG d   1       7.929   0.153  -3.201  0.00  0.00     0.033 H 
ATOM     22  H   LIG d   1       7.070   0.348  -4.766  0.00  0.00     0.033 H 
BRANCH  20  23
ATOM     23  C   LIG d   1       6.175   1.414  -3.111  0.00  0.00    -0.022 C 
ATOM     24  H   LIG d   1       5.742   2.245  -3.688  0.00  0.00     0.032 H 
ATOM     25  H   LIG d   1       6.481   1.775  -2.118  0.00  0.00     0.032 H 
BRANCH  23  26
ATOM     26  C   LIG d   1       5.148   0.322  -2.955  0.00  0.00    -0.047 A 
ATOM     27  C   LIG d   1       5.552  -0.994  -2.828  0.00  0.00    -0.059 A 
ATOM     28  C   LIG d   1       4.610  -1.995  -2.686  0.00  0.00    -0.061 A 
ATOM     29  H   LIG d   1       6.603  -1.239  -2.840  0.00  0.00     0.062 H 
ATOM     30  C   LIG d   1       3.263  -1.680  -2.670  0.00  0.00    -0.062 A 
ATOM     31  H   LIG d   1       4.925  -3.023  -2.586  0.00  0.00     0.062 H 
ATOM     32  C   LIG d   1       2.860  -0.365  -2.797  0.00  0.00    -0.061 A 
ATOM     33  H   LIG d   1       2.528  -2.462  -2.553  0.00  0.00     0.062 H 
ATOM     34  C   LIG d   1       3.802   0.637  -2.940  0.00  0.00    -0.059 A 
ATOM     35  H   LIG d   1       1.808  -0.118  -2.785  0.00  0.00     0.062 H 
ATOM     36  H   LIG d   1       3.487   1.665  -3.039  0.00  0.00     0.062 H 
ENDBRANCH  23  26
ENDBRANCH  20  23
ENDBRANCH   1  20
BRANCH   5  37
ATOM     37  C   LIG d   1      10.232   4.537  -2.407  0.00  0.00     0.276 C 
ATOM     38  O   LIG d   1       9.930   5.707  -2.277  0.00  0.00    -0.267 OA
ATOM     39  N   LIG d   1      11.079   3.957  -1.533  0.00  0.00    -0.248 N 
ATOM     40  H   LIG d   1      11.352   2.899  -1.651  0.00  0.00     0.169 HD
BRANCH  39  41
ATOM     41  N   LIG d   1      11.598   4.687  -0.501  0.00  0.00    -0.254 NA
ATOM     42  H   LIG d   1      11.714   4.040   0.382  0.00  0.00     0.141 HD
ATOM     43  H   LIG d   1      12.580   5.088  -0.793  0.00  0.00     0.141 HD
ENDBRANCH  39  41
ENDBRANCH   5  37
TORSDOF 5
ENDMDL
MODEL 5
REMARK VINA RESULT:      -7.3      3.943      6.713
REMARK  5 active torsions:
REMARK  status: ('A' for Active; 'I' for Inactive)
REMARK    1  A    between atoms: C_4  and  C_7 
REMARK    2  A    between atoms: C_7  and  C_8 
REMARK    3  A    between atoms: C_8  and  C_9 
REMARK    4  A    between atoms: C_13  and  C_15 
REMARK       I    between atoms: C_15  and  N_17 
REMARK    5  A    between atoms: N_17  and  N_18 
ROOT
ATOM      1  C   LIG d   1       6.101  -4.131  -4.961  0.00  0.00     0.066 A 
ATOM      2  C   LIG d   1       5.429  -3.055  -4.382  0.00  0.00     0.069 A 
ATOM      3  C   LIG d   1       6.178  -2.091  -3.682  0.00  0.00     0.011 A 
ATOM      4  C   LIG d   1       7.560  -2.241  -3.602  0.00  0.00    -0.021 A 
ATOM      5  C   LIG d   1       8.147  -3.343  -4.214  0.00  0.00     0.128 A 
ATOM      6  N   LIG d   1       7.406  -4.238  -4.864  0.00  0.00    -0.245 NA
ATOM      7  C   LIG d   1       5.217  -1.095  -3.184  0.00  0.00     0.007 A 
ATOM      8  C   LIG d   1       5.345   0.083  -2.451  0.00  0.00    -0.052 A 
ATOM      9  C   LIG d   1       4.225   0.822  -2.139  0.00  0.00    -0.061 A 
ATOM     10  C   LIG d   1       2.972   0.403  -2.562  0.00  0.00    -0.060 A 
ATOM     11  C   LIG d   1       2.830  -0.755  -3.296  0.00  0.00    -0.038 A 
ATOM     12  C   LIG d   1       3.950  -1.515  -3.621  0.00  0.00     0.048 A 
ATOM     13  N   LIG d   1       4.102  -2.693  -4.331  0.00  0.00    -0.353 N 
ATOM     14  H   LIG d   1       3.340  -3.320  -4.818  0.00  0.00     0.166 HD
ATOM     15  H   LIG d   1       8.163  -1.516  -3.075  0.00  0.00     0.065 H 
ATOM     16  H   LIG d   1       6.320   0.412  -2.121  0.00  0.00     0.062 H 
ATOM     17  H   LIG d   1       4.322   1.730  -1.564  0.00  0.00     0.062 H 
ATOM     18  H   LIG d   1       2.100   0.988  -2.312  0.00  0.00     0.062 H 
ATOM     19  H   LIG d   1       1.850  -1.071  -3.619  0.00  0.00     0.064 H 
ENDROOT
BRANCH   1  20
ATOM     20  C   LIG d   1       5.322  -5.180  -5.712  0.00  0.00    -0.004 C 
ATOM     21  H   LIG d   1       4.804  -4.713  -6.563  0.00  0.00     0.033 H 
ATOM     22  H   LIG d   1       4.583  -5.639  -5.040  0.00  0.00     0.033 H 
BRANCH  20  23
ATOM     23  C   LIG d   1       6.281  -6.256  -6.227  0.00  0.00    -0.022 C 
ATOM     24  H   LIG d   1       7.316  -5.890  -6.155  0.00  0.00     0.032 H 
ATOM     25  H   LIG d   1       6.045  -6.485  -7.277  0.00  0.00     0.032 H 
BRANCH  23  26
ATOM     26  C   LIG d   1       6.130  -7.503  -5.394  0.00  0.00    -0.047 A 
ATOM     27  C   LIG d   1       7.219  -8.018  -4.716  0.00  0.00    -0.059 A 
ATOM     28  C   LIG d   1       7.081  -9.161  -3.952  0.00  0.00    -0.061 A 
ATOM     29  H   LIG d   1       8.177  -7.525  -4.782  0.00  0.00     0.062 H 
ATOM     30  C   LIG d   1       5.852  -9.791  -3.867  0.00  0.00    -0.062 A 
ATOM     31  H   LIG d   1       7.931  -9.563  -3.422  0.00  0.00     0.062 H 
ATOM     32  C   LIG d   1       4.763  -9.277  -4.545  0.00  0.00    -0.061 A 
ATOM     33  H   LIG d   1       5.743 -10.681  -3.266  0.00  0.00     0.062 H 
ATOM     34  C   LIG d   1       4.902  -8.133  -5.309  0.00  0.00    -0.059 A 
ATOM     35  H   LIG d   1       3.804  -9.768  -4.479  0.00  0.00     0.062 H 
ATOM     36  H   LIG d   1       4.051  -7.731  -5.839  0.00  0.00     0.062 H 
ENDBRANCH  23  26
ENDBRANCH  20  23
ENDBRANCH   1  20
BRANCH   5  37
ATOM     37  C   LIG d   1       9.614  -3.525  -4.142  0.00  0.00     0.276 C 
ATOM     38  O   LIG d   1      10.295  -3.365  -5.136  0.00  0.00    -0.267 OA
ATOM     39  N   LIG d   1      10.193  -3.866  -2.974  0.00  0.00    -0.248 N 
ATOM     40  H   LIG d   1       9.577  -4.010  -2.075  0.00  0.00     0.169 HD
BRANCH  39  41
ATOM     41  N   LIG d   1      11.547  -4.033  -2.908  0.00  0.00    -0.254 NA
ATOM     42  H   LIG d   1      12.045  -3.203  -3.433  0.00  0.00     0.141 HD
ATOM     43  H   LIG d   1      11.866  -4.044  -1.855  0.00  0.00     0.141 HD
ENDBRANCH  39  41
ENDBRANCH   5  37
TORSDOF 5
ENDMDL
MODEL 6
REMARK VINA RESULT:      -7.1      2.412      5.565
REMARK  5 active torsions:
REMARK  status: ('A' for Active; 'I' for Inactive)
REMARK    1  A    between atoms: C_4  and  C_7 
REMARK    2  A    between atoms: C_7  and  C_8 
REMARK    3  A    between atoms: C_8  and  C_9 
REMARK    4  A    between atoms: C_13  and  C_15 
REMARK       I    between atoms: C_15  and  N_17 
REMARK    5  A    between atoms: N_17  and  N_18 
ROOT
ATOM      1  C   LIG d   1       4.849  -3.359  -5.597  0.00  0.00     0.066 A 
ATOM      2  C   LIG d   1       4.797  -4.714  -5.923  0.00  0.00     0.069 A 
ATOM      3  C   LIG d   1       4.321  -5.084  -7.194  0.00  0.00     0.011 A 
ATOM      4  C   LIG d   1       3.931  -4.085  -8.082  0.00  0.00    -0.021 A 
ATOM      5  C   LIG d   1       4.023  -2.758  -7.676  0.00  0.00     0.128 A 
ATOM      6  N   LIG d   1       4.473  -2.446  -6.462  0.00  0.00    -0.245 NA
ATOM      7  C   LIG d   1       4.372  -6.553  -7.249  0.00  0.00     0.007 A 
ATOM      8  C   LIG d   1       4.057  -7.490  -8.231  0.00  0.00    -0.052 A 
ATOM      9  C   LIG d   1       4.226  -8.833  -7.976  0.00  0.00    -0.061 A 
ATOM     10  C   LIG d   1       4.721  -9.255  -6.751  0.00  0.00    -0.060 A 
ATOM     11  C   LIG d   1       5.048  -8.339  -5.774  0.00  0.00    -0.038 A 
ATOM     12  C   LIG d   1       4.883  -6.978  -6.012  0.00  0.00     0.048 A 
ATOM     13  N   LIG d   1       5.124  -5.860  -5.233  0.00  0.00    -0.353 N 
ATOM     14  H   LIG d   1       5.515  -5.793  -4.207  0.00  0.00     0.166 HD
ATOM     15  H   LIG d   1       3.566  -4.336  -9.067  0.00  0.00     0.065 H 
ATOM     16  H   LIG d   1       3.671  -7.165  -9.186  0.00  0.00     0.062 H 
ATOM     17  H   LIG d   1       3.973  -9.561  -8.733  0.00  0.00     0.062 H 
ATOM     18  H   LIG d   1       4.850 -10.310  -6.560  0.00  0.00     0.062 H 
ATOM     19  H   LIG d   1       5.432  -8.678  -4.824  0.00  0.00     0.064 H 
ENDROOT
BRANCH   1  20
ATOM     20  C   LIG d   1       5.350  -2.937  -4.240  0.00  0.00    -0.004 C 
ATOM     21  H   LIG d   1       5.911  -1.995  -4.333  0.00  0.00     0.033 H 
ATOM     22  H   LIG d   1       6.009  -3.718  -3.833  0.00  0.00     0.033 H 
BRANCH  20  23
ATOM     23  C   LIG d   1       4.161  -2.731  -3.299  0.00  0.00    -0.022 C 
ATOM     24  H   LIG d   1       4.335  -3.282  -2.363  0.00  0.00     0.032 H 
ATOM     25  H   LIG d   1       3.245  -3.104  -3.779  0.00  0.00     0.032 H 
BRANCH  23  26
ATOM     26  C   LIG d   1       4.008  -1.262  -2.996  0.00  0.00    -0.047 A 
ATOM     27  C   LIG d   1       3.235  -0.464  -3.818  0.00  0.00    -0.059 A 
ATOM     28  C   LIG d   1       3.095   0.883  -3.541  0.00  0.00    -0.061 A 
ATOM     29  H   LIG d   1       2.740  -0.893  -4.677  0.00  0.00     0.062 H 
ATOM     30  C   LIG d   1       3.729   1.431  -2.441  0.00  0.00    -0.062 A 
ATOM     31  H   LIG d   1       2.492   1.506  -4.183  0.00  0.00     0.062 H 
ATOM     32  C   LIG d   1       4.502   0.633  -1.619  0.00  0.00    -0.061 A 
ATOM     33  H   LIG d   1       3.615   2.482  -2.222  0.00  0.00     0.062 H 
ATOM     34  C   LIG d   1       4.642  -0.714  -1.896  0.00  0.00    -0.059 A 
ATOM     35  H   LIG d   1       4.996   1.061  -0.760  0.00  0.00     0.062 H 
ATOM     36  H   LIG d   1       5.246  -1.338  -1.254  0.00  0.00     0.062 H 
ENDBRANCH  23  26
ENDBRANCH  20  23
ENDBRANCH   1  20
BRANCH   5  37
ATOM     37  C   LIG d   1       3.613  -1.680  -8.602  0.00  0.00     0.276 C 
ATOM     38  O   LIG d   1       4.154  -1.572  -9.686  0.00  0.00    -0.267 OA
ATOM     39  N   LIG d   1       2.641  -0.818  -8.245  0.00  0.00    -0.248 N 
ATOM     40  H   LIG d   1       2.152  -0.915  -7.265  0.00  0.00     0.169 HD
BRANCH  39  41
ATOM     41  N   LIG d   1       2.264   0.178  -9.101  0.00  0.00    -0.254 NA
ATOM     42  H   LIG d   1       2.121  -0.241 -10.109  0.00  0.00     0.141 HD
ATOM     43  H   LIG d   1       1.321   0.625  -8.753  0.00  0.00     0.141 HD
ENDBRANCH  39  41
ENDBRANCH   5  37
TORSDOF 5
ENDMDL
MODEL 7
REMARK VINA RESULT:      -7.1      1.970      5.280
REMARK  5 active torsions:
REMARK  status: ('A' for Active; 'I' for Inactive)
REMARK    1  A    between atoms: C_4  and  C_7 
REMARK    2  A    between atoms: C_7  and  C_8 
REMARK    3  A    between atoms: C_8  and  C_9 
REMARK    4  A    between atoms: C_13  and  C_15 
REMARK       I    between atoms: C_15  and  N_17 
REMARK    5  A    between atoms: N_17  and  N_18 
ROOT
ATOM      1  C   LIG d   1       4.724  -2.509  -6.799  0.00  0.00     0.066 A 
ATOM      2  C   LIG d   1       4.500  -1.641  -5.731  0.00  0.00     0.069 A 
ATOM      3  C   LIG d   1       5.273  -1.794  -4.565  0.00  0.00     0.011 A 
ATOM      4  C   LIG d   1       6.239  -2.796  -4.526  0.00  0.00    -0.021 A 
ATOM      5  C   LIG d   1       6.399  -3.612  -5.640  0.00  0.00     0.128 A 
ATOM      6  N   LIG d   1       5.645  -3.442  -6.724  0.00  0.00    -0.245 NA
ATOM      7  C   LIG d   1       4.817  -0.761  -3.623  0.00  0.00     0.007 A 
ATOM      8  C   LIG d   1       5.201  -0.398  -2.334  0.00  0.00    -0.052 A 
ATOM      9  C   LIG d   1       4.570   0.650  -1.699  0.00  0.00    -0.061 A 
ATOM     10  C   LIG d   1       3.562   1.351  -2.344  0.00  0.00    -0.060 A 
ATOM     11  C   LIG d   1       3.178   1.011  -3.623  0.00  0.00    -0.038 A 
ATOM     12  C   LIG d   1       3.803  -0.045  -4.280  0.00  0.00     0.048 A 
ATOM     13  N   LIG d   1       3.627  -0.594  -5.538  0.00  0.00    -0.353 N 
ATOM     14  H   LIG d   1       2.924  -0.309  -6.334  0.00  0.00     0.166 HD
ATOM     15  H   LIG d   1       6.852  -2.935  -3.647  0.00  0.00     0.065 H 
ATOM     16  H   LIG d   1       5.986  -0.942  -1.829  0.00  0.00     0.062 H 
ATOM     17  H   LIG d   1       4.861   0.926  -0.697  0.00  0.00     0.062 H 
ATOM     18  H   LIG d   1       3.073   2.170  -1.838  0.00  0.00     0.062 H 
ATOM     19  H   LIG d   1       2.392   1.563  -4.115  0.00  0.00     0.064 H 
ENDROOT
BRANCH   1  20
ATOM     20  C   LIG d   1       3.906  -2.370  -8.057  0.00  0.00    -0.004 C 
ATOM     21  H   LIG d   1       2.993  -1.796  -7.841  0.00  0.00     0.033 H 
ATOM     22  H   LIG d   1       3.632  -3.369  -8.428  0.00  0.00     0.033 H 
BRANCH  20  23
ATOM     23  C   LIG d   1       4.728  -1.639  -9.122  0.00  0.00    -0.022 C 
ATOM     24  H   LIG d   1       4.508  -2.066 -10.112  0.00  0.00     0.032 H 
ATOM     25  H   LIG d   1       5.800  -1.756  -8.902  0.00  0.00     0.032 H 
BRANCH  23  26
ATOM     26  C   LIG d   1       4.369  -0.175  -9.115  0.00  0.00    -0.047 A 
ATOM     27  C   LIG d   1       5.365   0.781  -9.176  0.00  0.00    -0.059 A 
ATOM     28  C   LIG d   1       5.036   2.124  -9.169  0.00  0.00    -0.061 A 
ATOM     29  H   LIG d   1       6.400   0.479  -9.229  0.00  0.00     0.062 H 
ATOM     30  C   LIG d   1       3.710   2.510  -9.102  0.00  0.00    -0.062 A 
ATOM     31  H   LIG d   1       5.814   2.870  -9.217  0.00  0.00     0.062 H 
ATOM     32  C   LIG d   1       2.714   1.553  -9.041  0.00  0.00    -0.061 A 
ATOM     33  H   LIG d   1       3.453   3.558  -9.102  0.00  0.00     0.062 H 
ATOM     34  C   LIG d   1       3.043   0.211  -9.048  0.00  0.00    -0.059 A 
ATOM     35  H   LIG d   1       1.678   1.855  -8.988  0.00  0.00     0.062 H 
ATOM     36  H   LIG d   1       2.265  -0.537  -9.000  0.00  0.00     0.062 H 
ENDBRANCH  23  26
ENDBRANCH  20  23
ENDBRANCH   1  20
BRANCH   5  37
ATOM     37  C   LIG d   1       7.418  -4.684  -5.620  0.00  0.00     0.276 C 
ATOM     38  O   LIG d   1       8.081  -4.874  -4.619  0.00  0.00    -0.267 OA
ATOM     39  N   LIG d   1       7.610  -5.451  -6.712  0.00  0.00    -0.248 N 
ATOM     40  H   LIG d   1       7.010  -5.279  -7.618  0.00  0.00     0.169 HD
BRANCH  39  41
ATOM     41  N   LIG d   1       8.552  -6.440  -6.693  0.00  0.00    -0.254 NA
ATOM     42  H   LIG d   1       8.213  -7.256  -6.037  0.00  0.00     0.141 HD
ATOM     43  H   LIG d   1       8.699  -6.827  -7.713  0.00  0.00     0.141 HD
ENDBRANCH  39  41
ENDBRANCH   5  37
TORSDOF 5
ENDMDL
MODEL 8
REMARK VINA RESULT:      -7.1      2.065      6.225
REMARK  5 active torsions:
REMARK  status: ('A' for Active; 'I' for Inactive)
REMARK    1  A    between atoms: C_4  and  C_7 
REMARK    2  A    between atoms: C_7  and  C_8 
REMARK    3  A    between atoms: C_8  and  C_9 
REMARK    4  A    between atoms: C_13  and  C_15 
REMARK       I    between atoms: C_15  and  N_17 
REMARK    5  A    between atoms: N_17  and  N_18 
ROOT
ATOM      1  C   LIG d   1       4.357  -1.094  -7.593  0.00  0.00     0.066 A 
ATOM      2  C   LIG d   1       4.388  -0.861  -6.218  0.00  0.00     0.069 A 
ATOM      3  C   LIG d   1       4.405  -1.966  -5.348  0.00  0.00     0.011 A 
ATOM      4  C   LIG d   1       4.401  -3.249  -5.890  0.00  0.00    -0.021 A 
ATOM      5  C   LIG d   1       4.375  -3.388  -7.273  0.00  0.00     0.128 A 
ATOM      6  N   LIG d   1       4.354  -2.319  -8.066  0.00  0.00    -0.245 NA
ATOM      7  C   LIG d   1       4.429  -1.422  -3.982  0.00  0.00     0.007 A 
ATOM      8  C   LIG d   1       4.471  -2.003  -2.716  0.00  0.00    -0.052 A 
ATOM      9  C   LIG d   1       4.495  -1.202  -1.594  0.00  0.00    -0.061 A 
ATOM     10  C   LIG d   1       4.489   0.179  -1.722  0.00  0.00    -0.060 A 
ATOM     11  C   LIG d   1       4.459   0.767  -2.968  0.00  0.00    -0.038 A 
ATOM     12  C   LIG d   1       4.434  -0.024  -4.112  0.00  0.00     0.048 A 
ATOM     13  N   LIG d   1       4.403   0.288  -5.460  0.00  0.00    -0.353 N 
ATOM     14  H   LIG d   1       4.390   1.272  -5.951  0.00  0.00     0.166 HD
ATOM     15  H   LIG d   1       4.417  -4.118  -5.248  0.00  0.00     0.065 H 
ATOM     16  H   LIG d   1       4.475  -3.078  -2.613  0.00  0.00     0.062 H 
ATOM     17  H   LIG d   1       4.517  -1.651  -0.613  0.00  0.00     0.062 H 
ATOM     18  H   LIG d   1       4.507   0.798  -0.838  0.00  0.00     0.062 H 
ATOM     19  H   LIG d   1       4.454   1.843  -3.055  0.00  0.00     0.064 H 
ENDROOT
BRANCH   1  20
ATOM     20  C   LIG d   1       4.334   0.072  -8.547  0.00  0.00    -0.004 C 
ATOM     21  H   LIG d   1       4.910  -0.181  -9.450  0.00  0.00     0.033 H 
ATOM     22  H   LIG d   1       4.780   0.952  -8.061  0.00  0.00     0.033 H 
BRANCH  20  23
ATOM     23  C   LIG d   1       2.886   0.383  -8.937  0.00  0.00    -0.022 C 
ATOM     24  H   LIG d   1       2.760   1.472  -9.037  0.00  0.00     0.032 H 
ATOM     25  H   LIG d   1       2.208   0.006  -8.157  0.00  0.00     0.032 H 
BRANCH  23  26
ATOM     26  C   LIG d   1       2.565  -0.283 -10.250  0.00  0.00    -0.047 A 
ATOM     27  C   LIG d   1       1.328  -0.867 -10.444  0.00  0.00    -0.059 A 
ATOM     28  C   LIG d   1       1.033  -1.478 -11.649  0.00  0.00    -0.061 A 
ATOM     29  H   LIG d   1       0.591  -0.845  -9.655  0.00  0.00     0.062 H 
ATOM     30  C   LIG d   1       1.977  -1.505 -12.659  0.00  0.00    -0.062 A 
ATOM     31  H   LIG d   1       0.067  -1.935 -11.801  0.00  0.00     0.062 H 
ATOM     32  C   LIG d   1       3.215  -0.920 -12.464  0.00  0.00    -0.061 A 
ATOM     33  H   LIG d   1       1.746  -1.977 -13.601  0.00  0.00     0.062 H 
ATOM     34  C   LIG d   1       3.509  -0.309 -11.260  0.00  0.00    -0.059 A 
ATOM     35  H   LIG d   1       3.952  -0.941 -13.254  0.00  0.00     0.062 H 
ATOM     36  H   LIG d   1       4.476   0.147 -11.108  0.00  0.00     0.062 H 
ENDBRANCH  23  26
ENDBRANCH  20  23
ENDBRANCH   1  20
BRANCH   5  37
ATOM     37  C   LIG d   1       4.369  -4.741  -7.871  0.00  0.00     0.276 C 
ATOM     38  O   LIG d   1       5.411  -5.352  -8.003  0.00  0.00    -0.267 OA
ATOM     39  N   LIG d   1       3.207  -5.296  -8.270  0.00  0.00    -0.248 N 
ATOM     40  H   LIG d   1       2.264  -4.744  -8.151  0.00  0.00     0.169 HD
BRANCH  39  41
ATOM     41  N   LIG d   1       3.203  -6.546  -8.823  0.00  0.00    -0.254 NA
ATOM     42  H   LIG d   1       3.526  -7.280  -8.070  0.00  0.00     0.141 HD
ATOM     43  H   LIG d   1       2.186  -6.794  -9.163  0.00  0.00     0.141 HD
ENDBRANCH  39  41
ENDBRANCH   5  37
TORSDOF 5
ENDMDL
MODEL 9
REMARK VINA RESULT:      -7.0      2.933      6.475
REMARK  5 active torsions:
REMARK  status: ('A' for Active; 'I' for Inactive)
REMARK    1  A    between atoms: C_4  and  C_7 
REMARK    2  A    between atoms: C_7  and  C_8 
REMARK    3  A    between atoms: C_8  and  C_9 
REMARK    4  A    between atoms: C_13  and  C_15 
REMARK       I    between atoms: C_15  and  N_17 
REMARK    5  A    between atoms: N_17  and  N_18 
ROOT
ATOM      1  C   LIG d   1       4.299  -0.721  -4.896  0.00  0.00     0.066 A 
ATOM      2  C   LIG d   1       4.708  -2.042  -5.079  0.00  0.00     0.069 A 
ATOM      3  C   LIG d   1       6.061  -2.364  -4.865  0.00  0.00     0.011 A 
ATOM      4  C   LIG d   1       6.937  -1.358  -4.468  0.00  0.00    -0.021 A 
ATOM      5  C   LIG d   1       6.442  -0.069  -4.304  0.00  0.00     0.128 A 
ATOM      6  N   LIG d   1       5.156   0.200  -4.521  0.00  0.00    -0.245 NA
ATOM      7  C   LIG d   1       6.196  -3.804  -5.136  0.00  0.00     0.007 A 
ATOM      8  C   LIG d   1       7.265  -4.697  -5.081  0.00  0.00    -0.052 A 
ATOM      9  C   LIG d   1       7.066  -6.024  -5.394  0.00  0.00    -0.061 A 
ATOM     10  C   LIG d   1       5.805  -6.476  -5.752  0.00  0.00    -0.060 A 
ATOM     11  C   LIG d   1       4.736  -5.606  -5.801  0.00  0.00    -0.038 A 
ATOM     12  C   LIG d   1       4.917  -4.262  -5.489  0.00  0.00     0.048 A 
ATOM     13  N   LIG d   1       4.045  -3.189  -5.453  0.00  0.00    -0.353 N 
ATOM     14  H   LIG d   1       2.967  -3.154  -5.674  0.00  0.00     0.166 HD
ATOM     15  H   LIG d   1       7.981  -1.574  -4.292  0.00  0.00     0.065 H 
ATOM     16  H   LIG d   1       8.249  -4.348  -4.802  0.00  0.00     0.062 H 
ATOM     17  H   LIG d   1       7.895  -6.715  -5.361  0.00  0.00     0.062 H 
ATOM     18  H   LIG d   1       5.659  -7.517  -5.997  0.00  0.00     0.062 H 
ATOM     19  H   LIG d   1       3.759  -5.969  -6.082  0.00  0.00     0.064 H 
ENDROOT
BRANCH   1  20
ATOM     20  C   LIG d   1       2.857  -0.349  -5.123  0.00  0.00    -0.004 C 
ATOM     21  H   LIG d   1       2.336  -0.289  -4.156  0.00  0.00     0.033 H 
ATOM     22  H   LIG d   1       2.376  -1.112  -5.753  0.00  0.00     0.033 H 
BRANCH  20  23
ATOM     23  C   LIG d   1       2.786   1.010  -5.825  0.00  0.00    -0.022 C 
ATOM     24  H   LIG d   1       3.646   1.625  -5.520  0.00  0.00     0.032 H 
ATOM     25  H   LIG d   1       1.852   1.519  -5.544  0.00  0.00     0.032 H 
BRANCH  23  26
ATOM     26  C   LIG d   1       2.818   0.806  -7.318  0.00  0.00    -0.047 A 
ATOM     27  C   LIG d   1       3.066   1.877  -8.157  0.00  0.00    -0.059 A 
ATOM     28  C   LIG d   1       3.095   1.690  -9.526  0.00  0.00    -0.061 A 
ATOM     29  H   LIG d   1       3.237   2.859  -7.741  0.00  0.00     0.062 H 
ATOM     30  C   LIG d   1       2.876   0.432 -10.056  0.00  0.00    -0.062 A 
ATOM     31  H   LIG d   1       3.288   2.526 -10.181  0.00  0.00     0.062 H 
ATOM     32  C   LIG d   1       2.629  -0.638  -9.218  0.00  0.00    -0.061 A 
ATOM     33  H   LIG d   1       2.905   0.285 -11.125  0.00  0.00     0.062 H 
ATOM     34  C   LIG d   1       2.600  -0.452  -7.849  0.00  0.00    -0.059 A 
ATOM     35  H   LIG d   1       2.459  -1.621  -9.632  0.00  0.00     0.062 H 
ATOM     36  H   LIG d   1       2.407  -1.288  -7.193  0.00  0.00     0.062 H 
ENDBRANCH  23  26
ENDBRANCH  20  23
ENDBRANCH   1  20
BRANCH   5  37
ATOM     37  C   LIG d   1       7.354   1.018  -3.885  0.00  0.00     0.276 C 
ATOM     38  O   LIG d   1       6.900   2.075  -3.495  0.00  0.00    -0.267 OA
ATOM     39  N   LIG d   1       8.688   0.833  -3.934  0.00  0.00    -0.248 N 
ATOM     40  H   LIG d   1       9.099  -0.124  -4.286  0.00  0.00     0.169 HD
BRANCH  39  41
ATOM     41  N   LIG d   1       9.530   1.837  -3.547  0.00  0.00    -0.254 NA
ATOM     42  H   LIG d   1       9.873   2.390  -4.434  0.00  0.00     0.141 HD
ATOM     43  H   LIG d   1       8.997   2.524  -2.872  0.00  0.00     0.141 HD
ENDBRANCH  39  41
ENDBRANCH   5  37
TORSDOF 5
ENDMDL
MODEL 10
REMARK VINA RESULT:      -6.8      3.503      5.833
REMARK  5 active torsions:
REMARK  status: ('A' for Active; 'I' for Inactive)
REMARK    1  A    between atoms: C_4  and  C_7 
REMARK    2  A    between atoms: C_7  and  C_8 
REMARK    3  A    between atoms: C_8  and  C_9 
REMARK    4  A    between atoms: C_13  and  C_15 
REMARK       I    between atoms: C_15  and  N_17 
REMARK    5  A    between atoms: N_17  and  N_18 
ROOT
ATOM      1  C   LIG d   1       7.582  -3.430  -4.346  0.00  0.00     0.066 A 
ATOM      2  C   LIG d   1       6.696  -2.464  -3.869  0.00  0.00     0.069 A 
ATOM      3  C   LIG d   1       5.328  -2.601  -4.165  0.00  0.00     0.011 A 
ATOM      4  C   LIG d   1       4.907  -3.699  -4.910  0.00  0.00    -0.021 A 
ATOM      5  C   LIG d   1       5.859  -4.617  -5.340  0.00  0.00     0.128 A 
ATOM      6  N   LIG d   1       7.147  -4.452  -5.046  0.00  0.00    -0.245 NA
ATOM      7  C   LIG d   1       4.650  -1.450  -3.549  0.00  0.00     0.007 A 
ATOM      8  C   LIG d   1       3.319  -1.043  -3.476  0.00  0.00    -0.052 A 
ATOM      9  C   LIG d   1       2.990   0.111  -2.800  0.00  0.00    -0.061 A 
ATOM     10  C   LIG d   1       3.978   0.863  -2.181  0.00  0.00    -0.060 A 
ATOM     11  C   LIG d   1       5.297   0.468  -2.235  0.00  0.00    -0.038 A 
ATOM     12  C   LIG d   1       5.649  -0.695  -2.914  0.00  0.00     0.048 A 
ATOM     13  N   LIG d   1       6.866  -1.318  -3.125  0.00  0.00    -0.353 N 
ATOM     14  H   LIG d   1       7.872  -1.022  -2.791  0.00  0.00     0.166 HD
ATOM     15  H   LIG d   1       3.862  -3.835  -5.149  0.00  0.00     0.065 H 
ATOM     16  H   LIG d   1       2.547  -1.627  -3.957  0.00  0.00     0.062 H 
ATOM     17  H   LIG d   1       1.961   0.432  -2.751  0.00  0.00     0.062 H 
ATOM     18  H   LIG d   1       3.711   1.767  -1.654  0.00  0.00     0.062 H 
ATOM     19  H   LIG d   1       6.058   1.061  -1.750  0.00  0.00     0.064 H 
ENDROOT
BRANCH   1  20
ATOM     20  C   LIG d   1       9.054  -3.304  -4.048  0.00  0.00    -0.004 C 
ATOM     21  H   LIG d   1       9.380  -2.271  -4.237  0.00  0.00     0.033 H 
ATOM     22  H   LIG d   1       9.619  -3.992  -4.695  0.00  0.00     0.033 H 
BRANCH  20  23
ATOM     23  C   LIG d   1       9.310  -3.659  -2.581  0.00  0.00    -0.022 C 
ATOM     24  H   LIG d   1       8.349  -3.819  -2.070  0.00  0.00     0.032 H 
ATOM     25  H   LIG d   1       9.851  -2.834  -2.094  0.00  0.00     0.032 H 
BRANCH  23  26
ATOM     26  C   LIG d   1      10.135  -4.917  -2.505  0.00  0.00    -0.047 A 
ATOM     27  C   LIG d   1       9.769  -5.934  -1.643  0.00  0.00    -0.059 A 
ATOM     28  C   LIG d   1      10.527  -7.088  -1.573  0.00  0.00    -0.061 A 
ATOM     29  H   LIG d   1       8.890  -5.826  -1.025  0.00  0.00     0.062 H 
ATOM     30  C   LIG d   1      11.652  -7.225  -2.366  0.00  0.00    -0.062 A 
ATOM     31  H   LIG d   1      10.241  -7.881  -0.900  0.00  0.00     0.062 H 
ATOM     32  C   LIG d   1      12.018  -6.208  -3.228  0.00  0.00    -0.061 A 
ATOM     33  H   LIG d   1      12.240  -8.128  -2.315  0.00  0.00     0.062 H 
ATOM     34  C   LIG d   1      11.260  -5.054  -3.298  0.00  0.00    -0.059 A 
ATOM     35  H   LIG d   1      12.896  -6.315  -3.847  0.00  0.00     0.062 H 
ATOM     36  H   LIG d   1      11.546  -4.260  -3.971  0.00  0.00     0.062 H 
ENDBRANCH  23  26
ENDBRANCH  20  23
ENDBRANCH   1  20
BRANCH   5  37
ATOM     37  C   LIG d   1       5.437  -5.792  -6.134  0.00  0.00     0.276 C 
ATOM     38  O   LIG d   1       5.803  -5.908  -7.287  0.00  0.00    -0.267 OA
ATOM     39  N   LIG d   1       4.647  -6.732  -5.578  0.00  0.00    -0.248 N 
ATOM     40  H   LIG d   1       4.316  -6.626  -4.535  0.00  0.00     0.169 HD
BRANCH  39  41
ATOM     41  N   LIG d   1       4.256  -7.815  -6.313  0.00  0.00    -0.254 NA
ATOM     42  H   LIG d   1       4.174  -7.529  -7.372  0.00  0.00     0.141 HD
ATOM     43  H   LIG d   1       5.002  -8.618  -6.208  0.00  0.00     0.141 HD
ENDBRANCH  39  41
ENDBRANCH   5  37
TORSDOF 5
ENDMDL
