MODEL 1
REMARK VINA RESULT:      -7.4      0.000      0.000
REMARK  9 active torsions:
REMARK  status: ('A' for Active; 'I' for Inactive)
REMARK    1  A    between atoms: C_1  and  C_2 
REMARK    2  A    between atoms: C_2  and  C_3 
REMARK       I    between atoms: C_3  and  N_5 
REMARK    3  A    between atoms: C_15  and  C_17 
REMARK    4  A    between atoms: C_20  and  C_23 
REMARK    5  A    between atoms: C_23  and  O_25 
REMARK    6  A    between atoms: O_25  and  C_26 
REMARK    7  A    between atoms: C_30  and  C_33 
REMARK    8  A    between atoms: C_36  and  O_39 
REMARK    9  A    between atoms: O_39  and  C_40 
ROOT
ATOM      1  C   LIG d   1       4.758  -0.456  -6.741  0.00  0.00     0.220 C 
ATOM      2  O   LIG d   1       5.181  -0.335  -7.871  0.00  0.00    -0.275 OA
ATOM      3  N   LIG d   1       5.613  -0.654  -5.719  0.00  0.00    -0.258 N 
ATOM      4  C   LIG d   1       5.117  -0.791  -4.422  0.00  0.00     0.058 A 
ATOM      5  C   LIG d   1       4.328  -1.871  -4.059  0.00  0.00    -0.038 A 
ATOM      6  C   LIG d   1       3.914  -1.999  -2.744  0.00  0.00    -0.060 A 
ATOM      7  C   LIG d   1       4.273  -1.052  -1.801  0.00  0.00    -0.060 A 
ATOM      8  C   LIG d   1       5.047   0.036  -2.165  0.00  0.00    -0.039 A 
ATOM      9  C   LIG d   1       5.453   0.171  -3.482  0.00  0.00     0.053 A 
ATOM     10  N   LIG d   1       6.143   1.288  -3.934  0.00  0.00    -0.316 N 
ATOM     11  C   LIG d   1       7.400   1.272  -4.443  0.00  0.00     0.017 C 
ATOM     12  C   LIG d   1       7.842   0.395  -5.360  0.00  0.00     0.037 C 
ATOM     13  C   LIG d   1       7.036  -0.720  -5.982  0.00  0.00     0.086 C 
ATOM     14  H   LIG d   1       7.189  -0.694  -7.060  0.00  0.00     0.061 H 
ATOM     15  C   LIG d   1       9.176   0.467  -5.829  0.00  0.00     0.163 C 
ATOM     16  O   LIG d   1       9.544  -0.326  -6.675  0.00  0.00    -0.292 OA
ATOM     17  C   LIG d   1      10.150   1.486  -5.320  0.00  0.00     0.017 C 
ATOM     18  C   LIG d   1       9.762   1.855  -3.882  0.00  0.00    -0.004 C 
ATOM     19  H   LIG d   1       9.838   0.976  -3.243  0.00  0.00     0.036 H 
ATOM     20  C   LIG d   1       8.319   2.356  -3.905  0.00  0.00    -0.007 C 
ATOM     21  H   LIG d   1       4.043  -2.609  -4.794  0.00  0.00     0.064 H 
ATOM     22  H   LIG d   1       3.303  -2.840  -2.454  0.00  0.00     0.062 H 
ATOM     23  H   LIG d   1       3.954  -1.167  -0.777  0.00  0.00     0.062 H 
ATOM     24  H   LIG d   1       5.332   0.773  -1.428  0.00  0.00     0.064 H 
ATOM     25  H   LIG d   1       5.691   2.145  -3.883  0.00  0.00     0.152 HD
ATOM     26  H   LIG d   1      11.073   1.103  -5.337  0.00  0.00     0.035 H 
ATOM     27  H   LIG d   1      10.114   2.374  -5.952  0.00  0.00     0.035 H 
ATOM     28  H   LIG d   1       8.013   2.621  -2.893  0.00  0.00     0.033 H 
ATOM     29  H   LIG d   1       8.251   3.235  -4.546  0.00  0.00     0.033 H 
ENDROOT
BRANCH  13  30
ATOM     30  C   LIG d   1       7.557  -2.034  -5.458  0.00  0.00    -0.022 A 
ATOM     31  C   LIG d   1       7.554  -3.150  -6.275  0.00  0.00    -0.056 A 
ATOM     32  C   LIG d   1       8.029  -4.356  -5.803  0.00  0.00    -0.047 A 
ATOM     33  H   LIG d   1       7.180  -3.078  -7.286  0.00  0.00     0.062 H 
ATOM     34  C   LIG d   1       8.513  -4.448  -4.497  0.00  0.00     0.059 A 
ATOM     35  H   LIG d   1       8.028  -5.227  -6.442  0.00  0.00     0.063 H 
ATOM     36  C   LIG d   1       8.513  -3.318  -3.677  0.00  0.00    -0.047 A 
ATOM     37  C   LIG d   1       8.040  -2.117  -4.165  0.00  0.00    -0.056 A 
ATOM     38  H   LIG d   1       8.886  -3.383  -2.665  0.00  0.00     0.063 H 
ATOM     39  H   LIG d   1       8.042  -1.241  -3.532  0.00  0.00     0.062 H 
BRANCH  34  40
ATOM     40  C   LIG d   1       9.023  -5.736  -3.983  0.00  0.00     0.339 C 
ATOM     41  O   LIG d   1       8.501  -6.777  -4.329  0.00  0.00    -0.245 OA
BRANCH  40  42
ATOM     42  O   LIG d   1      10.068  -5.757  -3.134  0.00  0.00    -0.465 OA
BRANCH  42  43
ATOM     43  C   LIG d   1       9.821  -6.267  -1.797  0.00  0.00     0.082 C 
ATOM     44  H   LIG d   1      10.375  -7.195  -1.654  0.00  0.00     0.066 H 
ATOM     45  H   LIG d   1      10.147  -5.532  -1.061  0.00  0.00     0.066 H 
ATOM     46  H   LIG d   1       8.755  -6.458  -1.673  0.00  0.00     0.066 H 
ENDBRANCH  42  43
ENDBRANCH  40  42
ENDBRANCH  34  40
ENDBRANCH  13  30
BRANCH   1  47
ATOM     47  C   LIG d   1       3.275  -0.384  -6.479  0.00  0.00     0.022 C 
ATOM     48  H   LIG d   1       2.925  -1.348  -6.113  0.00  0.00     0.036 H 
ATOM     49  H   LIG d   1       3.075   0.384  -5.732  0.00  0.00     0.036 H 
BRANCH  47  50
ATOM     50  C   LIG d   1       2.546  -0.035  -7.778  0.00  0.00    -0.057 C 
ATOM     51  H   LIG d   1       3.227   0.491  -8.447  0.00  0.00     0.023 H 
ATOM     52  H   LIG d   1       2.202  -0.951  -8.258  0.00  0.00     0.023 H 
ATOM     53  H   LIG d   1       1.690   0.602  -7.555  0.00  0.00     0.023 H 
ENDBRANCH  47  50
ENDBRANCH   1  47
BRANCH  18  54
ATOM     54  C   LIG d   1      10.673   2.940  -3.370  0.00  0.00    -0.043 A 
ATOM     55  C   LIG d   1      12.031   2.876  -3.619  0.00  0.00    -0.055 A 
ATOM     56  C   LIG d   1      12.869   3.870  -3.151  0.00  0.00    -0.020 A 
ATOM     57  H   LIG d   1      12.439   2.049  -4.181  0.00  0.00     0.062 H 
ATOM     58  C   LIG d   1      12.345   4.933  -2.428  0.00  0.00     0.120 A 
ATOM     59  H   LIG d   1      13.929   3.819  -3.346  0.00  0.00     0.065 H 
ATOM     60  C   LIG d   1      10.982   4.994  -2.179  0.00  0.00    -0.020 A 
ATOM     61  C   LIG d   1      10.148   4.001  -2.655  0.00  0.00    -0.055 A 
ATOM     62  H   LIG d   1      10.571   5.821  -1.617  0.00  0.00     0.065 H 
ATOM     63  H   LIG d   1       9.086   4.052  -2.465  0.00  0.00     0.062 H 
BRANCH  58  64
ATOM     64  O   LIG d   1      13.167   5.911  -1.966  0.00  0.00    -0.495 OA
BRANCH  64  65
ATOM     65  C   LIG d   1      13.993   5.587  -0.845  0.00  0.00     0.079 C 
ATOM     66  H   LIG d   1      14.118   4.506  -0.786  0.00  0.00     0.066 H 
ATOM     67  H   LIG d   1      14.967   6.061  -0.963  0.00  0.00     0.066 H 
ATOM     68  H   LIG d   1      13.522   5.949   0.070  0.00  0.00     0.066 H 
ENDBRANCH  64  65
ENDBRANCH  58  64
ENDBRANCH  18  54
TORSDOF 9
ENDMDL
MODEL 2
REMARK VINA RESULT:      -6.4      3.379      5.618
REMARK  9 active torsions:
REMARK  status: ('A' for Active; 'I' for Inactive)
REMARK    1  A    between atoms: C_1  and  C_2 
REMARK    2  A    between atoms: C_2  and  C_3 
REMARK       I    between atoms: C_3  and  N_5 
REMARK    3  A    between atoms: C_15  and  C_17 
REMARK    4  A    between atoms: C_20  and  C_23 
REMARK    5  A    between atoms: C_23  and  O_25 
REMARK    6  A    between atoms: O_25  and  C_26 
REMARK    7  A    between atoms: C_30  and  C_33 
REMARK    8  A    between atoms: C_36  and  O_39 
REMARK    9  A    between atoms: O_39  and  C_40 
ROOT
ATOM      1  C   LIG d   1      10.262  -0.601  -6.794  0.00  0.00     0.220 C 
ATOM      2  O   LIG d   1      11.175  -0.867  -6.042  0.00  0.00    -0.275 OA
ATOM      3  N   LIG d   1       9.304   0.266  -6.412  0.00  0.00    -0.258 N 
ATOM      4  C   LIG d   1       8.258   0.565  -7.286  0.00  0.00     0.058 A 
ATOM      5  C   LIG d   1       7.332  -0.394  -7.663  0.00  0.00    -0.038 A 
ATOM      6  C   LIG d   1       6.274  -0.033  -8.479  0.00  0.00    -0.060 A 
ATOM      7  C   LIG d   1       6.145   1.270  -8.925  0.00  0.00    -0.060 A 
ATOM      8  C   LIG d   1       7.078   2.226  -8.563  0.00  0.00    -0.039 A 
ATOM      9  C   LIG d   1       8.143   1.865  -7.756  0.00  0.00     0.053 A 
ATOM     10  N   LIG d   1       9.166   2.749  -7.439  0.00  0.00    -0.316 N 
ATOM     11  C   LIG d   1       9.467   3.174  -6.186  0.00  0.00     0.017 C 
ATOM     12  C   LIG d   1       9.573   2.372  -5.113  0.00  0.00     0.037 C 
ATOM     13  C   LIG d   1       9.375   0.875  -5.100  0.00  0.00     0.086 C 
ATOM     14  H   LIG d   1      10.204   0.424  -4.555  0.00  0.00     0.061 H 
ATOM     15  C   LIG d   1       9.896   2.917  -3.847  0.00  0.00     0.163 C 
ATOM     16  O   LIG d   1      10.005   2.167  -2.896  0.00  0.00    -0.292 OA
ATOM     17  C   LIG d   1      10.107   4.387  -3.638  0.00  0.00     0.017 C 
ATOM     18  C   LIG d   1       9.274   5.151  -4.675  0.00  0.00    -0.004 C 
ATOM     19  H   LIG d   1       8.215   4.944  -4.522  0.00  0.00     0.036 H 
ATOM     20  C   LIG d   1       9.702   4.669  -6.060  0.00  0.00    -0.007 C 
ATOM     21  H   LIG d   1       7.434  -1.413  -7.320  0.00  0.00     0.064 H 
ATOM     22  H   LIG d   1       5.547  -0.775  -8.773  0.00  0.00     0.062 H 
ATOM     23  H   LIG d   1       5.310   1.543  -9.552  0.00  0.00     0.062 H 
ATOM     24  H   LIG d   1       6.975   3.246  -8.907  0.00  0.00     0.064 H 
ATOM     25  H   LIG d   1       9.708   3.088  -8.169  0.00  0.00     0.152 HD
ATOM     26  H   LIG d   1       9.817   4.637  -2.714  0.00  0.00     0.035 H 
ATOM     27  H   LIG d   1      11.163   4.626  -3.764  0.00  0.00     0.035 H 
ATOM     28  H   LIG d   1       9.120   5.192  -6.820  0.00  0.00     0.033 H 
ATOM     29  H   LIG d   1      10.761   4.880  -6.205  0.00  0.00     0.033 H 
ENDROOT
BRANCH  13  30
ATOM     30  C   LIG d   1       8.097   0.570  -4.363  0.00  0.00    -0.022 A 
ATOM     31  C   LIG d   1       7.244   1.600  -4.009  0.00  0.00    -0.056 A 
ATOM     32  C   LIG d   1       6.072   1.329  -3.334  0.00  0.00    -0.047 A 
ATOM     33  H   LIG d   1       7.496   2.620  -4.261  0.00  0.00     0.062 H 
ATOM     34  C   LIG d   1       5.747   0.011  -3.008  0.00  0.00     0.059 A 
ATOM     35  H   LIG d   1       5.407   2.134  -3.058  0.00  0.00     0.063 H 
ATOM     36  C   LIG d   1       6.612  -1.024  -3.369  0.00  0.00    -0.047 A 
ATOM     37  C   LIG d   1       7.778  -0.739  -4.049  0.00  0.00    -0.056 A 
ATOM     38  H   LIG d   1       6.367  -2.047  -3.120  0.00  0.00     0.063 H 
ATOM     39  H   LIG d   1       8.447  -1.539  -4.331  0.00  0.00     0.062 H 
BRANCH  34  40
ATOM     40  C   LIG d   1       4.494  -0.288  -2.285  0.00  0.00     0.339 C 
ATOM     41  O   LIG d   1       4.498  -1.083  -1.367  0.00  0.00    -0.245 OA
BRANCH  40  42
ATOM     42  O   LIG d   1       3.348   0.321  -2.643  0.00  0.00    -0.465 OA
BRANCH  42  43
ATOM     43  C   LIG d   1       2.694  -0.160  -3.847  0.00  0.00     0.082 C 
ATOM     44  H   LIG d   1       1.845   0.483  -4.081  0.00  0.00     0.066 H 
ATOM     45  H   LIG d   1       3.401  -0.145  -4.676  0.00  0.00     0.066 H 
ATOM     46  H   LIG d   1       2.342  -1.179  -3.686  0.00  0.00     0.066 H 
ENDBRANCH  42  43
ENDBRANCH  40  42
ENDBRANCH  34  40
ENDBRANCH  13  30
BRANCH   1  47
ATOM     47  C   LIG d   1      10.199  -1.240  -8.158  0.00  0.00     0.022 C 
ATOM     48  H   LIG d   1       9.276  -0.944  -8.655  0.00  0.00     0.036 H 
ATOM     49  H   LIG d   1      11.053  -0.914  -8.752  0.00  0.00     0.036 H 
BRANCH  47  50
ATOM     50  C   LIG d   1      10.232  -2.762  -8.008  0.00  0.00    -0.057 C 
ATOM     51  H   LIG d   1       9.235  -3.124  -7.756  0.00  0.00     0.023 H 
ATOM     52  H   LIG d   1      10.554  -3.213  -8.947  0.00  0.00     0.023 H 
ATOM     53  H   LIG d   1      10.929  -3.035  -7.216  0.00  0.00     0.023 H 
ENDBRANCH  47  50
ENDBRANCH   1  47
BRANCH  18  54
ATOM     54  C   LIG d   1       9.528   6.630  -4.546  0.00  0.00    -0.043 A 
ATOM     55  C   LIG d   1       9.287   7.468  -5.618  0.00  0.00    -0.055 A 
ATOM     56  C   LIG d   1       9.520   8.825  -5.502  0.00  0.00    -0.020 A 
ATOM     57  H   LIG d   1       8.918   7.062  -6.548  0.00  0.00     0.062 H 
ATOM     58  C   LIG d   1       9.996   9.346  -4.307  0.00  0.00     0.120 A 
ATOM     59  H   LIG d   1       9.332   9.479  -6.340  0.00  0.00     0.065 H 
ATOM     60  C   LIG d   1      10.237   8.502  -3.233  0.00  0.00    -0.020 A 
ATOM     61  C   LIG d   1       9.997   7.148  -3.352  0.00  0.00    -0.055 A 
ATOM     62  H   LIG d   1      10.607   8.906  -2.301  0.00  0.00     0.065 H 
ATOM     63  H   LIG d   1      10.180   6.491  -2.514  0.00  0.00     0.062 H 
BRANCH  58  64
ATOM     64  O   LIG d   1      10.226  10.681  -4.191  0.00  0.00    -0.495 OA
BRANCH  64  65
ATOM     65  C   LIG d   1       9.132  11.554  -4.480  0.00  0.00     0.079 C 
ATOM     66  H   LIG d   1       8.194  11.011  -4.369  0.00  0.00     0.066 H 
ATOM     67  H   LIG d   1       9.149  12.397  -3.789  0.00  0.00     0.066 H 
ATOM     68  H   LIG d   1       9.221  11.921  -5.503  0.00  0.00     0.066 H 
ENDBRANCH  64  65
ENDBRANCH  58  64
ENDBRANCH  18  54
TORSDOF 9
ENDMDL
MODEL 3
REMARK VINA RESULT:      -6.4      2.588      8.488
REMARK  9 active torsions:
REMARK  status: ('A' for Active; 'I' for Inactive)
REMARK    1  A    between atoms: C_1  and  C_2 
REMARK    2  A    between atoms: C_2  and  C_3 
REMARK       I    between atoms: C_3  and  N_5 
REMARK    3  A    between atoms: C_15  and  C_17 
REMARK    4  A    between atoms: C_20  and  C_23 
REMARK    5  A    between atoms: C_23  and  O_25 
REMARK    6  A    between atoms: O_25  and  C_26 
REMARK    7  A    between atoms: C_30  and  C_33 
REMARK    8  A    between atoms: C_36  and  O_39 
REMARK    9  A    between atoms: O_39  and  C_40 
ROOT
ATOM      1  C   LIG d   1       8.739   1.123  -4.641  0.00  0.00     0.220 C 
ATOM      2  O   LIG d   1       9.621   1.131  -5.473  0.00  0.00    -0.275 OA
ATOM      3  N   LIG d   1       7.678   0.306  -4.791  0.00  0.00    -0.258 N 
ATOM      4  C   LIG d   1       6.669   0.304  -3.827  0.00  0.00     0.058 A 
ATOM      5  C   LIG d   1       5.868   1.415  -3.614  0.00  0.00    -0.038 A 
ATOM      6  C   LIG d   1       4.837   1.342  -2.693  0.00  0.00    -0.060 A 
ATOM      7  C   LIG d   1       4.612   0.177  -1.982  0.00  0.00    -0.060 A 
ATOM      8  C   LIG d   1       5.422  -0.928  -2.182  0.00  0.00    -0.039 A 
ATOM      9  C   LIG d   1       6.460  -0.855  -3.094  0.00  0.00     0.053 A 
ATOM     10  N   LIG d   1       7.369  -1.890  -3.268  0.00  0.00    -0.316 N 
ATOM     11  C   LIG d   1       7.542  -2.587  -4.419  0.00  0.00     0.017 C 
ATOM     12  C   LIG d   1       7.653  -2.034  -5.638  0.00  0.00     0.037 C 
ATOM     13  C   LIG d   1       7.601  -0.557  -5.951  0.00  0.00     0.086 C 
ATOM     14  H   LIG d   1       8.431  -0.318  -6.615  0.00  0.00     0.061 H 
ATOM     15  C   LIG d   1       7.835  -2.854  -6.778  0.00  0.00     0.163 C 
ATOM     16  O   LIG d   1       7.953  -2.326  -7.868  0.00  0.00    -0.292 OA
ATOM     17  C   LIG d   1       7.888  -4.349  -6.689  0.00  0.00     0.017 C 
ATOM     18  C   LIG d   1       7.056  -4.794  -5.479  0.00  0.00    -0.004 C 
ATOM     19  H   LIG d   1       6.014  -4.508  -5.622  0.00  0.00     0.036 H 
ATOM     20  C   LIG d   1       7.621  -4.094  -4.244  0.00  0.00    -0.007 C 
ATOM     21  H   LIG d   1       6.045   2.327  -4.164  0.00  0.00     0.064 H 
ATOM     22  H   LIG d   1       4.208   2.203  -2.525  0.00  0.00     0.062 H 
ATOM     23  H   LIG d   1       3.799   0.128  -1.274  0.00  0.00     0.062 H 
ATOM     24  H   LIG d   1       5.244  -1.841  -1.630  0.00  0.00     0.064 H 
ATOM     25  H   LIG d   1       7.923  -2.132  -2.510  0.00  0.00     0.152 HD
ATOM     26  H   LIG d   1       7.513  -4.746  -7.526  0.00  0.00     0.035 H 
ATOM     27  H   LIG d   1       8.922  -4.672  -6.565  0.00  0.00     0.035 H 
ATOM     28  H   LIG d   1       7.044  -4.387  -3.368  0.00  0.00     0.033 H 
ATOM     29  H   LIG d   1       8.662  -4.386  -4.108  0.00  0.00     0.033 H 
ENDROOT
BRANCH  13  30
ATOM     30  C   LIG d   1       6.312  -0.268  -6.675  0.00  0.00    -0.022 A 
ATOM     31  C   LIG d   1       6.291   0.665  -7.697  0.00  0.00    -0.056 A 
ATOM     32  C   LIG d   1       5.115   0.935  -8.366  0.00  0.00    -0.047 A 
ATOM     33  H   LIG d   1       7.198   1.183  -7.973  0.00  0.00     0.062 H 
ATOM     34  C   LIG d   1       3.944   0.264  -8.009  0.00  0.00     0.059 A 
ATOM     35  H   LIG d   1       5.100   1.662  -9.163  0.00  0.00     0.063 H 
ATOM     36  C   LIG d   1       3.972  -0.677  -6.977  0.00  0.00    -0.047 A 
ATOM     37  C   LIG d   1       5.156  -0.941  -6.321  0.00  0.00    -0.056 A 
ATOM     38  H   LIG d   1       3.068  -1.199  -6.696  0.00  0.00     0.063 H 
ATOM     39  H   LIG d   1       5.180  -1.670  -5.524  0.00  0.00     0.062 H 
BRANCH  34  40
ATOM     40  C   LIG d   1       2.680   0.548  -8.720  0.00  0.00     0.339 C 
ATOM     41  O   LIG d   1       2.418   1.683  -9.062  0.00  0.00    -0.245 OA
BRANCH  40  42
ATOM     42  O   LIG d   1       1.819  -0.453  -8.989  0.00  0.00    -0.465 OA
BRANCH  42  43
ATOM     43  C   LIG d   1       1.668  -0.835 -10.381  0.00  0.00     0.082 C 
ATOM     44  H   LIG d   1       2.183  -0.112 -11.014  0.00  0.00     0.066 H 
ATOM     45  H   LIG d   1       2.098  -1.825 -10.535  0.00  0.00     0.066 H 
ATOM     46  H   LIG d   1       0.610  -0.854 -10.640  0.00  0.00     0.066 H 
ENDBRANCH  42  43
ENDBRANCH  40  42
ENDBRANCH  34  40
ENDBRANCH  13  30
BRANCH   1  47
ATOM     47  C   LIG d   1       8.831   2.026  -3.437  0.00  0.00     0.022 C 
ATOM     48  H   LIG d   1       7.872   2.038  -2.920  0.00  0.00     0.036 H 
ATOM     49  H   LIG d   1       9.603   1.656  -2.763  0.00  0.00     0.036 H 
BRANCH  47  50
ATOM     50  C   LIG d   1       9.185   3.443  -3.890  0.00  0.00    -0.057 C 
ATOM     51  H   LIG d   1       9.655   3.981  -3.066  0.00  0.00     0.023 H 
ATOM     52  H   LIG d   1       9.876   3.394  -4.731  0.00  0.00     0.023 H 
ATOM     53  H   LIG d   1       8.278   3.965  -4.194  0.00  0.00     0.023 H 
ENDBRANCH  47  50
ENDBRANCH   1  47
BRANCH  18  54
ATOM     54  C   LIG d   1       7.156  -6.288  -5.312  0.00  0.00    -0.043 A 
ATOM     55  C   LIG d   1       8.333  -6.854  -4.857  0.00  0.00    -0.055 A 
ATOM     56  C   LIG d   1       8.427  -8.224  -4.703  0.00  0.00    -0.020 A 
ATOM     57  H   LIG d   1       9.179  -6.226  -4.622  0.00  0.00     0.062 H 
ATOM     58  C   LIG d   1       7.340  -9.032  -5.005  0.00  0.00     0.120 A 
ATOM     59  H   LIG d   1       9.346  -8.666  -4.348  0.00  0.00     0.065 H 
ATOM     60  C   LIG d   1       6.161  -8.460  -5.462  0.00  0.00    -0.020 A 
ATOM     61  C   LIG d   1       6.070  -7.090  -5.608  0.00  0.00    -0.055 A 
ATOM     62  H   LIG d   1       5.313  -9.087  -5.697  0.00  0.00     0.065 H 
ATOM     63  H   LIG d   1       5.149  -6.645  -5.959  0.00  0.00     0.062 H 
BRANCH  58  64
ATOM     64  O   LIG d   1       7.431 -10.379  -4.855  0.00  0.00    -0.495 OA
BRANCH  64  65
ATOM     65  C   LIG d   1       6.222 -11.082  -4.558  0.00  0.00     0.079 C 
ATOM     66  H   LIG d   1       5.763 -10.656  -3.666  0.00  0.00     0.066 H 
ATOM     67  H   LIG d   1       5.535 -10.992  -5.400  0.00  0.00     0.066 H 
ATOM     68  H   LIG d   1       6.447 -12.134  -4.384  0.00  0.00     0.066 H 
ENDBRANCH  64  65
ENDBRANCH  58  64
ENDBRANCH  18  54
TORSDOF 9
ENDMDL
MODEL 4
REMARK VINA RESULT:      -6.3      3.910     10.199
REMARK  9 active torsions:
REMARK  status: ('A' for Active; 'I' for Inactive)
REMARK    1  A    between atoms: C_1  and  C_2 
REMARK    2  A    between atoms: C_2  and  C_3 
REMARK       I    between atoms: C_3  and  N_5 
REMARK    3  A    between atoms: C_15  and  C_17 
REMARK    4  A    between atoms: C_20  and  C_23 
REMARK    5  A    between atoms: C_23  and  O_25 
REMARK    6  A    between atoms: O_25  and  C_26 
REMARK    7  A    between atoms: C_30  and  C_33 
REMARK    8  A    between atoms: C_36  and  O_39 
REMARK    9  A    between atoms: O_39  and  C_40 
ROOT
ATOM      1  C   LIG d   1      13.843   5.305  -3.445  0.00  0.00     0.220 C 
ATOM      2  O   LIG d   1      14.508   4.642  -4.211  0.00  0.00    -0.275 OA
ATOM      3  N   LIG d   1      12.533   5.507  -3.690  0.00  0.00    -0.258 N 
ATOM      4  C   LIG d   1      11.776   6.272  -2.802  0.00  0.00     0.058 A 
ATOM      5  C   LIG d   1      12.019   7.624  -2.621  0.00  0.00    -0.038 A 
ATOM      6  C   LIG d   1      11.198   8.355  -1.778  0.00  0.00    -0.060 A 
ATOM      7  C   LIG d   1      10.152   7.741  -1.113  0.00  0.00    -0.060 A 
ATOM      8  C   LIG d   1       9.918   6.387  -1.279  0.00  0.00    -0.039 A 
ATOM      9  C   LIG d   1      10.744   5.653  -2.112  0.00  0.00     0.053 A 
ATOM     10  N   LIG d   1      10.628   4.275  -2.245  0.00  0.00    -0.316 N 
ATOM     11  C   LIG d   1      10.317   3.628  -3.396  0.00  0.00     0.017 C 
ATOM     12  C   LIG d   1      10.875   3.884  -4.591  0.00  0.00     0.037 C 
ATOM     13  C   LIG d   1      11.931   4.927  -4.872  0.00  0.00     0.086 C 
ATOM     14  H   LIG d   1      12.717   4.466  -5.469  0.00  0.00     0.061 H 
ATOM     15  C   LIG d   1      10.481   3.147  -5.734  0.00  0.00     0.163 C 
ATOM     16  O   LIG d   1      11.016   3.385  -6.799  0.00  0.00    -0.292 OA
ATOM     17  C   LIG d   1       9.427   2.082  -5.676  0.00  0.00     0.017 C 
ATOM     18  C   LIG d   1       8.454   2.423  -4.539  0.00  0.00    -0.004 C 
ATOM     19  H   LIG d   1       7.957   3.370  -4.750  0.00  0.00     0.036 H 
ATOM     20  C   LIG d   1       9.266   2.540  -3.251  0.00  0.00    -0.007 C 
ATOM     21  H   LIG d   1      12.837   8.104  -3.135  0.00  0.00     0.064 H 
ATOM     22  H   LIG d   1      11.379   9.409  -1.636  0.00  0.00     0.062 H 
ATOM     23  H   LIG d   1       9.512   8.322  -0.466  0.00  0.00     0.062 H 
ATOM     24  H   LIG d   1       9.098   5.908  -0.764  0.00  0.00     0.064 H 
ATOM     25  H   LIG d   1      10.781   3.734  -1.454  0.00  0.00     0.152 HD
ATOM     26  H   LIG d   1       8.937   2.050  -6.547  0.00  0.00     0.035 H 
ATOM     27  H   LIG d   1       9.893   1.115  -5.485  0.00  0.00     0.035 H 
ATOM     28  H   LIG d   1       8.600   2.788  -2.425  0.00  0.00     0.033 H 
ATOM     29  H   LIG d   1       9.759   1.590  -3.047  0.00  0.00     0.033 H 
ENDROOT
BRANCH  13  30
ATOM     30  C   LIG d   1      11.305   6.033  -5.681  0.00  0.00    -0.022 A 
ATOM     31  C   LIG d   1      12.064   6.717  -6.614  0.00  0.00    -0.056 A 
ATOM     32  C   LIG d   1      11.498   7.731  -7.359  0.00  0.00    -0.047 A 
ATOM     33  H   LIG d   1      13.102   6.456  -6.761  0.00  0.00     0.062 H 
ATOM     34  C   LIG d   1      10.156   8.067  -7.169  0.00  0.00     0.059 A 
ATOM     35  H   LIG d   1      12.091   8.264  -8.088  0.00  0.00     0.063 H 
ATOM     36  C   LIG d   1       9.396   7.373  -6.225  0.00  0.00    -0.047 A 
ATOM     37  C   LIG d   1       9.974   6.357  -5.492  0.00  0.00    -0.056 A 
ATOM     38  H   LIG d   1       8.357   7.628  -6.073  0.00  0.00     0.063 H 
ATOM     39  H   LIG d   1       9.386   5.818  -4.763  0.00  0.00     0.062 H 
BRANCH  34  40
ATOM     40  C   LIG d   1       9.543   9.153  -7.962  0.00  0.00     0.339 C 
ATOM     41  O   LIG d   1       8.598   8.915  -8.687  0.00  0.00    -0.245 OA
BRANCH  40  42
ATOM     42  O   LIG d   1      10.031  10.405  -7.879  0.00  0.00    -0.465 OA
BRANCH  42  43
ATOM     43  C   LIG d   1       9.918  11.073  -6.595  0.00  0.00     0.082 C 
ATOM     44  H   LIG d   1       8.990  11.644  -6.562  0.00  0.00     0.066 H 
ATOM     45  H   LIG d   1       9.915  10.329  -5.797  0.00  0.00     0.066 H 
ATOM     46  H   LIG d   1      10.763  11.747  -6.460  0.00  0.00     0.066 H 
ENDBRANCH  42  43
ENDBRANCH  40  42
ENDBRANCH  34  40
ENDBRANCH  13  30
BRANCH   1  47
ATOM     47  C   LIG d   1      14.480   5.904  -2.217  0.00  0.00     0.022 C 
ATOM     48  H   LIG d   1      15.391   6.430  -2.501  0.00  0.00     0.036 H 
ATOM     49  H   LIG d   1      13.786   6.604  -1.752  0.00  0.00     0.036 H 
BRANCH  47  50
ATOM     50  C   LIG d   1      14.822   4.790  -1.226  0.00  0.00    -0.057 C 
ATOM     51  H   LIG d   1      14.589   3.823  -1.673  0.00  0.00     0.023 H 
ATOM     52  H   LIG d   1      15.883   4.831  -0.985  0.00  0.00     0.023 H 
ATOM     53  H   LIG d   1      14.237   4.920  -0.316  0.00  0.00     0.023 H 
ENDBRANCH  47  50
ENDBRANCH   1  47
BRANCH  18  54
ATOM     54  C   LIG d   1       7.428   1.328  -4.400  0.00  0.00    -0.043 A 
ATOM     55  C   LIG d   1       6.530   1.353  -3.349  0.00  0.00    -0.055 A 
ATOM     56  C   LIG d   1       5.588   0.350  -3.219  0.00  0.00    -0.020 A 
ATOM     57  H   LIG d   1       6.565   2.157  -2.628  0.00  0.00     0.062 H 
ATOM     58  C   LIG d   1       5.545  -0.683  -4.145  0.00  0.00     0.120 A 
ATOM     59  H   LIG d   1       4.887   0.370  -2.398  0.00  0.00     0.065 H 
ATOM     60  C   LIG d   1       6.447  -0.705  -5.199  0.00  0.00    -0.020 A 
ATOM     61  C   LIG d   1       7.382   0.303  -5.327  0.00  0.00    -0.055 A 
ATOM     62  H   LIG d   1       6.415  -1.508  -5.921  0.00  0.00     0.065 H 
ATOM     63  H   LIG d   1       8.082   0.288  -6.151  0.00  0.00     0.062 H 
BRANCH  58  64
ATOM     64  O   LIG d   1       4.620  -1.670  -4.019  0.00  0.00    -0.495 OA
BRANCH  64  65
ATOM     65  C   LIG d   1       4.158  -1.960  -2.697  0.00  0.00     0.079 C 
ATOM     66  H   LIG d   1       3.986  -3.032  -2.599  0.00  0.00     0.066 H 
ATOM     67  H   LIG d   1       4.909  -1.644  -1.973  0.00  0.00     0.066 H 
ATOM     68  H   LIG d   1       3.227  -1.424  -2.512  0.00  0.00     0.066 H 
ENDBRANCH  64  65
ENDBRANCH  58  64
ENDBRANCH  18  54
TORSDOF 9
ENDMDL
MODEL 5
REMARK VINA RESULT:      -6.2      4.089     10.067
REMARK  9 active torsions:
REMARK  status: ('A' for Active; 'I' for Inactive)
REMARK    1  A    between atoms: C_1  and  C_2 
REMARK    2  A    between atoms: C_2  and  C_3 
REMARK       I    between atoms: C_3  and  N_5 
REMARK    3  A    between atoms: C_15  and  C_17 
REMARK    4  A    between atoms: C_20  and  C_23 
REMARK    5  A    between atoms: C_23  and  O_25 
REMARK    6  A    between atoms: O_25  and  C_26 
REMARK    7  A    between atoms: C_30  and  C_33 
REMARK    8  A    between atoms: C_36  and  O_39 
REMARK    9  A    between atoms: O_39  and  C_40 
ROOT
ATOM      1  C   LIG d   1      13.722   5.372  -3.494  0.00  0.00     0.220 C 
ATOM      2  O   LIG d   1      14.463   4.633  -4.107  0.00  0.00    -0.275 OA
ATOM      3  N   LIG d   1      12.444   5.527  -3.891  0.00  0.00    -0.258 N 
ATOM      4  C   LIG d   1      11.600   6.380  -3.179  0.00  0.00     0.058 A 
ATOM      5  C   LIG d   1      11.822   7.747  -3.134  0.00  0.00    -0.038 A 
ATOM      6  C   LIG d   1      10.920   8.560  -2.469  0.00  0.00    -0.060 A 
ATOM      7  C   LIG d   1       9.812   8.015  -1.845  0.00  0.00    -0.060 A 
ATOM      8  C   LIG d   1       9.598   6.647  -1.875  0.00  0.00    -0.039 A 
ATOM      9  C   LIG d   1      10.504   5.832  -2.529  0.00  0.00     0.053 A 
ATOM     10  N   LIG d   1      10.404   4.447  -2.511  0.00  0.00    -0.316 N 
ATOM     11  C   LIG d   1      10.211   3.666  -3.604  0.00  0.00     0.017 C 
ATOM     12  C   LIG d   1      10.888   3.789  -4.758  0.00  0.00     0.037 C 
ATOM     13  C   LIG d   1      11.966   4.805  -5.052  0.00  0.00     0.086 C 
ATOM     14  H   LIG d   1      12.809   4.288  -5.509  0.00  0.00     0.061 H 
ATOM     15  C   LIG d   1      10.612   2.919  -5.841  0.00  0.00     0.163 C 
ATOM     16  O   LIG d   1      11.252   3.038  -6.867  0.00  0.00    -0.292 OA
ATOM     17  C   LIG d   1       9.558   1.855  -5.765  0.00  0.00     0.017 C 
ATOM     18  C   LIG d   1       8.475   2.313  -4.780  0.00  0.00    -0.004 C 
ATOM     19  H   LIG d   1       8.001   3.222  -5.149  0.00  0.00     0.036 H 
ATOM     20  C   LIG d   1       9.153   2.589  -3.439  0.00  0.00    -0.007 C 
ATOM     21  H   LIG d   1      12.688   8.174  -3.616  0.00  0.00     0.064 H 
ATOM     22  H   LIG d   1      11.085   9.626  -2.434  0.00  0.00     0.062 H 
ATOM     23  H   LIG d   1       9.109   8.659  -1.339  0.00  0.00     0.062 H 
ATOM     24  H   LIG d   1       8.730   6.221  -1.392  0.00  0.00     0.064 H 
ATOM     25  H   LIG d   1      10.477   4.003  -1.651  0.00  0.00     0.152 HD
ATOM     26  H   LIG d   1       9.160   1.716  -6.671  0.00  0.00     0.035 H 
ATOM     27  H   LIG d   1      10.004   0.923  -5.417  0.00  0.00     0.035 H 
ATOM     28  H   LIG d   1       8.406   2.923  -2.719  0.00  0.00     0.033 H 
ATOM     29  H   LIG d   1       9.623   1.675  -3.076  0.00  0.00     0.033 H 
ENDROOT
BRANCH  13  30
ATOM     30  C   LIG d   1      11.423   5.802  -6.043  0.00  0.00    -0.022 A 
ATOM     31  C   LIG d   1      12.276   6.397  -6.956  0.00  0.00    -0.056 A 
ATOM     32  C   LIG d   1      11.788   7.311  -7.867  0.00  0.00    -0.047 A 
ATOM     33  H   LIG d   1      13.327   6.146  -6.957  0.00  0.00     0.062 H 
ATOM     34  C   LIG d   1      10.429   7.635  -7.866  0.00  0.00     0.059 A 
ATOM     35  H   LIG d   1      12.453   7.774  -8.580  0.00  0.00     0.063 H 
ATOM     36  C   LIG d   1       9.575   7.030  -6.942  0.00  0.00    -0.047 A 
ATOM     37  C   LIG d   1      10.076   6.114  -6.041  0.00  0.00    -0.056 A 
ATOM     38  H   LIG d   1       8.523   7.276  -6.936  0.00  0.00     0.063 H 
ATOM     39  H   LIG d   1       9.415   5.644  -5.327  0.00  0.00     0.062 H 
BRANCH  34  40
ATOM     40  C   LIG d   1       9.899   8.612  -8.838  0.00  0.00     0.339 C 
ATOM     41  O   LIG d   1       8.823   9.142  -8.641  0.00  0.00    -0.245 OA
BRANCH  40  42
ATOM     42  O   LIG d   1      10.607   8.918  -9.942  0.00  0.00    -0.465 OA
BRANCH  42  43
ATOM     43  C   LIG d   1      10.256   8.220 -11.165  0.00  0.00     0.082 C 
ATOM     44  H   LIG d   1      10.623   8.784 -12.023  0.00  0.00     0.066 H 
ATOM     45  H   LIG d   1      10.709   7.229 -11.161  0.00  0.00     0.066 H 
ATOM     46  H   LIG d   1       9.172   8.125 -11.231  0.00  0.00     0.066 H 
ENDBRANCH  42  43
ENDBRANCH  40  42
ENDBRANCH  34  40
ENDBRANCH  13  30
BRANCH   1  47
ATOM     47  C   LIG d   1      14.232   6.117  -2.287  0.00  0.00     0.022 C 
ATOM     48  H   LIG d   1      15.253   6.449  -2.470  0.00  0.00     0.036 H 
ATOM     49  H   LIG d   1      13.596   6.983  -2.099  0.00  0.00     0.036 H 
BRANCH  47  50
ATOM     50  C   LIG d   1      14.207   5.192  -1.069  0.00  0.00    -0.057 C 
ATOM     51  H   LIG d   1      13.356   4.514  -1.146  0.00  0.00     0.023 H 
ATOM     52  H   LIG d   1      15.129   4.613  -1.034  0.00  0.00     0.023 H 
ATOM     53  H   LIG d   1      14.116   5.787  -0.161  0.00  0.00     0.023 H 
ENDBRANCH  47  50
ENDBRANCH   1  47
BRANCH  18  54
ATOM     54  C   LIG d   1       7.441   1.228  -4.617  0.00  0.00    -0.043 A 
ATOM     55  C   LIG d   1       7.221   0.326  -5.641  0.00  0.00    -0.055 A 
ATOM     56  C   LIG d   1       6.273  -0.669  -5.495  0.00  0.00    -0.020 A 
ATOM     57  H   LIG d   1       7.788   0.400  -6.557  0.00  0.00     0.062 H 
ATOM     58  C   LIG d   1       5.544  -0.762  -4.318  0.00  0.00     0.120 A 
ATOM     59  H   LIG d   1       6.102  -1.373  -6.295  0.00  0.00     0.065 H 
ATOM     60  C   LIG d   1       5.768   0.144  -3.292  0.00  0.00    -0.020 A 
ATOM     61  C   LIG d   1       6.719   1.134  -3.442  0.00  0.00    -0.055 A 
ATOM     62  H   LIG d   1       5.201   0.074  -2.375  0.00  0.00     0.065 H 
ATOM     63  H   LIG d   1       6.897   1.837  -2.640  0.00  0.00     0.062 H 
BRANCH  58  64
ATOM     64  O   LIG d   1       4.612  -1.740  -4.172  0.00  0.00    -0.495 OA
BRANCH  64  65
ATOM     65  C   LIG d   1       3.655  -1.573  -3.123  0.00  0.00     0.079 C 
ATOM     66  H   LIG d   1       2.696  -1.987  -3.435  0.00  0.00     0.066 H 
ATOM     67  H   LIG d   1       4.002  -2.092  -2.230  0.00  0.00     0.066 H 
ATOM     68  H   LIG d   1       3.539  -0.512  -2.903  0.00  0.00     0.066 H 
ENDBRANCH  64  65
ENDBRANCH  58  64
ENDBRANCH  18  54
TORSDOF 9
ENDMDL
MODEL 6
REMARK VINA RESULT:      -6.2      3.695     10.667
REMARK  9 active torsions:
REMARK  status: ('A' for Active; 'I' for Inactive)
REMARK    1  A    between atoms: C_1  and  C_2 
REMARK    2  A    between atoms: C_2  and  C_3 
REMARK       I    between atoms: C_3  and  N_5 
REMARK    3  A    between atoms: C_15  and  C_17 
REMARK    4  A    between atoms: C_20  and  C_23 
REMARK    5  A    between atoms: C_23  and  O_25 
REMARK    6  A    between atoms: O_25  and  C_26 
REMARK    7  A    between atoms: C_30  and  C_33 
REMARK    8  A    between atoms: C_36  and  O_39 
REMARK    9  A    between atoms: O_39  and  C_40 
ROOT
ATOM      1  C   LIG d   1      14.430   5.670  -2.741  0.00  0.00     0.220 C 
ATOM      2  O   LIG d   1      15.011   5.392  -3.768  0.00  0.00    -0.275 OA
ATOM      3  N   LIG d   1      13.096   5.856  -2.749  0.00  0.00    -0.258 N 
ATOM      4  C   LIG d   1      12.437   6.175  -1.561  0.00  0.00     0.058 A 
ATOM      5  C   LIG d   1      12.667   7.374  -0.905  0.00  0.00    -0.038 A 
ATOM      6  C   LIG d   1      11.941   7.674   0.235  0.00  0.00    -0.060 A 
ATOM      7  C   LIG d   1      11.002   6.784   0.723  0.00  0.00    -0.060 A 
ATOM      8  C   LIG d   1      10.783   5.579   0.079  0.00  0.00    -0.039 A 
ATOM      9  C   LIG d   1      11.515   5.271  -1.054  0.00  0.00     0.053 A 
ATOM     10  N   LIG d   1      11.418   4.040  -1.689  0.00  0.00    -0.316 N 
ATOM     11  C   LIG d   1      10.981   3.853  -2.960  0.00  0.00     0.017 C 
ATOM     12  C   LIG d   1      11.379   4.578  -4.019  0.00  0.00     0.037 C 
ATOM     13  C   LIG d   1      12.365   5.721  -3.992  0.00  0.00     0.086 C 
ATOM     14  H   LIG d   1      13.081   5.575  -4.800  0.00  0.00     0.061 H 
ATOM     15  C   LIG d   1      10.863   4.298  -5.308  0.00  0.00     0.163 C 
ATOM     16  O   LIG d   1      11.254   4.956  -6.252  0.00  0.00    -0.292 OA
ATOM     17  C   LIG d   1       9.851   3.218  -5.548  0.00  0.00     0.017 C 
ATOM     18  C   LIG d   1       9.020   3.037  -4.271  0.00  0.00    -0.004 C 
ATOM     19  H   LIG d   1       8.477   3.956  -4.051  0.00  0.00     0.036 H 
ATOM     20  C   LIG d   1       9.985   2.719  -3.130  0.00  0.00    -0.007 C 
ATOM     21  H   LIG d   1      13.403   8.068  -1.282  0.00  0.00     0.064 H 
ATOM     22  H   LIG d   1      12.113   8.609   0.748  0.00  0.00     0.062 H 
ATOM     23  H   LIG d   1      10.434   7.033   1.607  0.00  0.00     0.062 H 
ATOM     24  H   LIG d   1      10.046   4.885   0.457  0.00  0.00     0.064 H 
ATOM     25  H   LIG d   1      11.683   3.254  -1.186  0.00  0.00     0.152 HD
ATOM     26  H   LIG d   1       9.257   3.481  -6.308  0.00  0.00     0.035 H 
ATOM     27  H   LIG d   1      10.361   2.286  -5.792  0.00  0.00     0.035 H 
ATOM     28  H   LIG d   1       9.421   2.590  -2.206  0.00  0.00     0.033 H 
ATOM     29  H   LIG d   1      10.523   1.799  -3.358  0.00  0.00     0.033 H 
ENDROOT
BRANCH  13  30
ATOM     30  C   LIG d   1      11.615   7.004  -4.246  0.00  0.00    -0.022 A 
ATOM     31  C   LIG d   1      10.282   7.103  -3.888  0.00  0.00    -0.056 A 
ATOM     32  C   LIG d   1       9.589   8.273  -4.116  0.00  0.00    -0.047 A 
ATOM     33  H   LIG d   1       9.783   6.263  -3.428  0.00  0.00     0.062 H 
ATOM     34  C   LIG d   1      10.235   9.359  -4.710  0.00  0.00     0.059 A 
ATOM     35  H   LIG d   1       8.549   8.351  -3.836  0.00  0.00     0.063 H 
ATOM     36  C   LIG d   1      11.580   9.252  -5.068  0.00  0.00    -0.047 A 
ATOM     37  C   LIG d   1      12.263   8.077  -4.829  0.00  0.00    -0.056 A 
ATOM     38  H   LIG d   1      12.087  10.088  -5.529  0.00  0.00     0.063 H 
ATOM     39  H   LIG d   1      13.305   7.994  -5.103  0.00  0.00     0.062 H 
BRANCH  34  40
ATOM     40  C   LIG d   1       9.499  10.616  -4.959  0.00  0.00     0.339 C 
ATOM     41  O   LIG d   1       9.566  11.153  -6.046  0.00  0.00    -0.245 OA
BRANCH  40  42
ATOM     42  O   LIG d   1       8.754  11.165  -3.981  0.00  0.00    -0.465 OA
BRANCH  42  43
ATOM     43  C   LIG d   1       9.466  11.787  -2.880  0.00  0.00     0.082 C 
ATOM     44  H   LIG d   1       8.906  12.655  -2.530  0.00  0.00     0.066 H 
ATOM     45  H   LIG d   1       9.573  11.071  -2.065  0.00  0.00     0.066 H 
ATOM     46  H   LIG d   1      10.452  12.104  -3.218  0.00  0.00     0.066 H 
ENDBRANCH  42  43
ENDBRANCH  40  42
ENDBRANCH  34  40
ENDBRANCH  13  30
BRANCH   1  47
ATOM     47  C   LIG d   1      15.202   5.807  -1.453  0.00  0.00     0.022 C 
ATOM     48  H   LIG d   1      16.050   6.473  -1.607  0.00  0.00     0.036 H 
ATOM     49  H   LIG d   1      14.551   6.219  -0.682  0.00  0.00     0.036 H 
BRANCH  47  50
ATOM     50  C   LIG d   1      15.706   4.431  -1.013  0.00  0.00    -0.057 C 
ATOM     51  H   LIG d   1      14.978   3.670  -1.296  0.00  0.00     0.023 H 
ATOM     52  H   LIG d   1      16.658   4.221  -1.499  0.00  0.00     0.023 H 
ATOM     53  H   LIG d   1      15.840   4.422   0.068  0.00  0.00     0.023 H 
ENDBRANCH  47  50
ENDBRANCH   1  47
BRANCH  18  54
ATOM     54  C   LIG d   1       8.047   1.901  -4.452  0.00  0.00    -0.043 A 
ATOM     55  C   LIG d   1       8.043   1.176  -5.629  0.00  0.00    -0.055 A 
ATOM     56  C   LIG d   1       7.152   0.134  -5.797  0.00  0.00    -0.020 A 
ATOM     57  H   LIG d   1       8.736   1.426  -6.419  0.00  0.00     0.062 H 
ATOM     58  C   LIG d   1       6.261  -0.186  -4.782  0.00  0.00     0.120 A 
ATOM     59  H   LIG d   1       7.149  -0.432  -6.717  0.00  0.00     0.065 H 
ATOM     60  C   LIG d   1       6.267   0.543  -3.602  0.00  0.00    -0.020 A 
ATOM     61  C   LIG d   1       7.164   1.581  -3.437  0.00  0.00    -0.055 A 
ATOM     62  H   LIG d   1       5.575   0.296  -2.811  0.00  0.00     0.065 H 
ATOM     63  H   LIG d   1       7.172   2.145  -2.516  0.00  0.00     0.062 H 
BRANCH  58  64
ATOM     64  O   LIG d   1       5.384  -1.211  -4.946  0.00  0.00    -0.495 OA
BRANCH  64  65
ATOM     65  C   LIG d   1       4.557  -1.541  -3.828  0.00  0.00     0.079 C 
ATOM     66  H   LIG d   1       3.620  -1.970  -4.182  0.00  0.00     0.066 H 
ATOM     67  H   LIG d   1       5.072  -2.265  -3.196  0.00  0.00     0.066 H 
ATOM     68  H   LIG d   1       4.349  -0.640  -3.251  0.00  0.00     0.066 H 
ENDBRANCH  64  65
ENDBRANCH  58  64
ENDBRANCH  18  54
TORSDOF 9
ENDMDL
MODEL 7
REMARK VINA RESULT:      -6.0      5.434      8.304
REMARK  9 active torsions:
REMARK  status: ('A' for Active; 'I' for Inactive)
REMARK    1  A    between atoms: C_1  and  C_2 
REMARK    2  A    between atoms: C_2  and  C_3 
REMARK       I    between atoms: C_3  and  N_5 
REMARK    3  A    between atoms: C_15  and  C_17 
REMARK    4  A    between atoms: C_20  and  C_23 
REMARK    5  A    between atoms: C_23  and  O_25 
REMARK    6  A    between atoms: O_25  and  C_26 
REMARK    7  A    between atoms: C_30  and  C_33 
REMARK    8  A    between atoms: C_36  and  O_39 
REMARK    9  A    between atoms: O_39  and  C_40 
ROOT
ATOM      1  C   LIG d   1       6.916  -9.640  -7.745  0.00  0.00     0.220 C 
ATOM      2  O   LIG d   1       7.585  -9.148  -8.629  0.00  0.00    -0.275 OA
ATOM      3  N   LIG d   1       6.874  -9.061  -6.529  0.00  0.00    -0.258 N 
ATOM      4  C   LIG d   1       6.101  -9.635  -5.519  0.00  0.00     0.058 A 
ATOM      5  C   LIG d   1       6.407 -10.878  -4.990  0.00  0.00    -0.038 A 
ATOM      6  C   LIG d   1       5.650 -11.376  -3.943  0.00  0.00    -0.060 A 
ATOM      7  C   LIG d   1       4.590 -10.647  -3.436  0.00  0.00    -0.060 A 
ATOM      8  C   LIG d   1       4.272  -9.412  -3.974  0.00  0.00    -0.039 A 
ATOM      9  C   LIG d   1       5.020  -8.917  -5.028  0.00  0.00     0.053 A 
ATOM     10  N   LIG d   1       4.693  -7.735  -5.679  0.00  0.00    -0.316 N 
ATOM     11  C   LIG d   1       5.476  -6.628  -5.720  0.00  0.00     0.017 C 
ATOM     12  C   LIG d   1       6.792  -6.632  -5.991  0.00  0.00     0.037 C 
ATOM     13  C   LIG d   1       7.633  -7.851  -6.289  0.00  0.00     0.086 C 
ATOM     14  H   LIG d   1       8.238  -7.643  -7.171  0.00  0.00     0.061 H 
ATOM     15  C   LIG d   1       7.519  -5.417  -6.012  0.00  0.00     0.163 C 
ATOM     16  O   LIG d   1       8.705  -5.447  -6.280  0.00  0.00    -0.292 OA
ATOM     17  C   LIG d   1       6.877  -4.095  -5.717  0.00  0.00     0.017 C 
ATOM     18  C   LIG d   1       5.693  -4.329  -4.770  0.00  0.00    -0.004 C 
ATOM     19  H   LIG d   1       6.051  -4.742  -3.827  0.00  0.00     0.036 H 
ATOM     20  C   LIG d   1       4.748  -5.323  -5.445  0.00  0.00    -0.007 C 
ATOM     21  H   LIG d   1       7.231 -11.451  -5.388  0.00  0.00     0.064 H 
ATOM     22  H   LIG d   1       5.887 -12.343  -3.524  0.00  0.00     0.062 H 
ATOM     23  H   LIG d   1       4.012 -11.040  -2.613  0.00  0.00     0.062 H 
ATOM     24  H   LIG d   1       3.446  -8.840  -3.575  0.00  0.00     0.064 H 
ATOM     25  H   LIG d   1       3.841  -7.698  -6.140  0.00  0.00     0.152 HD
ATOM     26  H   LIG d   1       7.545  -3.489  -5.285  0.00  0.00     0.035 H 
ATOM     27  H   LIG d   1       6.524  -3.644  -6.645  0.00  0.00     0.035 H 
ATOM     28  H   LIG d   1       3.898  -5.514  -4.791  0.00  0.00     0.033 H 
ATOM     29  H   LIG d   1       4.395  -4.903  -6.386  0.00  0.00     0.033 H 
ENDROOT
BRANCH  13  30
ATOM     30  C   LIG d   1       8.556  -8.091  -5.123  0.00  0.00    -0.022 A 
ATOM     31  C   LIG d   1       8.142  -7.772  -3.841  0.00  0.00    -0.056 A 
ATOM     32  C   LIG d   1       8.981  -7.988  -2.768  0.00  0.00    -0.047 A 
ATOM     33  H   LIG d   1       7.160  -7.353  -3.680  0.00  0.00     0.062 H 
ATOM     34  C   LIG d   1      10.251  -8.530  -2.978  0.00  0.00     0.059 A 
ATOM     35  H   LIG d   1       8.658  -7.740  -1.768  0.00  0.00     0.063 H 
ATOM     36  C   LIG d   1      10.662  -8.850  -4.273  0.00  0.00    -0.047 A 
ATOM     37  C   LIG d   1       9.810  -8.633  -5.336  0.00  0.00    -0.056 A 
ATOM     38  H   LIG d   1      11.643  -9.270  -4.442  0.00  0.00     0.063 H 
ATOM     39  H   LIG d   1      10.126  -8.883  -6.339  0.00  0.00     0.062 H 
BRANCH  34  40
ATOM     40  C   LIG d   1      11.156  -8.765  -1.834  0.00  0.00     0.339 C 
ATOM     41  O   LIG d   1      12.338  -8.967  -2.026  0.00  0.00    -0.245 OA
BRANCH  40  42
ATOM     42  O   LIG d   1      10.671  -8.752  -0.577  0.00  0.00    -0.465 OA
BRANCH  42  43
ATOM     43  C   LIG d   1      11.457  -8.056   0.425  0.00  0.00     0.082 C 
ATOM     44  H   LIG d   1      10.812  -7.379   0.987  0.00  0.00     0.066 H 
ATOM     45  H   LIG d   1      11.902  -8.781   1.107  0.00  0.00     0.066 H 
ATOM     46  H   LIG d   1      12.245  -7.483  -0.063  0.00  0.00     0.066 H 
ENDBRANCH  42  43
ENDBRANCH  40  42
ENDBRANCH  34  40
ENDBRANCH  13  30
BRANCH   1  47
ATOM     47  C   LIG d   1       6.129 -10.899  -8.007  0.00  0.00     0.022 C 
ATOM     48  H   LIG d   1       5.668 -11.238  -7.080  0.00  0.00     0.036 H 
ATOM     49  H   LIG d   1       5.355 -10.697  -8.746  0.00  0.00     0.036 H 
BRANCH  47  50
ATOM     50  C   LIG d   1       7.069 -11.985  -8.535  0.00  0.00    -0.057 C 
ATOM     51  H   LIG d   1       7.566 -12.474  -7.697  0.00  0.00     0.023 H 
ATOM     52  H   LIG d   1       6.494 -12.723  -9.094  0.00  0.00     0.023 H 
ATOM     53  H   LIG d   1       7.815 -11.534  -9.188  0.00  0.00     0.023 H 
ENDBRANCH  47  50
ENDBRANCH   1  47
BRANCH  18  54
ATOM     54  C   LIG d   1       4.975  -3.029  -4.519  0.00  0.00    -0.043 A 
ATOM     55  C   LIG d   1       4.944  -2.057  -5.501  0.00  0.00    -0.055 A 
ATOM     56  C   LIG d   1       4.286  -0.863  -5.273  0.00  0.00    -0.020 A 
ATOM     57  H   LIG d   1       5.435  -2.229  -6.447  0.00  0.00     0.062 H 
ATOM     58  C   LIG d   1       3.655  -0.642  -4.057  0.00  0.00     0.120 A 
ATOM     59  H   LIG d   1       4.262  -0.104  -6.041  0.00  0.00     0.065 H 
ATOM     60  C   LIG d   1       3.688  -1.619  -3.074  0.00  0.00    -0.020 A 
ATOM     61  C   LIG d   1       4.342  -2.812  -3.308  0.00  0.00    -0.055 A 
ATOM     62  H   LIG d   1       3.198  -1.449  -2.126  0.00  0.00     0.065 H 
ATOM     63  H   LIG d   1       4.363  -3.576  -2.544  0.00  0.00     0.062 H 
BRANCH  58  64
ATOM     64  O   LIG d   1       3.008   0.532  -3.831  0.00  0.00    -0.495 OA
BRANCH  64  65
ATOM     65  C   LIG d   1       3.603   1.430  -2.892  0.00  0.00     0.079 C 
ATOM     66  H   LIG d   1       3.272   1.177  -1.886  0.00  0.00     0.066 H 
ATOM     67  H   LIG d   1       4.689   1.348  -2.949  0.00  0.00     0.066 H 
ATOM     68  H   LIG d   1       3.304   2.452  -3.127  0.00  0.00     0.066 H 
ENDBRANCH  64  65
ENDBRANCH  58  64
ENDBRANCH  18  54
TORSDOF 9
ENDMDL
MODEL 8
REMARK VINA RESULT:      -5.8      3.660      5.347
REMARK  9 active torsions:
REMARK  status: ('A' for Active; 'I' for Inactive)
REMARK    1  A    between atoms: C_1  and  C_2 
REMARK    2  A    between atoms: C_2  and  C_3 
REMARK       I    between atoms: C_3  and  N_5 
REMARK    3  A    between atoms: C_15  and  C_17 
REMARK    4  A    between atoms: C_20  and  C_23 
REMARK    5  A    between atoms: C_23  and  O_25 
REMARK    6  A    between atoms: O_25  and  C_26 
REMARK    7  A    between atoms: C_30  and  C_33 
REMARK    8  A    between atoms: C_36  and  O_39 
REMARK    9  A    between atoms: O_39  and  C_40 
ROOT
ATOM      1  C   LIG d   1       5.726  -3.059  -9.809  0.00  0.00     0.220 C 
ATOM      2  O   LIG d   1       6.704  -3.761  -9.669  0.00  0.00    -0.275 OA
ATOM      3  N   LIG d   1       5.534  -2.000  -8.999  0.00  0.00    -0.258 N 
ATOM      4  C   LIG d   1       4.404  -1.198  -9.170  0.00  0.00     0.058 A 
ATOM      5  C   LIG d   1       3.128  -1.686  -8.944  0.00  0.00    -0.038 A 
ATOM      6  C   LIG d   1       2.043  -0.834  -9.062  0.00  0.00    -0.060 A 
ATOM      7  C   LIG d   1       2.228   0.491  -9.413  0.00  0.00    -0.060 A 
ATOM      8  C   LIG d   1       3.501   0.977  -9.656  0.00  0.00    -0.039 A 
ATOM      9  C   LIG d   1       4.586   0.124  -9.549  0.00  0.00     0.053 A 
ATOM     10  N   LIG d   1       5.876   0.520  -9.877  0.00  0.00    -0.316 N 
ATOM     11  C   LIG d   1       6.917   0.573  -9.009  0.00  0.00     0.017 C 
ATOM     12  C   LIG d   1       7.236  -0.400  -8.138  0.00  0.00     0.037 C 
ATOM     13  C   LIG d   1       6.503  -1.709  -7.963  0.00  0.00     0.086 C 
ATOM     14  H   LIG d   1       7.238  -2.514  -7.943  0.00  0.00     0.061 H 
ATOM     15  C   LIG d   1       8.348  -0.248  -7.275  0.00  0.00     0.163 C 
ATOM     16  O   LIG d   1       8.626  -1.152  -6.512  0.00  0.00    -0.292 OA
ATOM     17  C   LIG d   1       9.194   0.990  -7.271  0.00  0.00     0.017 C 
ATOM     18  C   LIG d   1       8.326   2.175  -7.713  0.00  0.00    -0.004 C 
ATOM     19  H   LIG d   1       7.516   2.325  -6.999  0.00  0.00     0.036 H 
ATOM     20  C   LIG d   1       7.749   1.841  -9.088  0.00  0.00    -0.007 C 
ATOM     21  H   LIG d   1       2.981  -2.721  -8.674  0.00  0.00     0.064 H 
ATOM     22  H   LIG d   1       1.046  -1.208  -8.883  0.00  0.00     0.062 H 
ATOM     23  H   LIG d   1       1.376   1.150  -9.493  0.00  0.00     0.062 H 
ATOM     24  H   LIG d   1       3.646   2.013  -9.926  0.00  0.00     0.064 H 
ATOM     25  H   LIG d   1       6.045   0.779 -10.796  0.00  0.00     0.152 HD
ATOM     26  H   LIG d   1       9.547   1.149  -6.350  0.00  0.00     0.035 H 
ATOM     27  H   LIG d   1      10.028   0.865  -7.963  0.00  0.00     0.035 H 
ATOM     28  H   LIG d   1       7.121   2.665  -9.425  0.00  0.00     0.033 H 
ATOM     29  H   LIG d   1       8.564   1.693  -9.796  0.00  0.00     0.033 H 
ENDROOT
BRANCH  13  30
ATOM     30  C   LIG d   1       5.789  -1.682  -6.636  0.00  0.00    -0.022 A 
ATOM     31  C   LIG d   1       5.258  -0.494  -6.166  0.00  0.00    -0.056 A 
ATOM     32  C   LIG d   1       4.603  -0.460  -4.953  0.00  0.00    -0.047 A 
ATOM     33  H   LIG d   1       5.356   0.410  -6.750  0.00  0.00     0.062 H 
ATOM     34  C   LIG d   1       4.476  -1.629  -4.199  0.00  0.00     0.059 A 
ATOM     35  H   LIG d   1       4.188   0.467  -4.586  0.00  0.00     0.063 H 
ATOM     36  C   LIG d   1       5.014  -2.824  -4.680  0.00  0.00    -0.047 A 
ATOM     37  C   LIG d   1       5.662  -2.844  -5.898  0.00  0.00    -0.056 A 
ATOM     38  H   LIG d   1       4.920  -3.732  -4.101  0.00  0.00     0.063 H 
ATOM     39  H   LIG d   1       6.076  -3.769  -6.272  0.00  0.00     0.062 H 
BRANCH  34  40
ATOM     40  C   LIG d   1       3.776  -1.601  -2.898  0.00  0.00     0.339 C 
ATOM     41  O   LIG d   1       3.543  -2.639  -2.312  0.00  0.00    -0.245 OA
BRANCH  40  42
ATOM     42  O   LIG d   1       3.398  -0.425  -2.361  0.00  0.00    -0.465 OA
BRANCH  42  43
ATOM     43  C   LIG d   1       4.397   0.303  -1.600  0.00  0.00     0.082 C 
ATOM     44  H   LIG d   1       4.112   1.353  -1.538  0.00  0.00     0.066 H 
ATOM     45  H   LIG d   1       4.464  -0.115  -0.595  0.00  0.00     0.066 H 
ATOM     46  H   LIG d   1       5.364   0.218  -2.095  0.00  0.00     0.066 H 
ENDBRANCH  42  43
ENDBRANCH  40  42
ENDBRANCH  34  40
ENDBRANCH  13  30
BRANCH   1  47
ATOM     47  C   LIG d   1       4.724  -3.370 -10.892  0.00  0.00     0.022 C 
ATOM     48  H   LIG d   1       4.522  -4.441 -10.902  0.00  0.00     0.036 H 
ATOM     49  H   LIG d   1       3.799  -2.828 -10.698  0.00  0.00     0.036 H 
BRANCH  47  50
ATOM     50  C   LIG d   1       5.291  -2.945 -12.248  0.00  0.00    -0.057 C 
ATOM     51  H   LIG d   1       6.368  -2.799 -12.161  0.00  0.00     0.023 H 
ATOM     52  H   LIG d   1       5.090  -3.722 -12.985  0.00  0.00     0.023 H 
ATOM     53  H   LIG d   1       4.821  -2.014 -12.563  0.00  0.00     0.023 H 
ENDBRANCH  47  50
ENDBRANCH   1  47
BRANCH  18  54
ATOM     54  C   LIG d   1       9.168   3.421  -7.799  0.00  0.00    -0.043 A 
ATOM     55  C   LIG d   1       9.161   4.180  -8.955  0.00  0.00    -0.055 A 
ATOM     56  C   LIG d   1       9.933   5.323  -9.037  0.00  0.00    -0.020 A 
ATOM     57  H   LIG d   1       8.553   3.878  -9.795  0.00  0.00     0.062 H 
ATOM     58  C   LIG d   1      10.715   5.709  -7.957  0.00  0.00     0.120 A 
ATOM     59  H   LIG d   1       9.927   5.915  -9.940  0.00  0.00     0.065 H 
ATOM     60  C   LIG d   1      10.719   4.946  -6.799  0.00  0.00    -0.020 A 
ATOM     61  C   LIG d   1       9.942   3.807  -6.721  0.00  0.00    -0.055 A 
ATOM     62  H   LIG d   1      11.327   5.245  -5.958  0.00  0.00     0.065 H 
ATOM     63  H   LIG d   1       9.942   3.215  -5.816  0.00  0.00     0.062 H 
BRANCH  58  64
ATOM     64  O   LIG d   1      11.475   6.833  -8.037  0.00  0.00    -0.495 OA
BRANCH  64  65
ATOM     65  C   LIG d   1      12.705   6.836  -7.309  0.00  0.00     0.079 C 
ATOM     66  H   LIG d   1      12.497   6.912  -6.242  0.00  0.00     0.066 H 
ATOM     67  H   LIG d   1      13.248   5.912  -7.509  0.00  0.00     0.066 H 
ATOM     68  H   LIG d   1      13.310   7.687  -7.622  0.00  0.00     0.066 H 
ENDBRANCH  64  65
ENDBRANCH  58  64
ENDBRANCH  18  54
TORSDOF 9
ENDMDL
MODEL 9
REMARK VINA RESULT:      -5.8      5.771     12.192
REMARK  9 active torsions:
REMARK  status: ('A' for Active; 'I' for Inactive)
REMARK    1  A    between atoms: C_1  and  C_2 
REMARK    2  A    between atoms: C_2  and  C_3 
REMARK       I    between atoms: C_3  and  N_5 
REMARK    3  A    between atoms: C_15  and  C_17 
REMARK    4  A    between atoms: C_20  and  C_23 
REMARK    5  A    between atoms: C_23  and  O_25 
REMARK    6  A    between atoms: O_25  and  C_26 
REMARK    7  A    between atoms: C_30  and  C_33 
REMARK    8  A    between atoms: C_36  and  O_39 
REMARK    9  A    between atoms: O_39  and  C_40 
ROOT
ATOM      1  C   LIG d   1       9.236  11.729  -3.599  0.00  0.00     0.220 C 
ATOM      2  O   LIG d   1       8.067  11.550  -3.334  0.00  0.00    -0.275 OA
ATOM      3  N   LIG d   1      10.182  10.944  -3.047  0.00  0.00    -0.258 N 
ATOM      4  C   LIG d   1      11.525  11.159  -3.359  0.00  0.00     0.058 A 
ATOM      5  C   LIG d   1      12.178  12.322  -2.985  0.00  0.00    -0.038 A 
ATOM      6  C   LIG d   1      13.528  12.461  -3.259  0.00  0.00    -0.060 A 
ATOM      7  C   LIG d   1      14.219  11.454  -3.910  0.00  0.00    -0.060 A 
ATOM      8  C   LIG d   1      13.564  10.299  -4.299  0.00  0.00    -0.039 A 
ATOM      9  C   LIG d   1      12.212  10.162  -4.036  0.00  0.00     0.053 A 
ATOM     10  N   LIG d   1      11.474   9.076  -4.488  0.00  0.00    -0.316 N 
ATOM     11  C   LIG d   1      10.849   8.174  -3.689  0.00  0.00     0.017 C 
ATOM     12  C   LIG d   1      10.085   8.492  -2.631  0.00  0.00     0.037 C 
ATOM     13  C   LIG d   1       9.789   9.888  -2.137  0.00  0.00     0.086 C 
ATOM     14  H   LIG d   1       8.717   9.968  -1.958  0.00  0.00     0.061 H 
ATOM     15  C   LIG d   1       9.473   7.472  -1.863  0.00  0.00     0.163 C 
ATOM     16  O   LIG d   1       8.770   7.788  -0.922  0.00  0.00    -0.292 OA
ATOM     17  C   LIG d   1       9.662   6.016  -2.169  0.00  0.00     0.017 C 
ATOM     18  C   LIG d   1      11.029   5.834  -2.841  0.00  0.00    -0.004 C 
ATOM     19  H   LIG d   1      11.820   6.132  -2.154  0.00  0.00     0.036 H 
ATOM     20  C   LIG d   1      11.058   6.722  -4.084  0.00  0.00    -0.007 C 
ATOM     21  H   LIG d   1      11.640  13.111  -2.481  0.00  0.00     0.064 H 
ATOM     22  H   LIG d   1      14.044  13.363  -2.967  0.00  0.00     0.062 H 
ATOM     23  H   LIG d   1      15.273  11.568  -4.110  0.00  0.00     0.062 H 
ATOM     24  H   LIG d   1      14.104   9.510  -4.804  0.00  0.00     0.064 H 
ATOM     25  H   LIG d   1      11.399   8.952  -5.447  0.00  0.00     0.152 HD
ATOM     26  H   LIG d   1       9.624   5.490  -1.321  0.00  0.00     0.035 H 
ATOM     27  H   LIG d   1       8.872   5.679  -2.841  0.00  0.00     0.035 H 
ATOM     28  H   LIG d   1      12.023   6.617  -4.580  0.00  0.00     0.033 H 
ATOM     29  H   LIG d   1      10.265   6.417  -4.766  0.00  0.00     0.033 H 
ENDROOT
BRANCH  13  30
ATOM     30  C   LIG d   1      10.508  10.094  -0.829  0.00  0.00    -0.022 A 
ATOM     31  C   LIG d   1      11.555   9.258  -0.481  0.00  0.00    -0.056 A 
ATOM     32  C   LIG d   1      12.219   9.440   0.714  0.00  0.00    -0.047 A 
ATOM     33  H   LIG d   1      11.854   8.462  -1.147  0.00  0.00     0.062 H 
ATOM     34  C   LIG d   1      11.832  10.470   1.574  0.00  0.00     0.059 A 
ATOM     35  H   LIG d   1      13.036   8.788   0.985  0.00  0.00     0.063 H 
ATOM     36  C   LIG d   1      10.775  11.309   1.217  0.00  0.00    -0.047 A 
ATOM     37  C   LIG d   1      10.124  11.119   0.016  0.00  0.00    -0.056 A 
ATOM     38  H   LIG d   1      10.470  12.108   1.878  0.00  0.00     0.063 H 
ATOM     39  H   LIG d   1       9.307  11.770  -0.263  0.00  0.00     0.062 H 
BRANCH  34  40
ATOM     40  C   LIG d   1      12.537  10.671   2.857  0.00  0.00     0.339 C 
ATOM     41  O   LIG d   1      12.682  11.792   3.301  0.00  0.00    -0.245 OA
BRANCH  40  42
ATOM     42  O   LIG d   1      13.018   9.610   3.534  0.00  0.00    -0.465 OA
BRANCH  42  43
ATOM     43  C   LIG d   1      12.167   9.047   4.567  0.00  0.00     0.082 C 
ATOM     44  H   LIG d   1      12.572   9.297   5.548  0.00  0.00     0.066 H 
ATOM     45  H   LIG d   1      11.162   9.458   4.474  0.00  0.00     0.066 H 
ATOM     46  H   LIG d   1      12.129   7.964   4.456  0.00  0.00     0.066 H 
ENDBRANCH  42  43
ENDBRANCH  40  42
ENDBRANCH  34  40
ENDBRANCH  13  30
BRANCH   1  47
ATOM     47  C   LIG d   1       9.634  12.831  -4.548  0.00  0.00     0.022 C 
ATOM     48  H   LIG d   1       8.955  13.675  -4.428  0.00  0.00     0.036 H 
ATOM     49  H   LIG d   1      10.653  13.150  -4.330  0.00  0.00     0.036 H 
BRANCH  47  50
ATOM     50  C   LIG d   1       9.557  12.316  -5.987  0.00  0.00    -0.057 C 
ATOM     51  H   LIG d   1       9.875  13.103  -6.672  0.00  0.00     0.023 H 
ATOM     52  H   LIG d   1      10.212  11.453  -6.099  0.00  0.00     0.023 H 
ATOM     53  H   LIG d   1       8.531  12.027  -6.216  0.00  0.00     0.023 H 
ENDBRANCH  47  50
ENDBRANCH   1  47
BRANCH  18  54
ATOM     54  C   LIG d   1      11.214   4.392  -3.238  0.00  0.00    -0.043 A 
ATOM     55  C   LIG d   1      12.451   3.948  -3.667  0.00  0.00    -0.055 A 
ATOM     56  C   LIG d   1      12.623   2.626  -4.031  0.00  0.00    -0.020 A 
ATOM     57  H   LIG d   1      13.283   4.634  -3.718  0.00  0.00     0.062 H 
ATOM     58  C   LIG d   1      11.553   1.745  -3.966  0.00  0.00     0.120 A 
ATOM     59  H   LIG d   1      13.590   2.280  -4.366  0.00  0.00     0.065 H 
ATOM     60  C   LIG d   1      10.314   2.194  -3.536  0.00  0.00    -0.020 A 
ATOM     61  C   LIG d   1      10.148   3.514  -3.167  0.00  0.00    -0.055 A 
ATOM     62  H   LIG d   1       9.479   1.510  -3.484  0.00  0.00     0.065 H 
ATOM     63  H   LIG d   1       9.183   3.863  -2.827  0.00  0.00     0.062 H 
BRANCH  58  64
ATOM     64  O   LIG d   1      11.721   0.445  -4.325  0.00  0.00    -0.495 OA
BRANCH  64  65
ATOM     65  C   LIG d   1      12.964  -0.169  -3.974  0.00  0.00     0.079 C 
ATOM     66  H   LIG d   1      13.432  -0.578  -4.869  0.00  0.00     0.066 H 
ATOM     67  H   LIG d   1      13.622   0.575  -3.525  0.00  0.00     0.066 H 
ATOM     68  H   LIG d   1      12.783  -0.972  -3.259  0.00  0.00     0.066 H 
ENDBRANCH  64  65
ENDBRANCH  58  64
ENDBRANCH  18  54
TORSDOF 9
ENDMDL
MODEL 10
REMARK VINA RESULT:      -5.7      3.737      9.217
REMARK  9 active torsions:
REMARK  status: ('A' for Active; 'I' for Inactive)
REMARK    1  A    between atoms: C_1  and  C_2 
REMARK    2  A    between atoms: C_2  and  C_3 
REMARK       I    between atoms: C_3  and  N_5 
REMARK    3  A    between atoms: C_15  and  C_17 
REMARK    4  A    between atoms: C_20  and  C_23 
REMARK    5  A    between atoms: C_23  and  O_25 
REMARK    6  A    between atoms: O_25  and  C_26 
REMARK    7  A    between atoms: C_30  and  C_33 
REMARK    8  A    between atoms: C_36  and  O_39 
REMARK    9  A    between atoms: O_39  and  C_40 
ROOT
ATOM      1  C   LIG d   1       3.245   0.054  -7.428  0.00  0.00     0.220 C 
ATOM      2  O   LIG d   1       2.664   0.182  -6.372  0.00  0.00    -0.275 OA
ATOM      3  N   LIG d   1       4.292  -0.789  -7.524  0.00  0.00    -0.258 N 
ATOM      4  C   LIG d   1       4.954  -0.929  -8.745  0.00  0.00     0.058 A 
ATOM      5  C   LIG d   1       5.660   0.120  -9.311  0.00  0.00    -0.038 A 
ATOM      6  C   LIG d   1       6.355  -0.087 -10.490  0.00  0.00    -0.060 A 
ATOM      7  C   LIG d   1       6.337  -1.325 -11.107  0.00  0.00    -0.060 A 
ATOM      8  C   LIG d   1       5.618  -2.370 -10.552  0.00  0.00    -0.039 A 
ATOM      9  C   LIG d   1       4.913  -2.162  -9.379  0.00  0.00     0.053 A 
ATOM     10  N   LIG d   1       4.092  -3.135  -8.825  0.00  0.00    -0.316 N 
ATOM     11  C   LIG d   1       4.276  -3.708  -7.609  0.00  0.00     0.017 C 
ATOM     12  C   LIG d   1       4.554  -3.033  -6.480  0.00  0.00     0.037 C 
ATOM     13  C   LIG d   1       4.715  -1.536  -6.359  0.00  0.00     0.086 C 
ATOM     14  H   LIG d   1       4.134  -1.197  -5.502  0.00  0.00     0.061 H 
ATOM     15  C   LIG d   1       4.725  -3.728  -5.259  0.00  0.00     0.163 C 
ATOM     16  O   LIG d   1       4.955  -3.091  -4.249  0.00  0.00    -0.292 OA
ATOM     17  C   LIG d   1       4.631  -5.222  -5.168  0.00  0.00     0.017 C 
ATOM     18  C   LIG d   1       5.043  -5.819  -6.519  0.00  0.00    -0.004 C 
ATOM     19  H   LIG d   1       6.081  -5.565  -6.734  0.00  0.00     0.036 H 
ATOM     20  C   LIG d   1       4.131  -5.220  -7.589  0.00  0.00    -0.007 C 
ATOM     21  H   LIG d   1       5.672   1.089  -8.834  0.00  0.00     0.064 H 
ATOM     22  H   LIG d   1       6.911   0.725 -10.934  0.00  0.00     0.062 H 
ATOM     23  H   LIG d   1       6.891  -1.478 -12.021  0.00  0.00     0.062 H 
ATOM     24  H   LIG d   1       5.607  -3.338 -11.031  0.00  0.00     0.064 H 
ATOM     25  H   LIG d   1       3.328  -3.427  -9.347  0.00  0.00     0.152 HD
ATOM     26  H   LIG d   1       5.242  -5.550  -4.448  0.00  0.00     0.035 H 
ATOM     27  H   LIG d   1       3.606  -5.510  -4.933  0.00  0.00     0.035 H 
ATOM     28  H   LIG d   1       4.406  -5.622  -8.564  0.00  0.00     0.033 H 
ATOM     29  H   LIG d   1       3.096  -5.479  -7.368  0.00  0.00     0.033 H 
ENDROOT
BRANCH  13  30
ATOM     30  C   LIG d   1       6.168  -1.233  -6.099  0.00  0.00    -0.022 A 
ATOM     31  C   LIG d   1       6.515  -0.136  -5.330  0.00  0.00    -0.056 A 
ATOM     32  C   LIG d   1       7.843   0.148  -5.088  0.00  0.00    -0.047 A 
ATOM     33  H   LIG d   1       5.745   0.499  -4.917  0.00  0.00     0.062 H 
ATOM     34  C   LIG d   1       8.838  -0.674  -5.621  0.00  0.00     0.059 A 
ATOM     35  H   LIG d   1       8.113   1.003  -4.487  0.00  0.00     0.063 H 
ATOM     36  C   LIG d   1       8.481  -1.779  -6.396  0.00  0.00    -0.047 A 
ATOM     37  C   LIG d   1       7.149  -2.055  -6.625  0.00  0.00    -0.056 A 
ATOM     38  H   LIG d   1       9.246  -2.419  -6.812  0.00  0.00     0.063 H 
ATOM     39  H   LIG d   1       6.871  -2.911  -7.223  0.00  0.00     0.062 H 
BRANCH  34  40
ATOM     40  C   LIG d   1      10.263  -0.377  -5.366  0.00  0.00     0.339 C 
ATOM     41  O   LIG d   1      11.045  -1.283  -5.162  0.00  0.00    -0.245 OA
BRANCH  40  42
ATOM     42  O   LIG d   1      10.694   0.899  -5.362  0.00  0.00    -0.465 OA
BRANCH  42  43
ATOM     43  C   LIG d   1      11.512   1.314  -4.237  0.00  0.00     0.082 C 
ATOM     44  H   LIG d   1      12.321   1.954  -4.592  0.00  0.00     0.066 H 
ATOM     45  H   LIG d   1      10.899   1.867  -3.525  0.00  0.00     0.066 H 
ATOM     46  H   LIG d   1      11.933   0.435  -3.750  0.00  0.00     0.066 H 
ENDBRANCH  42  43
ENDBRANCH  40  42
ENDBRANCH  34  40
ENDBRANCH  13  30
BRANCH   1  47
ATOM     47  C   LIG d   1       2.795   0.837  -8.635  0.00  0.00     0.022 C 
ATOM     48  H   LIG d   1       3.466   0.635  -9.469  0.00  0.00     0.036 H 
ATOM     49  H   LIG d   1       1.781   0.541  -8.904  0.00  0.00     0.036 H 
BRANCH  47  50
ATOM     50  C   LIG d   1       2.821   2.332  -8.311  0.00  0.00    -0.057 C 
ATOM     51  H   LIG d   1       2.741   2.471  -7.232  0.00  0.00     0.023 H 
ATOM     52  H   LIG d   1       3.758   2.764  -8.663  0.00  0.00     0.023 H 
ATOM     53  H   LIG d   1       1.985   2.826  -8.804  0.00  0.00     0.023 H 
ENDBRANCH  47  50
ENDBRANCH   1  47
BRANCH  18  54
ATOM     54  C   LIG d   1       4.881  -7.316  -6.487  0.00  0.00    -0.043 A 
ATOM     55  C   LIG d   1       4.635  -8.009  -7.658  0.00  0.00    -0.055 A 
ATOM     56  C   LIG d   1       4.485  -9.382  -7.631  0.00  0.00    -0.020 A 
ATOM     57  H   LIG d   1       4.559  -7.477  -8.595  0.00  0.00     0.062 H 
ATOM     58  C   LIG d   1       4.582 -10.066  -6.427  0.00  0.00     0.120 A 
ATOM     59  H   LIG d   1       4.293  -9.923  -8.546  0.00  0.00     0.065 H 
ATOM     60  C   LIG d   1       4.829  -9.368  -5.254  0.00  0.00    -0.020 A 
ATOM     61  C   LIG d   1       4.983  -7.996  -5.287  0.00  0.00    -0.055 A 
ATOM     62  H   LIG d   1       4.905  -9.897  -4.316  0.00  0.00     0.065 H 
ATOM     63  H   LIG d   1       5.180  -7.453  -4.374  0.00  0.00     0.062 H 
BRANCH  58  64
ATOM     64  O   LIG d   1       4.435 -11.416  -6.399  0.00  0.00    -0.495 OA
BRANCH  64  65
ATOM     65  C   LIG d   1       3.540 -11.950  -5.420  0.00  0.00     0.079 C 
ATOM     66  H   LIG d   1       3.448 -11.250  -4.590  0.00  0.00     0.066 H 
ATOM     67  H   LIG d   1       2.561 -12.110  -5.872  0.00  0.00     0.066 H 
ATOM     68  H   LIG d   1       3.929 -12.900  -5.052  0.00  0.00     0.066 H 
ENDBRANCH  64  65
ENDBRANCH  58  64
ENDBRANCH  18  54
TORSDOF 9
ENDMDL
