MODEL 1
REMARK VINA RESULT:      -7.5      0.000      0.000
REMARK  5 active torsions:
REMARK  status: ('A' for Active; 'I' for Inactive)
REMARK    1  A    between atoms: C_1  and  N_2 
REMARK    2  A    between atoms: C_4  and  C_11 
REMARK    3  A    between atoms: C_18  and  O_22 
REMARK    4  A    between atoms: O_22  and  S_23 
REMARK    5  A    between atoms: S_23  and  C_26 
ROOT
ATOM      1  C   LIG d   1      10.422   4.625  -5.137  0.00  0.00    -0.006 C 
ATOM      2  C   LIG d   1       9.651   3.501  -5.120  0.00  0.00     0.176 A 
ATOM      3  C   LIG d   1       9.308   2.749  -3.965  0.00  0.00     0.232 A 
ATOM      4  O   LIG d   1       9.635   2.972  -2.811  0.00  0.00    -0.283 OA
ATOM      5  C   LIG d   1       8.471   1.642  -4.460  0.00  0.00     0.068 A 
ATOM      6  C   LIG d   1       7.828   0.571  -3.839  0.00  0.00    -0.044 A 
ATOM      7  C   LIG d   1       7.106  -0.315  -4.587  0.00  0.00    -0.016 A 
ATOM      8  C   LIG d   1       7.010  -0.154  -5.967  0.00  0.00     0.160 A 
ATOM      9  C   LIG d   1       7.644   0.906  -6.598  0.00  0.00     0.026 A 
ATOM     10  C   LIG d   1       8.381   1.815  -5.851  0.00  0.00     0.143 A 
ATOM     11  O   LIG d   1       9.084   2.913  -6.199  0.00  0.00    -0.451 OA
ATOM     12  H   LIG d   1      10.531   5.191  -6.051  0.00  0.00     0.066 H 
ATOM     13  H   LIG d   1       7.905   0.440  -2.770  0.00  0.00     0.063 H 
ATOM     14  H   LIG d   1       6.608  -1.145  -4.106  0.00  0.00     0.066 H 
ATOM     15  H   LIG d   1       7.563   1.024  -7.668  0.00  0.00     0.069 H 
ENDROOT
BRANCH   1  16
ATOM     16  C   LIG d   1      11.101   5.064  -3.921  0.00  0.00     0.004 A 
ATOM     17  C   LIG d   1      12.364   4.703  -3.502  0.00  0.00     0.013 A 
ATOM     18  N   LIG d   1      12.645   5.319  -2.328  0.00  0.00    -0.349 N 
ATOM     19  H   LIG d   1      13.028   4.034  -4.030  0.00  0.00     0.082 H 
ATOM     20  C   LIG d   1      11.581   6.098  -1.923  0.00  0.00     0.049 A 
ATOM     21  C   LIG d   1      10.570   5.979  -2.891  0.00  0.00     0.007 A 
ATOM     22  C   LIG d   1      11.367   6.909  -0.813  0.00  0.00    -0.038 A 
ATOM     23  C   LIG d   1       9.370   6.667  -2.738  0.00  0.00    -0.052 A 
ATOM     24  C   LIG d   1       9.178   7.464  -1.630  0.00  0.00    -0.061 A 
ATOM     25  H   LIG d   1       8.594   6.576  -3.483  0.00  0.00     0.062 H 
ATOM     26  C   LIG d   1      10.174   7.584  -0.673  0.00  0.00    -0.060 A 
ATOM     27  H   LIG d   1       8.247   7.999  -1.508  0.00  0.00     0.062 H 
ATOM     28  H   LIG d   1      10.013   8.213   0.191  0.00  0.00     0.062 H 
ATOM     29  H   LIG d   1      12.136   7.010  -0.061  0.00  0.00     0.064 H 
BRANCH  18  30
ATOM     30  C   LIG d   1      13.901   5.172  -1.587  0.00  0.00     0.012 C 
ATOM     31  H   LIG d   1      14.170   4.117  -1.535  0.00  0.00     0.046 H 
ATOM     32  H   LIG d   1      14.691   5.723  -2.099  0.00  0.00     0.046 H 
ATOM     33  H   LIG d   1      13.776   5.566  -0.579  0.00  0.00     0.046 H 
ENDBRANCH  18  30
ENDBRANCH   1  16
BRANCH   8  34
ATOM     34  O   LIG d   1       6.291  -1.041  -6.700  0.00  0.00    -0.342 OA
BRANCH  34  35
ATOM     35  S   LIG d   1       4.788  -0.812  -6.648  0.00  0.00     0.151 S 
ATOM     36  O   LIG d   1       4.580   0.576  -6.872  0.00  0.00    -0.131 OA
ATOM     37  O   LIG d   1       4.196  -1.812  -7.466  0.00  0.00    -0.131 OA
BRANCH  35  38
ATOM     38  C   LIG d   1       4.267  -1.140  -4.997  0.00  0.00     0.128 A 
ATOM     39  C   LIG d   1       3.555  -0.184  -4.295  0.00  0.00    -0.033 A 
ATOM     40  C   LIG d   1       3.148  -0.441  -3.000  0.00  0.00    -0.060 A 
ATOM     41  H   LIG d   1       3.319   0.762  -4.759  0.00  0.00     0.064 H 
ATOM     42  C   LIG d   1       3.451  -1.651  -2.406  0.00  0.00    -0.062 A 
ATOM     43  H   LIG d   1       2.593   0.306  -2.451  0.00  0.00     0.062 H 
ATOM     44  C   LIG d   1       4.161  -2.607  -3.109  0.00  0.00    -0.060 A 
ATOM     45  H   LIG d   1       3.133  -1.851  -1.393  0.00  0.00     0.062 H 
ATOM     46  C   LIG d   1       4.566  -2.352  -4.406  0.00  0.00    -0.033 A 
ATOM     47  H   LIG d   1       4.398  -3.553  -2.645  0.00  0.00     0.062 H 
ATOM     48  H   LIG d   1       5.117  -3.101  -4.956  0.00  0.00     0.064 H 
ENDBRANCH  35  38
ENDBRANCH  34  35
ENDBRANCH   8  34
TORSDOF 5
ENDMDL
MODEL 2
REMARK VINA RESULT:      -7.4      6.185      9.001
REMARK  5 active torsions:
REMARK  status: ('A' for Active; 'I' for Inactive)
REMARK    1  A    between atoms: C_1  and  N_2 
REMARK    2  A    between atoms: C_4  and  C_11 
REMARK    3  A    between atoms: C_18  and  O_22 
REMARK    4  A    between atoms: O_22  and  S_23 
REMARK    5  A    between atoms: S_23  and  C_26 
ROOT
ATOM      1  C   LIG d   1       5.552  -2.130  -6.222  0.00  0.00    -0.006 C 
ATOM      2  C   LIG d   1       4.591  -1.938  -7.169  0.00  0.00     0.176 A 
ATOM      3  C   LIG d   1       3.912  -0.718  -7.426  0.00  0.00     0.232 A 
ATOM      4  O   LIG d   1       4.067   0.350  -6.857  0.00  0.00    -0.283 OA
ATOM      5  C   LIG d   1       2.981  -1.019  -8.527  0.00  0.00     0.068 A 
ATOM      6  C   LIG d   1       2.046  -0.259  -9.230  0.00  0.00    -0.044 A 
ATOM      7  C   LIG d   1       1.311  -0.835 -10.227  0.00  0.00    -0.016 A 
ATOM      8  C   LIG d   1       1.493  -2.180 -10.544  0.00  0.00     0.160 A 
ATOM      9  C   LIG d   1       2.418  -2.947  -9.854  0.00  0.00     0.026 A 
ATOM     10  C   LIG d   1       3.173  -2.375  -8.839  0.00  0.00     0.143 A 
ATOM     11  O   LIG d   1       4.122  -2.879  -8.023  0.00  0.00    -0.451 OA
ATOM     12  H   LIG d   1       6.091  -3.066  -6.182  0.00  0.00     0.066 H 
ATOM     13  H   LIG d   1       1.900   0.783  -8.984  0.00  0.00     0.063 H 
ATOM     14  H   LIG d   1       0.588  -0.247 -10.772  0.00  0.00     0.066 H 
ATOM     15  H   LIG d   1       2.552  -3.989 -10.107  0.00  0.00     0.069 H 
ENDROOT
BRANCH   1  16
ATOM     16  C   LIG d   1       5.854  -1.071  -5.262  0.00  0.00     0.004 A 
ATOM     17  C   LIG d   1       6.993  -0.295  -5.218  0.00  0.00     0.013 A 
ATOM     18  N   LIG d   1       6.903   0.581  -4.187  0.00  0.00    -0.349 N 
ATOM     19  H   LIG d   1       7.826  -0.371  -5.901  0.00  0.00     0.082 H 
ATOM     20  C   LIG d   1       5.714   0.411  -3.509  0.00  0.00     0.049 A 
ATOM     21  C   LIG d   1       5.004  -0.622  -4.142  0.00  0.00     0.007 A 
ATOM     22  C   LIG d   1       5.155   1.040  -2.401  0.00  0.00    -0.038 A 
ATOM     23  C   LIG d   1       3.755  -1.009  -3.664  0.00  0.00    -0.052 A 
ATOM     24  C   LIG d   1       3.220  -0.373  -2.564  0.00  0.00    -0.061 A 
ATOM     25  H   LIG d   1       3.209  -1.802  -4.152  0.00  0.00     0.062 H 
ATOM     26  C   LIG d   1       3.918   0.647  -1.937  0.00  0.00    -0.060 A 
ATOM     27  H   LIG d   1       2.251  -0.671  -2.191  0.00  0.00     0.062 H 
ATOM     28  H   LIG d   1       3.489   1.139  -1.076  0.00  0.00     0.062 H 
ATOM     29  H   LIG d   1       5.690   1.836  -1.904  0.00  0.00     0.064 H 
BRANCH  18  30
ATOM     30  C   LIG d   1       7.930   1.566  -3.836  0.00  0.00     0.012 C 
ATOM     31  H   LIG d   1       8.335   2.007  -4.747  0.00  0.00     0.046 H 
ATOM     32  H   LIG d   1       7.486   2.349  -3.220  0.00  0.00     0.046 H 
ATOM     33  H   LIG d   1       8.730   1.075  -3.282  0.00  0.00     0.046 H 
ENDBRANCH  18  30
ENDBRANCH   1  16
BRANCH   8  34
ATOM     34  O   LIG d   1       0.756  -2.743 -11.536  0.00  0.00    -0.342 OA
BRANCH  34  35
ATOM     35  S   LIG d   1       1.457  -2.773 -12.886  0.00  0.00     0.151 S 
ATOM     36  O   LIG d   1       2.419  -1.727 -12.867  0.00  0.00    -0.131 OA
ATOM     37  O   LIG d   1       1.809  -4.127 -13.131  0.00  0.00    -0.131 OA
BRANCH  35  38
ATOM     38  C   LIG d   1       0.262  -2.335 -14.104  0.00  0.00     0.128 A 
ATOM     39  C   LIG d   1       0.597  -2.372 -15.445  0.00  0.00    -0.033 A 
ATOM     40  C   LIG d   1      -0.341  -2.027 -16.400  0.00  0.00    -0.060 A 
ATOM     41  H   LIG d   1       1.591  -2.668 -15.745  0.00  0.00     0.064 H 
ATOM     42  C   LIG d   1      -1.612  -1.647 -16.016  0.00  0.00    -0.062 A 
ATOM     43  H   LIG d   1      -0.079  -2.055 -17.448  0.00  0.00     0.062 H 
ATOM     44  C   LIG d   1      -1.948  -1.612 -14.675  0.00  0.00    -0.060 A 
ATOM     45  H   LIG d   1      -2.345  -1.378 -16.763  0.00  0.00     0.062 H 
ATOM     46  C   LIG d   1      -1.011  -1.960 -13.719  0.00  0.00    -0.033 A 
ATOM     47  H   LIG d   1      -2.941  -1.316 -14.375  0.00  0.00     0.062 H 
ATOM     48  H   LIG d   1      -1.275  -1.936 -12.672  0.00  0.00     0.064 H 
ENDBRANCH  35  38
ENDBRANCH  34  35
ENDBRANCH   8  34
TORSDOF 5
ENDMDL
MODEL 3
REMARK VINA RESULT:      -7.4      6.702     11.637
REMARK  5 active torsions:
REMARK  status: ('A' for Active; 'I' for Inactive)
REMARK    1  A    between atoms: C_1  and  N_2 
REMARK    2  A    between atoms: C_4  and  C_11 
REMARK    3  A    between atoms: C_18  and  O_22 
REMARK    4  A    between atoms: O_22  and  S_23 
REMARK    5  A    between atoms: S_23  and  C_26 
ROOT
ATOM      1  C   LIG d   1       7.056  -8.096  -5.239  0.00  0.00    -0.006 C 
ATOM      2  C   LIG d   1       6.673  -6.819  -5.517  0.00  0.00     0.176 A 
ATOM      3  C   LIG d   1       5.405  -6.424  -6.022  0.00  0.00     0.232 A 
ATOM      4  O   LIG d   1       4.457  -7.145  -6.288  0.00  0.00    -0.283 OA
ATOM      5  C   LIG d   1       5.481  -4.959  -6.153  0.00  0.00     0.068 A 
ATOM      6  C   LIG d   1       4.582  -3.985  -6.587  0.00  0.00    -0.044 A 
ATOM      7  C   LIG d   1       4.953  -2.671  -6.595  0.00  0.00    -0.016 A 
ATOM      8  C   LIG d   1       6.228  -2.300  -6.173  0.00  0.00     0.160 A 
ATOM      9  C   LIG d   1       7.132  -3.256  -5.739  0.00  0.00     0.026 A 
ATOM     10  C   LIG d   1       6.769  -4.596  -5.724  0.00  0.00     0.143 A 
ATOM     11  O   LIG d   1       7.436  -5.711  -5.360  0.00  0.00    -0.451 OA
ATOM     12  H   LIG d   1       8.001  -8.282  -4.749  0.00  0.00     0.066 H 
ATOM     13  H   LIG d   1       3.594  -4.270  -6.920  0.00  0.00     0.063 H 
ATOM     14  H   LIG d   1       4.257  -1.916  -6.931  0.00  0.00     0.066 H 
ATOM     15  H   LIG d   1       8.118  -2.959  -5.412  0.00  0.00     0.069 H 
ENDROOT
BRANCH   1  16
ATOM     16  C   LIG d   1       6.189  -9.215  -5.602  0.00  0.00     0.004 A 
ATOM     17  C   LIG d   1       6.246  -9.964  -6.758  0.00  0.00     0.013 A 
ATOM     18  N   LIG d   1       5.280 -10.915  -6.728  0.00  0.00    -0.349 N 
ATOM     19  H   LIG d   1       6.953  -9.817  -7.561  0.00  0.00     0.082 H 
ATOM     20  C   LIG d   1       4.546 -10.824  -5.563  0.00  0.00     0.049 A 
ATOM     21  C   LIG d   1       5.074  -9.765  -4.807  0.00  0.00     0.007 A 
ATOM     22  C   LIG d   1       3.467 -11.546  -5.064  0.00  0.00    -0.038 A 
ATOM     23  C   LIG d   1       4.520  -9.445  -3.570  0.00  0.00    -0.052 A 
ATOM     24  C   LIG d   1       3.451 -10.173  -3.093  0.00  0.00    -0.061 A 
ATOM     25  H   LIG d   1       4.927  -8.632  -2.988  0.00  0.00     0.062 H 
ATOM     26  C   LIG d   1       2.928 -11.219  -3.838  0.00  0.00    -0.060 A 
ATOM     27  H   LIG d   1       3.020  -9.927  -2.134  0.00  0.00     0.062 H 
ATOM     28  H   LIG d   1       2.091 -11.783  -3.454  0.00  0.00     0.062 H 
ATOM     29  H   LIG d   1       3.052 -12.363  -5.635  0.00  0.00     0.064 H 
BRANCH  18  30
ATOM     30  C   LIG d   1       5.043 -11.897  -7.789  0.00  0.00     0.012 C 
ATOM     31  H   LIG d   1       5.913 -11.941  -8.445  0.00  0.00     0.046 H 
ATOM     32  H   LIG d   1       4.875 -12.879  -7.344  0.00  0.00     0.046 H 
ATOM     33  H   LIG d   1       4.166 -11.604  -8.367  0.00  0.00     0.046 H 
ENDBRANCH  18  30
ENDBRANCH   1  16
BRANCH   8  34
ATOM     34  O   LIG d   1       6.587  -0.991  -6.186  0.00  0.00    -0.342 OA
BRANCH  34  35
ATOM     35  S   LIG d   1       6.678  -0.360  -4.805  0.00  0.00     0.151 S 
ATOM     36  O   LIG d   1       7.686  -1.070  -4.099  0.00  0.00    -0.131 OA
ATOM     37  O   LIG d   1       6.735   1.046  -5.003  0.00  0.00    -0.131 OA
BRANCH  35  38
ATOM     38  C   LIG d   1       5.157  -0.690  -3.979  0.00  0.00     0.128 A 
ATOM     39  C   LIG d   1       5.111  -1.633  -2.968  0.00  0.00    -0.033 A 
ATOM     40  C   LIG d   1       3.917  -1.892  -2.321  0.00  0.00    -0.060 A 
ATOM     41  H   LIG d   1       6.006  -2.166  -2.685  0.00  0.00     0.064 H 
ATOM     42  C   LIG d   1       2.771  -1.210  -2.683  0.00  0.00    -0.062 A 
ATOM     43  H   LIG d   1       3.880  -2.629  -1.532  0.00  0.00     0.062 H 
ATOM     44  C   LIG d   1       2.818  -0.267  -3.693  0.00  0.00    -0.060 A 
ATOM     45  H   LIG d   1       1.838  -1.414  -2.177  0.00  0.00     0.062 H 
ATOM     46  C   LIG d   1       4.013  -0.004  -4.338  0.00  0.00    -0.033 A 
ATOM     47  H   LIG d   1       1.923   0.266  -3.976  0.00  0.00     0.062 H 
ATOM     48  H   LIG d   1       4.049   0.735  -5.124  0.00  0.00     0.064 H 
ENDBRANCH  35  38
ENDBRANCH  34  35
ENDBRANCH   8  34
TORSDOF 5
ENDMDL
MODEL 4
REMARK VINA RESULT:      -7.3      0.863      1.993
REMARK  5 active torsions:
REMARK  status: ('A' for Active; 'I' for Inactive)
REMARK    1  A    between atoms: C_1  and  N_2 
REMARK    2  A    between atoms: C_4  and  C_11 
REMARK    3  A    between atoms: C_18  and  O_22 
REMARK    4  A    between atoms: O_22  and  S_23 
REMARK    5  A    between atoms: S_23  and  C_26 
ROOT
ATOM      1  C   LIG d   1      10.272   5.126  -5.418  0.00  0.00    -0.006 C 
ATOM      2  C   LIG d   1       9.564   3.968  -5.288  0.00  0.00     0.176 A 
ATOM      3  C   LIG d   1       9.154   3.381  -4.062  0.00  0.00     0.232 A 
ATOM      4  O   LIG d   1       9.357   3.801  -2.935  0.00  0.00    -0.283 OA
ATOM      5  C   LIG d   1       8.429   2.157  -4.445  0.00  0.00     0.068 A 
ATOM      6  C   LIG d   1       7.788   1.153  -3.719  0.00  0.00    -0.044 A 
ATOM      7  C   LIG d   1       7.188   0.115  -4.375  0.00  0.00    -0.016 A 
ATOM      8  C   LIG d   1       7.216   0.056  -5.766  0.00  0.00     0.160 A 
ATOM      9  C   LIG d   1       7.849   1.047  -6.501  0.00  0.00     0.026 A 
ATOM     10  C   LIG d   1       8.461   2.108  -5.848  0.00  0.00     0.143 A 
ATOM     11  O   LIG d   1       9.135   3.185  -6.305  0.00  0.00    -0.451 OA
ATOM     12  H   LIG d   1      10.437   5.550  -6.398  0.00  0.00     0.066 H 
ATOM     13  H   LIG d   1       7.769   1.194  -2.639  0.00  0.00     0.063 H 
ATOM     14  H   LIG d   1       6.692  -0.662  -3.813  0.00  0.00     0.066 H 
ATOM     15  H   LIG d   1       7.864   0.993  -7.579  0.00  0.00     0.069 H 
ENDROOT
BRANCH   1  16
ATOM     16  C   LIG d   1      10.808   5.792  -4.234  0.00  0.00     0.004 A 
ATOM     17  C   LIG d   1      10.274   6.885  -3.587  0.00  0.00     0.013 A 
ATOM     18  N   LIG d   1      11.054   7.209  -2.527  0.00  0.00    -0.349 N 
ATOM     19  H   LIG d   1       9.371   7.402  -3.878  0.00  0.00     0.082 H 
ATOM     20  C   LIG d   1      12.133   6.354  -2.439  0.00  0.00     0.049 A 
ATOM     21  C   LIG d   1      12.034   5.432  -3.494  0.00  0.00     0.007 A 
ATOM     22  C   LIG d   1      13.204   6.265  -1.556  0.00  0.00    -0.038 A 
ATOM     23  C   LIG d   1      12.999   4.441  -3.650  0.00  0.00    -0.052 A 
ATOM     24  C   LIG d   1      14.052   4.370  -2.764  0.00  0.00    -0.061 A 
ATOM     25  H   LIG d   1      12.922   3.731  -4.460  0.00  0.00     0.062 H 
ATOM     26  C   LIG d   1      14.153   5.280  -1.722  0.00  0.00    -0.060 A 
ATOM     27  H   LIG d   1      14.803   3.603  -2.883  0.00  0.00     0.062 H 
ATOM     28  H   LIG d   1      14.982   5.215  -1.033  0.00  0.00     0.062 H 
ATOM     29  H   LIG d   1      13.292   6.968  -0.740  0.00  0.00     0.064 H 
BRANCH  18  30
ATOM     30  C   LIG d   1      10.792   8.319  -1.606  0.00  0.00     0.012 C 
ATOM     31  H   LIG d   1      11.501   8.279  -0.779  0.00  0.00     0.046 H 
ATOM     32  H   LIG d   1      10.907   9.265  -2.136  0.00  0.00     0.046 H 
ATOM     33  H   LIG d   1       9.776   8.239  -1.219  0.00  0.00     0.046 H 
ENDBRANCH  18  30
ENDBRANCH   1  16
BRANCH   8  34
ATOM     34  O   LIG d   1       6.618  -0.980  -6.408  0.00  0.00    -0.342 OA
BRANCH  34  35
ATOM     35  S   LIG d   1       5.112  -0.826  -6.563  0.00  0.00     0.151 S 
ATOM     36  O   LIG d   1       4.874   0.539  -6.878  0.00  0.00    -0.131 OA
ATOM     37  O   LIG d   1       4.680  -1.888  -7.403  0.00  0.00    -0.131 OA
BRANCH  35  38
ATOM     38  C   LIG d   1       4.393  -1.111  -4.980  0.00  0.00     0.128 A 
ATOM     39  C   LIG d   1       3.518  -0.185  -4.443  0.00  0.00    -0.033 A 
ATOM     40  C   LIG d   1       2.954  -0.409  -3.200  0.00  0.00    -0.060 A 
ATOM     41  H   LIG d   1       3.276   0.712  -4.992  0.00  0.00     0.064 H 
ATOM     42  C   LIG d   1       3.264  -1.556  -2.496  0.00  0.00    -0.062 A 
ATOM     43  H   LIG d   1       2.271   0.315  -2.780  0.00  0.00     0.062 H 
ATOM     44  C   LIG d   1       4.138  -2.483  -3.035  0.00  0.00    -0.060 A 
ATOM     45  H   LIG d   1       2.824  -1.730  -1.525  0.00  0.00     0.062 H 
ATOM     46  C   LIG d   1       4.699  -2.262  -4.279  0.00  0.00    -0.033 A 
ATOM     47  H   LIG d   1       4.381  -3.380  -2.485  0.00  0.00     0.062 H 
ATOM     48  H   LIG d   1       5.379  -2.987  -4.701  0.00  0.00     0.064 H 
ENDBRANCH  35  38
ENDBRANCH  34  35
ENDBRANCH   8  34
TORSDOF 5
ENDMDL
MODEL 5
REMARK VINA RESULT:      -7.2      4.807      9.073
REMARK  5 active torsions:
REMARK  status: ('A' for Active; 'I' for Inactive)
REMARK    1  A    between atoms: C_1  and  N_2 
REMARK    2  A    between atoms: C_4  and  C_11 
REMARK    3  A    between atoms: C_18  and  O_22 
REMARK    4  A    between atoms: O_22  and  S_23 
REMARK    5  A    between atoms: S_23  and  C_26 
ROOT
ATOM      1  C   LIG d   1       8.262   1.500  -3.909  0.00  0.00    -0.006 C 
ATOM      2  C   LIG d   1       8.547   2.063  -5.116  0.00  0.00     0.176 A 
ATOM      3  C   LIG d   1       7.925   1.736  -6.351  0.00  0.00     0.232 A 
ATOM      4  O   LIG d   1       7.045   0.913  -6.542  0.00  0.00    -0.283 OA
ATOM      5  C   LIG d   1       8.570   2.606  -7.350  0.00  0.00     0.068 A 
ATOM      6  C   LIG d   1       8.411   2.771  -8.726  0.00  0.00    -0.044 A 
ATOM      7  C   LIG d   1       9.177   3.682  -9.395  0.00  0.00    -0.016 A 
ATOM      8  C   LIG d   1      10.117   4.448  -8.708  0.00  0.00     0.160 A 
ATOM      9  C   LIG d   1      10.285   4.295  -7.341  0.00  0.00     0.026 A 
ATOM     10  C   LIG d   1       9.513   3.373  -6.647  0.00  0.00     0.143 A 
ATOM     11  O   LIG d   1       9.470   3.027  -5.343  0.00  0.00    -0.451 OA
ATOM     12  H   LIG d   1       8.710   1.898  -3.009  0.00  0.00     0.066 H 
ATOM     13  H   LIG d   1       7.687   2.175  -9.262  0.00  0.00     0.063 H 
ATOM     14  H   LIG d   1       9.055   3.810 -10.461  0.00  0.00     0.066 H 
ATOM     15  H   LIG d   1      11.015   4.894  -6.816  0.00  0.00     0.069 H 
ENDROOT
BRANCH   1  16
ATOM     16  C   LIG d   1       7.354   0.359  -3.830  0.00  0.00     0.004 A 
ATOM     17  C   LIG d   1       7.596  -0.924  -4.271  0.00  0.00     0.013 A 
ATOM     18  N   LIG d   1       6.515  -1.701  -4.019  0.00  0.00    -0.349 N 
ATOM     19  H   LIG d   1       8.509  -1.258  -4.742  0.00  0.00     0.082 H 
ATOM     20  C   LIG d   1       5.518  -0.964  -3.414  0.00  0.00     0.049 A 
ATOM     21  C   LIG d   1       5.989   0.352  -3.267  0.00  0.00     0.007 A 
ATOM     22  C   LIG d   1       4.240  -1.282  -2.968  0.00  0.00    -0.038 A 
ATOM     23  C   LIG d   1       5.182   1.322  -2.679  0.00  0.00    -0.052 A 
ATOM     24  C   LIG d   1       3.918   0.985  -2.244  0.00  0.00    -0.061 A 
ATOM     25  H   LIG d   1       5.545   2.332  -2.565  0.00  0.00     0.062 H 
ATOM     26  C   LIG d   1       3.451  -0.312  -2.388  0.00  0.00    -0.060 A 
ATOM     27  H   LIG d   1       3.290   1.736  -1.788  0.00  0.00     0.062 H 
ATOM     28  H   LIG d   1       2.459  -0.565  -2.043  0.00  0.00     0.062 H 
ATOM     29  H   LIG d   1       3.865  -2.290  -3.075  0.00  0.00     0.064 H 
BRANCH  18  30
ATOM     30  C   LIG d   1       6.415  -3.125  -4.349  0.00  0.00     0.012 C 
ATOM     31  H   LIG d   1       6.045  -3.674  -3.483  0.00  0.00     0.046 H 
ATOM     32  H   LIG d   1       5.725  -3.257  -5.184  0.00  0.00     0.046 H 
ATOM     33  H   LIG d   1       7.398  -3.504  -4.627  0.00  0.00     0.046 H 
ENDBRANCH  18  30
ENDBRANCH   1  16
BRANCH   8  34
ATOM     34  O   LIG d   1      10.873   5.350  -9.383  0.00  0.00    -0.342 OA
BRANCH  34  35
ATOM     35  S   LIG d   1      10.327   6.769  -9.344  0.00  0.00     0.151 S 
ATOM     36  O   LIG d   1       9.064   6.700  -8.696  0.00  0.00    -0.131 OA
ATOM     37  O   LIG d   1      11.380   7.597  -8.872  0.00  0.00    -0.131 OA
BRANCH  35  38
ATOM     38  C   LIG d   1      10.012   7.254 -11.008  0.00  0.00     0.128 A 
ATOM     39  C   LIG d   1       9.280   6.428 -11.842  0.00  0.00    -0.033 A 
ATOM     40  C   LIG d   1       9.035   6.809 -13.148  0.00  0.00    -0.060 A 
ATOM     41  H   LIG d   1       8.901   5.487 -11.473  0.00  0.00     0.064 H 
ATOM     42  C   LIG d   1       9.521   8.013 -13.620  0.00  0.00    -0.062 A 
ATOM     43  H   LIG d   1       8.464   6.164 -13.799  0.00  0.00     0.062 H 
ATOM     44  C   LIG d   1      10.251   8.839 -12.786  0.00  0.00    -0.060 A 
ATOM     45  H   LIG d   1       9.329   8.310 -14.641  0.00  0.00     0.062 H 
ATOM     46  C   LIG d   1      10.494   8.461 -11.479  0.00  0.00    -0.033 A 
ATOM     47  H   LIG d   1      10.631   9.780 -13.155  0.00  0.00     0.062 H 
ATOM     48  H   LIG d   1      11.062   9.108 -10.827  0.00  0.00     0.064 H 
ENDBRANCH  35  38
ENDBRANCH  34  35
ENDBRANCH   8  34
TORSDOF 5
ENDMDL
MODEL 6
REMARK VINA RESULT:      -7.1      5.580      8.526
REMARK  5 active torsions:
REMARK  status: ('A' for Active; 'I' for Inactive)
REMARK    1  A    between atoms: C_1  and  N_2 
REMARK    2  A    between atoms: C_4  and  C_11 
REMARK    3  A    between atoms: C_18  and  O_22 
REMARK    4  A    between atoms: O_22  and  S_23 
REMARK    5  A    between atoms: S_23  and  C_26 
ROOT
ATOM      1  C   LIG d   1       5.417  -2.109  -6.216  0.00  0.00    -0.006 C 
ATOM      2  C   LIG d   1       4.499  -1.870  -7.194  0.00  0.00     0.176 A 
ATOM      3  C   LIG d   1       3.930  -0.607  -7.507  0.00  0.00     0.232 A 
ATOM      4  O   LIG d   1       4.160   0.464  -6.968  0.00  0.00    -0.283 OA
ATOM      5  C   LIG d   1       3.004  -0.866  -8.623  0.00  0.00     0.068 A 
ATOM      6  C   LIG d   1       2.154  -0.055  -9.375  0.00  0.00    -0.044 A 
ATOM      7  C   LIG d   1       1.398  -0.602 -10.373  0.00  0.00    -0.016 A 
ATOM      8  C   LIG d   1       1.473  -1.967 -10.642  0.00  0.00     0.160 A 
ATOM      9  C   LIG d   1       2.314  -2.784  -9.904  0.00  0.00     0.026 A 
ATOM     10  C   LIG d   1       3.089  -2.243  -8.887  0.00  0.00     0.143 A 
ATOM     11  O   LIG d   1       3.974  -2.796  -8.030  0.00  0.00    -0.451 OA
ATOM     12  H   LIG d   1       5.874  -3.084  -6.131  0.00  0.00     0.066 H 
ATOM     13  H   LIG d   1       2.090   1.003  -9.165  0.00  0.00     0.063 H 
ATOM     14  H   LIG d   1       0.739   0.026 -10.955  0.00  0.00     0.066 H 
ATOM     15  H   LIG d   1       2.367  -3.841 -10.120  0.00  0.00     0.069 H 
ENDROOT
BRANCH   1  16
ATOM     16  C   LIG d   1       5.783  -1.047  -5.282  0.00  0.00     0.004 A 
ATOM     17  C   LIG d   1       6.955  -0.321  -5.272  0.00  0.00     0.013 A 
ATOM     18  N   LIG d   1       6.923   0.576  -4.257  0.00  0.00    -0.349 N 
ATOM     19  H   LIG d   1       7.771  -0.446  -5.969  0.00  0.00     0.082 H 
ATOM     20  C   LIG d   1       5.740   0.472  -3.555  0.00  0.00     0.049 A 
ATOM     21  C   LIG d   1       4.974  -0.541  -4.156  0.00  0.00     0.007 A 
ATOM     22  C   LIG d   1       5.230   1.145  -2.449  0.00  0.00    -0.038 A 
ATOM     23  C   LIG d   1       3.718  -0.863  -3.648  0.00  0.00    -0.052 A 
ATOM     24  C   LIG d   1       3.232  -0.184  -2.551  0.00  0.00    -0.061 A 
ATOM     25  H   LIG d   1       3.129  -1.640  -4.111  0.00  0.00     0.062 H 
ATOM     26  C   LIG d   1       3.986   0.816  -1.956  0.00  0.00    -0.060 A 
ATOM     27  H   LIG d   1       2.258  -0.432  -2.155  0.00  0.00     0.062 H 
ATOM     28  H   LIG d   1       3.595   1.342  -1.097  0.00  0.00     0.062 H 
ATOM     29  H   LIG d   1       5.809   1.926  -1.977  0.00  0.00     0.064 H 
BRANCH  18  30
ATOM     30  C   LIG d   1       7.998   1.521  -3.943  0.00  0.00     0.012 C 
ATOM     31  H   LIG d   1       8.744   1.029  -3.319  0.00  0.00     0.046 H 
ATOM     32  H   LIG d   1       8.466   1.859  -4.869  0.00  0.00     0.046 H 
ATOM     33  H   LIG d   1       7.585   2.378  -3.410  0.00  0.00     0.046 H 
ENDBRANCH  18  30
ENDBRANCH   1  16
BRANCH   8  34
ATOM     34  O   LIG d   1       0.717  -2.500 -11.635  0.00  0.00    -0.342 OA
BRANCH  34  35
ATOM     35  S   LIG d   1       1.415  -2.547 -12.986  0.00  0.00     0.151 S 
ATOM     36  O   LIG d   1       0.390  -2.565 -13.972  0.00  0.00    -0.131 OA
ATOM     37  O   LIG d   1       2.425  -1.549 -12.957  0.00  0.00    -0.131 OA
BRANCH  35  38
ATOM     38  C   LIG d   1       2.243  -4.099 -13.093  0.00  0.00     0.128 A 
ATOM     39  C   LIG d   1       1.526  -5.274 -12.965  0.00  0.00    -0.033 A 
ATOM     40  C   LIG d   1       2.176  -6.491 -13.047  0.00  0.00    -0.060 A 
ATOM     41  H   LIG d   1       0.459  -5.242 -12.801  0.00  0.00     0.064 H 
ATOM     42  C   LIG d   1       3.541  -6.533 -13.257  0.00  0.00    -0.062 A 
ATOM     43  H   LIG d   1       1.617  -7.410 -12.947  0.00  0.00     0.062 H 
ATOM     44  C   LIG d   1       4.257  -5.358 -13.386  0.00  0.00    -0.060 A 
ATOM     45  H   LIG d   1       4.049  -7.485 -13.321  0.00  0.00     0.062 H 
ATOM     46  C   LIG d   1       3.607  -4.140 -13.308  0.00  0.00    -0.033 A 
ATOM     47  H   LIG d   1       5.324  -5.390 -13.550  0.00  0.00     0.062 H 
ATOM     48  H   LIG d   1       4.166  -3.222 -13.412  0.00  0.00     0.064 H 
ENDBRANCH  35  38
ENDBRANCH  34  35
ENDBRANCH   8  34
TORSDOF 5
ENDMDL
MODEL 7
REMARK VINA RESULT:      -7.1      1.471      2.273
REMARK  5 active torsions:
REMARK  status: ('A' for Active; 'I' for Inactive)
REMARK    1  A    between atoms: C_1  and  N_2 
REMARK    2  A    between atoms: C_4  and  C_11 
REMARK    3  A    between atoms: C_18  and  O_22 
REMARK    4  A    between atoms: O_22  and  S_23 
REMARK    5  A    between atoms: S_23  and  C_26 
ROOT
ATOM      1  C   LIG d   1       9.823   3.854  -2.982  0.00  0.00    -0.006 C 
ATOM      2  C   LIG d   1       9.356   2.930  -3.868  0.00  0.00     0.176 A 
ATOM      3  C   LIG d   1       9.776   2.790  -5.218  0.00  0.00     0.232 A 
ATOM      4  O   LIG d   1      10.610   3.456  -5.807  0.00  0.00    -0.283 OA
ATOM      5  C   LIG d   1       8.987   1.665  -5.751  0.00  0.00     0.068 A 
ATOM      6  C   LIG d   1       8.929   1.037  -6.995  0.00  0.00    -0.044 A 
ATOM      7  C   LIG d   1       8.073  -0.009  -7.191  0.00  0.00    -0.016 A 
ATOM      8  C   LIG d   1       7.257  -0.451  -6.151  0.00  0.00     0.160 A 
ATOM      9  C   LIG d   1       7.305   0.163  -4.910  0.00  0.00     0.026 A 
ATOM     10  C   LIG d   1       8.170   1.228  -4.696  0.00  0.00     0.143 A 
ATOM     11  O   LIG d   1       8.414   1.992  -3.611  0.00  0.00    -0.451 OA
ATOM     12  H   LIG d   1       9.524   3.807  -1.945  0.00  0.00     0.066 H 
ATOM     13  H   LIG d   1       9.557   1.381  -7.805  0.00  0.00     0.063 H 
ATOM     14  H   LIG d   1       8.028  -0.496  -8.154  0.00  0.00     0.066 H 
ATOM     15  H   LIG d   1       6.669  -0.186  -4.109  0.00  0.00     0.069 H 
ENDROOT
BRANCH   1  16
ATOM     16  C   LIG d   1      10.726   4.909  -3.434  0.00  0.00     0.004 A 
ATOM     17  C   LIG d   1      12.085   4.985  -3.215  0.00  0.00     0.013 A 
ATOM     18  N   LIG d   1      12.575   6.109  -3.794  0.00  0.00    -0.349 N 
ATOM     19  H   LIG d   1      12.670   4.259  -2.670  0.00  0.00     0.082 H 
ATOM     20  C   LIG d   1      11.563   6.820  -4.405  0.00  0.00     0.049 A 
ATOM     21  C   LIG d   1      10.366   6.111  -4.212  0.00  0.00     0.007 A 
ATOM     22  C   LIG d   1      11.539   8.016  -5.115  0.00  0.00    -0.038 A 
ATOM     23  C   LIG d   1       9.170   6.603  -4.729  0.00  0.00    -0.052 A 
ATOM     24  C   LIG d   1       9.168   7.790  -5.430  0.00  0.00    -0.061 A 
ATOM     25  H   LIG d   1       8.250   6.057  -4.582  0.00  0.00     0.062 H 
ATOM     26  C   LIG d   1      10.348   8.492  -5.621  0.00  0.00    -0.060 A 
ATOM     27  H   LIG d   1       8.242   8.174  -5.832  0.00  0.00     0.062 H 
ATOM     28  H   LIG d   1      10.335   9.421  -6.173  0.00  0.00     0.062 H 
ATOM     29  H   LIG d   1      12.452   8.571  -5.271  0.00  0.00     0.064 H 
BRANCH  18  30
ATOM     30  C   LIG d   1      13.982   6.516  -3.768  0.00  0.00     0.012 C 
ATOM     31  H   LIG d   1      14.537   5.956  -4.521  0.00  0.00     0.046 H 
ATOM     32  H   LIG d   1      14.056   7.583  -3.982  0.00  0.00     0.046 H 
ATOM     33  H   LIG d   1      14.401   6.313  -2.782  0.00  0.00     0.046 H 
ENDBRANCH  18  30
ENDBRANCH   1  16
BRANCH   8  34
ATOM     34  O   LIG d   1       6.410  -1.491  -6.356  0.00  0.00    -0.342 OA
BRANCH  34  35
ATOM     35  S   LIG d   1       4.948  -1.085  -6.464  0.00  0.00     0.151 S 
ATOM     36  O   LIG d   1       4.933   0.290  -6.823  0.00  0.00    -0.131 OA
ATOM     37  O   LIG d   1       4.306  -2.083  -7.247  0.00  0.00    -0.131 OA
BRANCH  35  38
ATOM     38  C   LIG d   1       4.255  -1.191  -4.848  0.00  0.00     0.128 A 
ATOM     39  C   LIG d   1       4.584  -2.252  -4.024  0.00  0.00    -0.033 A 
ATOM     40  C   LIG d   1       4.040  -2.335  -2.756  0.00  0.00    -0.060 A 
ATOM     41  H   LIG d   1       5.266  -3.014  -4.371  0.00  0.00     0.064 H 
ATOM     42  C   LIG d   1       3.168  -1.360  -2.312  0.00  0.00    -0.062 A 
ATOM     43  H   LIG d   1       4.297  -3.163  -2.112  0.00  0.00     0.062 H 
ATOM     44  C   LIG d   1       2.840  -0.299  -3.136  0.00  0.00    -0.060 A 
ATOM     45  H   LIG d   1       2.742  -1.425  -1.321  0.00  0.00     0.062 H 
ATOM     46  C   LIG d   1       3.387  -0.213  -4.403  0.00  0.00    -0.033 A 
ATOM     47  H   LIG d   1       2.159   0.464  -2.789  0.00  0.00     0.062 H 
ATOM     48  H   LIG d   1       3.133   0.618  -5.044  0.00  0.00     0.064 H 
ENDBRANCH  35  38
ENDBRANCH  34  35
ENDBRANCH   8  34
TORSDOF 5
ENDMDL
MODEL 8
REMARK VINA RESULT:      -7.1      2.003      2.951
REMARK  5 active torsions:
REMARK  status: ('A' for Active; 'I' for Inactive)
REMARK    1  A    between atoms: C_1  and  N_2 
REMARK    2  A    between atoms: C_4  and  C_11 
REMARK    3  A    between atoms: C_18  and  O_22 
REMARK    4  A    between atoms: O_22  and  S_23 
REMARK    5  A    between atoms: S_23  and  C_26 
ROOT
ATOM      1  C   LIG d   1      10.454   4.802  -4.998  0.00  0.00    -0.006 C 
ATOM      2  C   LIG d   1       9.680   3.681  -5.019  0.00  0.00     0.176 A 
ATOM      3  C   LIG d   1       9.347   2.882  -3.892  0.00  0.00     0.232 A 
ATOM      4  O   LIG d   1       9.688   3.057  -2.734  0.00  0.00    -0.283 OA
ATOM      5  C   LIG d   1       8.501   1.799  -4.424  0.00  0.00     0.068 A 
ATOM      6  C   LIG d   1       7.862   0.706  -3.840  0.00  0.00    -0.044 A 
ATOM      7  C   LIG d   1       7.129  -0.147  -4.616  0.00  0.00    -0.016 A 
ATOM      8  C   LIG d   1       7.018   0.071  -5.987  0.00  0.00     0.160 A 
ATOM      9  C   LIG d   1       7.648   1.154  -6.580  0.00  0.00     0.026 A 
ATOM     10  C   LIG d   1       8.396   2.030  -5.805  0.00  0.00     0.143 A 
ATOM     11  O   LIG d   1       9.099   3.140  -6.115  0.00  0.00    -0.451 OA
ATOM     12  H   LIG d   1      10.554   5.405  -5.889  0.00  0.00     0.066 H 
ATOM     13  H   LIG d   1       7.950   0.530  -2.778  0.00  0.00     0.063 H 
ATOM     14  H   LIG d   1       6.633  -0.994  -4.165  0.00  0.00     0.066 H 
ATOM     15  H   LIG d   1       7.556   1.317  -7.644  0.00  0.00     0.069 H 
ENDROOT
BRANCH   1  16
ATOM     16  C   LIG d   1      11.148   5.189  -3.772  0.00  0.00     0.004 A 
ATOM     17  C   LIG d   1      12.409   4.797  -3.377  0.00  0.00     0.013 A 
ATOM     18  N   LIG d   1      12.707   5.367  -2.184  0.00  0.00    -0.349 N 
ATOM     19  H   LIG d   1      13.060   4.139  -3.934  0.00  0.00     0.082 H 
ATOM     20  C   LIG d   1      11.656   6.145  -1.742  0.00  0.00     0.049 A 
ATOM     21  C   LIG d   1      10.637   6.072  -2.706  0.00  0.00     0.007 A 
ATOM     22  C   LIG d   1      11.461   6.917  -0.602  0.00  0.00    -0.038 A 
ATOM     23  C   LIG d   1       9.446   6.770  -2.519  0.00  0.00    -0.052 A 
ATOM     24  C   LIG d   1       9.273   7.529  -1.382  0.00  0.00    -0.061 A 
ATOM     25  H   LIG d   1       8.664   6.715  -3.260  0.00  0.00     0.062 H 
ATOM     26  C   LIG d   1      10.277   7.602  -0.429  0.00  0.00    -0.060 A 
ATOM     27  H   LIG d   1       8.350   8.071  -1.234  0.00  0.00     0.062 H 
ATOM     28  H   LIG d   1      10.131   8.201   0.458  0.00  0.00     0.062 H 
ATOM     29  H   LIG d   1      12.237   6.981   0.147  0.00  0.00     0.064 H 
BRANCH  18  30
ATOM     30  C   LIG d   1      13.966   5.178  -1.459  0.00  0.00     0.012 C 
ATOM     31  H   LIG d   1      13.902   4.276  -0.849  0.00  0.00     0.046 H 
ATOM     32  H   LIG d   1      14.784   5.075  -2.173  0.00  0.00     0.046 H 
ATOM     33  H   LIG d   1      14.149   6.039  -0.816  0.00  0.00     0.046 H 
ENDBRANCH  18  30
ENDBRANCH   1  16
BRANCH   8  34
ATOM     34  O   LIG d   1       6.288  -0.783  -6.748  0.00  0.00    -0.342 OA
BRANCH  34  35
ATOM     35  S   LIG d   1       4.785  -0.568  -6.651  0.00  0.00     0.151 S 
ATOM     36  O   LIG d   1       4.180  -1.840  -6.842  0.00  0.00    -0.131 OA
ATOM     37  O   LIG d   1       4.561   0.215  -5.486  0.00  0.00    -0.131 OA
BRANCH  35  38
ATOM     38  C   LIG d   1       4.309   0.427  -8.025  0.00  0.00     0.128 A 
ATOM     39  C   LIG d   1       5.082   0.435  -9.172  0.00  0.00    -0.033 A 
ATOM     40  C   LIG d   1       4.709   1.216 -10.250  0.00  0.00    -0.060 A 
ATOM     41  H   LIG d   1       5.975  -0.169  -9.226  0.00  0.00     0.064 H 
ATOM     42  C   LIG d   1       3.565   1.989 -10.181  0.00  0.00    -0.062 A 
ATOM     43  H   LIG d   1       5.312   1.223 -11.146  0.00  0.00     0.062 H 
ATOM     44  C   LIG d   1       2.793   1.980  -9.035  0.00  0.00    -0.060 A 
ATOM     45  H   LIG d   1       3.274   2.600 -11.023  0.00  0.00     0.062 H 
ATOM     46  C   LIG d   1       3.163   1.195  -7.958  0.00  0.00    -0.033 A 
ATOM     47  H   LIG d   1       1.899   2.583  -8.981  0.00  0.00     0.062 H 
ATOM     48  H   LIG d   1       2.557   1.186  -7.064  0.00  0.00     0.064 H 
ENDBRANCH  35  38
ENDBRANCH  34  35
ENDBRANCH   8  34
TORSDOF 5
ENDMDL
MODEL 9
REMARK VINA RESULT:      -7.1      7.372     10.180
REMARK  5 active torsions:
REMARK  status: ('A' for Active; 'I' for Inactive)
REMARK    1  A    between atoms: C_1  and  N_2 
REMARK    2  A    between atoms: C_4  and  C_11 
REMARK    3  A    between atoms: C_18  and  O_22 
REMARK    4  A    between atoms: O_22  and  S_23 
REMARK    5  A    between atoms: S_23  and  C_26 
ROOT
ATOM      1  C   LIG d   1       6.786  -3.266  -5.334  0.00  0.00    -0.006 C 
ATOM      2  C   LIG d   1       6.522  -4.601  -5.396  0.00  0.00     0.176 A 
ATOM      3  C   LIG d   1       5.264  -5.184  -5.705  0.00  0.00     0.232 A 
ATOM      4  O   LIG d   1       4.222  -4.603  -5.963  0.00  0.00    -0.283 OA
ATOM      5  C   LIG d   1       5.488  -6.639  -5.646  0.00  0.00     0.068 A 
ATOM      6  C   LIG d   1       4.664  -7.746  -5.846  0.00  0.00    -0.044 A 
ATOM      7  C   LIG d   1       5.175  -9.007  -5.716  0.00  0.00    -0.016 A 
ATOM      8  C   LIG d   1       6.516  -9.189  -5.384  0.00  0.00     0.160 A 
ATOM      9  C   LIG d   1       7.346  -8.098  -5.183  0.00  0.00     0.026 A 
ATOM     10  C   LIG d   1       6.841  -6.811  -5.312  0.00  0.00     0.143 A 
ATOM     11  O   LIG d   1       7.413  -5.596  -5.174  0.00  0.00    -0.451 OA
ATOM     12  H   LIG d   1       7.803  -2.922  -5.205  0.00  0.00     0.066 H 
ATOM     13  H   LIG d   1       3.623  -7.608  -6.099  0.00  0.00     0.063 H 
ATOM     14  H   LIG d   1       4.538  -9.865  -5.871  0.00  0.00     0.066 H 
ATOM     15  H   LIG d   1       8.384  -8.248  -4.926  0.00  0.00     0.069 H 
ENDROOT
BRANCH   1  16
ATOM     16  C   LIG d   1       5.697  -2.299  -5.443  0.00  0.00     0.004 A 
ATOM     17  C   LIG d   1       5.315  -1.606  -6.572  0.00  0.00     0.013 A 
ATOM     18  N   LIG d   1       4.261  -0.807  -6.276  0.00  0.00    -0.349 N 
ATOM     19  H   LIG d   1       5.781  -1.691  -7.542  0.00  0.00     0.082 H 
ATOM     20  C   LIG d   1       3.915  -0.931  -4.947  0.00  0.00     0.049 A 
ATOM     21  C   LIG d   1       4.789  -1.863  -4.364  0.00  0.00     0.007 A 
ATOM     22  C   LIG d   1       2.931  -0.338  -4.163  0.00  0.00    -0.038 A 
ATOM     23  C   LIG d   1       4.667  -2.188  -3.015  0.00  0.00    -0.052 A 
ATOM     24  C   LIG d   1       3.686  -1.588  -2.256  0.00  0.00    -0.061 A 
ATOM     25  H   LIG d   1       5.338  -2.905  -2.567  0.00  0.00     0.062 H 
ATOM     26  C   LIG d   1       2.822  -0.667  -2.829  0.00  0.00    -0.060 A 
ATOM     27  H   LIG d   1       3.590  -1.837  -1.209  0.00  0.00     0.062 H 
ATOM     28  H   LIG d   1       2.056  -0.204  -2.224  0.00  0.00     0.062 H 
ATOM     29  H   LIG d   1       2.252   0.381  -4.599  0.00  0.00     0.064 H 
BRANCH  18  30
ATOM     30  C   LIG d   1       3.587   0.075  -7.234  0.00  0.00     0.012 C 
ATOM     31  H   LIG d   1       4.102   0.028  -8.194  0.00  0.00     0.046 H 
ATOM     32  H   LIG d   1       2.553  -0.249  -7.361  0.00  0.00     0.046 H 
ATOM     33  H   LIG d   1       3.605   1.098  -6.861  0.00  0.00     0.046 H 
ENDBRANCH  18  30
ENDBRANCH   1  16
BRANCH   8  34
ATOM     34  O   LIG d   1       7.013 -10.446  -5.257  0.00  0.00    -0.342 OA
BRANCH  34  35
ATOM     35  S   LIG d   1       6.708 -11.099  -3.917  0.00  0.00     0.151 S 
ATOM     36  O   LIG d   1       5.567 -10.435  -3.391  0.00  0.00    -0.131 OA
ATOM     37  O   LIG d   1       6.739 -12.503  -4.134  0.00  0.00    -0.131 OA
BRANCH  35  38
ATOM     38  C   LIG d   1       8.050 -10.726  -2.837  0.00  0.00     0.128 A 
ATOM     39  C   LIG d   1       7.800 -10.215  -1.577  0.00  0.00    -0.033 A 
ATOM     40  C   LIG d   1       8.853  -9.922  -0.731  0.00  0.00    -0.060 A 
ATOM     41  H   LIG d   1       6.784 -10.044  -1.255  0.00  0.00     0.064 H 
ATOM     42  C   LIG d   1      10.154 -10.140  -1.143  0.00  0.00    -0.062 A 
ATOM     43  H   LIG d   1       8.658  -9.521   0.253  0.00  0.00     0.062 H 
ATOM     44  C   LIG d   1      10.402 -10.653  -2.403  0.00  0.00    -0.060 A 
ATOM     45  H   LIG d   1      10.976  -9.910  -0.481  0.00  0.00     0.062 H 
ATOM     46  C   LIG d   1       9.350 -10.950  -3.248  0.00  0.00    -0.033 A 
ATOM     47  H   LIG d   1      11.419 -10.824  -2.725  0.00  0.00     0.062 H 
ATOM     48  H   LIG d   1       9.545 -11.354  -4.231  0.00  0.00     0.064 H 
ENDBRANCH  35  38
ENDBRANCH  34  35
ENDBRANCH   8  34
TORSDOF 5
ENDMDL
MODEL 10
REMARK VINA RESULT:      -7.0      5.206      8.433
REMARK  5 active torsions:
REMARK  status: ('A' for Active; 'I' for Inactive)
REMARK    1  A    between atoms: C_1  and  N_2 
REMARK    2  A    between atoms: C_4  and  C_11 
REMARK    3  A    between atoms: C_18  and  O_22 
REMARK    4  A    between atoms: O_22  and  S_23 
REMARK    5  A    between atoms: S_23  and  C_26 
ROOT
ATOM      1  C   LIG d   1       5.333  -2.270  -6.026  0.00  0.00    -0.006 C 
ATOM      2  C   LIG d   1       4.503  -2.059  -7.086  0.00  0.00     0.176 A 
ATOM      3  C   LIG d   1       4.055  -0.793  -7.549  0.00  0.00     0.232 A 
ATOM      4  O   LIG d   1       4.330   0.304  -7.089  0.00  0.00    -0.283 OA
ATOM      5  C   LIG d   1       3.189  -1.088  -8.704  0.00  0.00     0.068 A 
ATOM      6  C   LIG d   1       2.456  -0.292  -9.583  0.00  0.00    -0.044 A 
ATOM      7  C   LIG d   1       1.729  -0.874 -10.583  0.00  0.00    -0.016 A 
ATOM      8  C   LIG d   1       1.718  -2.259 -10.726  0.00  0.00     0.160 A 
ATOM      9  C   LIG d   1       2.442  -3.063  -9.860  0.00  0.00     0.026 A 
ATOM     10  C   LIG d   1       3.186  -2.486  -8.840  0.00  0.00     0.143 A 
ATOM     11  O   LIG d   1       3.966  -3.019  -7.875  0.00  0.00    -0.451 OA
ATOM     12  H   LIG d   1       5.708  -3.263  -5.824  0.00  0.00     0.066 H 
ATOM     13  H   LIG d   1       2.459   0.783  -9.471  0.00  0.00     0.063 H 
ATOM     14  H   LIG d   1       1.161  -0.258 -11.264  0.00  0.00     0.066 H 
ATOM     15  H   LIG d   1       2.429  -4.136  -9.979  0.00  0.00     0.069 H 
ENDROOT
BRANCH   1  16
ATOM     16  C   LIG d   1       5.715  -1.155  -5.163  0.00  0.00     0.004 A 
ATOM     17  C   LIG d   1       6.922  -0.489  -5.159  0.00  0.00     0.013 A 
ATOM     18  N   LIG d   1       6.896   0.489  -4.220  0.00  0.00    -0.349 N 
ATOM     19  H   LIG d   1       7.758  -0.710  -5.807  0.00  0.00     0.082 H 
ATOM     20  C   LIG d   1       5.682   0.499  -3.565  0.00  0.00     0.049 A 
ATOM     21  C   LIG d   1       4.889  -0.521  -4.117  0.00  0.00     0.007 A 
ATOM     22  C   LIG d   1       5.164   1.283  -2.539  0.00  0.00    -0.038 A 
ATOM     23  C   LIG d   1       3.599  -0.739  -3.642  0.00  0.00    -0.052 A 
ATOM     24  C   LIG d   1       3.105   0.049  -2.625  0.00  0.00    -0.061 A 
ATOM     25  H   LIG d   1       2.990  -1.522  -4.068  0.00  0.00     0.062 H 
ATOM     26  C   LIG d   1       3.885   1.055  -2.077  0.00  0.00    -0.060 A 
ATOM     27  H   LIG d   1       2.104  -0.119  -2.254  0.00  0.00     0.062 H 
ATOM     28  H   LIG d   1       3.487   1.668  -1.281  0.00  0.00     0.062 H 
ATOM     29  H   LIG d   1       5.763   2.070  -2.105  0.00  0.00     0.064 H 
BRANCH  18  30
ATOM     30  C   LIG d   1       8.005   1.402  -3.935  0.00  0.00     0.012 C 
ATOM     31  H   LIG d   1       7.621   2.299  -3.448  0.00  0.00     0.046 H 
ATOM     32  H   LIG d   1       8.721   0.910  -3.275  0.00  0.00     0.046 H 
ATOM     33  H   LIG d   1       8.498   1.678  -4.867  0.00  0.00     0.046 H 
ENDBRANCH  18  30
ENDBRANCH   1  16
BRANCH   8  34
ATOM     34  O   LIG d   1       0.991  -2.827 -11.723  0.00  0.00    -0.342 OA
BRANCH  34  35
ATOM     35  S   LIG d   1       1.821  -3.627 -12.715  0.00  0.00     0.151 S 
ATOM     36  O   LIG d   1       2.350  -4.737 -12.002  0.00  0.00    -0.131 OA
ATOM     37  O   LIG d   1       1.023  -3.781 -13.881  0.00  0.00    -0.131 OA
BRANCH  35  38
ATOM     38  C   LIG d   1       3.195  -2.624 -13.175  0.00  0.00     0.128 A 
ATOM     39  C   LIG d   1       2.998  -1.498 -13.954  0.00  0.00    -0.033 A 
ATOM     40  C   LIG d   1       4.077  -0.712 -14.315  0.00  0.00    -0.060 A 
ATOM     41  H   LIG d   1       2.004  -1.234 -14.280  0.00  0.00     0.064 H 
ATOM     42  C   LIG d   1       5.350  -1.051 -13.898  0.00  0.00    -0.062 A 
ATOM     43  H   LIG d   1       3.924   0.166 -14.924  0.00  0.00     0.062 H 
ATOM     44  C   LIG d   1       5.546  -2.176 -13.118  0.00  0.00    -0.060 A 
ATOM     45  H   LIG d   1       6.192  -0.437 -14.181  0.00  0.00     0.062 H 
ATOM     46  C   LIG d   1       4.467  -2.960 -12.753  0.00  0.00    -0.033 A 
ATOM     47  H   LIG d   1       6.540  -2.440 -12.792  0.00  0.00     0.062 H 
ATOM     48  H   LIG d   1       4.620  -3.836 -12.141  0.00  0.00     0.064 H 
ENDBRANCH  35  38
ENDBRANCH  34  35
ENDBRANCH   8  34
TORSDOF 5
ENDMDL
