MODEL 1
REMARK VINA RESULT:      -6.3      0.000      0.000
REMARK  11 active torsions:
REMARK  status: ('A' for Active; 'I' for Inactive)
REMARK    1  A    between atoms: C_1  and  C_2 
REMARK    2  A    between atoms: C_2  and  O_3 
REMARK    3  A    between atoms: O_3  and  C_4 
REMARK    4  A    between atoms: C_4  and  C_6 
REMARK    5  A    between atoms: C_9  and  N_12 
REMARK       I    between atoms: N_12  and  C_13 
REMARK    6  A    between atoms: C_13  and  C_15 
REMARK    7  A    between atoms: C_18  and  C_32 
REMARK    8  A    between atoms: C_23  and  C_31 
REMARK    9  A    between atoms: C_25  and  C_30 
REMARK   10  A    between atoms: C_32  and  C_34 
REMARK   11  A    between atoms: C_32  and  O_35 
ROOT
ATOM      1  C   LIG d   1       4.475  -1.659  -5.210  0.00  0.00     0.100 C 
ATOM      2  H   LIG d   1       3.957  -1.567  -6.164  0.00  0.00     0.046 H 
ATOM      3  C   LIG d   1       3.587  -1.123  -4.061  0.00  0.00     0.010 C 
ATOM      4  C   LIG d   1       4.604  -0.387  -3.152  0.00  0.00     0.006 C 
ATOM      5  H   LIG d   1       5.122  -1.094  -2.503  0.00  0.00     0.088 H 
ATOM      6  C   LIG d   1       5.723  -0.768  -5.191  0.00  0.00     0.105 A 
ATOM      7  C   LIG d   1       6.967  -1.586  -4.977  0.00  0.00     0.035 A 
ATOM      8  C   LIG d   1       7.389  -2.418  -3.965  0.00  0.00    -0.048 A 
ATOM      9  C   LIG d   1       8.618  -3.047  -4.053  0.00  0.00    -0.050 A 
ATOM     10  C   LIG d   1       9.421  -2.837  -5.159  0.00  0.00    -0.054 A 
ATOM     11  C   LIG d   1       9.002  -2.004  -6.175  0.00  0.00    -0.029 A 
ATOM     12  C   LIG d   1       7.766  -1.368  -6.096  0.00  0.00     0.046 A 
ATOM     13  N   LIG d   1       7.130  -0.495  -6.980  0.00  0.00    -0.280 N 
ATOM     14  C   LIG d   1       5.927  -0.098  -6.525  0.00  0.00     0.274 A 
ATOM     15  O   LIG d   1       5.155   0.654  -7.082  0.00  0.00    -0.269 OA
ATOM     16  H   LIG d   1       3.113  -1.944  -3.525  0.00  0.00     0.033 H 
ATOM     17  H   LIG d   1       2.837  -0.429  -4.442  0.00  0.00     0.033 H 
ATOM     18  H   LIG d   1       6.760  -2.581  -3.102  0.00  0.00     0.063 H 
ATOM     19  H   LIG d   1      10.381  -3.328  -5.227  0.00  0.00     0.062 H 
ATOM     20  H   LIG d   1       7.511  -0.208  -7.824  0.00  0.00     0.155 HD
ATOM     21  N   LIG d   1       5.539   0.203  -4.122  0.00  0.00     0.246 N 
ATOM     22  H   LIG d   1       6.438   0.400  -3.668  0.00  0.00     0.203 HD
ATOM     23  H   LIG d   1       5.148   1.073  -4.502  0.00  0.00     0.203 HD
ENDROOT
BRANCH   1  24
ATOM     24  C   LIG d   1       4.852  -3.095  -4.954  0.00  0.00     0.227 C 
ATOM     25  N   LIG d   1       5.376  -3.842  -5.947  0.00  0.00    -0.285 N 
ATOM     26  H   LIG d   1       5.577  -3.436  -6.804  0.00  0.00     0.155 HD
ATOM     27  O   LIG d   1       4.684  -3.580  -3.855  0.00  0.00    -0.275 OA
BRANCH  25  28
ATOM     28  C   LIG d   1       5.629  -5.197  -5.740  0.00  0.00     0.033 A 
ATOM     29  C   LIG d   1       6.934  -5.638  -5.543  0.00  0.00    -0.040 A 
ATOM     30  C   LIG d   1       7.187  -6.975  -5.339  0.00  0.00    -0.046 A 
ATOM     31  H   LIG d   1       7.749  -4.930  -5.551  0.00  0.00     0.064 H 
ATOM     32  C   LIG d   1       6.131  -7.891  -5.329  0.00  0.00     0.059 A 
ATOM     33  H   LIG d   1       8.201  -7.316  -5.186  0.00  0.00     0.063 H 
ATOM     34  C   LIG d   1       4.821  -7.445  -5.527  0.00  0.00    -0.046 A 
ATOM     35  C   LIG d   1       4.575  -6.105  -5.725  0.00  0.00    -0.040 A 
ATOM     36  H   LIG d   1       4.002  -8.149  -5.518  0.00  0.00     0.063 H 
ATOM     37  H   LIG d   1       3.562  -5.759  -5.873  0.00  0.00     0.064 H 
BRANCH  32  38
ATOM     38  C   LIG d   1       6.398  -9.325  -5.109  0.00  0.00     0.339 C 
ATOM     39  O   LIG d   1       7.534  -9.749  -5.179  0.00  0.00    -0.245 OA
BRANCH  38  40
ATOM     40  O   LIG d   1       5.382 -10.164  -4.831  0.00  0.00    -0.461 OA
BRANCH  40  41
ATOM     41  C   LIG d   1       5.071 -10.383  -3.429  0.00  0.00     0.090 C 
ATOM     42  H   LIG d   1       5.296 -11.416  -3.164  0.00  0.00     0.070 H 
ATOM     43  H   LIG d   1       5.673  -9.712  -2.815  0.00  0.00     0.070 H 
BRANCH  41  44
ATOM     44  C   LIG d   1       3.587 -10.104  -3.187  0.00  0.00    -0.031 C 
ATOM     45  H   LIG d   1       2.989 -10.667  -3.903  0.00  0.00     0.026 H 
ATOM     46  H   LIG d   1       3.320 -10.406  -2.174  0.00  0.00     0.026 H 
ATOM     47  H   LIG d   1       3.393  -9.038  -3.311  0.00  0.00     0.026 H 
ENDBRANCH  41  44
ENDBRANCH  40  41
ENDBRANCH  38  40
ENDBRANCH  32  38
ENDBRANCH  25  28
ENDBRANCH   1  24
BRANCH   4  48
ATOM     48  C   LIG d   1       3.903   0.693  -2.323  0.00  0.00     0.095 C 
ATOM     49  H   LIG d   1       3.014   0.270  -1.855  0.00  0.00     0.065 H 
BRANCH  48  50
ATOM     50  C   LIG d   1       3.496   1.851  -3.237  0.00  0.00    -0.034 C 
ATOM     51  H   LIG d   1       2.695   1.527  -3.901  0.00  0.00     0.026 H 
ATOM     52  H   LIG d   1       3.149   2.688  -2.629  0.00  0.00     0.026 H 
ATOM     53  H   LIG d   1       4.355   2.165  -3.829  0.00  0.00     0.026 H 
ENDBRANCH  48  50
BRANCH  48  54
ATOM     54  O   LIG d   1       4.793   1.171  -1.313  0.00  0.00    -0.387 OA
ATOM     55  H   LIG d   1       5.299   0.474  -0.873  0.00  0.00     0.210 HD
ENDBRANCH  48  54
ENDBRANCH   4  48
BRANCH  11  56
ATOM     56  C   LIG d   1       9.885  -1.783  -7.376  0.00  0.00    -0.038 C 
ATOM     57  H   LIG d   1      10.907  -2.076  -7.135  0.00  0.00     0.028 H 
ATOM     58  H   LIG d   1       9.523  -2.386  -8.210  0.00  0.00     0.028 H 
ATOM     59  H   LIG d   1       9.865  -0.729  -7.654  0.00  0.00     0.028 H 
ENDBRANCH  11  56
BRANCH   9  60
ATOM     60  C   LIG d   1       9.081  -3.959  -2.945  0.00  0.00    -0.040 C 
ATOM     61  H   LIG d   1      10.157  -3.850  -2.811  0.00  0.00     0.028 H 
ATOM     62  H   LIG d   1       8.570  -3.694  -2.020  0.00  0.00     0.028 H 
ATOM     63  H   LIG d   1       8.848  -4.992  -3.205  0.00  0.00     0.028 H 
ENDBRANCH   9  60
TORSDOF 11
ENDMDL
MODEL 2
REMARK VINA RESULT:      -6.1      4.666      9.377
REMARK  11 active torsions:
REMARK  status: ('A' for Active; 'I' for Inactive)
REMARK    1  A    between atoms: C_1  and  C_2 
REMARK    2  A    between atoms: C_2  and  O_3 
REMARK    3  A    between atoms: O_3  and  C_4 
REMARK    4  A    between atoms: C_4  and  C_6 
REMARK    5  A    between atoms: C_9  and  N_12 
REMARK       I    between atoms: N_12  and  C_13 
REMARK    6  A    between atoms: C_13  and  C_15 
REMARK    7  A    between atoms: C_18  and  C_32 
REMARK    8  A    between atoms: C_23  and  C_31 
REMARK    9  A    between atoms: C_25  and  C_30 
REMARK   10  A    between atoms: C_32  and  C_34 
REMARK   11  A    between atoms: C_32  and  O_35 
ROOT
ATOM      1  C   LIG d   1       7.434  -0.412  -3.592  0.00  0.00     0.100 C 
ATOM      2  H   LIG d   1       8.141  -0.752  -2.836  0.00  0.00     0.046 H 
ATOM      3  C   LIG d   1       5.984  -0.524  -3.061  0.00  0.00     0.010 C 
ATOM      4  C   LIG d   1       5.198  -1.017  -4.303  0.00  0.00     0.006 C 
ATOM      5  H   LIG d   1       4.957  -0.183  -4.962  0.00  0.00     0.088 H 
ATOM      6  C   LIG d   1       7.477  -1.333  -4.817  0.00  0.00     0.105 A 
ATOM      7  C   LIG d   1       7.860  -0.569  -6.054  0.00  0.00     0.035 A 
ATOM      8  C   LIG d   1       7.299   0.499  -6.718  0.00  0.00    -0.048 A 
ATOM      9  C   LIG d   1       7.897   0.995  -7.863  0.00  0.00    -0.050 A 
ATOM     10  C   LIG d   1       9.058   0.414  -8.339  0.00  0.00    -0.054 A 
ATOM     11  C   LIG d   1       9.623  -0.656  -7.678  0.00  0.00    -0.029 A 
ATOM     12  C   LIG d   1       9.029  -1.160  -6.524  0.00  0.00     0.046 A 
ATOM     13  N   LIG d   1       9.404  -2.215  -5.690  0.00  0.00    -0.280 N 
ATOM     14  C   LIG d   1       8.547  -2.382  -4.665  0.00  0.00     0.274 A 
ATOM     15  O   LIG d   1       8.623  -3.216  -3.787  0.00  0.00    -0.269 OA
ATOM     16  H   LIG d   1       5.618   0.449  -2.734  0.00  0.00     0.033 H 
ATOM     17  H   LIG d   1       5.923  -1.251  -2.252  0.00  0.00     0.033 H 
ATOM     18  H   LIG d   1       6.392   0.951  -6.344  0.00  0.00     0.063 H 
ATOM     19  H   LIG d   1       9.524   0.801  -9.234  0.00  0.00     0.062 H 
ATOM     20  H   LIG d   1      10.190  -2.765  -5.833  0.00  0.00     0.155 HD
ATOM     21  N   LIG d   1       6.155  -1.928  -4.952  0.00  0.00     0.246 N 
ATOM     22  H   LIG d   1       5.917  -2.037  -5.944  0.00  0.00     0.203 HD
ATOM     23  H   LIG d   1       6.133  -2.845  -4.491  0.00  0.00     0.203 HD
ENDROOT
BRANCH   1  24
ATOM     24  C   LIG d   1       7.737   1.009  -3.994  0.00  0.00     0.227 C 
ATOM     25  N   LIG d   1       9.014   1.437  -4.045  0.00  0.00    -0.285 N 
ATOM     26  H   LIG d   1       9.741   0.814  -3.893  0.00  0.00     0.155 HD
ATOM     27  O   LIG d   1       6.831   1.767  -4.271  0.00  0.00    -0.275 OA
BRANCH  25  28
ATOM     28  C   LIG d   1       9.289   2.776  -4.315  0.00  0.00     0.033 A 
ATOM     29  C   LIG d   1       9.359   3.219  -5.633  0.00  0.00    -0.040 A 
ATOM     30  C   LIG d   1       9.631   4.541  -5.904  0.00  0.00    -0.046 A 
ATOM     31  H   LIG d   1       9.201   2.524  -6.444  0.00  0.00     0.064 H 
ATOM     32  C   LIG d   1       9.835   5.440  -4.852  0.00  0.00     0.059 A 
ATOM     33  H   LIG d   1       9.685   4.883  -6.926  0.00  0.00     0.063 H 
ATOM     34  C   LIG d   1       9.764   4.992  -3.530  0.00  0.00    -0.046 A 
ATOM     35  C   LIG d   1       9.487   3.670  -3.267  0.00  0.00    -0.040 A 
ATOM     36  H   LIG d   1       9.920   5.684  -2.715  0.00  0.00     0.063 H 
ATOM     37  H   LIG d   1       9.426   3.324  -2.245  0.00  0.00     0.064 H 
BRANCH  32  38
ATOM     38  C   LIG d   1      10.125   6.857  -5.138  0.00  0.00     0.339 C 
ATOM     39  O   LIG d   1      11.259   7.279  -5.032  0.00  0.00    -0.245 OA
BRANCH  38  40
ATOM     40  O   LIG d   1       9.131   7.685  -5.517  0.00  0.00    -0.461 OA
BRANCH  40  41
ATOM     41  C   LIG d   1       9.465   8.716  -6.484  0.00  0.00     0.090 C 
ATOM     42  H   LIG d   1       8.927   9.632  -6.238  0.00  0.00     0.070 H 
ATOM     43  H   LIG d   1      10.538   8.906  -6.457  0.00  0.00     0.070 H 
BRANCH  41  44
ATOM     44  C   LIG d   1       9.064   8.249  -7.884  0.00  0.00    -0.031 C 
ATOM     45  H   LIG d   1       8.944   9.113  -8.537  0.00  0.00     0.026 H 
ATOM     46  H   LIG d   1       9.839   7.596  -8.286  0.00  0.00     0.026 H 
ATOM     47  H   LIG d   1       8.122   7.702  -7.829  0.00  0.00     0.026 H 
ENDBRANCH  41  44
ENDBRANCH  40  41
ENDBRANCH  38  40
ENDBRANCH  32  38
ENDBRANCH  25  28
ENDBRANCH   1  24
BRANCH   4  48
ATOM     48  C   LIG d   1       3.926  -1.754  -3.877  0.00  0.00     0.095 C 
ATOM     49  H   LIG d   1       3.055  -1.149  -4.128  0.00  0.00     0.065 H 
BRANCH  48  50
ATOM     50  C   LIG d   1       3.960  -1.997  -2.367  0.00  0.00    -0.034 C 
ATOM     51  H   LIG d   1       2.992  -1.744  -1.935  0.00  0.00     0.026 H 
ATOM     52  H   LIG d   1       4.181  -3.047  -2.172  0.00  0.00     0.026 H 
ATOM     53  H   LIG d   1       4.733  -1.374  -1.916  0.00  0.00     0.026 H 
ENDBRANCH  48  50
BRANCH  48  54
ATOM     54  O   LIG d   1       3.849  -3.007  -4.560  0.00  0.00    -0.387 OA
ATOM     55  H   LIG d   1       3.123  -3.064  -5.196  0.00  0.00     0.210 HD
ENDBRANCH  48  54
ENDBRANCH   4  48
BRANCH  11  56
ATOM     56  C   LIG d   1      10.889  -1.281  -8.206  0.00  0.00    -0.038 C 
ATOM     57  H   LIG d   1      10.659  -2.250  -8.649  0.00  0.00     0.028 H 
ATOM     58  H   LIG d   1      11.327  -0.630  -8.964  0.00  0.00     0.028 H 
ATOM     59  H   LIG d   1      11.598  -1.414  -7.388  0.00  0.00     0.028 H 
ENDBRANCH  11  56
BRANCH   9  60
ATOM     60  C   LIG d   1       7.284   2.165  -8.589  0.00  0.00    -0.040 C 
ATOM     61  H   LIG d   1       6.806   1.814  -9.504  0.00  0.00     0.028 H 
ATOM     62  H   LIG d   1       6.539   2.639  -7.949  0.00  0.00     0.028 H 
ATOM     63  H   LIG d   1       8.062   2.886  -8.837  0.00  0.00     0.028 H 
ENDBRANCH   9  60
TORSDOF 11
ENDMDL
MODEL 3
REMARK VINA RESULT:      -6.1      2.723      3.945
REMARK  11 active torsions:
REMARK  status: ('A' for Active; 'I' for Inactive)
REMARK    1  A    between atoms: C_1  and  C_2 
REMARK    2  A    between atoms: C_2  and  O_3 
REMARK    3  A    between atoms: O_3  and  C_4 
REMARK    4  A    between atoms: C_4  and  C_6 
REMARK    5  A    between atoms: C_9  and  N_12 
REMARK       I    between atoms: N_12  and  C_13 
REMARK    6  A    between atoms: C_13  and  C_15 
REMARK    7  A    between atoms: C_18  and  C_32 
REMARK    8  A    between atoms: C_23  and  C_31 
REMARK    9  A    between atoms: C_25  and  C_30 
REMARK   10  A    between atoms: C_32  and  C_34 
REMARK   11  A    between atoms: C_32  and  O_35 
ROOT
ATOM      1  C   LIG d   1       4.949  -1.873  -4.477  0.00  0.00     0.100 C 
ATOM      2  H   LIG d   1       4.095  -1.932  -3.802  0.00  0.00     0.046 H 
ATOM      3  C   LIG d   1       6.234  -1.518  -3.690  0.00  0.00     0.010 C 
ATOM      4  C   LIG d   1       6.965  -0.539  -4.644  0.00  0.00     0.006 C 
ATOM      5  H   LIG d   1       7.512  -1.087  -5.411  0.00  0.00     0.088 H 
ATOM      6  C   LIG d   1       4.764  -0.719  -5.470  0.00  0.00     0.105 A 
ATOM      7  C   LIG d   1       4.761  -1.221  -6.888  0.00  0.00     0.035 A 
ATOM      8  C   LIG d   1       5.682  -1.902  -7.652  0.00  0.00    -0.048 A 
ATOM      9  C   LIG d   1       5.385  -2.234  -8.962  0.00  0.00    -0.050 A 
ATOM     10  C   LIG d   1       4.162  -1.881  -9.501  0.00  0.00    -0.054 A 
ATOM     11  C   LIG d   1       3.236  -1.200  -8.738  0.00  0.00    -0.029 A 
ATOM     12  C   LIG d   1       3.526  -0.862  -7.419  0.00  0.00     0.046 A 
ATOM     13  N   LIG d   1       2.767  -0.188  -6.461  0.00  0.00    -0.280 N 
ATOM     14  C   LIG d   1       3.420  -0.063  -5.291  0.00  0.00     0.274 A 
ATOM     15  O   LIG d   1       3.006   0.474  -4.285  0.00  0.00    -0.269 OA
ATOM     16  H   LIG d   1       6.836  -2.409  -3.515  0.00  0.00     0.033 H 
ATOM     17  H   LIG d   1       5.989  -1.028  -2.748  0.00  0.00     0.033 H 
ATOM     18  H   LIG d   1       6.637  -2.176  -7.228  0.00  0.00     0.063 H 
ATOM     19  H   LIG d   1       3.930  -2.140 -10.524  0.00  0.00     0.062 H 
ATOM     20  H   LIG d   1       1.873   0.152  -6.621  0.00  0.00     0.155 HD
ATOM     21  N   LIG d   1       5.856   0.218  -5.244  0.00  0.00     0.246 N 
ATOM     22  H   LIG d   1       6.154   0.631  -6.135  0.00  0.00     0.203 HD
ATOM     23  H   LIG d   1       5.553   0.963  -4.605  0.00  0.00     0.203 HD
ENDROOT
BRANCH   1  24
ATOM     24  C   LIG d   1       5.128  -3.175  -5.214  0.00  0.00     0.227 C 
ATOM     25  N   LIG d   1       4.049  -3.877  -5.615  0.00  0.00    -0.285 N 
ATOM     26  H   LIG d   1       3.160  -3.510  -5.494  0.00  0.00     0.155 HD
ATOM     27  O   LIG d   1       6.243  -3.592  -5.446  0.00  0.00    -0.275 OA
BRANCH  25  28
ATOM     28  C   LIG d   1       4.212  -5.129  -6.204  0.00  0.00     0.033 A 
ATOM     29  C   LIG d   1       4.653  -6.204  -5.439  0.00  0.00    -0.040 A 
ATOM     30  C   LIG d   1       4.816  -7.443  -6.018  0.00  0.00    -0.046 A 
ATOM     31  H   LIG d   1       4.869  -6.067  -4.390  0.00  0.00     0.064 H 
ATOM     32  C   LIG d   1       4.536  -7.619  -7.376  0.00  0.00     0.059 A 
ATOM     33  H   LIG d   1       5.157  -8.277  -5.423  0.00  0.00     0.063 H 
ATOM     34  C   LIG d   1       4.093  -6.537  -8.142  0.00  0.00    -0.046 A 
ATOM     35  C   LIG d   1       3.928  -5.303  -7.555  0.00  0.00    -0.040 A 
ATOM     36  H   LIG d   1       3.875  -6.670  -9.192  0.00  0.00     0.063 H 
ATOM     37  H   LIG d   1       3.581  -4.467  -8.145  0.00  0.00     0.064 H 
BRANCH  32  38
ATOM     38  C   LIG d   1       4.707  -8.945  -8.000  0.00  0.00     0.339 C 
ATOM     39  O   LIG d   1       5.533  -9.102  -8.877  0.00  0.00    -0.245 OA
BRANCH  38  40
ATOM     40  O   LIG d   1       3.946  -9.982  -7.597  0.00  0.00    -0.461 OA
BRANCH  40  41
ATOM     41  C   LIG d   1       4.631 -11.092  -6.958  0.00  0.00     0.090 C 
ATOM     42  H   LIG d   1       4.336 -12.025  -7.438  0.00  0.00     0.070 H 
ATOM     43  H   LIG d   1       5.708 -10.959  -7.055  0.00  0.00     0.070 H 
BRANCH  41  44
ATOM     44  C   LIG d   1       4.252 -11.138  -5.477  0.00  0.00    -0.031 C 
ATOM     45  H   LIG d   1       4.095 -10.124  -5.110  0.00  0.00     0.026 H 
ATOM     46  H   LIG d   1       3.337 -11.716  -5.352  0.00  0.00     0.026 H 
ATOM     47  H   LIG d   1       5.058 -11.608  -4.911  0.00  0.00     0.026 H 
ENDBRANCH  41  44
ENDBRANCH  40  41
ENDBRANCH  38  40
ENDBRANCH  32  38
ENDBRANCH  25  28
ENDBRANCH   1  24
BRANCH   4  48
ATOM     48  C   LIG d   1       7.907   0.376  -3.859  0.00  0.00     0.095 C 
ATOM     49  H   LIG d   1       7.959   0.040  -2.823  0.00  0.00     0.065 H 
BRANCH  48  50
ATOM     50  C   LIG d   1       7.375   1.810  -3.902  0.00  0.00    -0.034 C 
ATOM     51  H   LIG d   1       8.177   2.504  -3.651  0.00  0.00     0.026 H 
ATOM     52  H   LIG d   1       7.005   2.030  -4.905  0.00  0.00     0.026 H 
ATOM     53  H   LIG d   1       6.562   1.918  -3.184  0.00  0.00     0.026 H 
ENDBRANCH  48  50
BRANCH  48  54
ATOM     54  O   LIG d   1       9.211   0.333  -4.442  0.00  0.00    -0.387 OA
ATOM     55  H   LIG d   1       9.582  -0.558  -4.505  0.00  0.00     0.210 HD
ENDBRANCH  48  54
ENDBRANCH   4  48
BRANCH  11  56
ATOM     56  C   LIG d   1       1.905  -0.820  -9.336  0.00  0.00    -0.038 C 
ATOM     57  H   LIG d   1       1.672   0.213  -9.078  0.00  0.00     0.028 H 
ATOM     58  H   LIG d   1       1.953  -0.921 -10.421  0.00  0.00     0.028 H 
ATOM     59  H   LIG d   1       1.129  -1.477  -8.944  0.00  0.00     0.028 H 
ENDBRANCH  11  56
BRANCH   9  60
ATOM     60  C   LIG d   1       6.393  -2.979  -9.799  0.00  0.00    -0.040 C 
ATOM     61  H   LIG d   1       7.255  -2.339  -9.984  0.00  0.00     0.028 H 
ATOM     62  H   LIG d   1       6.714  -3.876  -9.268  0.00  0.00     0.028 H 
ATOM     63  H   LIG d   1       5.939  -3.262 -10.748  0.00  0.00     0.028 H 
ENDBRANCH   9  60
TORSDOF 11
ENDMDL
MODEL 4
REMARK VINA RESULT:      -6.0      3.526      8.144
REMARK  11 active torsions:
REMARK  status: ('A' for Active; 'I' for Inactive)
REMARK    1  A    between atoms: C_1  and  C_2 
REMARK    2  A    between atoms: C_2  and  O_3 
REMARK    3  A    between atoms: O_3  and  C_4 
REMARK    4  A    between atoms: C_4  and  C_6 
REMARK    5  A    between atoms: C_9  and  N_12 
REMARK       I    between atoms: N_12  and  C_13 
REMARK    6  A    between atoms: C_13  and  C_15 
REMARK    7  A    between atoms: C_18  and  C_32 
REMARK    8  A    between atoms: C_23  and  C_31 
REMARK    9  A    between atoms: C_25  and  C_30 
REMARK   10  A    between atoms: C_32  and  C_34 
REMARK   11  A    between atoms: C_32  and  O_35 
ROOT
ATOM      1  C   LIG d   1       6.065  -1.612  -5.145  0.00  0.00     0.100 C 
ATOM      2  H   LIG d   1       6.662  -2.521  -5.085  0.00  0.00     0.046 H 
ATOM      3  C   LIG d   1       5.930  -0.962  -3.747  0.00  0.00     0.010 C 
ATOM      4  C   LIG d   1       4.461  -0.468  -3.735  0.00  0.00     0.006 C 
ATOM      5  H   LIG d   1       4.372   0.486  -4.254  0.00  0.00     0.088 H 
ATOM      6  C   LIG d   1       4.628  -1.945  -5.565  0.00  0.00     0.105 A 
ATOM      7  C   LIG d   1       4.266  -1.251  -6.850  0.00  0.00     0.035 A 
ATOM      8  C   LIG d   1       4.206   0.071  -7.226  0.00  0.00    -0.048 A 
ATOM      9  C   LIG d   1       3.827   0.409  -8.513  0.00  0.00    -0.050 A 
ATOM     10  C   LIG d   1       3.509  -0.586  -9.420  0.00  0.00    -0.054 A 
ATOM     11  C   LIG d   1       3.568  -1.912  -9.047  0.00  0.00    -0.029 A 
ATOM     12  C   LIG d   1       3.949  -2.261  -7.754  0.00  0.00     0.046 A 
ATOM     13  N   LIG d   1       4.085  -3.511  -7.148  0.00  0.00    -0.280 N 
ATOM     14  C   LIG d   1       4.480  -3.414  -5.865  0.00  0.00     0.274 A 
ATOM     15  O   LIG d   1       4.680  -4.332  -5.098  0.00  0.00    -0.269 OA
ATOM     16  H   LIG d   1       6.620  -0.125  -3.643  0.00  0.00     0.033 H 
ATOM     17  H   LIG d   1       6.096  -1.698  -2.960  0.00  0.00     0.033 H 
ATOM     18  H   LIG d   1       4.455   0.846  -6.516  0.00  0.00     0.063 H 
ATOM     19  H   LIG d   1       3.213  -0.322 -10.425  0.00  0.00     0.062 H 
ATOM     20  H   LIG d   1       3.913  -4.352  -7.599  0.00  0.00     0.155 HD
ATOM     21  N   LIG d   1       3.757  -1.526  -4.476  0.00  0.00     0.246 N 
ATOM     22  H   LIG d   1       2.874  -1.163  -4.852  0.00  0.00     0.203 HD
ATOM     23  H   LIG d   1       3.564  -2.321  -3.855  0.00  0.00     0.203 HD
ENDROOT
BRANCH   1  24
ATOM     24  C   LIG d   1       6.683  -0.641  -6.117  0.00  0.00     0.227 C 
ATOM     25  N   LIG d   1       7.336  -1.098  -7.204  0.00  0.00    -0.285 N 
ATOM     26  H   LIG d   1       7.347  -2.048  -7.399  0.00  0.00     0.155 HD
ATOM     27  O   LIG d   1       6.594   0.553  -5.922  0.00  0.00    -0.275 OA
BRANCH  25  28
ATOM     28  C   LIG d   1       7.996  -0.206  -8.047  0.00  0.00     0.033 A 
ATOM     29  C   LIG d   1       7.382   0.226  -9.219  0.00  0.00    -0.040 A 
ATOM     30  C   LIG d   1       8.031   1.107 -10.054  0.00  0.00    -0.046 A 
ATOM     31  H   LIG d   1       6.395  -0.131  -9.474  0.00  0.00     0.064 H 
ATOM     32  C   LIG d   1       9.308   1.569  -9.723  0.00  0.00     0.059 A 
ATOM     33  H   LIG d   1       7.553   1.442 -10.963  0.00  0.00     0.063 H 
ATOM     34  C   LIG d   1       9.922   1.133  -8.545  0.00  0.00    -0.046 A 
ATOM     35  C   LIG d   1       9.265   0.256  -7.713  0.00  0.00    -0.040 A 
ATOM     36  H   LIG d   1      10.909   1.489  -8.286  0.00  0.00     0.063 H 
ATOM     37  H   LIG d   1       9.737  -0.077  -6.799  0.00  0.00     0.064 H 
BRANCH  32  38
ATOM     38  C   LIG d   1      10.006   2.514 -10.614  0.00  0.00     0.339 C 
ATOM     39  O   LIG d   1      11.031   2.179 -11.173  0.00  0.00    -0.245 OA
BRANCH  38  40
ATOM     40  O   LIG d   1       9.507   3.751 -10.808  0.00  0.00    -0.461 OA
BRANCH  40  41
ATOM     41  C   LIG d   1       9.585   4.676  -9.691  0.00  0.00     0.090 C 
ATOM     42  H   LIG d   1       9.463   4.129  -8.757  0.00  0.00     0.070 H 
ATOM     43  H   LIG d   1      10.556   5.172  -9.698  0.00  0.00     0.070 H 
BRANCH  41  44
ATOM     44  C   LIG d   1       8.477   5.723  -9.819  0.00  0.00    -0.031 C 
ATOM     45  H   LIG d   1       8.852   6.692  -9.491  0.00  0.00     0.026 H 
ATOM     46  H   LIG d   1       8.157   5.790 -10.859  0.00  0.00     0.026 H 
ATOM     47  H   LIG d   1       7.630   5.432  -9.197  0.00  0.00     0.026 H 
ENDBRANCH  41  44
ENDBRANCH  40  41
ENDBRANCH  38  40
ENDBRANCH  32  38
ENDBRANCH  25  28
ENDBRANCH   1  24
BRANCH   4  48
ATOM     48  C   LIG d   1       3.944  -0.352  -2.299  0.00  0.00     0.095 C 
ATOM     49  H   LIG d   1       2.855  -0.304  -2.309  0.00  0.00     0.065 H 
BRANCH  48  50
ATOM     50  C   LIG d   1       4.505   0.918  -1.657  0.00  0.00    -0.034 C 
ATOM     51  H   LIG d   1       3.820   1.747  -1.832  0.00  0.00     0.026 H 
ATOM     52  H   LIG d   1       4.620   0.762  -0.583  0.00  0.00     0.026 H 
ATOM     53  H   LIG d   1       5.475   1.149  -2.096  0.00  0.00     0.026 H 
ENDBRANCH  48  50
BRANCH  48  54
ATOM     54  O   LIG d   1       4.364  -1.493  -1.547  0.00  0.00    -0.387 OA
ATOM     55  H   LIG d   1       5.043  -2.024  -1.986  0.00  0.00     0.210 HD
ENDBRANCH  48  54
ENDBRANCH   4  48
BRANCH  11  56
ATOM     56  C   LIG d   1       3.219  -2.988 -10.044  0.00  0.00    -0.038 C 
ATOM     57  H   LIG d   1       2.539  -2.582 -10.793  0.00  0.00     0.028 H 
ATOM     58  H   LIG d   1       4.129  -3.340 -10.532  0.00  0.00     0.028 H 
ATOM     59  H   LIG d   1       2.738  -3.819  -9.528  0.00  0.00     0.028 H 
ENDBRANCH  11  56
BRANCH   9  60
ATOM     60  C   LIG d   1       3.762   1.857  -8.926  0.00  0.00    -0.040 C 
ATOM     61  H   LIG d   1       3.394   2.455  -8.093  0.00  0.00     0.028 H 
ATOM     62  H   LIG d   1       4.758   2.200  -9.208  0.00  0.00     0.028 H 
ATOM     63  H   LIG d   1       3.089   1.963  -9.776  0.00  0.00     0.028 H 
ENDBRANCH   9  60
TORSDOF 11
ENDMDL
MODEL 5
REMARK VINA RESULT:      -5.8      4.280      7.731
REMARK  11 active torsions:
REMARK  status: ('A' for Active; 'I' for Inactive)
REMARK    1  A    between atoms: C_1  and  C_2 
REMARK    2  A    between atoms: C_2  and  O_3 
REMARK    3  A    between atoms: O_3  and  C_4 
REMARK    4  A    between atoms: C_4  and  C_6 
REMARK    5  A    between atoms: C_9  and  N_12 
REMARK       I    between atoms: N_12  and  C_13 
REMARK    6  A    between atoms: C_13  and  C_15 
REMARK    7  A    between atoms: C_18  and  C_32 
REMARK    8  A    between atoms: C_23  and  C_31 
REMARK    9  A    between atoms: C_25  and  C_30 
REMARK   10  A    between atoms: C_32  and  C_34 
REMARK   11  A    between atoms: C_32  and  O_35 
ROOT
ATOM      1  C   LIG d   1       5.230  -0.368  -7.929  0.00  0.00     0.100 C 
ATOM      2  H   LIG d   1       4.872   0.546  -8.401  0.00  0.00     0.046 H 
ATOM      3  C   LIG d   1       5.343  -1.505  -8.974  0.00  0.00     0.010 C 
ATOM      4  C   LIG d   1       4.844  -2.746  -8.191  0.00  0.00     0.006 C 
ATOM      5  H   LIG d   1       5.641  -3.155  -7.570  0.00  0.00     0.088 H 
ATOM      6  C   LIG d   1       4.207  -0.876  -6.905  0.00  0.00     0.105 A 
ATOM      7  C   LIG d   1       4.808  -0.940  -5.528  0.00  0.00     0.035 A 
ATOM      8  C   LIG d   1       5.876  -1.626  -4.993  0.00  0.00    -0.048 A 
ATOM      9  C   LIG d   1       6.193  -1.479  -3.654  0.00  0.00    -0.050 A 
ATOM     10  C   LIG d   1       5.435  -0.642  -2.856  0.00  0.00    -0.054 A 
ATOM     11  C   LIG d   1       4.365   0.047  -3.388  0.00  0.00    -0.029 A 
ATOM     12  C   LIG d   1       4.039  -0.095  -4.734  0.00  0.00     0.046 A 
ATOM     13  N   LIG d   1       3.022   0.487  -5.493  0.00  0.00    -0.280 N 
ATOM     14  C   LIG d   1       3.052   0.082  -6.777  0.00  0.00     0.274 A 
ATOM     15  O   LIG d   1       2.294   0.424  -7.661  0.00  0.00    -0.269 OA
ATOM     16  H   LIG d   1       6.378  -1.637  -9.288  0.00  0.00     0.033 H 
ATOM     17  H   LIG d   1       4.702  -1.307  -9.833  0.00  0.00     0.033 H 
ATOM     18  H   LIG d   1       6.466  -2.279  -5.619  0.00  0.00     0.063 H 
ATOM     19  H   LIG d   1       5.682  -0.528  -1.810  0.00  0.00     0.062 H 
ATOM     20  H   LIG d   1       2.370   1.110  -5.137  0.00  0.00     0.155 HD
ATOM     21  N   LIG d   1       3.770  -2.191  -7.353  0.00  0.00     0.246 N 
ATOM     22  H   LIG d   1       3.606  -2.801  -6.544  0.00  0.00     0.203 HD
ATOM     23  H   LIG d   1       2.906  -2.106  -7.900  0.00  0.00     0.203 HD
ENDROOT
BRANCH   1  24
ATOM     24  C   LIG d   1       6.562  -0.131  -7.266  0.00  0.00     0.227 C 
ATOM     25  N   LIG d   1       6.809   1.042  -6.650  0.00  0.00    -0.285 N 
ATOM     26  H   LIG d   1       6.106   1.705  -6.570  0.00  0.00     0.155 HD
ATOM     27  O   LIG d   1       7.413  -0.995  -7.288  0.00  0.00    -0.275 OA
BRANCH  25  28
ATOM     28  C   LIG d   1       8.074   1.302  -6.127  0.00  0.00     0.033 A 
ATOM     29  C   LIG d   1       9.134   1.585  -6.982  0.00  0.00    -0.040 A 
ATOM     30  C   LIG d   1      10.386   1.841  -6.469  0.00  0.00    -0.046 A 
ATOM     31  H   LIG d   1       8.976   1.603  -8.050  0.00  0.00     0.064 H 
ATOM     32  C   LIG d   1      10.590   1.818  -5.086  0.00  0.00     0.059 A 
ATOM     33  H   LIG d   1      11.208   2.062  -7.134  0.00  0.00     0.063 H 
ATOM     34  C   LIG d   1       9.523   1.533  -4.230  0.00  0.00    -0.046 A 
ATOM     35  C   LIG d   1       8.274   1.282  -4.750  0.00  0.00    -0.040 A 
ATOM     36  H   LIG d   1       9.677   1.515  -3.161  0.00  0.00     0.063 H 
ATOM     37  H   LIG d   1       7.447   1.067  -4.088  0.00  0.00     0.064 H 
BRANCH  32  38
ATOM     38  C   LIG d   1      11.929   2.094  -4.533  0.00  0.00     0.339 C 
ATOM     39  O   LIG d   1      12.606   2.990  -4.997  0.00  0.00    -0.245 OA
BRANCH  38  40
ATOM     40  O   LIG d   1      12.402   1.352  -3.512  0.00  0.00    -0.461 OA
BRANCH  40  41
ATOM     41  C   LIG d   1      13.394   0.341  -3.836  0.00  0.00     0.090 C 
ATOM     42  H   LIG d   1      13.942   0.643  -4.729  0.00  0.00     0.070 H 
ATOM     43  H   LIG d   1      14.088   0.234  -3.003  0.00  0.00     0.070 H 
BRANCH  41  44
ATOM     44  C   LIG d   1      12.694  -0.995  -4.093  0.00  0.00    -0.031 C 
ATOM     45  H   LIG d   1      13.345  -1.640  -4.682  0.00  0.00     0.026 H 
ATOM     46  H   LIG d   1      12.469  -1.477  -3.141  0.00  0.00     0.026 H 
ATOM     47  H   LIG d   1      11.766  -0.819  -4.639  0.00  0.00     0.026 H 
ENDBRANCH  41  44
ENDBRANCH  40  41
ENDBRANCH  38  40
ENDBRANCH  32  38
ENDBRANCH  25  28
ENDBRANCH   1  24
BRANCH   4  48
ATOM     48  C   LIG d   1       4.309  -3.810  -9.153  0.00  0.00     0.095 C 
ATOM     49  H   LIG d   1       5.048  -4.604  -9.262  0.00  0.00     0.065 H 
BRANCH  48  50
ATOM     50  C   LIG d   1       4.039  -3.173 -10.517  0.00  0.00    -0.034 C 
ATOM     51  H   LIG d   1       4.914  -3.295 -11.156  0.00  0.00     0.026 H 
ATOM     52  H   LIG d   1       3.180  -3.659 -10.981  0.00  0.00     0.026 H 
ATOM     53  H   LIG d   1       3.830  -2.111 -10.387  0.00  0.00     0.026 H 
ENDBRANCH  48  50
BRANCH  48  54
ATOM     54  O   LIG d   1       3.095  -4.356  -8.632  0.00  0.00    -0.387 OA
ATOM     55  H   LIG d   1       3.163  -4.662  -7.717  0.00  0.00     0.210 HD
ENDBRANCH  48  54
ENDBRANCH   4  48
BRANCH  11  56
ATOM     56  C   LIG d   1       3.546   0.956  -2.508  0.00  0.00    -0.038 C 
ATOM     57  H   LIG d   1       3.295   0.437  -1.583  0.00  0.00     0.028 H 
ATOM     58  H   LIG d   1       4.121   1.853  -2.276  0.00  0.00     0.028 H 
ATOM     59  H   LIG d   1       2.629   1.236  -3.027  0.00  0.00     0.028 H 
ENDBRANCH  11  56
BRANCH   9  60
ATOM     60  C   LIG d   1       7.362  -2.229  -3.069  0.00  0.00    -0.040 C 
ATOM     61  H   LIG d   1       7.090  -2.612  -2.085  0.00  0.00     0.028 H 
ATOM     62  H   LIG d   1       7.625  -3.060  -3.723  0.00  0.00     0.028 H 
ATOM     63  H   LIG d   1       8.214  -1.556  -2.975  0.00  0.00     0.028 H 
ENDBRANCH   9  60
TORSDOF 11
ENDMDL
MODEL 6
REMARK VINA RESULT:      -5.7     11.740     14.051
REMARK  11 active torsions:
REMARK  status: ('A' for Active; 'I' for Inactive)
REMARK    1  A    between atoms: C_1  and  C_2 
REMARK    2  A    between atoms: C_2  and  O_3 
REMARK    3  A    between atoms: O_3  and  C_4 
REMARK    4  A    between atoms: C_4  and  C_6 
REMARK    5  A    between atoms: C_9  and  N_12 
REMARK       I    between atoms: N_12  and  C_13 
REMARK    6  A    between atoms: C_13  and  C_15 
REMARK    7  A    between atoms: C_18  and  C_32 
REMARK    8  A    between atoms: C_23  and  C_31 
REMARK    9  A    between atoms: C_25  and  C_30 
REMARK   10  A    between atoms: C_32  and  C_34 
REMARK   11  A    between atoms: C_32  and  O_35 
ROOT
ATOM      1  C   LIG d   1       9.667   7.070  -2.667  0.00  0.00     0.100 C 
ATOM      2  H   LIG d   1       8.606   6.849  -2.562  0.00  0.00     0.046 H 
ATOM      3  C   LIG d   1      10.518   5.938  -2.043  0.00  0.00     0.010 C 
ATOM      4  C   LIG d   1      11.674   6.710  -1.356  0.00  0.00     0.006 C 
ATOM      5  H   LIG d   1      12.444   6.973  -2.081  0.00  0.00     0.088 H 
ATOM      6  C   LIG d   1      10.033   8.325  -1.863  0.00  0.00     0.105 A 
ATOM      7  C   LIG d   1      10.591   9.396  -2.759  0.00  0.00     0.035 A 
ATOM      8  C   LIG d   1      11.685   9.456  -3.594  0.00  0.00    -0.048 A 
ATOM      9  C   LIG d   1      11.949  10.611  -4.308  0.00  0.00    -0.050 A 
ATOM     10  C   LIG d   1      11.112  11.705  -4.181  0.00  0.00    -0.054 A 
ATOM     11  C   LIG d   1      10.015  11.649  -3.346  0.00  0.00    -0.029 A 
ATOM     12  C   LIG d   1       9.742  10.490  -2.624  0.00  0.00     0.046 A 
ATOM     13  N   LIG d   1       8.710  10.193  -1.732  0.00  0.00    -0.280 N 
ATOM     14  C   LIG d   1       8.808   8.942  -1.242  0.00  0.00     0.274 A 
ATOM     15  O   LIG d   1       8.053   8.414  -0.452  0.00  0.00    -0.269 OA
ATOM     16  H   LIG d   1      10.903   5.274  -2.816  0.00  0.00     0.033 H 
ATOM     17  H   LIG d   1       9.939   5.378  -1.308  0.00  0.00     0.033 H 
ATOM     18  H   LIG d   1      12.337   8.600  -3.691  0.00  0.00     0.063 H 
ATOM     19  H   LIG d   1      11.318  12.607  -4.738  0.00  0.00     0.062 H 
ATOM     20  H   LIG d   1       8.006  10.814  -1.492  0.00  0.00     0.155 HD
ATOM     21  N   LIG d   1      11.003   7.920  -0.856  0.00  0.00     0.246 N 
ATOM     22  H   LIG d   1      11.691   8.667  -0.710  0.00  0.00     0.203 HD
ATOM     23  H   LIG d   1      10.525   7.715   0.030  0.00  0.00     0.203 HD
ENDROOT
BRANCH   1  24
ATOM     24  C   LIG d   1      10.025   7.255  -4.119  0.00  0.00     0.227 C 
ATOM     25  N   LIG d   1       9.152   7.847  -4.958  0.00  0.00    -0.285 N 
ATOM     26  H   LIG d   1       8.325   8.218  -4.615  0.00  0.00     0.155 HD
ATOM     27  O   LIG d   1      11.099   6.871  -4.533  0.00  0.00    -0.275 OA
BRANCH  25  28
ATOM     28  C   LIG d   1       9.439   7.925  -6.320  0.00  0.00     0.033 A 
ATOM     29  C   LIG d   1       9.459   6.769  -7.093  0.00  0.00    -0.040 A 
ATOM     30  C   LIG d   1       9.743   6.842  -8.438  0.00  0.00    -0.046 A 
ATOM     31  H   LIG d   1       9.253   5.812  -6.637  0.00  0.00     0.064 H 
ATOM     32  C   LIG d   1      10.009   8.082  -9.027  0.00  0.00     0.059 A 
ATOM     33  H   LIG d   1       9.758   5.944  -9.038  0.00  0.00     0.063 H 
ATOM     34  C   LIG d   1       9.987   9.242  -8.248  0.00  0.00    -0.046 A 
ATOM     35  C   LIG d   1       9.698   9.161  -6.904  0.00  0.00    -0.040 A 
ATOM     36  H   LIG d   1      10.191  10.202  -8.700  0.00  0.00     0.063 H 
ATOM     37  H   LIG d   1       9.676  10.058  -6.302  0.00  0.00     0.064 H 
BRANCH  32  38
ATOM     38  C   LIG d   1      10.311   8.166 -10.468  0.00  0.00     0.339 C 
ATOM     39  O   LIG d   1      10.408   9.250 -11.007  0.00  0.00    -0.245 OA
BRANCH  38  40
ATOM     40  O   LIG d   1      10.478   7.039 -11.188  0.00  0.00    -0.461 OA
BRANCH  40  41
ATOM     41  C   LIG d   1      10.185   7.114 -12.609  0.00  0.00     0.090 C 
ATOM     42  H   LIG d   1      10.143   8.159 -12.916  0.00  0.00     0.070 H 
ATOM     43  H   LIG d   1      10.968   6.603 -13.168  0.00  0.00     0.070 H 
BRANCH  41  44
ATOM     44  C   LIG d   1       8.838   6.445 -12.887  0.00  0.00    -0.031 C 
ATOM     45  H   LIG d   1       8.419   6.841 -13.812  0.00  0.00     0.026 H 
ATOM     46  H   LIG d   1       8.979   5.369 -12.984  0.00  0.00     0.026 H 
ATOM     47  H   LIG d   1       8.155   6.648 -12.062  0.00  0.00     0.026 H 
ENDBRANCH  41  44
ENDBRANCH  40  41
ENDBRANCH  38  40
ENDBRANCH  32  38
ENDBRANCH  25  28
ENDBRANCH   1  24
BRANCH   4  48
ATOM     48  C   LIG d   1      12.267   5.886  -0.211  0.00  0.00     0.095 C 
ATOM     49  H   LIG d   1      12.418   4.859  -0.544  0.00  0.00     0.065 H 
BRANCH  48  50
ATOM     50  C   LIG d   1      11.304   5.900   0.978  0.00  0.00    -0.034 C 
ATOM     51  H   LIG d   1      11.164   6.925   1.321  0.00  0.00     0.026 H 
ATOM     52  H   LIG d   1      10.343   5.485   0.672  0.00  0.00     0.026 H 
ATOM     53  H   LIG d   1      11.718   5.299   1.788  0.00  0.00     0.026 H 
ENDBRANCH  48  50
BRANCH  48  54
ATOM     54  O   LIG d   1      13.520   6.449   0.182  0.00  0.00    -0.387 OA
ATOM     55  H   LIG d   1      14.281   6.080  -0.286  0.00  0.00     0.210 HD
ENDBRANCH  48  54
ENDBRANCH   4  48
BRANCH  11  56
ATOM     56  C   LIG d   1       9.110  12.847  -3.215  0.00  0.00    -0.038 C 
ATOM     57  H   LIG d   1       9.693  13.759  -3.343  0.00  0.00     0.028 H 
ATOM     58  H   LIG d   1       8.335  12.803  -3.982  0.00  0.00     0.028 H 
ATOM     59  H   LIG d   1       8.646  12.847  -2.229  0.00  0.00     0.028 H 
ENDBRANCH  11  56
BRANCH   9  60
ATOM     60  C   LIG d   1      13.145  10.677  -5.222  0.00  0.00    -0.040 C 
ATOM     61  H   LIG d   1      12.927  10.138  -6.144  0.00  0.00     0.028 H 
ATOM     62  H   LIG d   1      13.368  11.719  -5.454  0.00  0.00     0.028 H 
ATOM     63  H   LIG d   1      14.004  10.223  -4.728  0.00  0.00     0.028 H 
ENDBRANCH   9  60
TORSDOF 11
ENDMDL
MODEL 7
REMARK VINA RESULT:      -5.5      2.834      5.004
REMARK  11 active torsions:
REMARK  status: ('A' for Active; 'I' for Inactive)
REMARK    1  A    between atoms: C_1  and  C_2 
REMARK    2  A    between atoms: C_2  and  O_3 
REMARK    3  A    between atoms: O_3  and  C_4 
REMARK    4  A    between atoms: C_4  and  C_6 
REMARK    5  A    between atoms: C_9  and  N_12 
REMARK       I    between atoms: N_12  and  C_13 
REMARK    6  A    between atoms: C_13  and  C_15 
REMARK    7  A    between atoms: C_18  and  C_32 
REMARK    8  A    between atoms: C_23  and  C_31 
REMARK    9  A    between atoms: C_25  and  C_30 
REMARK   10  A    between atoms: C_32  and  C_34 
REMARK   11  A    between atoms: C_32  and  O_35 
ROOT
ATOM      1  C   LIG d   1       8.728  -0.462  -5.420  0.00  0.00     0.100 C 
ATOM      2  H   LIG d   1       9.349   0.104  -4.727  0.00  0.00     0.046 H 
ATOM      3  C   LIG d   1       9.130  -0.149  -6.882  0.00  0.00     0.010 C 
ATOM      4  C   LIG d   1       7.764  -0.097  -7.613  0.00  0.00     0.006 C 
ATOM      5  H   LIG d   1       7.421  -1.102  -7.859  0.00  0.00     0.088 H 
ATOM      6  C   LIG d   1       7.264  -0.018  -5.311  0.00  0.00     0.105 A 
ATOM      7  C   LIG d   1       6.379  -1.167  -4.913  0.00  0.00     0.035 A 
ATOM      8  C   LIG d   1       6.100  -2.388  -5.485  0.00  0.00    -0.048 A 
ATOM      9  C   LIG d   1       5.218  -3.257  -4.867  0.00  0.00    -0.050 A 
ATOM     10  C   LIG d   1       4.619  -2.896  -3.675  0.00  0.00    -0.054 A 
ATOM     11  C   LIG d   1       4.896  -1.674  -3.098  0.00  0.00    -0.029 A 
ATOM     12  C   LIG d   1       5.782  -0.794  -3.712  0.00  0.00     0.046 A 
ATOM     13  N   LIG d   1       6.219   0.476  -3.331  0.00  0.00    -0.280 N 
ATOM     14  C   LIG d   1       7.090   1.000  -4.215  0.00  0.00     0.274 A 
ATOM     15  O   LIG d   1       7.632   2.083  -4.140  0.00  0.00    -0.269 OA
ATOM     16  H   LIG d   1       9.755  -0.943  -7.288  0.00  0.00     0.033 H 
ATOM     17  H   LIG d   1       9.638   0.813  -6.947  0.00  0.00     0.033 H 
ATOM     18  H   LIG d   1       6.569  -2.667  -6.417  0.00  0.00     0.063 H 
ATOM     19  H   LIG d   1       3.930  -3.574  -3.193  0.00  0.00     0.062 H 
ATOM     20  H   LIG d   1       5.928   0.929  -2.525  0.00  0.00     0.155 HD
ATOM     21  N   LIG d   1       6.881   0.518  -6.610  0.00  0.00     0.246 N 
ATOM     22  H   LIG d   1       5.903   0.284  -6.812  0.00  0.00     0.203 HD
ATOM     23  H   LIG d   1       6.999   1.538  -6.617  0.00  0.00     0.203 HD
ENDROOT
BRANCH   1  24
ATOM     24  C   LIG d   1       8.849  -1.940  -5.149  0.00  0.00     0.227 C 
ATOM     25  N   LIG d   1       8.824  -2.396  -3.881  0.00  0.00    -0.285 N 
ATOM     26  H   LIG d   1       8.656  -1.783  -3.148  0.00  0.00     0.155 HD
ATOM     27  O   LIG d   1       8.969  -2.718  -6.071  0.00  0.00    -0.275 OA
BRANCH  25  28
ATOM     28  C   LIG d   1       9.039  -3.749  -3.623  0.00  0.00     0.033 A 
ATOM     29  C   LIG d   1       9.746  -4.136  -2.489  0.00  0.00    -0.040 A 
ATOM     30  C   LIG d   1       9.961  -5.471  -2.231  0.00  0.00    -0.046 A 
ATOM     31  H   LIG d   1      10.128  -3.388  -1.810  0.00  0.00     0.064 H 
ATOM     32  C   LIG d   1       9.466  -6.438  -3.111  0.00  0.00     0.059 A 
ATOM     33  H   LIG d   1      10.510  -5.770  -1.351  0.00  0.00     0.063 H 
ATOM     34  C   LIG d   1       8.756  -6.046  -4.249  0.00  0.00    -0.046 A 
ATOM     35  C   LIG d   1       8.541  -4.709  -4.497  0.00  0.00    -0.040 A 
ATOM     36  H   LIG d   1       8.371  -6.791  -4.930  0.00  0.00     0.063 H 
ATOM     37  H   LIG d   1       7.987  -4.406  -5.374  0.00  0.00     0.064 H 
BRANCH  32  38
ATOM     38  C   LIG d   1       9.692  -7.870  -2.838  0.00  0.00     0.339 C 
ATOM     39  O   LIG d   1      10.157  -8.587  -3.701  0.00  0.00    -0.245 OA
BRANCH  38  40
ATOM     40  O   LIG d   1       9.382  -8.383  -1.631  0.00  0.00    -0.461 OA
BRANCH  40  41
ATOM     41  C   LIG d   1      10.430  -9.109  -0.934  0.00  0.00     0.090 C 
ATOM     42  H   LIG d   1       9.982  -9.882  -0.309  0.00  0.00     0.070 H 
ATOM     43  H   LIG d   1      11.097  -9.571  -1.662  0.00  0.00     0.070 H 
BRANCH  41  44
ATOM     44  C   LIG d   1      11.224  -8.139  -0.058  0.00  0.00    -0.031 C 
ATOM     45  H   LIG d   1      11.818  -7.479  -0.690  0.00  0.00     0.026 H 
ATOM     46  H   LIG d   1      10.537  -7.545   0.543  0.00  0.00     0.026 H 
ATOM     47  H   LIG d   1      11.886  -8.704   0.600  0.00  0.00     0.026 H 
ENDBRANCH  41  44
ENDBRANCH  40  41
ENDBRANCH  38  40
ENDBRANCH  32  38
ENDBRANCH  25  28
ENDBRANCH   1  24
BRANCH   4  48
ATOM     48  C   LIG d   1       7.861   0.764  -8.875  0.00  0.00     0.095 C 
ATOM     49  H   LIG d   1       8.815   0.579  -9.368  0.00  0.00     0.065 H 
BRANCH  48  50
ATOM     50  C   LIG d   1       7.764   2.242  -8.491  0.00  0.00    -0.034 C 
ATOM     51  H   LIG d   1       8.148   2.856  -9.305  0.00  0.00     0.026 H 
ATOM     52  H   LIG d   1       6.721   2.500  -8.302  0.00  0.00     0.026 H 
ATOM     53  H   LIG d   1       8.351   2.423  -7.591  0.00  0.00     0.026 H 
ENDBRANCH  48  50
BRANCH  48  54
ATOM     54  O   LIG d   1       6.792   0.430  -9.763  0.00  0.00    -0.387 OA
ATOM     55  H   LIG d   1       6.517  -0.496  -9.716  0.00  0.00     0.210 HD
ENDBRANCH  48  54
ENDBRANCH   4  48
BRANCH  11  56
ATOM     56  C   LIG d   1       4.237  -1.291  -1.798  0.00  0.00    -0.038 C 
ATOM     57  H   LIG d   1       4.672  -1.872  -0.984  0.00  0.00     0.028 H 
ATOM     58  H   LIG d   1       4.395  -0.229  -1.609  0.00  0.00     0.028 H 
ATOM     59  H   LIG d   1       3.167  -1.495  -1.858  0.00  0.00     0.028 H 
ENDBRANCH  11  56
BRANCH   9  60
ATOM     60  C   LIG d   1       4.912  -4.594  -5.493  0.00  0.00    -0.040 C 
ATOM     61  H   LIG d   1       3.931  -4.933  -5.161  0.00  0.00     0.028 H 
ATOM     62  H   LIG d   1       4.916  -4.496  -6.579  0.00  0.00     0.028 H 
ATOM     63  H   LIG d   1       5.669  -5.317  -5.192  0.00  0.00     0.028 H 
ENDBRANCH   9  60
TORSDOF 11
ENDMDL
MODEL 8
REMARK VINA RESULT:      -5.3      6.098      8.103
REMARK  11 active torsions:
REMARK  status: ('A' for Active; 'I' for Inactive)
REMARK    1  A    between atoms: C_1  and  C_2 
REMARK    2  A    between atoms: C_2  and  O_3 
REMARK    3  A    between atoms: O_3  and  C_4 
REMARK    4  A    between atoms: C_4  and  C_6 
REMARK    5  A    between atoms: C_9  and  N_12 
REMARK       I    between atoms: N_12  and  C_13 
REMARK    6  A    between atoms: C_13  and  C_15 
REMARK    7  A    between atoms: C_18  and  C_32 
REMARK    8  A    between atoms: C_23  and  C_31 
REMARK    9  A    between atoms: C_25  and  C_30 
REMARK   10  A    between atoms: C_32  and  C_34 
REMARK   11  A    between atoms: C_32  and  O_35 
ROOT
ATOM      1  C   LIG d   1       9.975   4.811  -3.079  0.00  0.00     0.100 C 
ATOM      2  H   LIG d   1       9.128   5.445  -2.822  0.00  0.00     0.046 H 
ATOM      3  C   LIG d   1      10.988   4.765  -1.909  0.00  0.00     0.010 C 
ATOM      4  C   LIG d   1      12.357   4.798  -2.635  0.00  0.00     0.006 C 
ATOM      5  H   LIG d   1      12.629   3.804  -2.990  0.00  0.00     0.088 H 
ATOM      6  C   LIG d   1      10.757   5.414  -4.253  0.00  0.00     0.105 A 
ATOM      7  C   LIG d   1      10.786   4.471  -5.424  0.00  0.00     0.035 A 
ATOM      8  C   LIG d   1      11.264   3.192  -5.596  0.00  0.00    -0.048 A 
ATOM      9  C   LIG d   1      11.144   2.567  -6.826  0.00  0.00    -0.050 A 
ATOM     10  C   LIG d   1      10.544   3.232  -7.879  0.00  0.00    -0.054 A 
ATOM     11  C   LIG d   1      10.064   4.514  -7.711  0.00  0.00    -0.029 A 
ATOM     12  C   LIG d   1      10.179   5.149  -6.477  0.00  0.00     0.046 A 
ATOM     13  N   LIG d   1       9.776   6.420  -6.064  0.00  0.00    -0.280 N 
ATOM     14  C   LIG d   1      10.078   6.654  -4.773  0.00  0.00     0.274 A 
ATOM     15  O   LIG d   1       9.845   7.668  -4.148  0.00  0.00    -0.269 OA
ATOM     16  H   LIG d   1      10.876   3.843  -1.339  0.00  0.00     0.033 H 
ATOM     17  H   LIG d   1      10.873   5.635  -1.263  0.00  0.00     0.033 H 
ATOM     18  H   LIG d   1      11.732   2.675  -4.772  0.00  0.00     0.063 H 
ATOM     19  H   LIG d   1      10.451   2.744  -8.839  0.00  0.00     0.062 H 
ATOM     20  H   LIG d   1       9.332   7.061  -6.640  0.00  0.00     0.155 HD
ATOM     21  N   LIG d   1      12.101   5.698  -3.770  0.00  0.00     0.246 N 
ATOM     22  H   LIG d   1      12.786   5.527  -4.515  0.00  0.00     0.203 HD
ATOM     23  H   LIG d   1      12.165   6.676  -3.464  0.00  0.00     0.203 HD
ENDROOT
BRANCH   1  24
ATOM     24  C   LIG d   1       9.506   3.420  -3.422  0.00  0.00     0.227 C 
ATOM     25  N   LIG d   1       8.403   3.248  -4.177  0.00  0.00    -0.285 N 
ATOM     26  H   LIG d   1       7.953   4.017  -4.560  0.00  0.00     0.155 HD
ATOM     27  O   LIG d   1      10.121   2.456  -3.017  0.00  0.00    -0.275 OA
BRANCH  25  28
ATOM     28  C   LIG d   1       7.910   1.965  -4.408  0.00  0.00     0.033 A 
ATOM     29  C   LIG d   1       8.148   1.339  -5.627  0.00  0.00    -0.040 A 
ATOM     30  C   LIG d   1       7.662   0.071  -5.859  0.00  0.00    -0.046 A 
ATOM     31  H   LIG d   1       8.713   1.847  -6.394  0.00  0.00     0.064 H 
ATOM     32  C   LIG d   1       6.931  -0.587  -4.865  0.00  0.00     0.059 A 
ATOM     33  H   LIG d   1       7.847  -0.414  -6.805  0.00  0.00     0.063 H 
ATOM     34  C   LIG d   1       6.694   0.045  -3.641  0.00  0.00    -0.046 A 
ATOM     35  C   LIG d   1       7.187   1.310  -3.415  0.00  0.00    -0.040 A 
ATOM     36  H   LIG d   1       6.130  -0.461  -2.871  0.00  0.00     0.063 H 
ATOM     37  H   LIG d   1       7.009   1.798  -2.467  0.00  0.00     0.064 H 
BRANCH  32  38
ATOM     38  C   LIG d   1       6.411  -1.945  -5.108  0.00  0.00     0.339 C 
ATOM     39  O   LIG d   1       6.501  -2.442  -6.213  0.00  0.00    -0.245 OA
BRANCH  38  40
ATOM     40  O   LIG d   1       5.833  -2.635  -4.105  0.00  0.00    -0.461 OA
BRANCH  40  41
ATOM     41  C   LIG d   1       4.384  -2.580  -4.015  0.00  0.00     0.090 C 
ATOM     42  H   LIG d   1       4.006  -1.831  -4.710  0.00  0.00     0.070 H 
ATOM     43  H   LIG d   1       3.968  -3.555  -4.270  0.00  0.00     0.070 H 
BRANCH  41  44
ATOM     44  C   LIG d   1       3.977  -2.208  -2.589  0.00  0.00    -0.031 C 
ATOM     45  H   LIG d   1       3.981  -1.124  -2.480  0.00  0.00     0.026 H 
ATOM     46  H   LIG d   1       2.977  -2.590  -2.384  0.00  0.00     0.026 H 
ATOM     47  H   LIG d   1       4.684  -2.646  -1.883  0.00  0.00     0.026 H 
ENDBRANCH  41  44
ENDBRANCH  40  41
ENDBRANCH  38  40
ENDBRANCH  32  38
ENDBRANCH  25  28
ENDBRANCH   1  24
BRANCH   4  48
ATOM     48  C   LIG d   1      13.443   5.357  -1.712  0.00  0.00     0.095 C 
ATOM     49  H   LIG d   1      12.996   5.646  -0.761  0.00  0.00     0.065 H 
BRANCH  48  50
ATOM     50  C   LIG d   1      14.085   6.582  -2.366  0.00  0.00    -0.034 C 
ATOM     51  H   LIG d   1      14.909   6.936  -1.747  0.00  0.00     0.026 H 
ATOM     52  H   LIG d   1      14.463   6.311  -3.353  0.00  0.00     0.026 H 
ATOM     53  H   LIG d   1      13.341   7.372  -2.467  0.00  0.00     0.026 H 
ENDBRANCH  48  50
BRANCH  48  54
ATOM     54  O   LIG d   1      14.439   4.358  -1.488  0.00  0.00    -0.387 OA
ATOM     55  H   LIG d   1      15.071   4.265  -2.214  0.00  0.00     0.210 HD
ENDBRANCH  48  54
ENDBRANCH   4  48
BRANCH  11  56
ATOM     56  C   LIG d   1       9.411   5.228  -8.866  0.00  0.00    -0.038 C 
ATOM     57  H   LIG d   1       9.495   6.306  -8.721  0.00  0.00     0.028 H 
ATOM     58  H   LIG d   1       9.910   4.948  -9.795  0.00  0.00     0.028 H 
ATOM     59  H   LIG d   1       8.359   4.949  -8.920  0.00  0.00     0.028 H 
ENDBRANCH  11  56
BRANCH   9  60
ATOM     60  C   LIG d   1      11.667   1.166  -7.015  0.00  0.00    -0.040 C 
ATOM     61  H   LIG d   1      12.630   1.068  -6.513  0.00  0.00     0.028 H 
ATOM     62  H   LIG d   1      10.960   0.454  -6.588  0.00  0.00     0.028 H 
ATOM     63  H   LIG d   1      11.787   0.964  -8.079  0.00  0.00     0.028 H 
ENDBRANCH   9  60
TORSDOF 11
ENDMDL
MODEL 9
REMARK VINA RESULT:      -5.2     10.922     13.551
REMARK  11 active torsions:
REMARK  status: ('A' for Active; 'I' for Inactive)
REMARK    1  A    between atoms: C_1  and  C_2 
REMARK    2  A    between atoms: C_2  and  O_3 
REMARK    3  A    between atoms: O_3  and  C_4 
REMARK    4  A    between atoms: C_4  and  C_6 
REMARK    5  A    between atoms: C_9  and  N_12 
REMARK       I    between atoms: N_12  and  C_13 
REMARK    6  A    between atoms: C_13  and  C_15 
REMARK    7  A    between atoms: C_18  and  C_32 
REMARK    8  A    between atoms: C_23  and  C_31 
REMARK    9  A    between atoms: C_25  and  C_30 
REMARK   10  A    between atoms: C_32  and  C_34 
REMARK   11  A    between atoms: C_32  and  O_35 
ROOT
ATOM      1  C   LIG d   1      10.812   6.085  -2.894  0.00  0.00     0.100 C 
ATOM      2  H   LIG d   1       9.877   5.652  -2.539  0.00  0.00     0.046 H 
ATOM      3  C   LIG d   1      12.015   5.241  -2.408  0.00  0.00     0.010 C 
ATOM      4  C   LIG d   1      13.072   6.317  -2.050  0.00  0.00     0.006 C 
ATOM      5  H   LIG d   1      13.593   6.658  -2.944  0.00  0.00     0.088 H 
ATOM      6  C   LIG d   1      11.028   7.471  -2.273  0.00  0.00     0.105 A 
ATOM      7  C   LIG d   1      11.122   8.530  -3.337  0.00  0.00     0.035 A 
ATOM      8  C   LIG d   1      11.975   8.731  -4.398  0.00  0.00    -0.048 A 
ATOM      9  C   LIG d   1      11.807   9.829  -5.224  0.00  0.00    -0.050 A 
ATOM     10  C   LIG d   1      10.780  10.722  -4.980  0.00  0.00    -0.054 A 
ATOM     11  C   LIG d   1       9.923  10.525  -3.918  0.00  0.00    -0.029 A 
ATOM     12  C   LIG d   1      10.085   9.423  -3.082  0.00  0.00     0.046 A 
ATOM     13  N   LIG d   1       9.358   9.011  -1.963  0.00  0.00    -0.280 N 
ATOM     14  C   LIG d   1       9.846   7.875  -1.431  0.00  0.00     0.274 A 
ATOM     15  O   LIG d   1       9.416   7.288  -0.460  0.00  0.00    -0.269 OA
ATOM     16  H   LIG d   1      12.379   4.594  -3.206  0.00  0.00     0.033 H 
ATOM     17  H   LIG d   1      11.748   4.655  -1.529  0.00  0.00     0.033 H 
ATOM     18  H   LIG d   1      12.777   8.032  -4.587  0.00  0.00     0.063 H 
ATOM     19  H   LIG d   1      10.649  11.580  -5.624  0.00  0.00     0.062 H 
ATOM     20  H   LIG d   1       8.592   9.488  -1.610  0.00  0.00     0.155 HD
ATOM     21  N   LIG d   1      12.252   7.402  -1.487  0.00  0.00     0.246 N 
ATOM     22  H   LIG d   1      12.759   8.292  -1.547  0.00  0.00     0.203 HD
ATOM     23  H   LIG d   1      12.028   7.199  -0.506  0.00  0.00     0.203 HD
ENDROOT
BRANCH   1  24
ATOM     24  C   LIG d   1      10.811   6.179  -4.398  0.00  0.00     0.227 C 
ATOM     25  N   LIG d   1       9.677   6.504  -5.052  0.00  0.00    -0.285 N 
ATOM     26  H   LIG d   1       8.883   6.748  -4.553  0.00  0.00     0.155 HD
ATOM     27  O   LIG d   1      11.829   5.962  -5.021  0.00  0.00    -0.275 OA
BRANCH  25  28
ATOM     28  C   LIG d   1       9.649   6.490  -6.445  0.00  0.00     0.033 A 
ATOM     29  C   LIG d   1       9.726   5.281  -7.129  0.00  0.00    -0.040 A 
ATOM     30  C   LIG d   1       9.698   5.263  -8.505  0.00  0.00    -0.046 A 
ATOM     31  H   LIG d   1       9.809   4.355  -6.580  0.00  0.00     0.064 H 
ATOM     32  C   LIG d   1       9.591   6.463  -9.215  0.00  0.00     0.059 A 
ATOM     33  H   LIG d   1       9.758   4.324  -9.036  0.00  0.00     0.063 H 
ATOM     34  C   LIG d   1       9.514   7.676  -8.525  0.00  0.00    -0.046 A 
ATOM     35  C   LIG d   1       9.537   7.685  -7.149  0.00  0.00    -0.040 A 
ATOM     36  H   LIG d   1       9.430   8.605  -9.071  0.00  0.00     0.063 H 
ATOM     37  H   LIG d   1       9.472   8.622  -6.614  0.00  0.00     0.064 H 
BRANCH  32  38
ATOM     38  C   LIG d   1       9.559   6.449 -10.690  0.00  0.00     0.339 C 
ATOM     39  O   LIG d   1       8.602   5.980 -11.272  0.00  0.00    -0.245 OA
BRANCH  38  40
ATOM     40  O   LIG d   1      10.593   6.954 -11.391  0.00  0.00    -0.461 OA
BRANCH  40  41
ATOM     41  C   LIG d   1      10.354   8.188 -12.120  0.00  0.00     0.090 C 
ATOM     42  H   LIG d   1      10.550   8.027 -13.180  0.00  0.00     0.070 H 
ATOM     43  H   LIG d   1       9.317   8.495 -11.984  0.00  0.00     0.070 H 
BRANCH  41  44
ATOM     44  C   LIG d   1      11.284   9.281 -11.589  0.00  0.00    -0.031 C 
ATOM     45  H   LIG d   1      11.247  10.145 -12.252  0.00  0.00     0.026 H 
ATOM     46  H   LIG d   1      10.965   9.576 -10.589  0.00  0.00     0.026 H 
ATOM     47  H   LIG d   1      12.305   8.899 -11.546  0.00  0.00     0.026 H 
ENDBRANCH  41  44
ENDBRANCH  40  41
ENDBRANCH  38  40
ENDBRANCH  32  38
ENDBRANCH  25  28
ENDBRANCH   1  24
BRANCH   4  48
ATOM     48  C   LIG d   1      14.065   5.775  -1.019  0.00  0.00     0.095 C 
ATOM     49  H   LIG d   1      13.609   5.798  -0.029  0.00  0.00     0.065 H 
BRANCH  48  50
ATOM     50  C   LIG d   1      15.324   6.644  -1.020  0.00  0.00    -0.034 C 
ATOM     51  H   LIG d   1      15.725   6.706  -0.009  0.00  0.00     0.026 H 
ATOM     52  H   LIG d   1      16.071   6.200  -1.680  0.00  0.00     0.026 H 
ATOM     53  H   LIG d   1      15.075   7.644  -1.375  0.00  0.00     0.026 H 
ENDBRANCH  48  50
BRANCH  48  54
ATOM     54  O   LIG d   1      14.412   4.430  -1.353  0.00  0.00    -0.387 OA
ATOM     55  H   LIG d   1      13.734   3.781  -1.122  0.00  0.00     0.210 HD
ENDBRANCH  48  54
ENDBRANCH   4  48
BRANCH  11  56
ATOM     56  C   LIG d   1       8.808  11.505  -3.661  0.00  0.00    -0.038 C 
ATOM     57  H   LIG d   1       7.935  11.226  -4.252  0.00  0.00     0.028 H 
ATOM     58  H   LIG d   1       8.548  11.491  -2.602  0.00  0.00     0.028 H 
ATOM     59  H   LIG d   1       9.132  12.507  -3.942  0.00  0.00     0.028 H 
ENDBRANCH  11  56
BRANCH   9  60
ATOM     60  C   LIG d   1      12.741  10.049  -6.387  0.00  0.00    -0.040 C 
ATOM     61  H   LIG d   1      12.266  10.709  -7.113  0.00  0.00     0.028 H 
ATOM     62  H   LIG d   1      13.664  10.506  -6.029  0.00  0.00     0.028 H 
ATOM     63  H   LIG d   1      12.967   9.093  -6.857  0.00  0.00     0.028 H 
ENDBRANCH   9  60
TORSDOF 11
ENDMDL
MODEL 10
REMARK VINA RESULT:      -5.1      8.735     11.770
REMARK  11 active torsions:
REMARK  status: ('A' for Active; 'I' for Inactive)
REMARK    1  A    between atoms: C_1  and  C_2 
REMARK    2  A    between atoms: C_2  and  O_3 
REMARK    3  A    between atoms: O_3  and  C_4 
REMARK    4  A    between atoms: C_4  and  C_6 
REMARK    5  A    between atoms: C_9  and  N_12 
REMARK       I    between atoms: N_12  and  C_13 
REMARK    6  A    between atoms: C_13  and  C_15 
REMARK    7  A    between atoms: C_18  and  C_32 
REMARK    8  A    between atoms: C_23  and  C_31 
REMARK    9  A    between atoms: C_25  and  C_30 
REMARK   10  A    between atoms: C_32  and  C_34 
REMARK   11  A    between atoms: C_32  and  O_35 
ROOT
ATOM      1  C   LIG d   1      12.262   6.472  -2.752  0.00  0.00     0.100 C 
ATOM      2  H   LIG d   1      13.244   6.848  -3.037  0.00  0.00     0.046 H 
ATOM      3  C   LIG d   1      11.612   7.405  -1.702  0.00  0.00     0.010 C 
ATOM      4  C   LIG d   1      10.924   6.411  -0.733  0.00  0.00     0.006 C 
ATOM      5  H   LIG d   1       9.962   6.088  -1.131  0.00  0.00     0.088 H 
ATOM      6  C   LIG d   1      12.393   5.117  -2.046  0.00  0.00     0.105 A 
ATOM      7  C   LIG d   1      11.646   4.045  -2.791  0.00  0.00     0.035 A 
ATOM      8  C   LIG d   1      10.324   3.881  -3.138  0.00  0.00    -0.048 A 
ATOM      9  C   LIG d   1       9.927   2.758  -3.843  0.00  0.00    -0.050 A 
ATOM     10  C   LIG d   1      10.861   1.802  -4.197  0.00  0.00    -0.054 A 
ATOM     11  C   LIG d   1      12.187   1.963  -3.852  0.00  0.00    -0.029 A 
ATOM     12  C   LIG d   1      12.595   3.090  -3.143  0.00  0.00     0.046 A 
ATOM     13  N   LIG d   1      13.858   3.474  -2.688  0.00  0.00    -0.280 N 
ATOM     14  C   LIG d   1      13.826   4.651  -2.035  0.00  0.00     0.274 A 
ATOM     15  O   LIG d   1      14.770   5.227  -1.536  0.00  0.00    -0.269 OA
ATOM     16  H   LIG d   1      10.877   8.059  -2.170  0.00  0.00     0.033 H 
ATOM     17  H   LIG d   1      12.371   7.990  -1.180  0.00  0.00     0.033 H 
ATOM     18  H   LIG d   1       9.596   4.629  -2.860  0.00  0.00     0.063 H 
ATOM     19  H   LIG d   1      10.551   0.925  -4.746  0.00  0.00     0.062 H 
ATOM     20  H   LIG d   1      14.664   2.953  -2.825  0.00  0.00     0.155 HD
ATOM     21  N   LIG d   1      11.871   5.285  -0.697  0.00  0.00     0.246 N 
ATOM     22  H   LIG d   1      11.388   4.430  -0.399  0.00  0.00     0.203 HD
ATOM     23  H   LIG d   1      12.638   5.491  -0.047  0.00  0.00     0.203 HD
ENDROOT
BRANCH   1  24
ATOM     24  C   LIG d   1      11.374   6.348  -3.964  0.00  0.00     0.227 C 
ATOM     25  N   LIG d   1      11.894   5.950  -5.142  0.00  0.00    -0.285 N 
ATOM     26  H   LIG d   1      12.822   5.674  -5.194  0.00  0.00     0.155 HD
ATOM     27  O   LIG d   1      10.192   6.607  -3.879  0.00  0.00    -0.275 OA
BRANCH  25  28
ATOM     28  C   LIG d   1      11.097   5.934  -6.285  0.00  0.00     0.033 A 
ATOM     29  C   LIG d   1      10.816   7.122  -6.952  0.00  0.00    -0.040 A 
ATOM     30  C   LIG d   1      10.028   7.111  -8.081  0.00  0.00    -0.046 A 
ATOM     31  H   LIG d   1      11.215   8.055  -6.583  0.00  0.00     0.064 H 
ATOM     32  C   LIG d   1       9.512   5.902  -8.558  0.00  0.00     0.059 A 
ATOM     33  H   LIG d   1       9.811   8.034  -8.599  0.00  0.00     0.063 H 
ATOM     34  C   LIG d   1       9.796   4.710  -7.885  0.00  0.00    -0.046 A 
ATOM     35  C   LIG d   1      10.588   4.729  -6.760  0.00  0.00    -0.040 A 
ATOM     36  H   LIG d   1       9.399   3.775  -8.252  0.00  0.00     0.063 H 
ATOM     37  H   LIG d   1      10.812   3.807  -6.243  0.00  0.00     0.064 H 
BRANCH  32  38
ATOM     38  C   LIG d   1       8.669   5.885  -9.768  0.00  0.00     0.339 C 
ATOM     39  O   LIG d   1       7.683   5.177  -9.812  0.00  0.00    -0.245 OA
BRANCH  38  40
ATOM     40  O   LIG d   1       8.994   6.654 -10.826  0.00  0.00    -0.461 OA
BRANCH  40  41
ATOM     41  C   LIG d   1       9.604   5.987 -11.964  0.00  0.00     0.090 C 
ATOM     42  H   LIG d   1      10.624   6.347 -12.092  0.00  0.00     0.070 H 
ATOM     43  H   LIG d   1       9.617   4.911 -11.789  0.00  0.00     0.070 H 
BRANCH  41  44
ATOM     44  C   LIG d   1       8.793   6.290 -13.225  0.00  0.00    -0.031 C 
ATOM     45  H   LIG d   1       7.914   5.646 -13.256  0.00  0.00     0.026 H 
ATOM     46  H   LIG d   1       8.479   7.334 -13.214  0.00  0.00     0.026 H 
ATOM     47  H   LIG d   1       9.409   6.105 -14.106  0.00  0.00     0.026 H 
ENDBRANCH  41  44
ENDBRANCH  40  41
ENDBRANCH  38  40
ENDBRANCH  32  38
ENDBRANCH  25  28
ENDBRANCH   1  24
BRANCH   4  48
ATOM     48  C   LIG d   1      10.752   7.039   0.652  0.00  0.00     0.095 C 
ATOM     49  H   LIG d   1       9.691   7.100   0.894  0.00  0.00     0.065 H 
BRANCH  48  50
ATOM     50  C   LIG d   1      11.356   8.445   0.651  0.00  0.00    -0.034 C 
ATOM     51  H   LIG d   1      12.051   8.544   1.485  0.00  0.00     0.026 H 
ATOM     52  H   LIG d   1      11.888   8.611  -0.287  0.00  0.00     0.026 H 
ATOM     53  H   LIG d   1      10.560   9.183   0.752  0.00  0.00     0.026 H 
ENDBRANCH  48  50
BRANCH  48  54
ATOM     54  O   LIG d   1      11.418   6.234   1.627  0.00  0.00    -0.387 OA
ATOM     55  H   LIG d   1      11.449   6.631   2.509  0.00  0.00     0.210 HD
ENDBRANCH  48  54
ENDBRANCH   4  48
BRANCH  11  56
ATOM     56  C   LIG d   1      13.196   0.914  -4.243  0.00  0.00    -0.038 C 
ATOM     57  H   LIG d   1      13.749   1.251  -5.120  0.00  0.00     0.028 H 
ATOM     58  H   LIG d   1      13.891   0.752  -3.417  0.00  0.00     0.028 H 
ATOM     59  H   LIG d   1      12.682  -0.019  -4.473  0.00  0.00     0.028 H 
ENDBRANCH  11  56
BRANCH   9  60
ATOM     60  C   LIG d   1       8.479   2.578  -4.223  0.00  0.00    -0.040 C 
ATOM     61  H   LIG d   1       8.418   2.081  -5.191  0.00  0.00     0.028 H 
ATOM     62  H   LIG d   1       7.979   1.970  -3.469  0.00  0.00     0.028 H 
ATOM     63  H   LIG d   1       7.996   3.553  -4.283  0.00  0.00     0.028 H 
ENDBRANCH   9  60
TORSDOF 11
ENDMDL
