MODEL 1
REMARK VINA RESULT:      -6.7      0.000      0.000
REMARK  5 active torsions:
REMARK  status: ('A' for Active; 'I' for Inactive)
REMARK    1  A    between atoms: C_1  and  N_42 
REMARK    2  A    between atoms: C_3  and  N_19 
REMARK    3  A    between atoms: C_6  and  C_8 
REMARK    4  A    between atoms: C_10  and  C_13 
REMARK       I    between atoms: N_19  and  C_20 
REMARK    5  A    between atoms: C_20  and  C_22 
ROOT
ATOM      1  C   LIG d   1       9.892   4.848  -4.303  0.00  0.00    -0.012 C 
ATOM      2  C   LIG d   1      10.568   4.087  -3.144  0.00  0.00     0.069 C 
ATOM      3  H   LIG d   1      11.617   3.893  -3.369  0.00  0.00     0.055 H 
ATOM      4  C   LIG d   1       9.763   2.762  -3.079  0.00  0.00     0.023 C 
ATOM      5  C   LIG d   1       9.463   2.505  -4.576  0.00  0.00     0.061 C 
ATOM      6  H   LIG d   1      10.321   2.039  -5.061  0.00  0.00     0.095 H 
ATOM      7  H   LIG d   1       9.162   5.553  -3.908  0.00  0.00     0.083 H 
ATOM      8  H   LIG d   1      10.644   5.380  -4.885  0.00  0.00     0.083 H 
ATOM      9  H   LIG d   1      10.368   1.958  -2.659  0.00  0.00     0.035 H 
ATOM     10  H   LIG d   1       8.841   2.892  -2.512  0.00  0.00     0.035 H 
ATOM     11  N   LIG d   1       9.202   3.845  -5.134  0.00  0.00     0.243 N 
ATOM     12  H   LIG d   1       8.192   4.028  -5.120  0.00  0.00     0.204 HD
ENDROOT
BRANCH   5  13
ATOM     13  C   LIG d   1       8.239   1.638  -4.725  0.00  0.00     0.276 A 
ATOM     14  O   LIG d   1       7.556   1.415  -5.852  0.00  0.00    -0.332 OA
ATOM     15  N   LIG d   1       6.624   0.670  -5.633  0.00  0.00    -0.056 NA
ATOM     16  C   LIG d   1       6.603   0.339  -4.368  0.00  0.00     0.204 A 
ATOM     17  N   LIG d   1       7.648   0.957  -3.775  0.00  0.00    -0.186 NA
BRANCH  16  18
ATOM     18  C   LIG d   1       5.617  -0.555  -3.709  0.00  0.00     0.041 A 
ATOM     19  C   LIG d   1       5.152  -1.696  -4.358  0.00  0.00     0.038 A 
ATOM     20  N   LIG d   1       4.282  -2.493  -3.772  0.00  0.00    -0.263 NA
ATOM     21  H   LIG d   1       5.511  -1.932  -5.349  0.00  0.00     0.084 H 
ATOM     22  C   LIG d   1       3.810  -2.242  -2.566  0.00  0.00     0.028 A 
ATOM     23  C   LIG d   1       4.219  -1.125  -1.858  0.00  0.00    -0.043 A 
ATOM     24  H   LIG d   1       3.094  -2.919  -2.123  0.00  0.00     0.083 H 
ATOM     25  C   LIG d   1       5.137  -0.261  -2.430  0.00  0.00    -0.048 A 
ATOM     26  H   LIG d   1       3.826  -0.931  -0.872  0.00  0.00     0.063 H 
ATOM     27  H   LIG d   1       5.474   0.618  -1.900  0.00  0.00     0.063 H 
ENDBRANCH  16  18
ENDBRANCH   5  13
BRANCH  11  28
ATOM     28  C   LIG d   1       9.689   3.923  -6.537  0.00  0.00    -0.042 C 
ATOM     29  H   LIG d   1       8.964   3.458  -7.205  0.00  0.00     0.078 H 
ATOM     30  H   LIG d   1       9.821   4.969  -6.813  0.00  0.00     0.078 H 
ATOM     31  H   LIG d   1      10.642   3.402  -6.617  0.00  0.00     0.078 H 
ENDBRANCH  11  28
BRANCH   2  32
ATOM     32  N   LIG d   1      10.439   4.833  -1.889  0.00  0.00    -0.301 N 
ATOM     33  C   LIG d   1      11.525   5.399  -1.327  0.00  0.00     0.280 C 
ATOM     34  O   LIG d   1      12.613   5.289  -1.862  0.00  0.00    -0.267 OA
ATOM     35  H   LIG d   1       9.571   4.919  -1.463  0.00  0.00     0.150 HD
BRANCH  33  36
ATOM     36  C   LIG d   1      11.396   6.145  -0.071  0.00  0.00     0.189 A 
ATOM     37  O   LIG d   1      11.496   7.483   0.069  0.00  0.00    -0.458 OA
ATOM     38  C   LIG d   1      11.327   7.808   1.357  0.00  0.00     0.093 A 
ATOM     39  C   LIG d   1      11.106   6.679   2.066  0.00  0.00    -0.023 A 
ATOM     40  H   LIG d   1      11.358   8.809   1.763  0.00  0.00     0.103 H 
ATOM     41  C   LIG d   1      11.148   5.608   1.159  0.00  0.00    -0.011 A 
ATOM     42  H   LIG d   1      10.930   6.613   3.129  0.00  0.00     0.065 H 
ATOM     43  H   LIG d   1      11.012   4.562   1.391  0.00  0.00     0.066 H 
ENDBRANCH  33  36
ENDBRANCH   2  32
TORSDOF 5
ENDMDL
MODEL 2
REMARK VINA RESULT:      -6.7      7.694     10.942
REMARK  5 active torsions:
REMARK  status: ('A' for Active; 'I' for Inactive)
REMARK    1  A    between atoms: C_1  and  N_42 
REMARK    2  A    between atoms: C_3  and  N_19 
REMARK    3  A    between atoms: C_6  and  C_8 
REMARK    4  A    between atoms: C_10  and  C_13 
REMARK       I    between atoms: N_19  and  C_20 
REMARK    5  A    between atoms: C_20  and  C_22 
ROOT
ATOM      1  C   LIG d   1       3.845  -5.231  -7.270  0.00  0.00    -0.012 C 
ATOM      2  C   LIG d   1       4.796  -4.498  -6.301  0.00  0.00     0.069 C 
ATOM      3  H   LIG d   1       5.652  -4.087  -6.838  0.00  0.00     0.055 H 
ATOM      4  C   LIG d   1       5.241  -5.623  -5.330  0.00  0.00     0.023 C 
ATOM      5  C   LIG d   1       5.316  -6.844  -6.279  0.00  0.00     0.061 C 
ATOM      6  H   LIG d   1       6.262  -6.846  -6.821  0.00  0.00     0.095 H 
ATOM      7  H   LIG d   1       2.812  -5.084  -6.958  0.00  0.00     0.083 H 
ATOM      8  H   LIG d   1       3.984  -4.851  -8.283  0.00  0.00     0.083 H 
ATOM      9  H   LIG d   1       6.218  -5.403  -4.899  0.00  0.00     0.035 H 
ATOM     10  H   LIG d   1       4.497  -5.781  -4.548  0.00  0.00     0.035 H 
ATOM     11  N   LIG d   1       4.177  -6.665  -7.199  0.00  0.00     0.243 N 
ATOM     12  H   LIG d   1       3.367  -7.185  -6.842  0.00  0.00     0.204 HD
ENDROOT
BRANCH   5  13
ATOM     13  C   LIG d   1       5.153  -8.125  -5.501  0.00  0.00     0.276 A 
ATOM     14  O   LIG d   1       4.114  -8.963  -5.560  0.00  0.00    -0.332 OA
ATOM     15  N   LIG d   1       4.293  -9.900  -4.811  0.00  0.00    -0.056 NA
ATOM     16  C   LIG d   1       5.441  -9.772  -4.199  0.00  0.00     0.204 A 
ATOM     17  N   LIG d   1       6.007  -8.628  -4.645  0.00  0.00    -0.186 NA
BRANCH  16  18
ATOM     18  C   LIG d   1       6.018 -10.711  -3.205  0.00  0.00     0.041 A 
ATOM     19  C   LIG d   1       6.778 -11.802  -3.620  0.00  0.00     0.038 A 
ATOM     20  N   LIG d   1       7.296 -12.633  -2.739  0.00  0.00    -0.263 NA
ATOM     21  H   LIG d   1       6.949 -11.965  -4.674  0.00  0.00     0.084 H 
ATOM     22  C   LIG d   1       7.109 -12.479  -1.442  0.00  0.00     0.028 A 
ATOM     23  C   LIG d   1       6.361 -11.423  -0.951  0.00  0.00    -0.043 A 
ATOM     24  H   LIG d   1       7.547 -13.186  -0.754  0.00  0.00     0.083 H 
ATOM     25  C   LIG d   1       5.802 -10.519  -1.838  0.00  0.00    -0.048 A 
ATOM     26  H   LIG d   1       6.216 -11.307   0.113  0.00  0.00     0.063 H 
ATOM     27  H   LIG d   1       5.214  -9.687  -1.481  0.00  0.00     0.063 H 
ENDBRANCH  16  18
ENDBRANCH   5  13
BRANCH  11  28
ATOM     28  C   LIG d   1       4.523  -7.176  -8.552  0.00  0.00    -0.042 C 
ATOM     29  H   LIG d   1       5.406  -7.812  -8.491  0.00  0.00     0.078 H 
ATOM     30  H   LIG d   1       3.685  -7.752  -8.943  0.00  0.00     0.078 H 
ATOM     31  H   LIG d   1       4.727  -6.335  -9.214  0.00  0.00     0.078 H 
ENDBRANCH  11  28
BRANCH   2  32
ATOM     32  N   LIG d   1       4.084  -3.441  -5.578  0.00  0.00    -0.301 N 
ATOM     33  C   LIG d   1       4.771  -2.414  -5.037  0.00  0.00     0.280 C 
ATOM     34  O   LIG d   1       5.982  -2.366  -5.151  0.00  0.00    -0.267 OA
ATOM     35  H   LIG d   1       3.119  -3.480  -5.487  0.00  0.00     0.150 HD
BRANCH  33  36
ATOM     36  C   LIG d   1       4.059  -1.356  -4.313  0.00  0.00     0.189 A 
ATOM     37  O   LIG d   1       3.806  -0.114  -4.773  0.00  0.00    -0.458 OA
ATOM     38  C   LIG d   1       3.140   0.578  -3.840  0.00  0.00     0.093 A 
ATOM     39  C   LIG d   1       2.947  -0.217  -2.764  0.00  0.00    -0.023 A 
ATOM     40  H   LIG d   1       2.808   1.602  -3.932  0.00  0.00     0.103 H 
ATOM     41  C   LIG d   1       3.532  -1.459  -3.058  0.00  0.00    -0.011 A 
ATOM     42  H   LIG d   1       2.439   0.052  -1.850  0.00  0.00     0.065 H 
ATOM     43  H   LIG d   1       3.561  -2.326  -2.415  0.00  0.00     0.066 H 
ENDBRANCH  33  36
ENDBRANCH   2  32
TORSDOF 5
ENDMDL
MODEL 3
REMARK VINA RESULT:      -6.6      1.760      2.036
REMARK  5 active torsions:
REMARK  status: ('A' for Active; 'I' for Inactive)
REMARK    1  A    between atoms: C_1  and  N_42 
REMARK    2  A    between atoms: C_3  and  N_19 
REMARK    3  A    between atoms: C_6  and  C_8 
REMARK    4  A    between atoms: C_10  and  C_13 
REMARK       I    between atoms: N_19  and  C_20 
REMARK    5  A    between atoms: C_20  and  C_22 
ROOT
ATOM      1  C   LIG d   1      10.409   5.816  -5.071  0.00  0.00    -0.012 C 
ATOM      2  C   LIG d   1      10.694   5.697  -3.560  0.00  0.00     0.069 C 
ATOM      3  H   LIG d   1      11.755   5.520  -3.379  0.00  0.00     0.055 H 
ATOM      4  C   LIG d   1       9.849   4.465  -3.140  0.00  0.00     0.023 C 
ATOM      5  C   LIG d   1       9.977   3.559  -4.389  0.00  0.00     0.061 C 
ATOM      6  H   LIG d   1      10.916   3.007  -4.363  0.00  0.00     0.095 H 
ATOM      7  H   LIG d   1       9.627   6.555  -5.244  0.00  0.00     0.083 H 
ATOM      8  H   LIG d   1      11.318   6.108  -5.597  0.00  0.00     0.083 H 
ATOM      9  H   LIG d   1      10.274   3.981  -2.261  0.00  0.00     0.035 H 
ATOM     10  H   LIG d   1       8.810   4.746  -2.966  0.00  0.00     0.035 H 
ATOM     11  N   LIG d   1       9.942   4.495  -5.528  0.00  0.00     0.243 N 
ATOM     12  H   LIG d   1       8.979   4.575  -5.873  0.00  0.00     0.204 HD
ENDROOT
BRANCH   5  13
ATOM     13  C   LIG d   1       8.810   2.607  -4.469  0.00  0.00     0.276 A 
ATOM     14  O   LIG d   1       8.253   2.127  -5.585  0.00  0.00    -0.332 OA
ATOM     15  N   LIG d   1       7.335   1.385  -5.304  0.00  0.00    -0.056 NA
ATOM     16  C   LIG d   1       7.201   1.308  -4.006  0.00  0.00     0.204 A 
ATOM     17  N   LIG d   1       8.156   2.092  -3.458  0.00  0.00    -0.186 NA
BRANCH  16  18
ATOM     18  C   LIG d   1       6.192   0.504  -3.271  0.00  0.00     0.041 A 
ATOM     19  C   LIG d   1       6.232  -0.888  -3.310  0.00  0.00     0.038 A 
ATOM     20  N   LIG d   1       5.341  -1.602  -2.654  0.00  0.00    -0.263 NA
ATOM     21  H   LIG d   1       7.002  -1.385  -3.880  0.00  0.00     0.084 H 
ATOM     22  C   LIG d   1       4.378  -1.039  -1.950  0.00  0.00     0.028 A 
ATOM     23  C   LIG d   1       4.268   0.338  -1.866  0.00  0.00    -0.043 A 
ATOM     24  H   LIG d   1       3.664  -1.662  -1.431  0.00  0.00     0.083 H 
ATOM     25  C   LIG d   1       5.185   1.131  -2.534  0.00  0.00    -0.048 A 
ATOM     26  H   LIG d   1       3.476   0.787  -1.287  0.00  0.00     0.063 H 
ATOM     27  H   LIG d   1       5.123   2.209  -2.485  0.00  0.00     0.063 H 
ENDBRANCH  16  18
ENDBRANCH   5  13
BRANCH  11  28
ATOM     28  C   LIG d   1      10.811   4.000  -6.628  0.00  0.00    -0.042 C 
ATOM     29  H   LIG d   1      10.480   4.419  -7.578  0.00  0.00     0.078 H 
ATOM     30  H   LIG d   1      11.841   4.302  -6.436  0.00  0.00     0.078 H 
ATOM     31  H   LIG d   1      10.754   2.912  -6.672  0.00  0.00     0.078 H 
ENDBRANCH  11  28
BRANCH   2  32
ATOM     32  N   LIG d   1      10.244   6.899  -2.852  0.00  0.00    -0.301 N 
ATOM     33  C   LIG d   1      10.874   7.293  -1.727  0.00  0.00     0.280 C 
ATOM     34  O   LIG d   1      11.816   6.651  -1.301  0.00  0.00    -0.267 OA
ATOM     35  H   LIG d   1       9.493   7.410  -3.192  0.00  0.00     0.150 HD
BRANCH  33  36
ATOM     36  C   LIG d   1      10.425   8.496  -1.018  0.00  0.00     0.189 A 
ATOM     37  O   LIG d   1      11.215   9.378  -0.373  0.00  0.00    -0.458 OA
ATOM     38  C   LIG d   1      10.459  10.347   0.159  0.00  0.00     0.093 A 
ATOM     39  C   LIG d   1       9.165  10.104  -0.146  0.00  0.00    -0.023 A 
ATOM     40  H   LIG d   1      10.823  11.186   0.733  0.00  0.00     0.103 H 
ATOM     41  C   LIG d   1       9.132   8.921  -0.901  0.00  0.00    -0.011 A 
ATOM     42  H   LIG d   1       8.315  10.708   0.137  0.00  0.00     0.065 H 
ATOM     43  H   LIG d   1       8.256   8.440  -1.307  0.00  0.00     0.066 H 
ENDBRANCH  33  36
ENDBRANCH   2  32
TORSDOF 5
ENDMDL
MODEL 4
REMARK VINA RESULT:      -6.2      7.519     11.497
REMARK  5 active torsions:
REMARK  status: ('A' for Active; 'I' for Inactive)
REMARK    1  A    between atoms: C_1  and  N_42 
REMARK    2  A    between atoms: C_3  and  N_19 
REMARK    3  A    between atoms: C_6  and  C_8 
REMARK    4  A    between atoms: C_10  and  C_13 
REMARK       I    between atoms: N_19  and  C_20 
REMARK    5  A    between atoms: C_20  and  C_22 
ROOT
ATOM      1  C   LIG d   1       3.831  -5.059  -7.135  0.00  0.00    -0.012 C 
ATOM      2  C   LIG d   1       4.888  -4.701  -6.070  0.00  0.00     0.069 C 
ATOM      3  H   LIG d   1       5.790  -4.306  -6.539  0.00  0.00     0.055 H 
ATOM      4  C   LIG d   1       5.172  -6.066  -5.389  0.00  0.00     0.023 C 
ATOM      5  C   LIG d   1       5.059  -7.043  -6.585  0.00  0.00     0.061 C 
ATOM      6  H   LIG d   1       5.989  -7.057  -7.153  0.00  0.00     0.095 H 
ATOM      7  H   LIG d   1       2.833  -4.841  -6.756  0.00  0.00     0.083 H 
ATOM      8  H   LIG d   1       4.014  -4.487  -8.045  0.00  0.00     0.083 H 
ATOM      9  H   LIG d   1       6.175  -6.088  -4.961  0.00  0.00     0.035 H 
ATOM     10  H   LIG d   1       4.421  -6.288  -4.631  0.00  0.00     0.035 H 
ATOM     11  N   LIG d   1       3.950  -6.505  -7.395  0.00  0.00     0.243 N 
ATOM     12  H   LIG d   1       3.076  -6.972  -7.127  0.00  0.00     0.204 HD
ENDROOT
BRANCH   5  13
ATOM     13  C   LIG d   1       4.718  -8.429  -6.101  0.00  0.00     0.276 A 
ATOM     14  O   LIG d   1       4.331  -8.766  -4.866  0.00  0.00    -0.332 OA
ATOM     15  N   LIG d   1       4.132  -9.961  -4.805  0.00  0.00    -0.056 NA
ATOM     16  C   LIG d   1       4.365 -10.514  -5.966  0.00  0.00     0.204 A 
ATOM     17  N   LIG d   1       4.739  -9.528  -6.812  0.00  0.00    -0.186 NA
BRANCH  16  18
ATOM     18  C   LIG d   1       4.236 -11.956  -6.295  0.00  0.00     0.041 A 
ATOM     19  C   LIG d   1       5.360 -12.778  -6.329  0.00  0.00     0.038 A 
ATOM     20  N   LIG d   1       5.247 -14.058  -6.616  0.00  0.00    -0.263 NA
ATOM     21  H   LIG d   1       6.334 -12.362  -6.113  0.00  0.00     0.084 H 
ATOM     22  C   LIG d   1       4.081 -14.610  -6.892  0.00  0.00     0.028 A 
ATOM     23  C   LIG d   1       2.918 -13.859  -6.884  0.00  0.00    -0.043 A 
ATOM     24  H   LIG d   1       4.032 -15.663  -7.127  0.00  0.00     0.083 H 
ATOM     25  C   LIG d   1       2.986 -12.510  -6.583  0.00  0.00    -0.048 A 
ATOM     26  H   LIG d   1       1.969 -14.321  -7.112  0.00  0.00     0.063 H 
ATOM     27  H   LIG d   1       2.094 -11.900  -6.570  0.00  0.00     0.063 H 
ENDBRANCH  16  18
ENDBRANCH   5  13
BRANCH  11  28
ATOM     28  C   LIG d   1       4.205  -6.745  -8.840  0.00  0.00    -0.042 C 
ATOM     29  H   LIG d   1       3.299  -7.117  -9.318  0.00  0.00     0.078 H 
ATOM     30  H   LIG d   1       4.507  -5.809  -9.311  0.00  0.00     0.078 H 
ATOM     31  H   LIG d   1       5.002  -7.480  -8.949  0.00  0.00     0.078 H 
ENDBRANCH  11  28
BRANCH   2  32
ATOM     32  N   LIG d   1       4.346  -3.743  -5.104  0.00  0.00    -0.301 N 
ATOM     33  C   LIG d   1       5.026  -2.614  -4.820  0.00  0.00     0.280 C 
ATOM     34  O   LIG d   1       6.090  -2.392  -5.368  0.00  0.00    -0.267 OA
ATOM     35  H   LIG d   1       3.497  -3.921  -4.667  0.00  0.00     0.150 HD
BRANCH  33  36
ATOM     36  C   LIG d   1       4.483  -1.655  -3.853  0.00  0.00     0.189 A 
ATOM     37  O   LIG d   1       3.599  -0.673  -4.122  0.00  0.00    -0.458 OA
ATOM     38  C   LIG d   1       3.334   0.007  -2.998  0.00  0.00     0.093 A 
ATOM     39  C   LIG d   1       4.042  -0.538  -1.984  0.00  0.00    -0.023 A 
ATOM     40  H   LIG d   1       2.663   0.848  -2.915  0.00  0.00     0.103 H 
ATOM     41  C   LIG d   1       4.781  -1.604  -2.521  0.00  0.00    -0.011 A 
ATOM     42  H   LIG d   1       4.040  -0.214  -0.953  0.00  0.00     0.065 H 
ATOM     43  H   LIG d   1       5.456  -2.255  -1.986  0.00  0.00     0.066 H 
ENDBRANCH  33  36
ENDBRANCH   2  32
TORSDOF 5
ENDMDL
MODEL 5
REMARK VINA RESULT:      -6.2      6.354     11.580
REMARK  5 active torsions:
REMARK  status: ('A' for Active; 'I' for Inactive)
REMARK    1  A    between atoms: C_1  and  N_42 
REMARK    2  A    between atoms: C_3  and  N_19 
REMARK    3  A    between atoms: C_6  and  C_8 
REMARK    4  A    between atoms: C_10  and  C_13 
REMARK       I    between atoms: N_19  and  C_20 
REMARK    5  A    between atoms: C_20  and  C_22 
ROOT
ATOM      1  C   LIG d   1       6.248  -6.086  -7.185  0.00  0.00    -0.012 C 
ATOM      2  C   LIG d   1       4.892  -6.597  -6.658  0.00  0.00     0.069 C 
ATOM      3  H   LIG d   1       4.321  -7.071  -7.457  0.00  0.00     0.055 H 
ATOM      4  C   LIG d   1       4.192  -5.298  -6.176  0.00  0.00     0.023 C 
ATOM      5  C   LIG d   1       4.683  -4.271  -7.226  0.00  0.00     0.061 C 
ATOM      6  H   LIG d   1       4.082  -4.338  -8.133  0.00  0.00     0.095 H 
ATOM      7  H   LIG d   1       7.013  -6.207  -6.418  0.00  0.00     0.083 H 
ATOM      8  H   LIG d   1       6.530  -6.641  -8.080  0.00  0.00     0.083 H 
ATOM      9  H   LIG d   1       3.108  -5.402  -6.210  0.00  0.00     0.035 H 
ATOM     10  H   LIG d   1       4.526  -5.023  -5.175  0.00  0.00     0.035 H 
ATOM     11  N   LIG d   1       6.083  -4.653  -7.488  0.00  0.00     0.243 N 
ATOM     12  H   LIG d   1       6.704  -4.103  -6.884  0.00  0.00     0.204 HD
ENDROOT
BRANCH   5  13
ATOM     13  C   LIG d   1       4.628  -2.875  -6.661  0.00  0.00     0.276 A 
ATOM     14  O   LIG d   1       4.550  -1.738  -7.359  0.00  0.00    -0.332 OA
ATOM     15  N   LIG d   1       4.522  -0.788  -6.604  0.00  0.00    -0.056 NA
ATOM     16  C   LIG d   1       4.578  -1.198  -5.365  0.00  0.00     0.204 A 
ATOM     17  N   LIG d   1       4.641  -2.549  -5.392  0.00  0.00    -0.186 NA
BRANCH  16  18
ATOM     18  C   LIG d   1       4.568  -0.341  -4.153  0.00  0.00     0.041 A 
ATOM     19  C   LIG d   1       5.738   0.269  -3.708  0.00  0.00     0.038 A 
ATOM     20  N   LIG d   1       5.730   1.034  -2.636  0.00  0.00    -0.263 NA
ATOM     21  H   LIG d   1       6.660   0.117  -4.250  0.00  0.00     0.084 H 
ATOM     22  C   LIG d   1       4.630   1.244  -1.938  0.00  0.00     0.028 A 
ATOM     23  C   LIG d   1       3.429   0.668  -2.312  0.00  0.00    -0.043 A 
ATOM     24  H   LIG d   1       4.668   1.874  -1.062  0.00  0.00     0.083 H 
ATOM     25  C   LIG d   1       3.386  -0.139  -3.436  0.00  0.00    -0.048 A 
ATOM     26  H   LIG d   1       2.535   0.847  -1.733  0.00  0.00     0.063 H 
ATOM     27  H   LIG d   1       2.461  -0.601  -3.750  0.00  0.00     0.063 H 
ENDBRANCH  16  18
ENDBRANCH   5  13
BRANCH  11  28
ATOM     28  C   LIG d   1       6.431  -4.390  -8.909  0.00  0.00    -0.042 C 
ATOM     29  H   LIG d   1       5.623  -4.731  -9.556  0.00  0.00     0.078 H 
ATOM     30  H   LIG d   1       6.583  -3.319  -9.049  0.00  0.00     0.078 H 
ATOM     31  H   LIG d   1       7.348  -4.922  -9.161  0.00  0.00     0.078 H 
ENDBRANCH  11  28
BRANCH   2  32
ATOM     32  N   LIG d   1       5.085  -7.525  -5.541  0.00  0.00    -0.301 N 
ATOM     33  C   LIG d   1       4.740  -8.822  -5.675  0.00  0.00     0.280 C 
ATOM     34  O   LIG d   1       4.269  -9.220  -6.724  0.00  0.00    -0.267 OA
ATOM     35  H   LIG d   1       5.461  -7.207  -4.705  0.00  0.00     0.150 HD
BRANCH  33  36
ATOM     36  C   LIG d   1       4.935  -9.751  -4.557  0.00  0.00     0.189 A 
ATOM     37  O   LIG d   1       6.058 -10.450  -4.294  0.00  0.00    -0.458 OA
ATOM     38  C   LIG d   1       5.869 -11.197  -3.198  0.00  0.00     0.093 A 
ATOM     39  C   LIG d   1       4.618 -10.981  -2.734  0.00  0.00    -0.023 A 
ATOM     40  H   LIG d   1       6.598 -11.860  -2.756  0.00  0.00     0.103 H 
ATOM     41  C   LIG d   1       4.011 -10.055  -3.598  0.00  0.00    -0.011 A 
ATOM     42  H   LIG d   1       4.170 -11.435  -1.863  0.00  0.00     0.065 H 
ATOM     43  H   LIG d   1       3.009  -9.662  -3.520  0.00  0.00     0.066 H 
ENDBRANCH  33  36
ENDBRANCH   2  32
TORSDOF 5
ENDMDL
MODEL 6
REMARK VINA RESULT:      -6.0      7.283     12.714
REMARK  5 active torsions:
REMARK  status: ('A' for Active; 'I' for Inactive)
REMARK    1  A    between atoms: C_1  and  N_42 
REMARK    2  A    between atoms: C_3  and  N_19 
REMARK    3  A    between atoms: C_6  and  C_8 
REMARK    4  A    between atoms: C_10  and  C_13 
REMARK       I    between atoms: N_19  and  C_20 
REMARK    5  A    between atoms: C_20  and  C_22 
ROOT
ATOM      1  C   LIG d   1       2.171  -2.799 -10.159  0.00  0.00    -0.012 C 
ATOM      2  C   LIG d   1       1.914  -1.512 -10.970  0.00  0.00     0.069 C 
ATOM      3  H   LIG d   1       2.632  -1.420 -11.786  0.00  0.00     0.055 H 
ATOM      4  C   LIG d   1       2.126  -0.390  -9.919  0.00  0.00     0.023 C 
ATOM      5  C   LIG d   1       3.275  -0.976  -9.062  0.00  0.00     0.061 C 
ATOM      6  H   LIG d   1       4.237  -0.799  -9.544  0.00  0.00     0.095 H 
ATOM      7  H   LIG d   1       1.224  -3.222  -9.824  0.00  0.00     0.083 H 
ATOM      8  H   LIG d   1       2.702  -3.525 -10.775  0.00  0.00     0.083 H 
ATOM      9  H   LIG d   1       2.432   0.541 -10.397  0.00  0.00     0.035 H 
ATOM     10  H   LIG d   1       1.228  -0.242  -9.319  0.00  0.00     0.035 H 
ATOM     11  N   LIG d   1       2.978  -2.419  -8.986  0.00  0.00     0.243 N 
ATOM     12  H   LIG d   1       2.446  -2.611  -8.130  0.00  0.00     0.204 HD
ENDROOT
BRANCH   5  13
ATOM     13  C   LIG d   1       3.260  -0.374  -7.681  0.00  0.00     0.276 A 
ATOM     14  O   LIG d   1       2.761   0.819  -7.340  0.00  0.00    -0.332 OA
ATOM     15  N   LIG d   1       2.905   1.005  -6.150  0.00  0.00    -0.056 NA
ATOM     16  C   LIG d   1       3.500  -0.023  -5.604  0.00  0.00     0.204 A 
ATOM     17  N   LIG d   1       3.728  -0.923  -6.588  0.00  0.00    -0.186 NA
BRANCH  16  18
ATOM     18  C   LIG d   1       3.853  -0.177  -4.171  0.00  0.00     0.041 A 
ATOM     19  C   LIG d   1       4.231  -1.419  -3.664  0.00  0.00     0.038 A 
ATOM     20  N   LIG d   1       4.550  -1.556  -2.394  0.00  0.00    -0.263 NA
ATOM     21  H   LIG d   1       4.267  -2.276  -4.321  0.00  0.00     0.084 H 
ATOM     22  C   LIG d   1       4.515  -0.540  -1.553  0.00  0.00     0.028 A 
ATOM     23  C   LIG d   1       4.145   0.724  -1.978  0.00  0.00    -0.043 A 
ATOM     24  H   LIG d   1       4.779  -0.697  -0.518  0.00  0.00     0.083 H 
ATOM     25  C   LIG d   1       3.806   0.919  -3.306  0.00  0.00    -0.048 A 
ATOM     26  H   LIG d   1       4.120   1.548  -1.281  0.00  0.00     0.063 H 
ATOM     27  H   LIG d   1       3.514   1.895  -3.665  0.00  0.00     0.063 H 
ENDBRANCH  16  18
ENDBRANCH   5  13
BRANCH  11  28
ATOM     28  C   LIG d   1       4.240  -3.204  -8.959  0.00  0.00    -0.042 C 
ATOM     29  H   LIG d   1       4.899  -2.816  -8.182  0.00  0.00     0.078 H 
ATOM     30  H   LIG d   1       4.009  -4.248  -8.753  0.00  0.00     0.078 H 
ATOM     31  H   LIG d   1       4.735  -3.125  -9.927  0.00  0.00     0.078 H 
ENDBRANCH  11  28
BRANCH   2  32
ATOM     32  N   LIG d   1       0.543  -1.488 -11.484  0.00  0.00    -0.301 N 
ATOM     33  C   LIG d   1       0.288  -1.897 -12.743  0.00  0.00     0.280 C 
ATOM     34  O   LIG d   1       1.197  -2.286 -13.451  0.00  0.00    -0.267 OA
ATOM     35  H   LIG d   1      -0.182  -1.177 -10.918  0.00  0.00     0.150 HD
BRANCH  33  36
ATOM     36  C   LIG d   1      -1.085  -1.873 -13.258  0.00  0.00     0.189 A 
ATOM     37  O   LIG d   1      -1.746  -2.915 -13.801  0.00  0.00    -0.458 OA
ATOM     38  C   LIG d   1      -2.975  -2.523 -14.162  0.00  0.00     0.093 A 
ATOM     39  C   LIG d   1      -3.125  -1.217 -13.846  0.00  0.00    -0.023 A 
ATOM     40  H   LIG d   1      -3.724  -3.148 -14.625  0.00  0.00     0.103 H 
ATOM     41  C   LIG d   1      -1.920  -0.792 -13.265  0.00  0.00    -0.011 A 
ATOM     42  H   LIG d   1      -4.006  -0.615 -14.009  0.00  0.00     0.065 H 
ATOM     43  H   LIG d   1      -1.696   0.199 -12.898  0.00  0.00     0.066 H 
ENDBRANCH  33  36
ENDBRANCH   2  32
TORSDOF 5
ENDMDL
MODEL 7
REMARK VINA RESULT:      -5.9      3.135      3.831
REMARK  5 active torsions:
REMARK  status: ('A' for Active; 'I' for Inactive)
REMARK    1  A    between atoms: C_1  and  N_42 
REMARK    2  A    between atoms: C_3  and  N_19 
REMARK    3  A    between atoms: C_6  and  C_8 
REMARK    4  A    between atoms: C_10  and  C_13 
REMARK       I    between atoms: N_19  and  C_20 
REMARK    5  A    between atoms: C_20  and  C_22 
ROOT
ATOM      1  C   LIG d   1      11.655   4.965  -5.547  0.00  0.00    -0.012 C 
ATOM      2  C   LIG d   1      11.108   5.845  -4.404  0.00  0.00     0.069 C 
ATOM      3  H   LIG d   1      11.835   5.923  -3.595  0.00  0.00     0.055 H 
ATOM      4  C   LIG d   1       9.847   5.070  -3.939  0.00  0.00     0.023 C 
ATOM      5  C   LIG d   1      10.300   3.600  -4.117  0.00  0.00     0.061 C 
ATOM      6  H   LIG d   1      10.894   3.280  -3.260  0.00  0.00     0.095 H 
ATOM      7  H   LIG d   1      11.318   5.353  -6.508  0.00  0.00     0.083 H 
ATOM      8  H   LIG d   1      12.745   4.952  -5.515  0.00  0.00     0.083 H 
ATOM      9  H   LIG d   1       9.618   5.285  -2.895  0.00  0.00     0.035 H 
ATOM     10  H   LIG d   1       8.992   5.295  -4.579  0.00  0.00     0.035 H 
ATOM     11  N   LIG d   1      11.109   3.610  -5.350  0.00  0.00     0.243 N 
ATOM     12  H   LIG d   1      10.514   3.363  -6.149  0.00  0.00     0.204 HD
ENDROOT
BRANCH   5  13
ATOM     13  C   LIG d   1       9.104   2.699  -4.293  0.00  0.00     0.276 A 
ATOM     14  O   LIG d   1       8.537   2.351  -5.452  0.00  0.00    -0.332 OA
ATOM     15  N   LIG d   1       7.594   1.615  -5.248  0.00  0.00    -0.056 NA
ATOM     16  C   LIG d   1       7.452   1.412  -3.965  0.00  0.00     0.204 A 
ATOM     17  N   LIG d   1       8.430   2.106  -3.340  0.00  0.00    -0.186 NA
BRANCH  16  18
ATOM     18  C   LIG d   1       6.416   0.572  -3.316  0.00  0.00     0.041 A 
ATOM     19  C   LIG d   1       6.493  -0.818  -3.373  0.00  0.00     0.038 A 
ATOM     20  N   LIG d   1       5.577  -1.566  -2.793  0.00  0.00    -0.263 NA
ATOM     21  H   LIG d   1       7.315  -1.287  -3.895  0.00  0.00     0.084 H 
ATOM     22  C   LIG d   1       4.552  -1.039  -2.150  0.00  0.00     0.028 A 
ATOM     23  C   LIG d   1       4.402   0.333  -2.053  0.00  0.00    -0.043 A 
ATOM     24  H   LIG d   1       3.821  -1.688  -1.693  0.00  0.00     0.083 H 
ATOM     25  C   LIG d   1       5.343   1.161  -2.642  0.00  0.00    -0.048 A 
ATOM     26  H   LIG d   1       3.559   0.753  -1.524  0.00  0.00     0.063 H 
ATOM     27  H   LIG d   1       5.250   2.235  -2.582  0.00  0.00     0.063 H 
ENDBRANCH  16  18
ENDBRANCH   5  13
BRANCH  11  28
ATOM     28  C   LIG d   1      12.217   2.624  -5.247  0.00  0.00    -0.042 C 
ATOM     29  H   LIG d   1      12.804   2.632  -6.164  0.00  0.00     0.078 H 
ATOM     30  H   LIG d   1      12.855   2.888  -4.404  0.00  0.00     0.078 H 
ATOM     31  H   LIG d   1      11.801   1.629  -5.090  0.00  0.00     0.078 H 
ENDBRANCH  11  28
BRANCH   2  32
ATOM     32  N   LIG d   1      10.745   7.174  -4.902  0.00  0.00    -0.301 N 
ATOM     33  C   LIG d   1      10.959   8.262  -4.135  0.00  0.00     0.280 C 
ATOM     34  O   LIG d   1      11.454   8.139  -3.030  0.00  0.00    -0.267 OA
ATOM     35  H   LIG d   1      10.350   7.271  -5.783  0.00  0.00     0.150 HD
BRANCH  33  36
ATOM     36  C   LIG d   1      10.595   9.593  -4.633  0.00  0.00     0.189 A 
ATOM     37  O   LIG d   1      11.256  10.742  -4.379  0.00  0.00    -0.458 OA
ATOM     38  C   LIG d   1      10.635  11.756  -4.995  0.00  0.00     0.093 A 
ATOM     39  C   LIG d   1       9.566  11.270  -5.664  0.00  0.00    -0.023 A 
ATOM     40  H   LIG d   1      10.941  12.792  -4.966  0.00  0.00     0.103 H 
ATOM     41  C   LIG d   1       9.532   9.885  -5.439  0.00  0.00    -0.011 A 
ATOM     42  H   LIG d   1       8.869  11.840  -6.260  0.00  0.00     0.065 H 
ATOM     43  H   LIG d   1       8.806   9.186  -5.826  0.00  0.00     0.066 H 
ENDBRANCH  33  36
ENDBRANCH   2  32
TORSDOF 5
ENDMDL
MODEL 8
REMARK VINA RESULT:      -5.9      1.960      8.493
REMARK  5 active torsions:
REMARK  status: ('A' for Active; 'I' for Inactive)
REMARK    1  A    between atoms: C_1  and  N_42 
REMARK    2  A    between atoms: C_3  and  N_19 
REMARK    3  A    between atoms: C_6  and  C_8 
REMARK    4  A    between atoms: C_10  and  C_13 
REMARK       I    between atoms: N_19  and  C_20 
REMARK    5  A    between atoms: C_20  and  C_22 
ROOT
ATOM      1  C   LIG d   1      10.342   1.341  -4.223  0.00  0.00    -0.012 C 
ATOM      2  C   LIG d   1       8.892   1.760  -4.539  0.00  0.00     0.069 C 
ATOM      3  H   LIG d   1       8.662   1.594  -5.592  0.00  0.00     0.055 H 
ATOM      4  C   LIG d   1       8.886   3.276  -4.207  0.00  0.00     0.023 C 
ATOM      5  C   LIG d   1      10.307   3.700  -4.652  0.00  0.00     0.061 C 
ATOM      6  H   LIG d   1      10.333   3.868  -5.728  0.00  0.00     0.095 H 
ATOM      7  H   LIG d   1      10.395   0.909  -3.224  0.00  0.00     0.083 H 
ATOM      8  H   LIG d   1      10.686   0.614  -4.960  0.00  0.00     0.083 H 
ATOM      9  H   LIG d   1       8.124   3.800  -4.784  0.00  0.00     0.035 H 
ATOM     10  H   LIG d   1       8.746   3.441  -3.138  0.00  0.00     0.035 H 
ATOM     11  N   LIG d   1      11.166   2.563  -4.271  0.00  0.00     0.243 N 
ATOM     12  H   LIG d   1      11.570   2.737  -3.343  0.00  0.00     0.204 HD
ENDROOT
BRANCH   5  13
ATOM     13  C   LIG d   1      10.740   4.941  -3.914  0.00  0.00     0.276 A 
ATOM     14  O   LIG d   1      11.335   6.013  -4.446  0.00  0.00    -0.332 OA
ATOM     15  N   LIG d   1      11.551   6.839  -3.584  0.00  0.00    -0.056 NA
ATOM     16  C   LIG d   1      11.129   6.400  -2.427  0.00  0.00     0.204 A 
ATOM     17  N   LIG d   1      10.598   5.174  -2.633  0.00  0.00    -0.186 NA
BRANCH  16  18
ATOM     18  C   LIG d   1      11.213   7.117  -1.130  0.00  0.00     0.041 A 
ATOM     19  C   LIG d   1      11.410   8.496  -1.095  0.00  0.00     0.038 A 
ATOM     20  N   LIG d   1      11.479   9.134   0.055  0.00  0.00    -0.263 NA
ATOM     21  H   LIG d   1      11.502   9.047  -2.019  0.00  0.00     0.084 H 
ATOM     22  C   LIG d   1      11.378   8.503   1.209  0.00  0.00     0.028 A 
ATOM     23  C   LIG d   1      11.187   7.134   1.258  0.00  0.00    -0.043 A 
ATOM     24  H   LIG d   1      11.445   9.064   2.130  0.00  0.00     0.083 H 
ATOM     25  C   LIG d   1      11.102   6.419   0.075  0.00  0.00    -0.048 A 
ATOM     26  H   LIG d   1      11.106   6.628   2.209  0.00  0.00     0.063 H 
ATOM     27  H   LIG d   1      10.953   5.350   0.084  0.00  0.00     0.063 H 
ENDBRANCH  16  18
ENDBRANCH   5  13
BRANCH  11  28
ATOM     28  C   LIG d   1      12.267   2.397  -5.256  0.00  0.00    -0.042 C 
ATOM     29  H   LIG d   1      11.942   1.747  -6.067  0.00  0.00     0.078 H 
ATOM     30  H   LIG d   1      12.539   3.373  -5.658  0.00  0.00     0.078 H 
ATOM     31  H   LIG d   1      13.131   1.955  -4.760  0.00  0.00     0.078 H 
ENDBRANCH  11  28
BRANCH   2  32
ATOM     32  N   LIG d   1       7.946   1.039  -3.684  0.00  0.00    -0.301 N 
ATOM     33  C   LIG d   1       6.782   0.591  -4.196  0.00  0.00     0.280 C 
ATOM     34  O   LIG d   1       6.518   0.786  -5.368  0.00  0.00    -0.267 OA
ATOM     35  H   LIG d   1       8.157   0.884  -2.750  0.00  0.00     0.150 HD
BRANCH  33  36
ATOM     36  C   LIG d   1       5.835  -0.132  -3.340  0.00  0.00     0.189 A 
ATOM     37  O   LIG d   1       5.508  -1.436  -3.445  0.00  0.00    -0.458 OA
ATOM     38  C   LIG d   1       4.612  -1.747  -2.500  0.00  0.00     0.093 A 
ATOM     39  C   LIG d   1       4.355  -0.642  -1.764  0.00  0.00    -0.023 A 
ATOM     40  H   LIG d   1       4.170  -2.721  -2.347  0.00  0.00     0.103 H 
ATOM     41  C   LIG d   1       5.134   0.398  -2.295  0.00  0.00    -0.011 A 
ATOM     42  H   LIG d   1       3.677  -0.573  -0.926  0.00  0.00     0.065 H 
ATOM     43  H   LIG d   1       5.170   1.419  -1.945  0.00  0.00     0.066 H 
ENDBRANCH  33  36
ENDBRANCH   2  32
TORSDOF 5
ENDMDL
MODEL 9
REMARK VINA RESULT:      -5.9      6.447      9.158
REMARK  5 active torsions:
REMARK  status: ('A' for Active; 'I' for Inactive)
REMARK    1  A    between atoms: C_1  and  N_42 
REMARK    2  A    between atoms: C_3  and  N_19 
REMARK    3  A    between atoms: C_6  and  C_8 
REMARK    4  A    between atoms: C_10  and  C_13 
REMARK       I    between atoms: N_19  and  C_20 
REMARK    5  A    between atoms: C_20  and  C_22 
ROOT
ATOM      1  C   LIG d   1       7.614  -4.068  -5.096  0.00  0.00    -0.012 C 
ATOM      2  C   LIG d   1       8.137  -2.969  -4.148  0.00  0.00     0.069 C 
ATOM      3  H   LIG d   1       8.825  -2.303  -4.671  0.00  0.00     0.055 H 
ATOM      4  C   LIG d   1       8.880  -3.779  -3.052  0.00  0.00     0.023 C 
ATOM      5  C   LIG d   1       9.484  -4.941  -3.878  0.00  0.00     0.061 C 
ATOM      6  H   LIG d   1      10.407  -4.624  -4.363  0.00  0.00     0.095 H 
ATOM      7  H   LIG d   1       6.576  -4.300  -4.859  0.00  0.00     0.083 H 
ATOM      8  H   LIG d   1       7.690  -3.731  -6.131  0.00  0.00     0.083 H 
ATOM      9  H   LIG d   1       9.665  -3.181  -2.589  0.00  0.00     0.035 H 
ATOM     10  H   LIG d   1       8.182  -4.153  -2.303  0.00  0.00     0.035 H 
ATOM     11  N   LIG d   1       8.445  -5.264  -4.873  0.00  0.00     0.243 N 
ATOM     12  H   LIG d   1       7.857  -6.026  -4.516  0.00  0.00     0.204 HD
ENDROOT
BRANCH   5  13
ATOM     13  C   LIG d   1       9.739  -6.136  -2.994  0.00  0.00     0.276 A 
ATOM     14  O   LIG d   1      10.832  -6.360  -2.258  0.00  0.00    -0.332 OA
ATOM     15  N   LIG d   1      10.722  -7.410  -1.661  0.00  0.00    -0.056 NA
ATOM     16  C   LIG d   1       9.573  -7.967  -1.940  0.00  0.00     0.204 A 
ATOM     17  N   LIG d   1       8.928  -7.145  -2.798  0.00  0.00    -0.186 NA
BRANCH  16  18
ATOM     18  C   LIG d   1       9.069  -9.258  -1.409  0.00  0.00     0.041 A 
ATOM     19  C   LIG d   1       9.940 -10.167  -0.813  0.00  0.00     0.038 A 
ATOM     20  N   LIG d   1       9.493 -11.311  -0.337  0.00  0.00    -0.263 NA
ATOM     21  H   LIG d   1      10.991  -9.931  -0.738  0.00  0.00     0.084 H 
ATOM     22  C   LIG d   1       8.219 -11.647  -0.412  0.00  0.00     0.028 A 
ATOM     23  C   LIG d   1       7.292 -10.800  -0.994  0.00  0.00    -0.043 A 
ATOM     24  H   LIG d   1       7.895 -12.597  -0.013  0.00  0.00     0.083 H 
ATOM     25  C   LIG d   1       7.713  -9.584  -1.504  0.00  0.00    -0.048 A 
ATOM     26  H   LIG d   1       6.252 -11.086  -1.049  0.00  0.00     0.063 H 
ATOM     27  H   LIG d   1       7.011  -8.904  -1.963  0.00  0.00     0.063 H 
ENDBRANCH  16  18
ENDBRANCH   5  13
BRANCH  11  28
ATOM     28  C   LIG d   1       9.072  -5.695  -6.151  0.00  0.00    -0.042 C 
ATOM     29  H   LIG d   1       8.980  -4.902  -6.893  0.00  0.00     0.078 H 
ATOM     30  H   LIG d   1      10.126  -5.911  -5.978  0.00  0.00     0.078 H 
ATOM     31  H   LIG d   1       8.572  -6.592  -6.514  0.00  0.00     0.078 H 
ENDBRANCH  11  28
BRANCH   2  32
ATOM     32  N   LIG d   1       7.025  -2.212  -3.568  0.00  0.00    -0.301 N 
ATOM     33  C   LIG d   1       6.975  -0.872  -3.712  0.00  0.00     0.280 C 
ATOM     34  O   LIG d   1       7.853  -0.293  -4.324  0.00  0.00    -0.267 OA
ATOM     35  H   LIG d   1       6.326  -2.674  -3.080  0.00  0.00     0.150 HD
BRANCH  33  36
ATOM     36  C   LIG d   1       5.862  -0.114  -3.131  0.00  0.00     0.189 A 
ATOM     37  O   LIG d   1       5.524   1.156  -3.436  0.00  0.00    -0.458 OA
ATOM     38  C   LIG d   1       4.460   1.519  -2.709  0.00  0.00     0.093 A 
ATOM     39  C   LIG d   1       4.091   0.479  -1.928  0.00  0.00    -0.023 A 
ATOM     40  H   LIG d   1       3.973   2.482  -2.743  0.00  0.00     0.103 H 
ATOM     41  C   LIG d   1       4.983  -0.573  -2.192  0.00  0.00    -0.011 A 
ATOM     42  H   LIG d   1       3.266   0.460  -1.232  0.00  0.00     0.065 H 
ATOM     43  H   LIG d   1       4.977  -1.552  -1.739  0.00  0.00     0.066 H 
ENDBRANCH  33  36
ENDBRANCH   2  32
TORSDOF 5
ENDMDL
