MODEL 1
REMARK VINA RESULT:      -6.7      0.000      0.000
REMARK  7 active torsions:
REMARK  status: ('A' for Active; 'I' for Inactive)
REMARK    1  A    between atoms: C_1  and  O_2 
REMARK    2  A    between atoms: O_2  and  C_3 
REMARK    3  A    between atoms: C_6  and  C_9 
REMARK    4  A    between atoms: C_15  and  O_30 
REMARK    5  A    between atoms: C_16  and  C_24 
REMARK    6  A    between atoms: C_19  and  C_20 
REMARK    7  A    between atoms: C_24  and  N_25 
ROOT
ATOM      1  C   LIG d   1       4.547  -0.913  -8.512  0.00  0.00     0.076 A 
ATOM      2  C   LIG d   1       5.860  -1.571  -8.611  0.00  0.00     0.201 A 
ATOM      3  O   LIG d   1       6.133  -2.316  -9.536  0.00  0.00    -0.286 OA
ATOM      4  C   LIG d   1       6.829  -1.285  -7.537  0.00  0.00     0.065 A 
ATOM      5  C   LIG d   1       8.100  -1.859  -7.538  0.00  0.00    -0.044 A 
ATOM      6  C   LIG d   1       8.973  -1.572  -6.528  0.00  0.00    -0.019 A 
ATOM      7  C   LIG d   1       8.600  -0.710  -5.498  0.00  0.00     0.129 A 
ATOM      8  C   LIG d   1       7.342  -0.134  -5.484  0.00  0.00     0.081 A 
ATOM      9  C   LIG d   1       6.441  -0.415  -6.503  0.00  0.00     0.151 A 
ATOM     10  O   LIG d   1       5.212   0.139  -6.504  0.00  0.00    -0.449 OA
ATOM     11  C   LIG d   1       4.304  -0.094  -7.456  0.00  0.00     0.220 A 
ATOM     12  H   LIG d   1       8.393  -2.527  -8.334  0.00  0.00     0.063 H 
ATOM     13  H   LIG d   1       9.958  -2.015  -6.527  0.00  0.00     0.065 H 
ENDROOT
BRANCH   8  14
ATOM     14  C   LIG d   1       6.948   0.791  -4.361  0.00  0.00     0.001 C 
ATOM     15  H   LIG d   1       7.724   0.772  -3.581  0.00  0.00     0.087 H 
ATOM     16  H   LIG d   1       6.841   1.815  -4.748  0.00  0.00     0.087 H 
BRANCH  14  17
ATOM     17  N   LIG d   1       5.668   0.348  -3.789  0.00  0.00     0.239 N 
ATOM     18  C   LIG d   1       5.136   1.354  -2.844  0.00  0.00    -0.031 C 
ATOM     19  C   LIG d   1       4.409   0.583  -1.726  0.00  0.00    -0.008 C 
ATOM     20  H   LIG d   1       5.966   1.946  -2.431  0.00  0.00     0.081 H 
ATOM     21  H   LIG d   1       4.438   2.020  -3.373  0.00  0.00     0.081 H 
ATOM     22  C   LIG d   1       4.593  -0.911  -2.081  0.00  0.00    -0.008 C 
ATOM     23  H   LIG d   1       3.337   0.824  -1.699  0.00  0.00     0.032 H 
ATOM     24  H   LIG d   1       4.855   0.782  -0.740  0.00  0.00     0.032 H 
ATOM     25  C   LIG d   1       5.841  -0.898  -3.000  0.00  0.00    -0.031 C 
ATOM     26  H   LIG d   1       3.735  -1.323  -2.634  0.00  0.00     0.032 H 
ATOM     27  H   LIG d   1       4.794  -1.534  -1.198  0.00  0.00     0.032 H 
ATOM     28  H   LIG d   1       5.871  -1.761  -3.680  0.00  0.00     0.081 H 
ATOM     29  H   LIG d   1       6.781  -0.846  -2.432  0.00  0.00     0.081 H 
ATOM     30  H   LIG d   1       4.994   0.202  -4.644  0.00  0.00     0.204 HD
ENDBRANCH  14  17
ENDBRANCH   8  14
BRANCH   7  31
ATOM     31  O   LIG d   1       9.479  -0.434  -4.501  0.00  0.00    -0.506 OA
ATOM     32  H   LIG d   1      10.365  -1.069  -4.358  0.00  0.00     0.292 HD
ENDBRANCH   7  31
BRANCH  11  33
ATOM     33  C   LIG d   1       2.961   0.580  -7.355  0.00  0.00     0.451 C 
ATOM     34  F   LIG d   1       2.760   1.025  -6.044  0.00  0.00    -0.163 F 
ATOM     35  F   LIG d   1       2.919   1.672  -8.230  0.00  0.00    -0.163 F 
ATOM     36  F   LIG d   1       1.955  -0.330  -7.697  0.00  0.00    -0.163 F 
ENDBRANCH  11  33
BRANCH   1  37
ATOM     37  C   LIG d   1       3.507  -1.140  -9.546  0.00  0.00    -0.011 A 
ATOM     38  C   LIG d   1       3.423  -0.295 -10.650  0.00  0.00    -0.050 A 
ATOM     39  C   LIG d   1       2.456  -0.510 -11.609  0.00  0.00    -0.019 A 
ATOM     40  H   LIG d   1       4.115   0.528 -10.755  0.00  0.00     0.062 H 
ATOM     41  C   LIG d   1       1.567  -1.568 -11.477  0.00  0.00     0.120 A 
ATOM     42  H   LIG d   1       2.391   0.145 -12.465  0.00  0.00     0.065 H 
ATOM     43  C   LIG d   1       1.648  -2.412 -10.378  0.00  0.00    -0.019 A 
ATOM     44  C   LIG d   1       2.615  -2.204  -9.417  0.00  0.00    -0.050 A 
ATOM     45  H   LIG d   1       0.955  -3.233 -10.277  0.00  0.00     0.065 H 
ATOM     46  H   LIG d   1       2.680  -2.864  -8.564  0.00  0.00     0.062 H 
BRANCH  41  47
ATOM     47  O   LIG d   1       0.615  -1.777 -12.424  0.00  0.00    -0.495 OA
BRANCH  47  48
ATOM     48  C   LIG d   1       1.034  -2.412 -13.633  0.00  0.00     0.079 C 
ATOM     49  H   LIG d   1       1.544  -1.679 -14.275  0.00  0.00     0.066 H 
ATOM     50  H   LIG d   1       0.155  -2.813 -14.161  0.00  0.00     0.066 H 
ATOM     51  H   LIG d   1       1.724  -3.234 -13.396  0.00  0.00     0.066 H 
ENDBRANCH  47  48
ENDBRANCH  41  47
ENDBRANCH   1  37
TORSDOF 7
ENDMDL
MODEL 2
REMARK VINA RESULT:      -6.3      1.957      2.428
REMARK  7 active torsions:
REMARK  status: ('A' for Active; 'I' for Inactive)
REMARK    1  A    between atoms: C_1  and  O_2 
REMARK    2  A    between atoms: O_2  and  C_3 
REMARK    3  A    between atoms: C_6  and  C_9 
REMARK    4  A    between atoms: C_15  and  O_30 
REMARK    5  A    between atoms: C_16  and  C_24 
REMARK    6  A    between atoms: C_19  and  C_20 
REMARK    7  A    between atoms: C_24  and  N_25 
ROOT
ATOM      1  C   LIG d   1       3.373  -2.050  -9.211  0.00  0.00     0.076 A 
ATOM      2  C   LIG d   1       3.910  -3.283  -8.612  0.00  0.00     0.201 A 
ATOM      3  O   LIG d   1       3.752  -4.371  -9.139  0.00  0.00    -0.286 OA
ATOM      4  C   LIG d   1       4.648  -3.139  -7.344  0.00  0.00     0.065 A 
ATOM      5  C   LIG d   1       5.196  -4.246  -6.695  0.00  0.00    -0.044 A 
ATOM      6  C   LIG d   1       5.874  -4.077  -5.522  0.00  0.00    -0.019 A 
ATOM      7  C   LIG d   1       6.021  -2.805  -4.971  0.00  0.00     0.129 A 
ATOM      8  C   LIG d   1       5.482  -1.698  -5.603  0.00  0.00     0.081 A 
ATOM      9  C   LIG d   1       4.789  -1.852  -6.797  0.00  0.00     0.151 A 
ATOM     10  O   LIG d   1       4.260  -0.783  -7.425  0.00  0.00    -0.449 OA
ATOM     11  C   LIG d   1       3.583  -0.870  -8.574  0.00  0.00     0.220 A 
ATOM     12  H   LIG d   1       5.084  -5.233  -7.119  0.00  0.00     0.063 H 
ATOM     13  H   LIG d   1       6.299  -4.933  -5.019  0.00  0.00     0.065 H 
ENDROOT
BRANCH   8  14
ATOM     14  C   LIG d   1       5.642  -0.329  -4.993  0.00  0.00     0.001 C 
ATOM     15  H   LIG d   1       6.711  -0.115  -4.848  0.00  0.00     0.087 H 
ATOM     16  H   LIG d   1       5.205   0.426  -5.664  0.00  0.00     0.087 H 
BRANCH  14  17
ATOM     17  N   LIG d   1       4.953  -0.288  -3.695  0.00  0.00     0.239 N 
ATOM     18  C   LIG d   1       3.603   0.300  -3.832  0.00  0.00    -0.031 C 
ATOM     19  C   LIG d   1       3.318   1.081  -2.535  0.00  0.00    -0.008 C 
ATOM     20  H   LIG d   1       3.581   0.971  -4.702  0.00  0.00     0.081 H 
ATOM     21  H   LIG d   1       2.866  -0.504  -3.970  0.00  0.00     0.081 H 
ATOM     22  C   LIG d   1       4.597   0.924  -1.680  0.00  0.00    -0.008 C 
ATOM     23  H   LIG d   1       2.460   0.663  -1.991  0.00  0.00     0.032 H 
ATOM     24  H   LIG d   1       3.141   2.148  -2.736  0.00  0.00     0.032 H 
ATOM     25  C   LIG d   1       5.679   0.582  -2.735  0.00  0.00    -0.031 C 
ATOM     26  H   LIG d   1       4.521   0.103  -0.952  0.00  0.00     0.032 H 
ATOM     27  H   LIG d   1       4.874   1.852  -1.159  0.00  0.00     0.032 H 
ATOM     28  H   LIG d   1       6.525   0.026  -2.304  0.00  0.00     0.081 H 
ATOM     29  H   LIG d   1       6.055   1.473  -3.258  0.00  0.00     0.081 H 
ATOM     30  H   LIG d   1       4.906  -1.330  -3.350  0.00  0.00     0.204 HD
ENDBRANCH  14  17
ENDBRANCH   8  14
BRANCH   7  31
ATOM     31  O   LIG d   1       6.698  -2.652  -3.805  0.00  0.00    -0.506 OA
ATOM     32  H   LIG d   1       7.293  -1.744  -3.630  0.00  0.00     0.292 HD
ENDBRANCH   7  31
BRANCH  11  33
ATOM     33  C   LIG d   1       3.035   0.393  -9.187  0.00  0.00     0.451 C 
ATOM     34  F   LIG d   1       3.172   1.449  -8.280  0.00  0.00    -0.163 F 
ATOM     35  F   LIG d   1       3.742   0.688 -10.358  0.00  0.00    -0.163 F 
ATOM     36  F   LIG d   1       1.681   0.214  -9.492  0.00  0.00    -0.163 F 
ENDBRANCH  11  33
BRANCH   1  37
ATOM     37  C   LIG d   1       2.617  -2.096 -10.486  0.00  0.00    -0.011 A 
ATOM     38  C   LIG d   1       1.266  -2.439 -10.486  0.00  0.00    -0.050 A 
ATOM     39  C   LIG d   1       0.566  -2.481 -11.673  0.00  0.00    -0.019 A 
ATOM     40  H   LIG d   1       0.768  -2.672  -9.556  0.00  0.00     0.062 H 
ATOM     41  C   LIG d   1       1.204  -2.180 -12.868  0.00  0.00     0.120 A 
ATOM     42  H   LIG d   1      -0.481  -2.746 -11.673  0.00  0.00     0.065 H 
ATOM     43  C   LIG d   1       2.549  -1.838 -12.872  0.00  0.00    -0.019 A 
ATOM     44  C   LIG d   1       3.255  -1.791 -11.688  0.00  0.00    -0.050 A 
ATOM     45  H   LIG d   1       3.044  -1.605 -13.804  0.00  0.00     0.065 H 
ATOM     46  H   LIG d   1       4.301  -1.521 -11.692  0.00  0.00     0.062 H 
BRANCH  41  47
ATOM     47  O   LIG d   1       0.511  -2.221 -14.037  0.00  0.00    -0.495 OA
BRANCH  47  48
ATOM     48  C   LIG d   1      -0.912  -2.130 -13.949  0.00  0.00     0.079 C 
ATOM     49  H   LIG d   1      -1.367  -2.716 -14.761  0.00  0.00     0.066 H 
ATOM     50  H   LIG d   1      -1.219  -1.077 -14.040  0.00  0.00     0.066 H 
ATOM     51  H   LIG d   1      -1.246  -2.526 -12.979  0.00  0.00     0.066 H 
ENDBRANCH  47  48
ENDBRANCH  41  47
ENDBRANCH   1  37
TORSDOF 7
ENDMDL
MODEL 3
REMARK VINA RESULT:      -6.2      2.279      2.813
REMARK  7 active torsions:
REMARK  status: ('A' for Active; 'I' for Inactive)
REMARK    1  A    between atoms: C_1  and  O_2 
REMARK    2  A    between atoms: O_2  and  C_3 
REMARK    3  A    between atoms: C_6  and  C_9 
REMARK    4  A    between atoms: C_15  and  O_30 
REMARK    5  A    between atoms: C_16  and  C_24 
REMARK    6  A    between atoms: C_19  and  C_20 
REMARK    7  A    between atoms: C_24  and  N_25 
ROOT
ATOM      1  C   LIG d   1       6.117   0.199  -8.708  0.00  0.00     0.076 A 
ATOM      2  C   LIG d   1       7.137   1.248  -8.541  0.00  0.00     0.201 A 
ATOM      3  O   LIG d   1       7.496   1.945  -9.474  0.00  0.00    -0.286 OA
ATOM      4  C   LIG d   1       7.701   1.416  -7.189  0.00  0.00     0.065 A 
ATOM      5  C   LIG d   1       8.673   2.381  -6.925  0.00  0.00    -0.044 A 
ATOM      6  C   LIG d   1       9.174   2.511  -5.662  0.00  0.00    -0.019 A 
ATOM      7  C   LIG d   1       8.720   1.683  -4.636  0.00  0.00     0.129 A 
ATOM      8  C   LIG d   1       7.757   0.720  -4.883  0.00  0.00     0.081 A 
ATOM      9  C   LIG d   1       7.236   0.575  -6.163  0.00  0.00     0.151 A 
ATOM     10  O   LIG d   1       6.297  -0.357  -6.419  0.00  0.00    -0.449 OA
ATOM     11  C   LIG d   1       5.760  -0.543  -7.628  0.00  0.00     0.220 A 
ATOM     12  H   LIG d   1       9.027   3.025  -7.717  0.00  0.00     0.063 H 
ATOM     13  H   LIG d   1       9.926   3.258  -5.456  0.00  0.00     0.065 H 
ENDROOT
BRANCH   8  14
ATOM     14  C   LIG d   1       7.279  -0.173  -3.767  0.00  0.00     0.001 C 
ATOM     15  H   LIG d   1       7.486  -1.223  -4.024  0.00  0.00     0.087 H 
ATOM     16  H   LIG d   1       7.806   0.087  -2.837  0.00  0.00     0.087 H 
BRANCH  14  17
ATOM     17  N   LIG d   1       5.834   0.010  -3.578  0.00  0.00     0.239 N 
ATOM     18  C   LIG d   1       5.555   1.212  -2.763  0.00  0.00    -0.031 C 
ATOM     19  C   LIG d   1       4.306   0.905  -1.917  0.00  0.00    -0.008 C 
ATOM     20  H   LIG d   1       6.419   1.426  -2.116  0.00  0.00     0.081 H 
ATOM     21  H   LIG d   1       5.373   2.070  -3.427  0.00  0.00     0.081 H 
ATOM     22  C   LIG d   1       3.920  -0.548  -2.280  0.00  0.00    -0.008 C 
ATOM     23  H   LIG d   1       3.473   1.578  -2.165  0.00  0.00     0.032 H 
ATOM     24  H   LIG d   1       4.520   0.968  -0.839  0.00  0.00     0.032 H 
ATOM     25  C   LIG d   1       5.246  -1.131  -2.831  0.00  0.00    -0.031 C 
ATOM     26  H   LIG d   1       3.145  -0.598  -3.060  0.00  0.00     0.032 H 
ATOM     27  H   LIG d   1       3.598  -1.132  -1.406  0.00  0.00     0.032 H 
ATOM     28  H   LIG d   1       5.081  -1.973  -3.519  0.00  0.00     0.081 H 
ATOM     29  H   LIG d   1       5.934  -1.440  -2.031  0.00  0.00     0.081 H 
ATOM     30  H   LIG d   1       5.410   0.101  -4.588  0.00  0.00     0.204 HD
ENDBRANCH  14  17
ENDBRANCH   8  14
BRANCH   7  31
ATOM     31  O   LIG d   1       9.227   1.823  -3.385  0.00  0.00    -0.506 OA
ATOM     32  H   LIG d   1       8.722   1.349  -2.531  0.00  0.00     0.292 HD
ENDBRANCH   7  31
BRANCH  11  33
ATOM     33  C   LIG d   1       4.717  -1.616  -7.799  0.00  0.00     0.451 C 
ATOM     34  F   LIG d   1       3.518  -1.037  -8.227  0.00  0.00    -0.163 F 
ATOM     35  F   LIG d   1       5.153  -2.544  -8.751  0.00  0.00    -0.163 F 
ATOM     36  F   LIG d   1       4.510  -2.265  -6.577  0.00  0.00    -0.163 F 
ENDBRANCH  11  33
BRANCH   1  37
ATOM     37  C   LIG d   1       5.492  -0.044 -10.031  0.00  0.00    -0.011 A 
ATOM     38  C   LIG d   1       4.352   0.664 -10.406  0.00  0.00    -0.050 A 
ATOM     39  C   LIG d   1       3.774   0.436 -11.637  0.00  0.00    -0.019 A 
ATOM     40  H   LIG d   1       3.921   1.390  -9.733  0.00  0.00     0.062 H 
ATOM     41  C   LIG d   1       4.327  -0.496 -12.504  0.00  0.00     0.120 A 
ATOM     42  H   LIG d   1       2.890   0.984 -11.927  0.00  0.00     0.065 H 
ATOM     43  C   LIG d   1       5.464  -1.202 -12.134  0.00  0.00    -0.019 A 
ATOM     44  C   LIG d   1       6.048  -0.977 -10.906  0.00  0.00    -0.050 A 
ATOM     45  H   LIG d   1       5.892  -1.927 -12.810  0.00  0.00     0.065 H 
ATOM     46  H   LIG d   1       6.935  -1.524 -10.620  0.00  0.00     0.062 H 
BRANCH  41  47
ATOM     47  O   LIG d   1       3.756  -0.718 -13.717  0.00  0.00    -0.495 OA
BRANCH  47  48
ATOM     48  C   LIG d   1       4.553  -0.440 -14.870  0.00  0.00     0.079 C 
ATOM     49  H   LIG d   1       4.084  -0.891 -15.757  0.00  0.00     0.066 H 
ATOM     50  H   LIG d   1       5.559  -0.864 -14.731  0.00  0.00     0.066 H 
ATOM     51  H   LIG d   1       4.630   0.648 -15.009  0.00  0.00     0.066 H 
ENDBRANCH  47  48
ENDBRANCH  41  47
ENDBRANCH   1  37
TORSDOF 7
ENDMDL
MODEL 4
REMARK VINA RESULT:      -6.0      5.517      7.513
REMARK  7 active torsions:
REMARK  status: ('A' for Active; 'I' for Inactive)
REMARK    1  A    between atoms: C_1  and  O_2 
REMARK    2  A    between atoms: O_2  and  C_3 
REMARK    3  A    between atoms: C_6  and  C_9 
REMARK    4  A    between atoms: C_15  and  O_30 
REMARK    5  A    between atoms: C_16  and  C_24 
REMARK    6  A    between atoms: C_19  and  C_20 
REMARK    7  A    between atoms: C_24  and  N_25 
ROOT
ATOM      1  C   LIG d   1       5.569  -3.982  -5.040  0.00  0.00     0.076 A 
ATOM      2  C   LIG d   1       4.803  -5.137  -5.537  0.00  0.00     0.201 A 
ATOM      3  O   LIG d   1       3.607  -5.062  -5.759  0.00  0.00    -0.286 OA
ATOM      4  C   LIG d   1       5.552  -6.388  -5.754  0.00  0.00     0.065 A 
ATOM      5  C   LIG d   1       4.919  -7.539  -6.223  0.00  0.00    -0.044 A 
ATOM      6  C   LIG d   1       5.643  -8.680  -6.413  0.00  0.00    -0.019 A 
ATOM      7  C   LIG d   1       7.010  -8.700  -6.141  0.00  0.00     0.129 A 
ATOM      8  C   LIG d   1       7.652  -7.566  -5.675  0.00  0.00     0.081 A 
ATOM      9  C   LIG d   1       6.930  -6.396  -5.475  0.00  0.00     0.151 A 
ATOM     10  O   LIG d   1       7.541  -5.283  -5.023  0.00  0.00    -0.449 OA
ATOM     11  C   LIG d   1       6.899  -4.130  -4.812  0.00  0.00     0.220 A 
ATOM     12  H   LIG d   1       3.860  -7.527  -6.435  0.00  0.00     0.063 H 
ATOM     13  H   LIG d   1       5.154  -9.573  -6.776  0.00  0.00     0.065 H 
ENDROOT
BRANCH   8  14
ATOM     14  C   LIG d   1       9.129  -7.603  -5.378  0.00  0.00     0.001 C 
ATOM     15  H   LIG d   1       9.501  -8.632  -5.494  0.00  0.00     0.087 H 
ATOM     16  H   LIG d   1       9.661  -6.940  -6.077  0.00  0.00     0.087 H 
BRANCH  14  17
ATOM     17  N   LIG d   1       9.362  -7.150  -4.000  0.00  0.00     0.239 N 
ATOM     18  C   LIG d   1      10.733  -6.616  -3.844  0.00  0.00    -0.031 C 
ATOM     19  C   LIG d   1      11.197  -6.973  -2.419  0.00  0.00    -0.008 C 
ATOM     20  H   LIG d   1      11.394  -7.075  -4.593  0.00  0.00     0.081 H 
ATOM     21  H   LIG d   1      10.719  -5.526  -3.985  0.00  0.00     0.081 H 
ATOM     22  C   LIG d   1      10.022  -7.764  -1.798  0.00  0.00    -0.008 C 
ATOM     23  H   LIG d   1      11.390  -6.072  -1.818  0.00  0.00     0.032 H 
ATOM     24  H   LIG d   1      12.097  -7.605  -2.432  0.00  0.00     0.032 H 
ATOM     25  C   LIG d   1       9.256  -8.280  -3.043  0.00  0.00    -0.031 C 
ATOM     26  H   LIG d   1       9.356  -7.129  -1.195  0.00  0.00     0.032 H 
ATOM     27  H   LIG d   1      10.359  -8.619  -1.194  0.00  0.00     0.032 H 
ATOM     28  H   LIG d   1       8.196  -8.483  -2.830  0.00  0.00     0.081 H 
ATOM     29  H   LIG d   1       9.720  -9.177  -3.480  0.00  0.00     0.081 H 
ATOM     30  H   LIG d   1       8.605  -6.377  -3.807  0.00  0.00     0.204 HD
ENDBRANCH  14  17
ENDBRANCH   8  14
BRANCH   7  31
ATOM     31  O   LIG d   1       7.717  -9.842  -6.336  0.00  0.00    -0.506 OA
ATOM     32  H   LIG d   1       7.229 -10.722  -6.780  0.00  0.00     0.292 HD
ENDBRANCH   7  31
BRANCH  11  33
ATOM     33  C   LIG d   1       7.684  -2.949  -4.304  0.00  0.00     0.451 C 
ATOM     34  F   LIG d   1       7.729  -1.959  -5.292  0.00  0.00    -0.163 F 
ATOM     35  F   LIG d   1       7.066  -2.436  -3.158  0.00  0.00    -0.163 F 
ATOM     36  F   LIG d   1       8.986  -3.353  -3.990  0.00  0.00    -0.163 F 
ENDBRANCH  11  33
BRANCH   1  37
ATOM     37  C   LIG d   1       4.901  -2.681  -4.792  0.00  0.00    -0.011 A 
ATOM     38  C   LIG d   1       4.854  -1.716  -5.796  0.00  0.00    -0.050 A 
ATOM     39  C   LIG d   1       4.232  -0.508  -5.562  0.00  0.00    -0.019 A 
ATOM     40  H   LIG d   1       5.306  -1.914  -6.757  0.00  0.00     0.062 H 
ATOM     41  C   LIG d   1       3.650  -0.253  -4.327  0.00  0.00     0.120 A 
ATOM     42  H   LIG d   1       4.196   0.240  -6.340  0.00  0.00     0.065 H 
ATOM     43  C   LIG d   1       3.694  -1.212  -3.325  0.00  0.00    -0.019 A 
ATOM     44  C   LIG d   1       4.312  -2.423  -3.554  0.00  0.00    -0.050 A 
ATOM     45  H   LIG d   1       3.241  -1.011  -2.366  0.00  0.00     0.065 H 
ATOM     46  H   LIG d   1       4.343  -3.171  -2.774  0.00  0.00     0.062 H 
BRANCH  41  47
ATOM     47  O   LIG d   1       3.036   0.938  -4.100  0.00  0.00    -0.495 OA
BRANCH  47  48
ATOM     48  C   LIG d   1       3.507   1.709  -2.993  0.00  0.00     0.079 C 
ATOM     49  H   LIG d   1       3.142   2.743  -3.085  0.00  0.00     0.066 H 
ATOM     50  H   LIG d   1       4.607   1.708  -2.986  0.00  0.00     0.066 H 
ATOM     51  H   LIG d   1       3.134   1.271  -2.056  0.00  0.00     0.066 H 
ENDBRANCH  47  48
ENDBRANCH  41  47
ENDBRANCH   1  37
TORSDOF 7
ENDMDL
MODEL 5
REMARK VINA RESULT:      -6.0      4.429      7.327
REMARK  7 active torsions:
REMARK  status: ('A' for Active; 'I' for Inactive)
REMARK    1  A    between atoms: C_1  and  O_2 
REMARK    2  A    between atoms: O_2  and  C_3 
REMARK    3  A    between atoms: C_6  and  C_9 
REMARK    4  A    between atoms: C_15  and  O_30 
REMARK    5  A    between atoms: C_16  and  C_24 
REMARK    6  A    between atoms: C_19  and  C_20 
REMARK    7  A    between atoms: C_24  and  N_25 
ROOT
ATOM      1  C   LIG d   1       8.611   2.260  -7.160  0.00  0.00     0.076 A 
ATOM      2  C   LIG d   1       7.780   1.818  -8.292  0.00  0.00     0.201 A 
ATOM      3  O   LIG d   1       7.991   2.205  -9.429  0.00  0.00    -0.286 OA
ATOM      4  C   LIG d   1       6.682   0.884  -7.985  0.00  0.00     0.065 A 
ATOM      5  C   LIG d   1       5.837   0.405  -8.987  0.00  0.00    -0.044 A 
ATOM      6  C   LIG d   1       4.830  -0.459  -8.668  0.00  0.00    -0.019 A 
ATOM      7  C   LIG d   1       4.642  -0.865  -7.348  0.00  0.00     0.129 A 
ATOM      8  C   LIG d   1       5.472  -0.399  -6.344  0.00  0.00     0.081 A 
ATOM      9  C   LIG d   1       6.502   0.482  -6.650  0.00  0.00     0.151 A 
ATOM     10  O   LIG d   1       7.319   0.944  -5.684  0.00  0.00    -0.449 OA
ATOM     11  C   LIG d   1       8.325   1.792  -5.918  0.00  0.00     0.220 A 
ATOM     12  H   LIG d   1       5.980   0.717 -10.011  0.00  0.00     0.063 H 
ATOM     13  H   LIG d   1       4.175  -0.831  -9.443  0.00  0.00     0.065 H 
ENDROOT
BRANCH   8  14
ATOM     14  C   LIG d   1       5.254  -0.840  -4.919  0.00  0.00     0.001 C 
ATOM     15  H   LIG d   1       4.409  -1.543  -4.878  0.00  0.00     0.087 H 
ATOM     16  H   LIG d   1       6.162  -1.336  -4.545  0.00  0.00     0.087 H 
BRANCH  14  17
ATOM     17  N   LIG d   1       4.958   0.332  -4.084  0.00  0.00     0.239 N 
ATOM     18  C   LIG d   1       5.611   0.219  -2.762  0.00  0.00    -0.031 C 
ATOM     19  C   LIG d   1       4.672   0.879  -1.735  0.00  0.00    -0.008 C 
ATOM     20  H   LIG d   1       5.767  -0.842  -2.519  0.00  0.00     0.081 H 
ATOM     21  H   LIG d   1       6.582   0.735  -2.788  0.00  0.00     0.081 H 
ATOM     22  C   LIG d   1       3.442   1.340  -2.552  0.00  0.00    -0.008 C 
ATOM     23  H   LIG d   1       5.142   1.751  -1.258  0.00  0.00     0.032 H 
ATOM     24  H   LIG d   1       4.351   0.166  -0.961  0.00  0.00     0.032 H 
ATOM     25  C   LIG d   1       3.502   0.435  -3.808  0.00  0.00    -0.031 C 
ATOM     26  H   LIG d   1       3.507   2.395  -2.856  0.00  0.00     0.032 H 
ATOM     27  H   LIG d   1       2.494   1.169  -2.022  0.00  0.00     0.032 H 
ATOM     28  H   LIG d   1       2.996   0.885  -4.675  0.00  0.00     0.081 H 
ATOM     29  H   LIG d   1       3.091  -0.568  -3.624  0.00  0.00     0.081 H 
ATOM     30  H   LIG d   1       5.331   1.201  -4.644  0.00  0.00     0.204 HD
ENDBRANCH  14  17
ENDBRANCH   8  14
BRANCH   7  31
ATOM     31  O   LIG d   1       3.637  -1.726  -7.046  0.00  0.00    -0.506 OA
ATOM     32  H   LIG d   1       3.195  -1.723  -6.039  0.00  0.00     0.292 HD
ENDBRANCH   7  31
BRANCH  11  33
ATOM     33  C   LIG d   1       9.175   2.243  -4.759  0.00  0.00     0.451 C 
ATOM     34  F   LIG d   1      10.492   1.813  -4.952  0.00  0.00    -0.163 F 
ATOM     35  F   LIG d   1       9.147   3.640  -4.676  0.00  0.00    -0.163 F 
ATOM     36  F   LIG d   1       8.676   1.695  -3.573  0.00  0.00    -0.163 F 
ENDBRANCH  11  33
BRANCH   1  37
ATOM     37  C   LIG d   1       9.739   3.199  -7.372  0.00  0.00    -0.011 A 
ATOM     38  C   LIG d   1      11.019   2.709  -7.627  0.00  0.00    -0.050 A 
ATOM     39  C   LIG d   1      12.065   3.585  -7.823  0.00  0.00    -0.019 A 
ATOM     40  H   LIG d   1      11.191   1.644  -7.671  0.00  0.00     0.062 H 
ATOM     41  C   LIG d   1      11.846   4.955  -7.769  0.00  0.00     0.120 A 
ATOM     42  H   LIG d   1      13.057   3.206  -8.021  0.00  0.00     0.065 H 
ATOM     43  C   LIG d   1      10.573   5.447  -7.515  0.00  0.00    -0.019 A 
ATOM     44  C   LIG d   1       9.521   4.576  -7.321  0.00  0.00    -0.050 A 
ATOM     45  H   LIG d   1      10.405   6.512  -7.473  0.00  0.00     0.065 H 
ATOM     46  H   LIG d   1       8.530   4.959  -7.127  0.00  0.00     0.062 H 
BRANCH  41  47
ATOM     47  O   LIG d   1      12.879   5.816  -7.964  0.00  0.00    -0.495 OA
BRANCH  47  48
ATOM     48  C   LIG d   1      12.551   7.197  -8.124  0.00  0.00     0.079 C 
ATOM     49  H   LIG d   1      13.280   7.813  -7.578  0.00  0.00     0.066 H 
ATOM     50  H   LIG d   1      11.542   7.383  -7.725  0.00  0.00     0.066 H 
ATOM     51  H   LIG d   1      12.576   7.459  -9.192  0.00  0.00     0.066 H 
ENDBRANCH  47  48
ENDBRANCH  41  47
ENDBRANCH   1  37
TORSDOF 7
ENDMDL
MODEL 6
REMARK VINA RESULT:      -5.9      8.887     12.253
REMARK  7 active torsions:
REMARK  status: ('A' for Active; 'I' for Inactive)
REMARK    1  A    between atoms: C_1  and  O_2 
REMARK    2  A    between atoms: O_2  and  C_3 
REMARK    3  A    between atoms: C_6  and  C_9 
REMARK    4  A    between atoms: C_15  and  O_30 
REMARK    5  A    between atoms: C_16  and  C_24 
REMARK    6  A    between atoms: C_19  and  C_20 
REMARK    7  A    between atoms: C_24  and  N_25 
ROOT
ATOM      1  C   LIG d   1      10.741   6.203  -2.393  0.00  0.00     0.076 A 
ATOM      2  C   LIG d   1      11.139   6.644  -1.046  0.00  0.00     0.201 A 
ATOM      3  O   LIG d   1      11.700   5.893  -0.268  0.00  0.00    -0.286 OA
ATOM      4  C   LIG d   1      10.826   8.039  -0.684  0.00  0.00     0.065 A 
ATOM      5  C   LIG d   1      11.160   8.554   0.568  0.00  0.00    -0.044 A 
ATOM      6  C   LIG d   1      10.856   9.850   0.870  0.00  0.00    -0.019 A 
ATOM      7  C   LIG d   1      10.213  10.659  -0.066  0.00  0.00     0.129 A 
ATOM      8  C   LIG d   1       9.875  10.161  -1.312  0.00  0.00     0.081 A 
ATOM      9  C   LIG d   1      10.176   8.845  -1.636  0.00  0.00     0.151 A 
ATOM     10  O   LIG d   1       9.854   8.346  -2.845  0.00  0.00    -0.449 OA
ATOM     11  C   LIG d   1      10.119   7.089  -3.213  0.00  0.00     0.220 A 
ATOM     12  H   LIG d   1      11.659   7.931   1.295  0.00  0.00     0.063 H 
ATOM     13  H   LIG d   1      11.115  10.251   1.839  0.00  0.00     0.065 H 
ENDROOT
BRANCH   8  14
ATOM     14  C   LIG d   1       9.174  11.044  -2.312  0.00  0.00     0.001 C 
ATOM     15  H   LIG d   1       8.205  10.597  -2.581  0.00  0.00     0.087 H 
ATOM     16  H   LIG d   1       9.008  12.039  -1.872  0.00  0.00     0.087 H 
BRANCH  14  17
ATOM     17  N   LIG d   1      10.005  11.174  -3.517  0.00  0.00     0.239 N 
ATOM     18  C   LIG d   1      10.726  12.465  -3.525  0.00  0.00    -0.031 C 
ATOM     19  C   LIG d   1      10.824  12.919  -4.994  0.00  0.00    -0.008 C 
ATOM     20  H   LIG d   1      10.168  13.202  -2.928  0.00  0.00     0.081 H 
ATOM     21  H   LIG d   1      11.728  12.328  -3.094  0.00  0.00     0.081 H 
ATOM     22  C   LIG d   1      10.089  11.825  -5.803  0.00  0.00    -0.008 C 
ATOM     23  H   LIG d   1      11.869  12.983  -5.329  0.00  0.00     0.032 H 
ATOM     24  H   LIG d   1      10.328  13.888  -5.153  0.00  0.00     0.032 H 
ATOM     25  C   LIG d   1       9.168  11.170  -4.744  0.00  0.00    -0.031 C 
ATOM     26  H   LIG d   1      10.775  11.068  -6.211  0.00  0.00     0.032 H 
ATOM     27  H   LIG d   1       9.476  12.240  -6.616  0.00  0.00     0.032 H 
ATOM     28  H   LIG d   1       8.901  10.135  -5.001  0.00  0.00     0.081 H 
ATOM     29  H   LIG d   1       8.252  11.752  -4.565  0.00  0.00     0.081 H 
ATOM     30  H   LIG d   1      10.701  10.324  -3.492  0.00  0.00     0.204 HD
ENDBRANCH  14  17
ENDBRANCH   8  14
BRANCH   7  31
ATOM     31  O   LIG d   1       9.918  11.946   0.249  0.00  0.00    -0.506 OA
ATOM     32  H   LIG d   1       9.209  12.514  -0.371  0.00  0.00     0.292 HD
ENDBRANCH   7  31
BRANCH  11  33
ATOM     33  C   LIG d   1       9.712   6.638  -4.592  0.00  0.00     0.451 C 
ATOM     34  F   LIG d   1      10.842   6.202  -5.292  0.00  0.00    -0.163 F 
ATOM     35  F   LIG d   1       8.793   5.588  -4.488  0.00  0.00    -0.163 F 
ATOM     36  F   LIG d   1       9.124   7.707  -5.278  0.00  0.00    -0.163 F 
ENDBRANCH  11  33
BRANCH   1  37
ATOM     37  C   LIG d   1      11.015   4.818  -2.847  0.00  0.00    -0.011 A 
ATOM     38  C   LIG d   1      12.241   4.501  -3.428  0.00  0.00    -0.050 A 
ATOM     39  C   LIG d   1      12.492   3.212  -3.848  0.00  0.00    -0.019 A 
ATOM     40  H   LIG d   1      12.994   5.265  -3.550  0.00  0.00     0.062 H 
ATOM     41  C   LIG d   1      11.525   2.228  -3.691  0.00  0.00     0.120 A 
ATOM     42  H   LIG d   1      13.442   2.967  -4.299  0.00  0.00     0.065 H 
ATOM     43  C   LIG d   1      10.302   2.540  -3.112  0.00  0.00    -0.019 A 
ATOM     44  C   LIG d   1      10.046   3.826  -2.687  0.00  0.00    -0.050 A 
ATOM     45  H   LIG d   1       9.552   1.773  -2.992  0.00  0.00     0.065 H 
ATOM     46  H   LIG d   1       9.096   4.068  -2.233  0.00  0.00     0.062 H 
BRANCH  41  47
ATOM     47  O   LIG d   1      11.775   0.958  -4.105  0.00  0.00    -0.495 OA
BRANCH  47  48
ATOM     48  C   LIG d   1      13.068   0.425  -3.812  0.00  0.00     0.079 C 
ATOM     49  H   LIG d   1      13.761   1.248  -3.584  0.00  0.00     0.066 H 
ATOM     50  H   LIG d   1      13.439  -0.137  -4.682  0.00  0.00     0.066 H 
ATOM     51  H   LIG d   1      12.999  -0.248  -2.945  0.00  0.00     0.066 H 
ENDBRANCH  47  48
ENDBRANCH  41  47
ENDBRANCH   1  37
TORSDOF 7
ENDMDL
MODEL 7
REMARK VINA RESULT:      -5.8      5.260      8.389
REMARK  7 active torsions:
REMARK  status: ('A' for Active; 'I' for Inactive)
REMARK    1  A    between atoms: C_1  and  O_2 
REMARK    2  A    between atoms: O_2  and  C_3 
REMARK    3  A    between atoms: C_6  and  C_9 
REMARK    4  A    between atoms: C_15  and  O_30 
REMARK    5  A    between atoms: C_16  and  C_24 
REMARK    6  A    between atoms: C_19  and  C_20 
REMARK    7  A    between atoms: C_24  and  N_25 
ROOT
ATOM      1  C   LIG d   1       8.167   1.065  -4.292  0.00  0.00     0.076 A 
ATOM      2  C   LIG d   1       6.840   0.863  -3.688  0.00  0.00     0.201 A 
ATOM      3  O   LIG d   1       6.294   1.737  -3.038  0.00  0.00    -0.286 OA
ATOM      4  C   LIG d   1       6.203  -0.449  -3.908  0.00  0.00     0.065 A 
ATOM      5  C   LIG d   1       4.947  -0.742  -3.378  0.00  0.00    -0.044 A 
ATOM      6  C   LIG d   1       4.385  -1.966  -3.601  0.00  0.00    -0.019 A 
ATOM      7  C   LIG d   1       5.062  -2.923  -4.355  0.00  0.00     0.129 A 
ATOM      8  C   LIG d   1       6.310  -2.647  -4.887  0.00  0.00     0.081 A 
ATOM      9  C   LIG d   1       6.896  -1.407  -4.669  0.00  0.00     0.151 A 
ATOM     10  O   LIG d   1       8.109  -1.122  -5.182  0.00  0.00    -0.449 OA
ATOM     11  C   LIG d   1       8.722   0.052  -5.006  0.00  0.00     0.220 A 
ATOM     12  H   LIG d   1       4.419  -0.002  -2.794  0.00  0.00     0.063 H 
ATOM     13  H   LIG d   1       3.413  -2.194  -3.192  0.00  0.00     0.065 H 
ENDROOT
BRANCH   8  14
ATOM     14  C   LIG d   1       7.034  -3.694  -5.695  0.00  0.00     0.001 C 
ATOM     15  H   LIG d   1       6.390  -4.030  -6.521  0.00  0.00     0.087 H 
ATOM     16  H   LIG d   1       7.961  -3.265  -6.104  0.00  0.00     0.087 H 
BRANCH  14  17
ATOM     17  N   LIG d   1       7.362  -4.837  -4.832  0.00  0.00     0.239 N 
ATOM     18  C   LIG d   1       8.692  -4.664  -4.207  0.00  0.00    -0.031 C 
ATOM     19  C   LIG d   1       9.321  -6.064  -4.089  0.00  0.00    -0.008 C 
ATOM     20  H   LIG d   1       9.312  -4.011  -4.839  0.00  0.00     0.081 H 
ATOM     21  H   LIG d   1       8.573  -4.207  -3.214  0.00  0.00     0.081 H 
ATOM     22  C   LIG d   1       8.284  -7.027  -4.712  0.00  0.00    -0.008 C 
ATOM     23  H   LIG d   1       9.496  -6.343  -3.040  0.00  0.00     0.032 H 
ATOM     24  H   LIG d   1      10.266  -6.133  -4.649  0.00  0.00     0.032 H 
ATOM     25  C   LIG d   1       7.446  -6.092  -5.621  0.00  0.00    -0.031 C 
ATOM     26  H   LIG d   1       7.629  -7.489  -3.958  0.00  0.00     0.032 H 
ATOM     27  H   LIG d   1       8.749  -7.813  -5.324  0.00  0.00     0.032 H 
ATOM     28  H   LIG d   1       6.433  -6.480  -5.802  0.00  0.00     0.081 H 
ATOM     29  H   LIG d   1       7.938  -5.889  -6.583  0.00  0.00     0.081 H 
ATOM     30  H   LIG d   1       6.565  -4.880  -4.077  0.00  0.00     0.204 HD
ENDBRANCH  14  17
ENDBRANCH   8  14
BRANCH   7  31
ATOM     31  O   LIG d   1       4.492  -4.136  -4.570  0.00  0.00    -0.506 OA
ATOM     32  H   LIG d   1       3.425  -4.203  -4.830  0.00  0.00     0.292 HD
ENDBRANCH   7  31
BRANCH  11  33
ATOM     33  C   LIG d   1      10.080   0.259  -5.625  0.00  0.00     0.451 C 
ATOM     34  F   LIG d   1      11.021   0.491  -4.617  0.00  0.00    -0.163 F 
ATOM     35  F   LIG d   1      10.441  -0.882  -6.349  0.00  0.00    -0.163 F 
ATOM     36  F   LIG d   1      10.037   1.362  -6.484  0.00  0.00    -0.163 F 
ENDBRANCH  11  33
BRANCH   1  37
ATOM     37  C   LIG d   1       8.885   2.353  -4.125  0.00  0.00    -0.011 A 
ATOM     38  C   LIG d   1       9.776   2.524  -3.067  0.00  0.00    -0.050 A 
ATOM     39  C   LIG d   1      10.442   3.722  -2.915  0.00  0.00    -0.019 A 
ATOM     40  H   LIG d   1       9.945   1.719  -2.367  0.00  0.00     0.062 H 
ATOM     41  C   LIG d   1      10.227   4.757  -3.815  0.00  0.00     0.120 A 
ATOM     42  H   LIG d   1      11.133   3.854  -2.095  0.00  0.00     0.065 H 
ATOM     43  C   LIG d   1       9.341   4.589  -4.870  0.00  0.00    -0.019 A 
ATOM     44  C   LIG d   1       8.674   3.393  -5.030  0.00  0.00    -0.050 A 
ATOM     45  H   LIG d   1       9.176   5.396  -5.568  0.00  0.00     0.065 H 
ATOM     46  H   LIG d   1       7.987   3.262  -5.853  0.00  0.00     0.062 H 
BRANCH  41  47
ATOM     47  O   LIG d   1      10.886   5.935  -3.662  0.00  0.00    -0.495 OA
BRANCH  47  48
ATOM     48  C   LIG d   1      10.660   6.652  -2.447  0.00  0.00     0.079 C 
ATOM     49  H   LIG d   1       9.901   6.127  -1.848  0.00  0.00     0.066 H 
ATOM     50  H   LIG d   1      10.305   7.667  -2.680  0.00  0.00     0.066 H 
ATOM     51  H   LIG d   1      11.598   6.714  -1.877  0.00  0.00     0.066 H 
ENDBRANCH  47  48
ENDBRANCH  41  47
ENDBRANCH   1  37
TORSDOF 7
ENDMDL
MODEL 8
REMARK VINA RESULT:      -5.8      8.451     10.052
REMARK  7 active torsions:
REMARK  status: ('A' for Active; 'I' for Inactive)
REMARK    1  A    between atoms: C_1  and  O_2 
REMARK    2  A    between atoms: O_2  and  C_3 
REMARK    3  A    between atoms: C_6  and  C_9 
REMARK    4  A    between atoms: C_15  and  O_30 
REMARK    5  A    between atoms: C_16  and  C_24 
REMARK    6  A    between atoms: C_19  and  C_20 
REMARK    7  A    between atoms: C_24  and  N_25 
ROOT
ATOM      1  C   LIG d   1      10.042   6.350  -6.838  0.00  0.00     0.076 A 
ATOM      2  C   LIG d   1      10.316   5.115  -6.084  0.00  0.00     0.201 A 
ATOM      3  O   LIG d   1      10.558   4.063  -6.648  0.00  0.00    -0.286 OA
ATOM      4  C   LIG d   1      10.283   5.215  -4.613  0.00  0.00     0.065 A 
ATOM      5  C   LIG d   1      10.529   4.103  -3.807  0.00  0.00    -0.044 A 
ATOM      6  C   LIG d   1      10.491   4.230  -2.448  0.00  0.00    -0.019 A 
ATOM      7  C   LIG d   1      10.209   5.464  -1.864  0.00  0.00     0.129 A 
ATOM      8  C   LIG d   1       9.962   6.575  -2.651  0.00  0.00     0.081 A 
ATOM      9  C   LIG d   1       9.996   6.464  -4.035  0.00  0.00     0.151 A 
ATOM     10  O   LIG d   1       9.759   7.537  -4.815  0.00  0.00    -0.449 OA
ATOM     11  C   LIG d   1       9.778   7.491  -6.151  0.00  0.00     0.220 A 
ATOM     12  H   LIG d   1      10.749   3.146  -4.256  0.00  0.00     0.063 H 
ATOM     13  H   LIG d   1      10.682   3.370  -1.823  0.00  0.00     0.065 H 
ENDROOT
BRANCH   8  14
ATOM     14  C   LIG d   1       9.651   7.902  -2.007  0.00  0.00     0.001 C 
ATOM     15  H   LIG d   1       8.629   8.209  -2.276  0.00  0.00     0.087 H 
ATOM     16  H   LIG d   1       9.730   7.807  -0.914  0.00  0.00     0.087 H 
BRANCH  14  17
ATOM     17  N   LIG d   1      10.607   8.912  -2.481  0.00  0.00     0.239 N 
ATOM     18  C   LIG d   1      11.744   9.044  -1.546  0.00  0.00    -0.031 C 
ATOM     19  C   LIG d   1      12.171  10.524  -1.559  0.00  0.00    -0.008 C 
ATOM     20  H   LIG d   1      11.427   8.741  -0.537  0.00  0.00     0.081 H 
ATOM     21  H   LIG d   1      12.570   8.399  -1.879  0.00  0.00     0.081 H 
ATOM     22  C   LIG d   1      11.189  11.218  -2.531  0.00  0.00    -0.008 C 
ATOM     23  H   LIG d   1      13.200  10.645  -1.930  0.00  0.00     0.032 H 
ATOM     24  H   LIG d   1      12.085  10.981  -0.562  0.00  0.00     0.032 H 
ATOM     25  C   LIG d   1       9.975  10.255  -2.543  0.00  0.00    -0.031 C 
ATOM     26  H   LIG d   1      11.594  11.310  -3.549  0.00  0.00     0.032 H 
ATOM     27  H   LIG d   1      10.869  12.207  -2.174  0.00  0.00     0.032 H 
ATOM     28  H   LIG d   1       9.381  10.338  -3.465  0.00  0.00     0.081 H 
ATOM     29  H   LIG d   1       9.320  10.393  -1.671  0.00  0.00     0.081 H 
ATOM     30  H   LIG d   1      10.938   8.569  -3.471  0.00  0.00     0.204 HD
ENDBRANCH  14  17
ENDBRANCH   8  14
BRANCH   7  31
ATOM     31  O   LIG d   1      10.175   5.575  -0.512  0.00  0.00    -0.506 OA
ATOM     32  H   LIG d   1      10.850   4.965   0.106  0.00  0.00     0.292 HD
ENDBRANCH   7  31
BRANCH  11  33
ATOM     33  C   LIG d   1       9.498   8.754  -6.922  0.00  0.00     0.451 C 
ATOM     34  F   LIG d   1       9.134   9.771  -6.034  0.00  0.00    -0.163 F 
ATOM     35  F   LIG d   1      10.647   9.136  -7.625  0.00  0.00    -0.163 F 
ATOM     36  F   LIG d   1       8.453   8.528  -7.824  0.00  0.00    -0.163 F 
ENDBRANCH  11  33
BRANCH   1  37
ATOM     37  C   LIG d   1      10.052   6.347  -8.321  0.00  0.00    -0.011 A 
ATOM     38  C   LIG d   1       8.895   6.026  -9.029  0.00  0.00    -0.050 A 
ATOM     39  C   LIG d   1       8.908   6.025 -10.408  0.00  0.00    -0.019 A 
ATOM     40  H   LIG d   1       7.988   5.779  -8.497  0.00  0.00     0.062 H 
ATOM     41  C   LIG d   1      10.073   6.345 -11.092  0.00  0.00     0.120 A 
ATOM     42  H   LIG d   1       8.012   5.777 -10.955  0.00  0.00     0.065 H 
ATOM     43  C   LIG d   1      11.228   6.665 -10.391  0.00  0.00    -0.019 A 
ATOM     44  C   LIG d   1      11.220   6.671  -9.012  0.00  0.00    -0.050 A 
ATOM     45  H   LIG d   1      12.132   6.912 -10.926  0.00  0.00     0.065 H 
ATOM     46  H   LIG d   1      12.118   6.924  -8.467  0.00  0.00     0.062 H 
BRANCH  41  47
ATOM     47  O   LIG d   1      10.083   6.344 -12.451  0.00  0.00    -0.495 OA
BRANCH  47  48
ATOM     48  C   LIG d   1       8.816   6.272 -13.108  0.00  0.00     0.079 C 
ATOM     49  H   LIG d   1       8.409   5.255 -13.009  0.00  0.00     0.066 H 
ATOM     50  H   LIG d   1       8.941   6.514 -14.174  0.00  0.00     0.066 H 
ATOM     51  H   LIG d   1       8.123   6.991 -12.648  0.00  0.00     0.066 H 
ENDBRANCH  47  48
ENDBRANCH  41  47
ENDBRANCH   1  37
TORSDOF 7
ENDMDL
MODEL 9
REMARK VINA RESULT:      -5.6      4.041      7.806
REMARK  7 active torsions:
REMARK  status: ('A' for Active; 'I' for Inactive)
REMARK    1  A    between atoms: C_1  and  O_2 
REMARK    2  A    between atoms: O_2  and  C_3 
REMARK    3  A    between atoms: C_6  and  C_9 
REMARK    4  A    between atoms: C_15  and  O_30 
REMARK    5  A    between atoms: C_16  and  C_24 
REMARK    6  A    between atoms: C_19  and  C_20 
REMARK    7  A    between atoms: C_24  and  N_25 
ROOT
ATOM      1  C   LIG d   1       8.337   0.782  -4.876  0.00  0.00     0.076 A 
ATOM      2  C   LIG d   1       7.338   1.105  -3.844  0.00  0.00     0.201 A 
ATOM      3  O   LIG d   1       7.323   2.188  -3.286  0.00  0.00    -0.286 OA
ATOM      4  C   LIG d   1       6.356   0.054  -3.518  0.00  0.00     0.065 A 
ATOM      5  C   LIG d   1       5.369   0.260  -2.555  0.00  0.00    -0.044 A 
ATOM      6  C   LIG d   1       4.475  -0.734  -2.277  0.00  0.00    -0.019 A 
ATOM      7  C   LIG d   1       4.545  -1.952  -2.952  0.00  0.00     0.129 A 
ATOM      8  C   LIG d   1       5.519  -2.171  -3.910  0.00  0.00     0.081 A 
ATOM      9  C   LIG d   1       6.437  -1.170  -4.204  0.00  0.00     0.151 A 
ATOM     10  O   LIG d   1       7.391  -1.368  -5.135  0.00  0.00    -0.449 OA
ATOM     11  C   LIG d   1       8.300  -0.443  -5.460  0.00  0.00     0.220 A 
ATOM     12  H   LIG d   1       5.311   1.202  -2.030  0.00  0.00     0.063 H 
ATOM     13  H   LIG d   1       3.710  -0.576  -1.532  0.00  0.00     0.065 H 
ENDROOT
BRANCH   8  14
ATOM     14  C   LIG d   1       5.589  -3.495  -4.628  0.00  0.00     0.001 C 
ATOM     15  H   LIG d   1       6.548  -3.573  -5.160  0.00  0.00     0.087 H 
ATOM     16  H   LIG d   1       5.506  -4.313  -3.897  0.00  0.00     0.087 H 
BRANCH  14  17
ATOM     17  N   LIG d   1       4.484  -3.586  -5.593  0.00  0.00     0.239 N 
ATOM     18  C   LIG d   1       4.189  -4.997  -5.925  0.00  0.00    -0.031 C 
ATOM     19  C   LIG d   1       3.753  -5.030  -7.402  0.00  0.00    -0.008 C 
ATOM     20  H   LIG d   1       5.091  -5.607  -5.774  0.00  0.00     0.081 H 
ATOM     21  H   LIG d   1       3.383  -5.365  -5.274  0.00  0.00     0.081 H 
ATOM     22  C   LIG d   1       3.851  -3.565  -7.886  0.00  0.00    -0.008 C 
ATOM     23  H   LIG d   1       2.716  -5.383  -7.511  0.00  0.00     0.032 H 
ATOM     24  H   LIG d   1       4.420  -5.661  -8.008  0.00  0.00     0.032 H 
ATOM     25  C   LIG d   1       4.844  -2.934  -6.877  0.00  0.00    -0.031 C 
ATOM     26  H   LIG d   1       2.889  -3.035  -7.832  0.00  0.00     0.032 H 
ATOM     27  H   LIG d   1       4.259  -3.481  -8.903  0.00  0.00     0.032 H 
ATOM     28  H   LIG d   1       4.714  -1.845  -6.784  0.00  0.00     0.081 H 
ATOM     29  H   LIG d   1       5.893  -3.158  -7.122  0.00  0.00     0.081 H 
ATOM     30  H   LIG d   1       3.626  -3.098  -5.111  0.00  0.00     0.204 HD
ENDBRANCH  14  17
ENDBRANCH   8  14
BRANCH   7  31
ATOM     31  O   LIG d   1       3.649  -2.931  -2.667  0.00  0.00    -0.506 OA
ATOM     32  H   LIG d   1       2.857  -3.178  -3.389  0.00  0.00     0.292 HD
ENDBRANCH   7  31
BRANCH  11  33
ATOM     33  C   LIG d   1       9.322  -0.774  -6.517  0.00  0.00     0.451 C 
ATOM     34  F   LIG d   1       9.117  -2.082  -6.970  0.00  0.00    -0.163 F 
ATOM     35  F   LIG d   1       9.190   0.117  -7.588  0.00  0.00    -0.163 F 
ATOM     36  F   LIG d   1      10.607  -0.665  -5.974  0.00  0.00    -0.163 F 
ENDBRANCH  11  33
BRANCH   1  37
ATOM     37  C   LIG d   1       9.365   1.776  -5.271  0.00  0.00    -0.011 A 
ATOM     38  C   LIG d   1       9.110   2.670  -6.309  0.00  0.00    -0.050 A 
ATOM     39  C   LIG d   1      10.068   3.593  -6.672  0.00  0.00    -0.019 A 
ATOM     40  H   LIG d   1       8.164   2.641  -6.827  0.00  0.00     0.062 H 
ATOM     41  C   LIG d   1      11.285   3.634  -6.005  0.00  0.00     0.120 A 
ATOM     42  H   LIG d   1       9.871   4.287  -7.476  0.00  0.00     0.065 H 
ATOM     43  C   LIG d   1      11.542   2.744  -4.971  0.00  0.00    -0.019 A 
ATOM     44  C   LIG d   1      10.587   1.821  -4.600  0.00  0.00    -0.050 A 
ATOM     45  H   LIG d   1      12.489   2.777  -4.454  0.00  0.00     0.065 H 
ATOM     46  H   LIG d   1      10.786   1.131  -3.793  0.00  0.00     0.062 H 
BRANCH  41  47
ATOM     47  O   LIG d   1      12.226   4.545  -6.366  0.00  0.00    -0.495 OA
BRANCH  47  48
ATOM     48  C   LIG d   1      11.758   5.777  -6.916  0.00  0.00     0.079 C 
ATOM     49  H   LIG d   1      12.119   5.877  -7.950  0.00  0.00     0.066 H 
ATOM     50  H   LIG d   1      12.135   6.616  -6.313  0.00  0.00     0.066 H 
ATOM     51  H   LIG d   1      10.658   5.787  -6.910  0.00  0.00     0.066 H 
ENDBRANCH  47  48
ENDBRANCH  41  47
ENDBRANCH   1  37
TORSDOF 7
ENDMDL
MODEL 10
REMARK VINA RESULT:      -5.6      9.477     10.958
REMARK  7 active torsions:
REMARK  status: ('A' for Active; 'I' for Inactive)
REMARK    1  A    between atoms: C_1  and  O_2 
REMARK    2  A    between atoms: O_2  and  C_3 
REMARK    3  A    between atoms: C_6  and  C_9 
REMARK    4  A    between atoms: C_15  and  O_30 
REMARK    5  A    between atoms: C_16  and  C_24 
REMARK    6  A    between atoms: C_19  and  C_20 
REMARK    7  A    between atoms: C_24  and  N_25 
ROOT
ATOM      1  C   LIG d   1      10.622   7.026  -5.870  0.00  0.00     0.076 A 
ATOM      2  C   LIG d   1      11.096   5.823  -5.167  0.00  0.00     0.201 A 
ATOM      3  O   LIG d   1      11.612   4.895  -5.765  0.00  0.00    -0.286 OA
ATOM      4  C   LIG d   1      10.917   5.795  -3.704  0.00  0.00     0.065 A 
ATOM      5  C   LIG d   1      11.333   4.701  -2.944  0.00  0.00    -0.044 A 
ATOM      6  C   LIG d   1      11.153   4.708  -1.591  0.00  0.00    -0.019 A 
ATOM      7  C   LIG d   1      10.556   5.802  -0.966  0.00  0.00     0.129 A 
ATOM      8  C   LIG d   1      10.139   6.894  -1.706  0.00  0.00     0.081 A 
ATOM      9  C   LIG d   1      10.314   6.903  -3.084  0.00  0.00     0.151 A 
ATOM     10  O   LIG d   1       9.914   7.960  -3.819  0.00  0.00    -0.449 OA
ATOM     11  C   LIG d   1      10.056   8.026  -5.146  0.00  0.00     0.220 A 
ATOM     12  H   LIG d   1      11.796   3.852  -3.425  0.00  0.00     0.063 H 
ATOM     13  H   LIG d   1      11.474   3.862  -1.002  0.00  0.00     0.065 H 
ENDROOT
BRANCH   8  14
ATOM     14  C   LIG d   1       9.489   8.068  -1.019  0.00  0.00     0.001 C 
ATOM     15  H   LIG d   1       8.608   8.388  -1.595  0.00  0.00     0.087 H 
ATOM     16  H   LIG d   1       9.177   7.773  -0.006  0.00  0.00     0.087 H 
BRANCH  14  17
ATOM     17  N   LIG d   1      10.449   9.177  -0.933  0.00  0.00     0.239 N 
ATOM     18  C   LIG d   1      10.915   9.366   0.458  0.00  0.00    -0.031 C 
ATOM     19  C   LIG d   1      11.141  10.877   0.657  0.00  0.00    -0.008 C 
ATOM     20  H   LIG d   1      10.151   8.994   1.155  0.00  0.00     0.081 H 
ATOM     21  H   LIG d   1      11.852   8.811   0.609  0.00  0.00     0.081 H 
ATOM     22  C   LIG d   1      10.745  11.525  -0.691  0.00  0.00    -0.008 C 
ATOM     23  H   LIG d   1      12.195  11.103   0.876  0.00  0.00     0.032 H 
ATOM     24  H   LIG d   1      10.504  11.281   1.458  0.00  0.00     0.032 H 
ATOM     25  C   LIG d   1       9.815  10.461  -1.326  0.00  0.00    -0.031 C 
ATOM     26  H   LIG d   1      11.610  11.696  -1.349  0.00  0.00     0.032 H 
ATOM     27  H   LIG d   1      10.191  12.466  -0.561  0.00  0.00     0.032 H 
ATOM     28  H   LIG d   1       9.782  10.533  -2.423  0.00  0.00     0.081 H 
ATOM     29  H   LIG d   1       8.791  10.503  -0.926  0.00  0.00     0.081 H 
ATOM     30  H   LIG d   1      11.278   8.907  -1.602  0.00  0.00     0.204 HD
ENDBRANCH  14  17
ENDBRANCH   8  14
BRANCH   7  31
ATOM     31  O   LIG d   1      10.385   5.795   0.380  0.00  0.00    -0.506 OA
ATOM     32  H   LIG d   1      11.049   5.191   1.016  0.00  0.00     0.292 HD
ENDBRANCH   7  31
BRANCH  11  33
ATOM     33  C   LIG d   1       9.571   9.257  -5.865  0.00  0.00     0.451 C 
ATOM     34  F   LIG d   1       8.708   8.883  -6.900  0.00  0.00    -0.163 F 
ATOM     35  F   LIG d   1       8.889  10.085  -4.965  0.00  0.00    -0.163 F 
ATOM     36  F   LIG d   1      10.665   9.948  -6.397  0.00  0.00    -0.163 F 
ENDBRANCH  11  33
BRANCH   1  37
ATOM     37  C   LIG d   1      10.759   7.145  -7.342  0.00  0.00    -0.011 A 
ATOM     38  C   LIG d   1      11.884   7.756  -7.893  0.00  0.00    -0.050 A 
ATOM     39  C   LIG d   1      12.008   7.864  -9.262  0.00  0.00    -0.019 A 
ATOM     40  H   LIG d   1      12.658   8.145  -7.248  0.00  0.00     0.062 H 
ATOM     41  C   LIG d   1      11.014   7.364 -10.093  0.00  0.00     0.120 A 
ATOM     42  H   LIG d   1      12.880   8.338  -9.689  0.00  0.00     0.065 H 
ATOM     43  C   LIG d   1       9.893   6.754  -9.548  0.00  0.00    -0.019 A 
ATOM     44  C   LIG d   1       9.764   6.640  -8.179  0.00  0.00    -0.050 A 
ATOM     45  H   LIG d   1       9.121   6.367 -10.196  0.00  0.00     0.065 H 
ATOM     46  H   LIG d   1       8.892   6.162  -7.756  0.00  0.00     0.062 H 
BRANCH  41  47
ATOM     47  O   LIG d   1      11.140   7.471 -11.441  0.00  0.00    -0.495 OA
BRANCH  47  48
ATOM     48  C   LIG d   1      10.378   8.495 -12.084  0.00  0.00     0.079 C 
ATOM     49  H   LIG d   1       9.325   8.415 -11.776  0.00  0.00     0.066 H 
ATOM     50  H   LIG d   1      10.451   8.376 -13.176  0.00  0.00     0.066 H 
ATOM     51  H   LIG d   1      10.771   9.481 -11.796  0.00  0.00     0.066 H 
ENDBRANCH  47  48
ENDBRANCH  41  47
ENDBRANCH   1  37
TORSDOF 7
ENDMDL
