MODEL 1
REMARK VINA RESULT:      -7.1      0.000      0.000
REMARK  12 active torsions:
REMARK  status: ('A' for Active; 'I' for Inactive)
REMARK    1  A    between atoms: CD1_1  and  CG1_2 
REMARK    2  A    between atoms: CG1_2  and  CB_3 
REMARK    3  A    between atoms: CB_3  and  CG2_5 
REMARK    4  A    between atoms: CB_3  and  CA_6 
REMARK       I    between atoms: CA_6  and  C_8 
REMARK       I    between atoms: CA_6  and  N_10 
REMARK       I    between atoms: N_10  and  C_11 
REMARK    5  A    between atoms: C_11  and  C_13 
REMARK    6  A    between atoms: C_13  and  N_14 
REMARK       I    between atoms: N_14  and  C_15 
REMARK    7  A    between atoms: C_15  and  C_17 
REMARK    8  A    between atoms: C_17  and  C_18 
REMARK    9  A    between atoms: C_19  and  C_35 
REMARK   10  A    between atoms: C_23  and  C_34 
REMARK   11  A    between atoms: C_24  and  C_33 
REMARK   12  A    between atoms: C_27  and  C_32 
ROOT
ATOM      1  C   UNK d   0      10.540   1.550  -6.808  0.00  0.00     0.056 C 
ATOM      2  H   UNK d   0      11.084   0.926  -6.099  0.00  0.00     0.041 H 
ATOM      3  H   UNK d   0      11.115   1.640  -7.730  0.00  0.00     0.041 H 
ENDROOT
BRANCH   1   4
ATOM      4  C   UNK d   0       9.204   0.919  -7.109  0.00  0.00     0.218 C 
ATOM      5  N   UNK d   0       8.283   0.794  -6.135  0.00  0.00    -0.306 N 
ATOM      6  H   UNK d   0       8.479   1.110  -5.239  0.00  0.00     0.149 HD
ATOM      7  O   UNK d   0       8.959   0.524  -8.230  0.00  0.00    -0.275 OA
BRANCH   5   8
ATOM      8  C   UNK d   0       6.985   0.181  -6.427  0.00  0.00     0.088 C 
ATOM      9  H   UNK d   0       7.125  -0.662  -7.104  0.00  0.00     0.056 H 
ATOM     10  H   UNK d   0       6.332   0.919  -6.895  0.00  0.00     0.056 H 
BRANCH   8  11
ATOM     11  C   UNK d   0       6.357  -0.304  -5.146  0.00  0.00     0.231 C 
ATOM     12  N   ILE d   1       5.031  -0.168  -4.952  0.00  0.00    -0.306 N 
ATOM     13  CA  ILE d   1       4.420  -0.641  -3.706  0.00  0.00     0.065 C 
ATOM     14  H   ILE d   1       4.480   0.242  -5.636  0.00  0.00     0.149 HD
ATOM     15  HA  ILE d   1       5.114  -0.483  -2.880  0.00  0.00     0.056 H 
ATOM     16  C   ILE d   1       4.106  -2.109  -3.826  0.00  0.00     0.062 C 
ATOM     17  O   ILE d   1       3.983  -2.613  -4.917  0.00  0.00    -0.548 OA
ATOM     18  OXT ILE d   1       3.963  -2.857  -2.720  0.00  0.00    -0.548 OA
ATOM     19  O   UNK d   0       7.046  -0.818  -4.290  0.00  0.00    -0.274 OA
BRANCH  13  20
ATOM     20  CB  ILE d   1       3.130   0.138  -3.444  0.00  0.00    -0.020 C 
ATOM     21  HB  ILE d   1       2.415  -0.506  -2.931  0.00  0.00     0.032 H 
BRANCH  20  22
ATOM     22  CG1 ILE d   1       3.437   1.356  -2.569  0.00  0.00    -0.051 C 
ATOM     23 1HG1 ILE d   1       2.543   1.638  -2.014  0.00  0.00     0.027 H 
ATOM     24 2HG1 ILE d   1       3.750   2.187  -3.201  0.00  0.00     0.027 H 
BRANCH  22  25
ATOM     25  CD1 ILE d   1       4.560   1.010  -1.590  0.00  0.00    -0.065 C 
ATOM     26 1HD1 ILE d   1       4.331   0.069  -1.092  0.00  0.00     0.023 H 
ATOM     27 2HD1 ILE d   1       4.650   1.802  -0.845  0.00  0.00     0.023 H 
ATOM     28 3HD1 ILE d   1       5.500   0.915  -2.134  0.00  0.00     0.023 H 
ENDBRANCH  22  25
ENDBRANCH  20  22
BRANCH  20  29
ATOM     29  CG2 ILE d   1       2.535   0.602  -4.775  0.00  0.00    -0.060 C 
ATOM     30 1HG2 ILE d   1       2.280   1.660  -4.710  0.00  0.00     0.023 H 
ATOM     31 2HG2 ILE d   1       3.265   0.451  -5.570  0.00  0.00     0.023 H 
ATOM     32 3HG2 ILE d   1       1.636   0.024  -4.992  0.00  0.00     0.023 H 
ENDBRANCH  20  29
ENDBRANCH  13  20
ENDBRANCH   8  11
ENDBRANCH   5   8
ENDBRANCH   1   4
BRANCH   1  33
ATOM     33  C   UNK d   0      10.326   2.918  -6.214  0.00  0.00     0.049 A 
ATOM     34  C   UNK d   0       9.915   3.989  -7.036  0.00  0.00     0.341 A 
ATOM     35  O   UNK d   0       9.714   5.221  -6.543  0.00  0.00    -0.422 OA
ATOM     36  O   UNK d   0       9.736   3.790  -8.223  0.00  0.00    -0.245 OA
ATOM     37  C   UNK d   0       9.898   5.497  -5.231  0.00  0.00     0.146 A 
ATOM     38  C   UNK d   0      10.311   4.472  -4.354  0.00  0.00     0.022 A 
ATOM     39  C   UNK d   0       9.685   6.776  -4.748  0.00  0.00     0.035 A 
ATOM     40  C   UNK d   0      10.525   3.123  -4.887  0.00  0.00    -0.029 A 
ATOM     41  C   UNK d   0      10.504   4.743  -3.000  0.00  0.00    -0.040 A 
ATOM     42  C   UNK d   0      10.287   6.029  -2.527  0.00  0.00     0.024 A 
ATOM     43  H   UNK d   0      10.820   3.960  -2.326  0.00  0.00     0.063 H 
ATOM     44  C   UNK d   0       9.874   7.053  -3.403  0.00  0.00     0.142 A 
ATOM     45  C   UNK d   0      10.387   6.663  -1.205  0.00  0.00    -0.002 A 
ATOM     46  O   UNK d   0       9.747   8.177  -2.668  0.00  0.00    -0.459 OA
ATOM     47  C   UNK d   0      10.047   7.946  -1.379  0.00  0.00     0.106 A 
BRANCH  40  48
ATOM     48  C   UNK d   0      10.959   1.995  -3.986  0.00  0.00    -0.038 C 
ATOM     49  H   UNK d   0      10.265   1.161  -4.089  0.00  0.00     0.028 H 
ATOM     50  H   UNK d   0      11.960   1.671  -4.266  0.00  0.00     0.028 H 
ATOM     51  H   UNK d   0      10.963   2.338  -2.951  0.00  0.00     0.028 H 
ENDBRANCH  40  48
BRANCH  47  52
ATOM     52  C   UNK d   0      10.008   8.982  -0.285  0.00  0.00    -0.006 C 
ATOM     53  H   UNK d   0       9.535   8.558   0.601  0.00  0.00     0.031 H 
ATOM     54  H   UNK d   0      11.024   9.292  -0.042  0.00  0.00     0.031 H 
ATOM     55  H   UNK d   0       9.436   9.846  -0.624  0.00  0.00     0.031 H 
ENDBRANCH  47  52
BRANCH  45  56
ATOM     56  C   UNK d   0      10.791   6.001   0.088  0.00  0.00    -0.036 C 
ATOM     57  H   UNK d   0      10.129   6.331   0.889  0.00  0.00     0.028 H 
ATOM     58  H   UNK d   0      10.719   4.919  -0.020  0.00  0.00     0.028 H 
ATOM     59  H   UNK d   0      11.818   6.273   0.331  0.00  0.00     0.028 H 
ENDBRANCH  45  56
BRANCH  39  60
ATOM     60  C   UNK d   0       9.244   7.870  -5.687  0.00  0.00    -0.033 C 
ATOM     61  H   UNK d   0       9.105   8.795  -5.128  0.00  0.00     0.028 H 
ATOM     62  H   UNK d   0      10.003   8.019  -6.454  0.00  0.00     0.028 H 
ATOM     63  H   UNK d   0       8.302   7.586  -6.158  0.00  0.00     0.028 H 
ENDBRANCH  39  60
ENDBRANCH   1  33
TORSDOF 14
ENDMDL
MODEL 2
REMARK VINA RESULT:      -7.1      3.169      6.793
REMARK  12 active torsions:
REMARK  status: ('A' for Active; 'I' for Inactive)
REMARK    1  A    between atoms: CD1_1  and  CG1_2 
REMARK    2  A    between atoms: CG1_2  and  CB_3 
REMARK    3  A    between atoms: CB_3  and  CG2_5 
REMARK    4  A    between atoms: CB_3  and  CA_6 
REMARK       I    between atoms: CA_6  and  C_8 
REMARK       I    between atoms: CA_6  and  N_10 
REMARK       I    between atoms: N_10  and  C_11 
REMARK    5  A    between atoms: C_11  and  C_13 
REMARK    6  A    between atoms: C_13  and  N_14 
REMARK       I    between atoms: N_14  and  C_15 
REMARK    7  A    between atoms: C_15  and  C_17 
REMARK    8  A    between atoms: C_17  and  C_18 
REMARK    9  A    between atoms: C_19  and  C_35 
REMARK   10  A    between atoms: C_23  and  C_34 
REMARK   11  A    between atoms: C_24  and  C_33 
REMARK   12  A    between atoms: C_27  and  C_32 
ROOT
ATOM      1  C   UNK d   0       5.587  -4.838  -5.298  0.00  0.00     0.056 C 
ATOM      2  H   UNK d   0       5.326  -5.458  -4.441  0.00  0.00     0.041 H 
ATOM      3  H   UNK d   0       6.494  -5.225  -5.764  0.00  0.00     0.041 H 
ENDROOT
BRANCH   1   4
ATOM      4  C   UNK d   0       4.459  -4.865  -6.298  0.00  0.00     0.218 C 
ATOM      5  N   UNK d   0       4.652  -4.393  -7.545  0.00  0.00    -0.306 N 
ATOM      6  H   UNK d   0       5.517  -4.035  -7.799  0.00  0.00     0.149 HD
ATOM      7  O   UNK d   0       3.378  -5.313  -5.980  0.00  0.00    -0.275 OA
BRANCH   5   8
ATOM      8  C   UNK d   0       3.556  -4.419  -8.516  0.00  0.00     0.088 C 
ATOM      9  H   UNK d   0       2.643  -4.756  -8.025  0.00  0.00     0.056 H 
ATOM     10  H   UNK d   0       3.806  -5.104  -9.328  0.00  0.00     0.056 H 
BRANCH   8  11
ATOM     11  C   UNK d   0       3.344  -3.036  -9.075  0.00  0.00     0.231 C 
ATOM     12  N   ILE d   1       3.405  -1.964  -8.262  0.00  0.00    -0.306 N 
ATOM     13  CA  ILE d   1       3.200  -0.619  -8.806  0.00  0.00     0.065 C 
ATOM     14  H   ILE d   1       3.585  -2.082  -7.317  0.00  0.00     0.149 HD
ATOM     15  HA  ILE d   1       2.458  -0.660  -9.604  0.00  0.00     0.056 H 
ATOM     16  C   ILE d   1       4.501  -0.094  -9.356  0.00  0.00     0.062 C 
ATOM     17  O   ILE d   1       5.549  -0.556  -8.971  0.00  0.00    -0.548 OA
ATOM     18  OXT ILE d   1       4.495   0.885 -10.274  0.00  0.00    -0.548 OA
ATOM     19  O   UNK d   0       3.119  -2.888 -10.258  0.00  0.00    -0.274 OA
BRANCH  13  20
ATOM     20  CB  ILE d   1       2.704   0.310  -7.696  0.00  0.00    -0.020 C 
ATOM     21  HB  ILE d   1       1.645   0.126  -7.514  0.00  0.00     0.032 H 
BRANCH  20  22
ATOM     22  CG1 ILE d   1       3.496   0.042  -6.414  0.00  0.00    -0.051 C 
ATOM     23 1HG1 ILE d   1       4.397   0.654  -6.410  0.00  0.00     0.027 H 
ATOM     24 2HG1 ILE d   1       3.771  -1.012  -6.371  0.00  0.00     0.027 H 
BRANCH  22  25
ATOM     25  CD1 ILE d   1       2.634   0.393  -5.200  0.00  0.00    -0.065 C 
ATOM     26 1HD1 ILE d   1       2.693   1.464  -5.010  0.00  0.00     0.023 H 
ATOM     27 2HD1 ILE d   1       2.996  -0.152  -4.327  0.00  0.00     0.023 H 
ATOM     28 3HD1 ILE d   1       1.599   0.114  -5.397  0.00  0.00     0.023 H 
ENDBRANCH  22  25
ENDBRANCH  20  22
BRANCH  20  29
ATOM     29  CG2 ILE d   1       2.902   1.766  -8.123  0.00  0.00    -0.060 C 
ATOM     30 1HG2 ILE d   1       3.931   1.912  -8.451  0.00  0.00     0.023 H 
ATOM     31 2HG2 ILE d   1       2.222   1.999  -8.943  0.00  0.00     0.023 H 
ATOM     32 3HG2 ILE d   1       2.693   2.424  -7.279  0.00  0.00     0.023 H 
ENDBRANCH  20  29
ENDBRANCH  13  20
ENDBRANCH   8  11
ENDBRANCH   5   8
ENDBRANCH   1   4
BRANCH   1  33
ATOM     33  C   UNK d   0       5.821  -3.421  -4.843  0.00  0.00     0.049 A 
ATOM     34  C   UNK d   0       4.949  -2.827  -3.906  0.00  0.00     0.341 A 
ATOM     35  O   UNK d   0       5.125  -1.567  -3.476  0.00  0.00    -0.422 OA
ATOM     36  O   UNK d   0       4.012  -3.474  -3.475  0.00  0.00    -0.245 OA
ATOM     37  C   UNK d   0       6.149  -0.805  -3.923  0.00  0.00     0.146 A 
ATOM     38  C   UNK d   0       7.058  -1.337  -4.862  0.00  0.00     0.022 A 
ATOM     39  C   UNK d   0       6.309   0.491  -3.464  0.00  0.00     0.035 A 
ATOM     40  C   UNK d   0       6.872  -2.714  -5.329  0.00  0.00    -0.029 A 
ATOM     41  C   UNK d   0       8.117  -0.561  -5.330  0.00  0.00    -0.040 A 
ATOM     42  C   UNK d   0       8.268   0.737  -4.863  0.00  0.00     0.024 A 
ATOM     43  H   UNK d   0       8.814  -0.966  -6.049  0.00  0.00     0.063 H 
ATOM     44  C   UNK d   0       7.360   1.268  -3.924  0.00  0.00     0.142 A 
ATOM     45  C   UNK d   0       9.235   1.812  -5.124  0.00  0.00    -0.002 A 
ATOM     46  O   UNK d   0       7.755   2.531  -3.662  0.00  0.00    -0.459 OA
ATOM     47  C   UNK d   0       8.855   2.848  -4.366  0.00  0.00     0.106 A 
BRANCH  40  48
ATOM     48  C   UNK d   0       7.822  -3.327  -6.326  0.00  0.00    -0.038 C 
ATOM     49  H   UNK d   0       8.831  -2.959  -6.141  0.00  0.00     0.028 H 
ATOM     50  H   UNK d   0       7.807  -4.412  -6.223  0.00  0.00     0.028 H 
ATOM     51  H   UNK d   0       7.516  -3.053  -7.336  0.00  0.00     0.028 H 
ENDBRANCH  40  48
BRANCH  47  52
ATOM     52  C   UNK d   0       9.560   4.179  -4.311  0.00  0.00    -0.006 C 
ATOM     53  H   UNK d   0       9.014   4.852  -3.649  0.00  0.00     0.031 H 
ATOM     54  H   UNK d   0      10.571   4.038  -3.931  0.00  0.00     0.031 H 
ATOM     55  H   UNK d   0       9.604   4.609  -5.311  0.00  0.00     0.031 H 
ENDBRANCH  47  52
BRANCH  45  56
ATOM     56  C   UNK d   0      10.417   1.759  -6.058  0.00  0.00    -0.036 C 
ATOM     57  H   UNK d   0      10.598   0.726  -6.357  0.00  0.00     0.028 H 
ATOM     58  H   UNK d   0      10.211   2.363  -6.940  0.00  0.00     0.028 H 
ATOM     59  H   UNK d   0      11.299   2.149  -5.549  0.00  0.00     0.028 H 
ENDBRANCH  45  56
BRANCH  39  60
ATOM     60  C   UNK d   0       5.337   1.057  -2.460  0.00  0.00    -0.033 C 
ATOM     61  H   UNK d   0       4.706   1.802  -2.945  0.00  0.00     0.028 H 
ATOM     62  H   UNK d   0       4.715   0.256  -2.063  0.00  0.00     0.028 H 
ATOM     63  H   UNK d   0       5.890   1.526  -1.644  0.00  0.00     0.028 H 
ENDBRANCH  39  60
ENDBRANCH   1  33
TORSDOF 14
ENDMDL
MODEL 3
REMARK VINA RESULT:      -7.0      1.651      2.783
REMARK  12 active torsions:
REMARK  status: ('A' for Active; 'I' for Inactive)
REMARK    1  A    between atoms: CD1_1  and  CG1_2 
REMARK    2  A    between atoms: CG1_2  and  CB_3 
REMARK    3  A    between atoms: CB_3  and  CG2_5 
REMARK    4  A    between atoms: CB_3  and  CA_6 
REMARK       I    between atoms: CA_6  and  C_8 
REMARK       I    between atoms: CA_6  and  N_10 
REMARK       I    between atoms: N_10  and  C_11 
REMARK    5  A    between atoms: C_11  and  C_13 
REMARK    6  A    between atoms: C_13  and  N_14 
REMARK       I    between atoms: N_14  and  C_15 
REMARK    7  A    between atoms: C_15  and  C_17 
REMARK    8  A    between atoms: C_17  and  C_18 
REMARK    9  A    between atoms: C_19  and  C_35 
REMARK   10  A    between atoms: C_23  and  C_34 
REMARK   11  A    between atoms: C_24  and  C_33 
REMARK   12  A    between atoms: C_27  and  C_32 
ROOT
ATOM      1  C   UNK d   0      10.007   1.915  -5.817  0.00  0.00     0.056 C 
ATOM      2  H   UNK d   0      10.575   1.183  -5.243  0.00  0.00     0.041 H 
ATOM      3  H   UNK d   0      10.476   2.055  -6.792  0.00  0.00     0.041 H 
ENDROOT
BRANCH   1   4
ATOM      4  C   UNK d   0       8.596   1.420  -6.005  0.00  0.00     0.218 C 
ATOM      5  N   UNK d   0       8.365   0.114  -6.238  0.00  0.00    -0.306 N 
ATOM      6  H   UNK d   0       9.108  -0.509  -6.286  0.00  0.00     0.149 HD
ATOM      7  O   UNK d   0       7.668   2.199  -5.945  0.00  0.00    -0.275 OA
BRANCH   5   8
ATOM      8  C   UNK d   0       6.994  -0.367  -6.420  0.00  0.00     0.088 C 
ATOM      9  H   UNK d   0       7.006  -1.286  -7.006  0.00  0.00     0.056 H 
ATOM     10  H   UNK d   0       6.409   0.391  -6.944  0.00  0.00     0.056 H 
BRANCH   8  11
ATOM     11  C   UNK d   0       6.372  -0.638  -5.074  0.00  0.00     0.231 C 
ATOM     12  N   ILE d   1       5.058  -0.413  -4.881  0.00  0.00    -0.306 N 
ATOM     13  CA  ILE d   1       4.454  -0.677  -3.572  0.00  0.00     0.065 C 
ATOM     14  H   ILE d   1       4.512  -0.076  -5.608  0.00  0.00     0.149 HD
ATOM     15  HA  ILE d   1       5.172  -0.440  -2.787  0.00  0.00     0.056 H 
ATOM     16  C   ILE d   1       4.071  -2.132  -3.480  0.00  0.00     0.062 C 
ATOM     17  O   ILE d   1       3.902  -2.776  -4.487  0.00  0.00    -0.548 OA
ATOM     18  OXT ILE d   1       3.918  -2.710  -2.278  0.00  0.00    -0.548 OA
ATOM     19  O   UNK d   0       7.056  -1.060  -4.165  0.00  0.00    -0.274 OA
BRANCH  13  20
ATOM     20  CB  ILE d   1       3.206   0.191  -3.402  0.00  0.00    -0.020 C 
ATOM     21  HB  ILE d   1       2.420  -0.392  -2.922  0.00  0.00     0.032 H 
BRANCH  20  22
ATOM     22  CG1 ILE d   1       3.543   1.405  -2.532  0.00  0.00    -0.051 C 
ATOM     23 1HG1 ILE d   1       2.659   1.704  -1.969  0.00  0.00     0.027 H 
ATOM     24 2HG1 ILE d   1       3.866   2.228  -3.169  0.00  0.00     0.027 H 
BRANCH  22  25
ATOM     25  CD1 ILE d   1       4.668   1.040  -1.562  0.00  0.00    -0.065 C 
ATOM     26 1HD1 ILE d   1       5.631   1.230  -2.033  0.00  0.00     0.023 H 
ATOM     27 2HD1 ILE d   1       4.593  -0.016  -1.300  0.00  0.00     0.023 H 
ATOM     28 3HD1 ILE d   1       4.579   1.644  -0.659  0.00  0.00     0.023 H 
ENDBRANCH  22  25
ENDBRANCH  20  22
BRANCH  20  29
ATOM     29  CG2 ILE d   1       2.724   0.665  -4.775  0.00  0.00    -0.060 C 
ATOM     30 1HG2 ILE d   1       2.656   1.752  -4.781  0.00  0.00     0.023 H 
ATOM     31 2HG2 ILE d   1       3.430   0.340  -5.539  0.00  0.00     0.023 H 
ATOM     32 3HG2 ILE d   1       1.742   0.238  -4.982  0.00  0.00     0.023 H 
ENDBRANCH  20  29
ENDBRANCH  13  20
ENDBRANCH   8  11
ENDBRANCH   5   8
ENDBRANCH   1   4
BRANCH   1  33
ATOM     33  C   UNK d   0       9.986   3.228  -5.078  0.00  0.00     0.049 A 
ATOM     34  C   UNK d   0       9.974   3.244  -3.667  0.00  0.00     0.341 A 
ATOM     35  O   UNK d   0       9.956   4.393  -2.974  0.00  0.00    -0.422 OA
ATOM     36  O   UNK d   0       9.983   2.187  -3.062  0.00  0.00    -0.245 OA
ATOM     37  C   UNK d   0       9.947   5.594  -3.596  0.00  0.00     0.146 A 
ATOM     38  C   UNK d   0       9.956   5.650  -5.005  0.00  0.00     0.022 A 
ATOM     39  C   UNK d   0       9.928   6.764  -2.857  0.00  0.00     0.035 A 
ATOM     40  C   UNK d   0       9.983   4.397  -5.766  0.00  0.00    -0.029 A 
ATOM     41  C   UNK d   0       9.946   6.882  -5.658  0.00  0.00    -0.040 A 
ATOM     42  C   UNK d   0       9.927   8.049  -4.908  0.00  0.00     0.024 A 
ATOM     43  H   UNK d   0       9.953   6.927  -6.738  0.00  0.00     0.063 H 
ATOM     44  C   UNK d   0       9.919   7.993  -3.500  0.00  0.00     0.142 A 
ATOM     45  C   UNK d   0       9.914   9.480  -5.243  0.00  0.00    -0.002 A 
ATOM     46  O   UNK d   0       9.900   9.265  -3.052  0.00  0.00    -0.459 OA
ATOM     47  C   UNK d   0       9.898  10.136  -4.076  0.00  0.00     0.106 A 
BRANCH  40  48
ATOM     48  C   UNK d   0      10.001   4.408  -7.274  0.00  0.00    -0.038 C 
ATOM     49  H   UNK d   0       8.999   4.617  -7.647  0.00  0.00     0.028 H 
ATOM     50  H   UNK d   0      10.687   5.178  -7.623  0.00  0.00     0.028 H 
ATOM     51  H   UNK d   0      10.329   3.435  -7.640  0.00  0.00     0.028 H 
ENDBRANCH  40  48
BRANCH  47  52
ATOM     52  C   UNK d   0       9.880  11.636  -3.932  0.00  0.00    -0.006 C 
ATOM     53  H   UNK d   0      10.777  12.056  -4.386  0.00  0.00     0.031 H 
ATOM     54  H   UNK d   0       8.998  12.038  -4.432  0.00  0.00     0.031 H 
ATOM     55  H   UNK d   0       9.850  11.900  -2.875  0.00  0.00     0.031 H 
ENDBRANCH  47  52
BRANCH  45  56
ATOM     56  C   UNK d   0       9.918  10.086  -6.623  0.00  0.00    -0.036 C 
ATOM     57  H   UNK d   0       9.450   9.397  -7.325  0.00  0.00     0.028 H 
ATOM     58  H   UNK d   0       9.364  11.024  -6.609  0.00  0.00     0.028 H 
ATOM     59  H   UNK d   0      10.946  10.277  -6.933  0.00  0.00     0.028 H 
ENDBRANCH  45  56
BRANCH  39  60
ATOM     60  C   UNK d   0       9.918   6.703  -1.351  0.00  0.00    -0.033 C 
ATOM     61  H   UNK d   0      10.090   7.700  -0.945  0.00  0.00     0.028 H 
ATOM     62  H   UNK d   0       8.952   6.332  -1.008  0.00  0.00     0.028 H 
ATOM     63  H   UNK d   0      10.707   6.031  -1.010  0.00  0.00     0.028 H 
ENDBRANCH  39  60
ENDBRANCH   1  33
TORSDOF 14
ENDMDL
MODEL 4
REMARK VINA RESULT:      -6.8      6.340     12.015
REMARK  12 active torsions:
REMARK  status: ('A' for Active; 'I' for Inactive)
REMARK    1  A    between atoms: CD1_1  and  CG1_2 
REMARK    2  A    between atoms: CG1_2  and  CB_3 
REMARK    3  A    between atoms: CB_3  and  CG2_5 
REMARK    4  A    between atoms: CB_3  and  CA_6 
REMARK       I    between atoms: CA_6  and  C_8 
REMARK       I    between atoms: CA_6  and  N_10 
REMARK       I    between atoms: N_10  and  C_11 
REMARK    5  A    between atoms: C_11  and  C_13 
REMARK    6  A    between atoms: C_13  and  N_14 
REMARK       I    between atoms: N_14  and  C_15 
REMARK    7  A    between atoms: C_15  and  C_17 
REMARK    8  A    between atoms: C_17  and  C_18 
REMARK    9  A    between atoms: C_19  and  C_35 
REMARK   10  A    between atoms: C_23  and  C_34 
REMARK   11  A    between atoms: C_24  and  C_33 
REMARK   12  A    between atoms: C_27  and  C_32 
ROOT
ATOM      1  C   UNK d   0       3.523  -0.452 -10.979  0.00  0.00     0.056 C 
ATOM      2  H   UNK d   0       2.866   0.002 -11.721  0.00  0.00     0.041 H 
ATOM      3  H   UNK d   0       4.548  -0.452 -11.354  0.00  0.00     0.041 H 
ENDROOT
BRANCH   1   4
ATOM      4  C   UNK d   0       3.457   0.341  -9.699  0.00  0.00     0.218 C 
ATOM      5  N   UNK d   0       3.147  -0.274  -8.541  0.00  0.00    -0.306 N 
ATOM      6  H   UNK d   0       2.967  -1.228  -8.532  0.00  0.00     0.149 HD
ATOM      7  O   UNK d   0       3.683   1.532  -9.711  0.00  0.00    -0.275 OA
BRANCH   5   8
ATOM      8  C   UNK d   0       3.083   0.496  -7.297  0.00  0.00     0.088 C 
ATOM      9  H   UNK d   0       2.066   0.468  -6.905  0.00  0.00     0.056 H 
ATOM     10  H   UNK d   0       3.369   1.529  -7.493  0.00  0.00     0.056 H 
BRANCH   8  11
ATOM     11  C   UNK d   0       4.026  -0.102  -6.285  0.00  0.00     0.231 C 
ATOM     12  N   ILE d   1       3.540  -0.787  -5.232  0.00  0.00    -0.306 N 
ATOM     13  CA  ILE d   1       4.458  -1.368  -4.248  0.00  0.00     0.065 C 
ATOM     14  H   ILE d   1       2.583  -0.895  -5.124  0.00  0.00     0.149 HD
ATOM     15  HA  ILE d   1       5.320  -0.712  -4.125  0.00  0.00     0.056 H 
ATOM     16  C   ILE d   1       4.920  -2.719  -4.729  0.00  0.00     0.062 C 
ATOM     17  O   ILE d   1       4.263  -3.328  -5.540  0.00  0.00    -0.548 OA
ATOM     18  OXT ILE d   1       6.061  -3.246  -4.257  0.00  0.00    -0.548 OA
ATOM     19  O   UNK d   0       5.224   0.033  -6.420  0.00  0.00    -0.274 OA
BRANCH  13  20
ATOM     20  CB  ILE d   1       3.738  -1.522  -2.907  0.00  0.00    -0.020 C 
ATOM     21  HB  ILE d   1       3.540  -2.577  -2.720  0.00  0.00     0.032 H 
BRANCH  20  22
ATOM     22  CG1 ILE d   1       4.619  -0.962  -1.787  0.00  0.00    -0.051 C 
ATOM     23 1HG1 ILE d   1       5.660  -1.217  -1.984  0.00  0.00     0.027 H 
ATOM     24 2HG1 ILE d   1       4.312  -1.393  -0.835  0.00  0.00     0.027 H 
BRANCH  22  25
ATOM     25  CD1 ILE d   1       4.467   0.559  -1.732  0.00  0.00    -0.065 C 
ATOM     26 1HD1 ILE d   1       3.630   0.817  -1.085  0.00  0.00     0.023 H 
ATOM     27 2HD1 ILE d   1       4.283   0.942  -2.736  0.00  0.00     0.023 H 
ATOM     28 3HD1 ILE d   1       5.383   1.000  -1.337  0.00  0.00     0.023 H 
ENDBRANCH  22  25
ENDBRANCH  20  22
BRANCH  20  29
ATOM     29  CG2 ILE d   1       2.415  -0.754  -2.948  0.00  0.00    -0.060 C 
ATOM     30 1HG2 ILE d   1       1.859  -0.939  -2.030  0.00  0.00     0.023 H 
ATOM     31 2HG2 ILE d   1       2.618   0.313  -3.042  0.00  0.00     0.023 H 
ATOM     32 3HG2 ILE d   1       1.827  -1.089  -3.803  0.00  0.00     0.023 H 
ENDBRANCH  20  29
ENDBRANCH  13  20
ENDBRANCH   8  11
ENDBRANCH   5   8
ENDBRANCH   1   4
BRANCH   1  33
ATOM     33  C   UNK d   0       3.084  -1.869 -10.717  0.00  0.00     0.049 A 
ATOM     34  C   UNK d   0       4.004  -2.811 -10.208  0.00  0.00     0.341 A 
ATOM     35  O   UNK d   0       3.649  -4.082  -9.962  0.00  0.00    -0.422 OA
ATOM     36  O   UNK d   0       5.149  -2.461  -9.987  0.00  0.00    -0.245 OA
ATOM     37  C   UNK d   0       2.391  -4.522 -10.189  0.00  0.00     0.146 A 
ATOM     38  C   UNK d   0       1.422  -3.633 -10.699  0.00  0.00     0.022 A 
ATOM     39  C   UNK d   0       2.052  -5.838  -9.926  0.00  0.00     0.035 A 
ATOM     40  C   UNK d   0       1.803  -2.242 -10.964  0.00  0.00    -0.029 A 
ATOM     41  C   UNK d   0       0.122  -4.074 -10.939  0.00  0.00    -0.040 A 
ATOM     42  C   UNK d   0      -0.208  -5.395 -10.671  0.00  0.00     0.024 A 
ATOM     43  H   UNK d   0      -0.623  -3.395 -11.329  0.00  0.00     0.063 H 
ATOM     44  C   UNK d   0       0.761  -6.284 -10.161  0.00  0.00     0.142 A 
ATOM     45  C   UNK d   0      -1.439  -6.188 -10.796  0.00  0.00    -0.002 A 
ATOM     46  O   UNK d   0       0.157  -7.480 -10.004  0.00  0.00    -0.459 OA
ATOM     47  C   UNK d   0      -1.133  -7.421 -10.376  0.00  0.00     0.106 A 
BRANCH  40  48
ATOM     48  C   UNK d   0       0.799  -1.253 -11.501  0.00  0.00    -0.038 C 
ATOM     49  H   UNK d   0       0.132  -1.758 -12.200  0.00  0.00     0.028 H 
ATOM     50  H   UNK d   0       0.219  -0.841 -10.677  0.00  0.00     0.028 H 
ATOM     51  H   UNK d   0       1.323  -0.448 -12.017  0.00  0.00     0.028 H 
ENDBRANCH  40  48
BRANCH  47  52
ATOM     52  C   UNK d   0      -2.097  -8.579 -10.328  0.00  0.00    -0.006 C 
ATOM     53  H   UNK d   0      -1.629  -9.421  -9.818  0.00  0.00     0.031 H 
ATOM     54  H   UNK d   0      -2.995  -8.281  -9.787  0.00  0.00     0.031 H 
ATOM     55  H   UNK d   0      -2.365  -8.872 -11.343  0.00  0.00     0.031 H 
ENDBRANCH  47  52
BRANCH  45  56
ATOM     56  C   UNK d   0      -2.778  -5.707 -11.295  0.00  0.00    -0.036 C 
ATOM     57  H   UNK d   0      -3.566  -6.080 -10.640  0.00  0.00     0.028 H 
ATOM     58  H   UNK d   0      -2.794  -4.618 -11.300  0.00  0.00     0.028 H 
ATOM     59  H   UNK d   0      -2.943  -6.077 -12.307  0.00  0.00     0.028 H 
ENDBRANCH  45  56
BRANCH  39  60
ATOM     60  C   UNK d   0       3.088  -6.787  -9.382  0.00  0.00    -0.033 C 
ATOM     61  H   UNK d   0       2.655  -7.374  -8.573  0.00  0.00     0.028 H 
ATOM     62  H   UNK d   0       3.424  -7.454 -10.176  0.00  0.00     0.028 H 
ATOM     63  H   UNK d   0       3.938  -6.218  -9.002  0.00  0.00     0.028 H 
ENDBRANCH  39  60
ENDBRANCH   1  33
TORSDOF 14
ENDMDL
MODEL 5
REMARK VINA RESULT:      -6.7      3.058      8.506
REMARK  12 active torsions:
REMARK  status: ('A' for Active; 'I' for Inactive)
REMARK    1  A    between atoms: CD1_1  and  CG1_2 
REMARK    2  A    between atoms: CG1_2  and  CB_3 
REMARK    3  A    between atoms: CB_3  and  CG2_5 
REMARK    4  A    between atoms: CB_3  and  CA_6 
REMARK       I    between atoms: CA_6  and  C_8 
REMARK       I    between atoms: CA_6  and  N_10 
REMARK       I    between atoms: N_10  and  C_11 
REMARK    5  A    between atoms: C_11  and  C_13 
REMARK    6  A    between atoms: C_13  and  N_14 
REMARK       I    between atoms: N_14  and  C_15 
REMARK    7  A    between atoms: C_15  and  C_17 
REMARK    8  A    between atoms: C_17  and  C_18 
REMARK    9  A    between atoms: C_19  and  C_35 
REMARK   10  A    between atoms: C_23  and  C_34 
REMARK   11  A    between atoms: C_24  and  C_33 
REMARK   12  A    between atoms: C_27  and  C_32 
ROOT
ATOM      1  C   UNK d   0      11.539   3.723  -5.233  0.00  0.00     0.056 C 
ATOM      2  H   UNK d   0      10.956   4.644  -5.204  0.00  0.00     0.041 H 
ATOM      3  H   UNK d   0      12.080   3.666  -6.178  0.00  0.00     0.041 H 
ENDROOT
BRANCH   1   4
ATOM      4  C   UNK d   0      12.521   3.714  -4.090  0.00  0.00     0.218 C 
ATOM      5  N   UNK d   0      12.570   4.755  -3.236  0.00  0.00    -0.306 N 
ATOM      6  H   UNK d   0      11.973   5.510  -3.356  0.00  0.00     0.149 HD
ATOM      7  O   UNK d   0      13.266   2.770  -3.939  0.00  0.00    -0.275 OA
BRANCH   5   8
ATOM      8  C   UNK d   0      13.524   4.746  -2.125  0.00  0.00     0.088 C 
ATOM      9  H   UNK d   0      14.515   5.015  -2.494  0.00  0.00     0.056 H 
ATOM     10  H   UNK d   0      13.559   3.750  -1.682  0.00  0.00     0.056 H 
BRANCH   8  11
ATOM     11  C   UNK d   0      13.091   5.743  -1.081  0.00  0.00     0.231 C 
ATOM     12  N   ILE d   1      11.790   6.064  -0.954  0.00  0.00    -0.306 N 
ATOM     13  CA  ILE d   1      11.369   7.033   0.062  0.00  0.00     0.065 C 
ATOM     14  H   ILE d   1      11.130   5.654  -1.535  0.00  0.00     0.149 HD
ATOM     15  HA  ILE d   1      12.136   7.801   0.170  0.00  0.00     0.056 H 
ATOM     16  C   ILE d   1      11.174   6.329   1.379  0.00  0.00     0.062 C 
ATOM     17  O   ILE d   1      10.973   5.137   1.402  0.00  0.00    -0.548 OA
ATOM     18  OXT ILE d   1      11.224   7.024   2.526  0.00  0.00    -0.548 OA
ATOM     19  O   UNK d   0      13.916   6.256  -0.354  0.00  0.00    -0.274 OA
BRANCH  13  20
ATOM     20  CB  ILE d   1      10.053   7.684  -0.369  0.00  0.00    -0.020 C 
ATOM     21  HB  ILE d   1       9.287   7.484   0.380  0.00  0.00     0.032 H 
BRANCH  20  22
ATOM     22  CG1 ILE d   1      10.251   9.196  -0.503  0.00  0.00    -0.051 C 
ATOM     23 1HG1 ILE d   1      10.915   9.402  -1.342  0.00  0.00     0.027 H 
ATOM     24 2HG1 ILE d   1      10.691   9.587   0.414  0.00  0.00     0.027 H 
BRANCH  22  25
ATOM     25  CD1 ILE d   1       8.898   9.868  -0.746  0.00  0.00    -0.065 C 
ATOM     26 1HD1 ILE d   1       8.157   9.111  -0.999  0.00  0.00     0.023 H 
ATOM     27 2HD1 ILE d   1       8.988  10.579  -1.567  0.00  0.00     0.023 H 
ATOM     28 3HD1 ILE d   1       8.587  10.394   0.157  0.00  0.00     0.023 H 
ENDBRANCH  22  25
ENDBRANCH  20  22
BRANCH  20  29
ATOM     29  CG2 ILE d   1       9.615   7.105  -1.716  0.00  0.00    -0.060 C 
ATOM     30 1HG2 ILE d   1       9.868   7.805  -2.512  0.00  0.00     0.023 H 
ATOM     31 2HG2 ILE d   1      10.127   6.158  -1.887  0.00  0.00     0.023 H 
ATOM     32 3HG2 ILE d   1       8.537   6.939  -1.706  0.00  0.00     0.023 H 
ENDBRANCH  20  29
ENDBRANCH  13  20
ENDBRANCH   8  11
ENDBRANCH   5   8
ENDBRANCH   1   4
BRANCH   1  33
ATOM     33  C   UNK d   0      10.615   2.539  -5.112  0.00  0.00     0.049 A 
ATOM     34  C   UNK d   0      10.903   1.344  -5.805  0.00  0.00     0.341 A 
ATOM     35  O   UNK d   0      10.105   0.269  -5.721  0.00  0.00    -0.422 OA
ATOM     36  O   UNK d   0      11.904   1.287  -6.496  0.00  0.00    -0.245 OA
ATOM     37  C   UNK d   0       8.982   0.279  -4.967  0.00  0.00     0.146 A 
ATOM     38  C   UNK d   0       8.634   1.442  -4.249  0.00  0.00     0.022 A 
ATOM     39  C   UNK d   0       8.176  -0.844  -4.898  0.00  0.00     0.035 A 
ATOM     40  C   UNK d   0       9.507   2.617  -4.333  0.00  0.00    -0.029 A 
ATOM     41  C   UNK d   0       7.479   1.465  -3.469  0.00  0.00    -0.040 A 
ATOM     42  C   UNK d   0       6.678   0.334  -3.406  0.00  0.00     0.024 A 
ATOM     43  H   UNK d   0       7.209   2.355  -2.918  0.00  0.00     0.063 H 
ATOM     44  C   UNK d   0       7.026  -0.829  -4.123  0.00  0.00     0.142 A 
ATOM     45  C   UNK d   0       5.427   0.004  -2.709  0.00  0.00    -0.002 A 
ATOM     46  O   UNK d   0       6.073  -1.750  -3.872  0.00  0.00    -0.459 OA
ATOM     47  C   UNK d   0       5.136  -1.260  -3.042  0.00  0.00     0.106 A 
BRANCH  40  48
ATOM     48  C   UNK d   0       9.179   3.880  -3.577  0.00  0.00    -0.038 C 
ATOM     49  H   UNK d   0       8.568   3.635  -2.709  0.00  0.00     0.028 H 
ATOM     50  H   UNK d   0      10.101   4.357  -3.250  0.00  0.00     0.028 H 
ATOM     51  H   UNK d   0       8.628   4.560  -4.228  0.00  0.00     0.028 H 
ENDBRANCH  40  48
BRANCH  47  52
ATOM     52  C   UNK d   0       3.931  -2.023  -2.556  0.00  0.00    -0.006 C 
ATOM     53  H   UNK d   0       3.545  -1.555  -1.651  0.00  0.00     0.031 H 
ATOM     54  H   UNK d   0       3.160  -2.014  -3.326  0.00  0.00     0.031 H 
ATOM     55  H   UNK d   0       4.215  -3.053  -2.339  0.00  0.00     0.031 H 
ENDBRANCH  47  52
BRANCH  45  56
ATOM     56  C   UNK d   0       4.632   0.906  -1.800  0.00  0.00    -0.036 C 
ATOM     57  H   UNK d   0       3.717   1.217  -2.304  0.00  0.00     0.028 H 
ATOM     58  H   UNK d   0       4.379   0.370  -0.886  0.00  0.00     0.028 H 
ATOM     59  H   UNK d   0       5.226   1.786  -1.552  0.00  0.00     0.028 H 
ENDBRANCH  45  56
BRANCH  39  60
ATOM     60  C   UNK d   0       8.549  -2.086  -5.665  0.00  0.00    -0.033 C 
ATOM     61  H   UNK d   0       8.654  -1.843  -6.722  0.00  0.00     0.028 H 
ATOM     62  H   UNK d   0       9.493  -2.478  -5.287  0.00  0.00     0.028 H 
ATOM     63  H   UNK d   0       7.769  -2.838  -5.540  0.00  0.00     0.028 H 
ENDBRANCH  39  60
ENDBRANCH   1  33
TORSDOF 14
ENDMDL
MODEL 6
REMARK VINA RESULT:      -6.7      3.630      5.641
REMARK  12 active torsions:
REMARK  status: ('A' for Active; 'I' for Inactive)
REMARK    1  A    between atoms: CD1_1  and  CG1_2 
REMARK    2  A    between atoms: CG1_2  and  CB_3 
REMARK    3  A    between atoms: CB_3  and  CG2_5 
REMARK    4  A    between atoms: CB_3  and  CA_6 
REMARK       I    between atoms: CA_6  and  C_8 
REMARK       I    between atoms: CA_6  and  N_10 
REMARK       I    between atoms: N_10  and  C_11 
REMARK    5  A    between atoms: C_11  and  C_13 
REMARK    6  A    between atoms: C_13  and  N_14 
REMARK       I    between atoms: N_14  and  C_15 
REMARK    7  A    between atoms: C_15  and  C_17 
REMARK    8  A    between atoms: C_17  and  C_18 
REMARK    9  A    between atoms: C_19  and  C_35 
REMARK   10  A    between atoms: C_23  and  C_34 
REMARK   11  A    between atoms: C_24  and  C_33 
REMARK   12  A    between atoms: C_27  and  C_32 
ROOT
ATOM      1  C   UNK d   0       5.501  -0.607  -9.054  0.00  0.00     0.056 C 
ATOM      2  H   UNK d   0       5.778  -1.611  -9.375  0.00  0.00     0.041 H 
ATOM      3  H   UNK d   0       5.285   0.008  -9.929  0.00  0.00     0.041 H 
ENDROOT
BRANCH   1   4
ATOM      4  C   UNK d   0       4.278  -0.679  -8.177  0.00  0.00     0.218 C 
ATOM      5  N   UNK d   0       4.009   0.318  -7.311  0.00  0.00    -0.306 N 
ATOM      6  H   UNK d   0       4.603   1.083  -7.253  0.00  0.00     0.149 HD
ATOM      7  O   UNK d   0       3.535  -1.635  -8.250  0.00  0.00    -0.275 OA
BRANCH   5   8
ATOM      8  C   UNK d   0       2.820   0.248  -6.459  0.00  0.00     0.088 C 
ATOM      9  H   UNK d   0       2.183  -0.573  -6.790  0.00  0.00     0.056 H 
ATOM     10  H   UNK d   0       2.269   1.187  -6.526  0.00  0.00     0.056 H 
BRANCH   8  11
ATOM     11  C   UNK d   0       3.237   0.013  -5.030  0.00  0.00     0.231 C 
ATOM     12  N   ILE d   1       4.541   0.052  -4.693  0.00  0.00    -0.306 N 
ATOM     13  CA  ILE d   1       4.946  -0.176  -3.303  0.00  0.00     0.065 C 
ATOM     14  H   ILE d   1       5.211   0.232  -5.370  0.00  0.00     0.149 HD
ATOM     15  HA  ILE d   1       4.285  -0.915  -2.850  0.00  0.00     0.056 H 
ATOM     16  C   ILE d   1       4.857   1.117  -2.535  0.00  0.00     0.062 C 
ATOM     17  O   ILE d   1       4.887   2.172  -3.123  0.00  0.00    -0.548 OA
ATOM     18  OXT ILE d   1       4.744   1.096  -1.197  0.00  0.00    -0.548 OA
ATOM     19  O   UNK d   0       2.398  -0.212  -4.183  0.00  0.00    -0.274 OA
BRANCH  13  20
ATOM     20  CB  ILE d   1       6.386  -0.692  -3.270  0.00  0.00    -0.020 C 
ATOM     21  HB  ILE d   1       6.641  -0.992  -2.254  0.00  0.00     0.032 H 
BRANCH  20  22
ATOM     22  CG1 ILE d   1       6.520  -1.895  -4.207  0.00  0.00    -0.051 C 
ATOM     23 1HG1 ILE d   1       6.651  -1.545  -5.230  0.00  0.00     0.027 H 
ATOM     24 2HG1 ILE d   1       5.619  -2.506  -4.143  0.00  0.00     0.027 H 
BRANCH  22  25
ATOM     25  CD1 ILE d   1       7.732  -2.731  -3.793  0.00  0.00    -0.065 C 
ATOM     26 1HD1 ILE d   1       8.284  -3.035  -4.680  0.00  0.00     0.023 H 
ATOM     27 2HD1 ILE d   1       7.396  -3.616  -3.251  0.00  0.00     0.023 H 
ATOM     28 3HD1 ILE d   1       8.379  -2.136  -3.147  0.00  0.00     0.023 H 
ENDBRANCH  22  25
ENDBRANCH  20  22
BRANCH  20  29
ATOM     29  CG2 ILE d   1       7.335   0.418  -3.727  0.00  0.00    -0.060 C 
ATOM     30 1HG2 ILE d   1       6.867   0.990  -4.528  0.00  0.00     0.023 H 
ATOM     31 2HG2 ILE d   1       7.551   1.079  -2.888  0.00  0.00     0.023 H 
ATOM     32 3HG2 ILE d   1       8.264  -0.024  -4.090  0.00  0.00     0.023 H 
ENDBRANCH  20  29
ENDBRANCH  13  20
ENDBRANCH   8  11
ENDBRANCH   5   8
ENDBRANCH   1   4
BRANCH   1  33
ATOM     33  C   UNK d   0       6.640   0.005  -8.279  0.00  0.00     0.049 A 
ATOM     34  C   UNK d   0       6.765   1.409  -8.198  0.00  0.00     0.341 A 
ATOM     35  O   UNK d   0       7.765   1.990  -7.516  0.00  0.00    -0.422 OA
ATOM     36  O   UNK d   0       5.944   2.111  -8.759  0.00  0.00    -0.245 OA
ATOM     37  C   UNK d   0       8.703   1.257  -6.875  0.00  0.00     0.146 A 
ATOM     38  C   UNK d   0       8.638  -0.151  -6.917  0.00  0.00     0.022 A 
ATOM     39  C   UNK d   0       9.724   1.882  -6.180  0.00  0.00     0.035 A 
ATOM     40  C   UNK d   0       7.544  -0.790  -7.655  0.00  0.00    -0.029 A 
ATOM     41  C   UNK d   0       9.600  -0.918  -6.261  0.00  0.00    -0.040 A 
ATOM     42  C   UNK d   0      10.619  -0.282  -5.567  0.00  0.00     0.024 A 
ATOM     43  H   UNK d   0       9.552  -1.997  -6.292  0.00  0.00     0.063 H 
ATOM     44  C   UNK d   0      10.683   1.126  -5.524  0.00  0.00     0.142 A 
ATOM     45  C   UNK d   0      11.769  -0.750  -4.781  0.00  0.00    -0.002 A 
ATOM     46  O   UNK d   0      11.766   1.451  -4.787  0.00  0.00    -0.459 OA
ATOM     47  C   UNK d   0      12.400   0.349  -4.352  0.00  0.00     0.106 A 
BRANCH  40  48
ATOM     48  C   UNK d   0       7.430  -2.292  -7.721  0.00  0.00    -0.038 C 
ATOM     49  H   UNK d   0       8.412  -2.723  -7.914  0.00  0.00     0.028 H 
ATOM     50  H   UNK d   0       7.047  -2.670  -6.774  0.00  0.00     0.028 H 
ATOM     51  H   UNK d   0       6.748  -2.569  -8.526  0.00  0.00     0.028 H 
ENDBRANCH  40  48
BRANCH  47  52
ATOM     52  C   UNK d   0      13.645   0.351  -3.502  0.00  0.00    -0.006 C 
ATOM     53  H   UNK d   0      14.507   0.094  -4.118  0.00  0.00     0.031 H 
ATOM     54  H   UNK d   0      13.790   1.342  -3.072  0.00  0.00     0.031 H 
ATOM     55  H   UNK d   0      13.540  -0.380  -2.701  0.00  0.00     0.031 H 
ENDBRANCH  47  52
BRANCH  45  56
ATOM     56  C   UNK d   0      12.158  -2.181  -4.511  0.00  0.00    -0.036 C 
ATOM     57  H   UNK d   0      11.966  -2.420  -3.465  0.00  0.00     0.028 H 
ATOM     58  H   UNK d   0      11.573  -2.843  -5.149  0.00  0.00     0.028 H 
ATOM     59  H   UNK d   0      13.219  -2.316  -4.725  0.00  0.00     0.028 H 
ENDBRANCH  45  56
BRANCH  39  60
ATOM     60  C   UNK d   0       9.792   3.387  -6.135  0.00  0.00    -0.033 C 
ATOM     61  H   UNK d   0      10.638   3.730  -6.730  0.00  0.00     0.028 H 
ATOM     62  H   UNK d   0       8.870   3.805  -6.539  0.00  0.00     0.028 H 
ATOM     63  H   UNK d   0       9.918   3.714  -5.102  0.00  0.00     0.028 H 
ENDBRANCH  39  60
ENDBRANCH   1  33
TORSDOF 14
ENDMDL
MODEL 7
REMARK VINA RESULT:      -6.7      1.769      3.032
REMARK  12 active torsions:
REMARK  status: ('A' for Active; 'I' for Inactive)
REMARK    1  A    between atoms: CD1_1  and  CG1_2 
REMARK    2  A    between atoms: CG1_2  and  CB_3 
REMARK    3  A    between atoms: CB_3  and  CG2_5 
REMARK    4  A    between atoms: CB_3  and  CA_6 
REMARK       I    between atoms: CA_6  and  C_8 
REMARK       I    between atoms: CA_6  and  N_10 
REMARK       I    between atoms: N_10  and  C_11 
REMARK    5  A    between atoms: C_11  and  C_13 
REMARK    6  A    between atoms: C_13  and  N_14 
REMARK       I    between atoms: N_14  and  C_15 
REMARK    7  A    between atoms: C_15  and  C_17 
REMARK    8  A    between atoms: C_17  and  C_18 
REMARK    9  A    between atoms: C_19  and  C_35 
REMARK   10  A    between atoms: C_23  and  C_34 
REMARK   11  A    between atoms: C_24  and  C_33 
REMARK   12  A    between atoms: C_27  and  C_32 
ROOT
ATOM      1  C   UNK d   0      10.230   2.943  -5.406  0.00  0.00     0.056 C 
ATOM      2  H   UNK d   0      10.879   2.078  -5.271  0.00  0.00     0.041 H 
ATOM      3  H   UNK d   0      10.537   3.492  -6.297  0.00  0.00     0.041 H 
ENDROOT
BRANCH   1   4
ATOM      4  C   UNK d   0       8.804   2.481  -5.567  0.00  0.00     0.218 C 
ATOM      5  N   UNK d   0       8.485   1.609  -6.542  0.00  0.00    -0.306 N 
ATOM      6  H   UNK d   0       9.173   1.278  -7.141  0.00  0.00     0.149 HD
ATOM      7  O   UNK d   0       7.945   2.895  -4.819  0.00  0.00    -0.275 OA
BRANCH   5   8
ATOM      8  C   UNK d   0       7.100   1.160  -6.700  0.00  0.00     0.088 C 
ATOM      9  H   UNK d   0       6.944   0.812  -7.721  0.00  0.00     0.056 H 
ATOM     10  H   UNK d   0       6.423   1.989  -6.490  0.00  0.00     0.056 H 
BRANCH   8  11
ATOM     11  C   UNK d   0       6.824   0.032  -5.739  0.00  0.00     0.231 C 
ATOM     12  N   ILE d   1       5.589  -0.131  -5.227  0.00  0.00    -0.306 N 
ATOM     13  CA  ILE d   1       5.321  -1.228  -4.293  0.00  0.00     0.065 C 
ATOM     14  H   ILE d   1       4.877   0.478  -5.476  0.00  0.00     0.149 HD
ATOM     15  HA  ILE d   1       6.200  -1.396  -3.669  0.00  0.00     0.056 H 
ATOM     16  C   ILE d   1       5.007  -2.482  -5.068  0.00  0.00     0.062 C 
ATOM     17  O   ILE d   1       4.619  -2.405  -6.209  0.00  0.00    -0.548 OA
ATOM     18  OXT ILE d   1       5.160  -3.684  -4.489  0.00  0.00    -0.548 OA
ATOM     19  O   UNK d   0       7.715  -0.731  -5.428  0.00  0.00    -0.274 OA
BRANCH  13  20
ATOM     20  CB  ILE d   1       4.128  -0.864  -3.407  0.00  0.00    -0.020 C 
ATOM     21  HB  ILE d   1       3.427  -1.698  -3.382  0.00  0.00     0.032 H 
BRANCH  20  22
ATOM     22  CG1 ILE d   1       4.619  -0.567  -1.987  0.00  0.00    -0.051 C 
ATOM     23 1HG1 ILE d   1       5.650  -0.904  -1.883  0.00  0.00     0.027 H 
ATOM     24 2HG1 ILE d   1       3.989  -1.091  -1.269  0.00  0.00     0.027 H 
BRANCH  22  25
ATOM     25  CD1 ILE d   1       4.544   0.938  -1.727  0.00  0.00    -0.065 C 
ATOM     26 1HD1 ILE d   1       3.739   1.147  -1.025  0.00  0.00     0.023 H 
ATOM     27 2HD1 ILE d   1       4.353   1.460  -2.665  0.00  0.00     0.023 H 
ATOM     28 3HD1 ILE d   1       5.491   1.281  -1.309  0.00  0.00     0.023 H 
ENDBRANCH  22  25
ENDBRANCH  20  22
BRANCH  20  29
ATOM     29  CG2 ILE d   1       3.430   0.373  -3.975  0.00  0.00    -0.060 C 
ATOM     30 1HG2 ILE d   1       2.388   0.380  -3.658  0.00  0.00     0.023 H 
ATOM     31 2HG2 ILE d   1       3.928   1.271  -3.609  0.00  0.00     0.023 H 
ATOM     32 3HG2 ILE d   1       3.479   0.350  -5.064  0.00  0.00     0.023 H 
ENDBRANCH  20  29
ENDBRANCH  13  20
ENDBRANCH   8  11
ENDBRANCH   5   8
ENDBRANCH   1   4
BRANCH   1  33
ATOM     33  C   UNK d   0      10.334   3.843  -4.201  0.00  0.00     0.049 A 
ATOM     34  C   UNK d   0      10.698   3.306  -2.947  0.00  0.00     0.341 A 
ATOM     35  O   UNK d   0      10.801   4.076  -1.853  0.00  0.00    -0.422 OA
ATOM     36  O   UNK d   0      10.927   2.113  -2.857  0.00  0.00    -0.245 OA
ATOM     37  C   UNK d   0      10.559   5.405  -1.898  0.00  0.00     0.146 A 
ATOM     38  C   UNK d   0      10.189   6.006  -3.119  0.00  0.00     0.022 A 
ATOM     39  C   UNK d   0      10.673   6.176  -0.754  0.00  0.00     0.035 A 
ATOM     40  C   UNK d   0      10.081   5.171  -4.319  0.00  0.00    -0.029 A 
ATOM     41  C   UNK d   0       9.936   7.376  -3.178  0.00  0.00    -0.040 A 
ATOM     42  C   UNK d   0      10.053   8.140  -2.026  0.00  0.00     0.024 A 
ATOM     43  H   UNK d   0       9.652   7.839  -4.113  0.00  0.00     0.063 H 
ATOM     44  C   UNK d   0      10.424   7.539  -0.806  0.00  0.00     0.142 A 
ATOM     45  C   UNK d   0       9.870   9.566  -1.720  0.00  0.00    -0.002 A 
ATOM     46  O   UNK d   0      10.454   8.516   0.125  0.00  0.00    -0.459 OA
ATOM     47  C   UNK d   0      10.130   9.704  -0.414  0.00  0.00     0.106 A 
BRANCH  40  48
ATOM     48  C   UNK d   0       9.696   5.770  -5.647  0.00  0.00    -0.038 C 
ATOM     49  H   UNK d   0       8.620   5.671  -5.792  0.00  0.00     0.028 H 
ATOM     50  H   UNK d   0       9.968   6.825  -5.662  0.00  0.00     0.028 H 
ATOM     51  H   UNK d   0      10.220   5.248  -6.447  0.00  0.00     0.028 H 
ENDBRANCH  40  48
BRANCH  47  52
ATOM     52  C   UNK d   0      10.067  11.005   0.343  0.00  0.00    -0.006 C 
ATOM     53  H   UNK d   0       9.272  10.955   1.087  0.00  0.00     0.031 H 
ATOM     54  H   UNK d   0      11.020  11.181   0.842  0.00  0.00     0.031 H 
ATOM     55  H   UNK d   0       9.864  11.821  -0.351  0.00  0.00     0.031 H 
ENDBRANCH  47  52
BRANCH  45  56
ATOM     56  C   UNK d   0       9.472  10.654  -2.685  0.00  0.00    -0.036 C 
ATOM     57  H   UNK d   0      10.063  11.548  -2.488  0.00  0.00     0.028 H 
ATOM     58  H   UNK d   0       9.649  10.317  -3.706  0.00  0.00     0.028 H 
ATOM     59  H   UNK d   0       8.414  10.883  -2.557  0.00  0.00     0.028 H 
ENDBRANCH  45  56
BRANCH  39  60
ATOM     60  C   UNK d   0      11.069   5.533   0.550  0.00  0.00    -0.033 C 
ATOM     61  H   UNK d   0      11.911   4.861   0.384  0.00  0.00     0.028 H 
ATOM     62  H   UNK d   0      11.354   6.304   1.265  0.00  0.00     0.028 H 
ATOM     63  H   UNK d   0      10.225   4.965   0.946  0.00  0.00     0.028 H 
ENDBRANCH  39  60
ENDBRANCH   1  33
TORSDOF 14
ENDMDL
MODEL 8
REMARK VINA RESULT:      -6.6      1.769      2.299
REMARK  12 active torsions:
REMARK  status: ('A' for Active; 'I' for Inactive)
REMARK    1  A    between atoms: CD1_1  and  CG1_2 
REMARK    2  A    between atoms: CG1_2  and  CB_3 
REMARK    3  A    between atoms: CB_3  and  CG2_5 
REMARK    4  A    between atoms: CB_3  and  CA_6 
REMARK       I    between atoms: CA_6  and  C_8 
REMARK       I    between atoms: CA_6  and  N_10 
REMARK       I    between atoms: N_10  and  C_11 
REMARK    5  A    between atoms: C_11  and  C_13 
REMARK    6  A    between atoms: C_13  and  N_14 
REMARK       I    between atoms: N_14  and  C_15 
REMARK    7  A    between atoms: C_15  and  C_17 
REMARK    8  A    between atoms: C_17  and  C_18 
REMARK    9  A    between atoms: C_19  and  C_35 
REMARK   10  A    between atoms: C_23  and  C_34 
REMARK   11  A    between atoms: C_24  and  C_33 
REMARK   12  A    between atoms: C_27  and  C_32 
ROOT
ATOM      1  C   UNK d   0      11.173   1.009  -6.612  0.00  0.00     0.056 C 
ATOM      2  H   UNK d   0      11.971   0.555  -6.025  0.00  0.00     0.041 H 
ATOM      3  H   UNK d   0      11.516   1.158  -7.637  0.00  0.00     0.041 H 
ENDROOT
BRANCH   1   4
ATOM      4  C   UNK d   0       9.971   0.100  -6.611  0.00  0.00     0.218 C 
ATOM      5  N   UNK d   0       9.003   0.262  -7.534  0.00  0.00    -0.306 N 
ATOM      6  H   UNK d   0       9.080   0.964  -8.200  0.00  0.00     0.149 HD
ATOM      7  O   UNK d   0       9.875  -0.778  -5.780  0.00  0.00    -0.275 OA
BRANCH   5   8
ATOM      8  C   UNK d   0       7.835  -0.621  -7.534  0.00  0.00     0.088 C 
ATOM      9  H   UNK d   0       8.154  -1.646  -7.345  0.00  0.00     0.056 H 
ATOM     10  H   UNK d   0       7.339  -0.568  -8.504  0.00  0.00     0.056 H 
BRANCH   8  11
ATOM     11  C   UNK d   0       6.875  -0.188  -6.456  0.00  0.00     0.231 C 
ATOM     12  N   ILE d   1       6.968  -0.713  -5.220  0.00  0.00    -0.306 N 
ATOM     13  CA  ILE d   1       6.035  -0.291  -4.172  0.00  0.00     0.065 C 
ATOM     14  H   ILE d   1       7.652  -1.371  -5.023  0.00  0.00     0.149 HD
ATOM     15  HA  ILE d   1       5.056  -0.099  -4.613  0.00  0.00     0.056 H 
ATOM     16  C   ILE d   1       6.547   0.966  -3.518  0.00  0.00     0.062 C 
ATOM     17  O   ILE d   1       7.722   1.244  -3.584  0.00  0.00    -0.548 OA
ATOM     18  OXT ILE d   1       5.700   1.777  -2.865  0.00  0.00    -0.548 OA
ATOM     19  O   UNK d   0       6.019   0.636  -6.703  0.00  0.00    -0.274 OA
BRANCH  13  20
ATOM     20  CB  ILE d   1       5.912  -1.397  -3.122  0.00  0.00    -0.020 C 
ATOM     21  HB  ILE d   1       5.886  -0.953  -2.127  0.00  0.00     0.032 H 
BRANCH  20  22
ATOM     22  CG1 ILE d   1       4.622  -2.187  -3.362  0.00  0.00    -0.051 C 
ATOM     23 1HG1 ILE d   1       4.725  -3.186  -2.937  0.00  0.00     0.027 H 
ATOM     24 2HG1 ILE d   1       4.437  -2.264  -4.432  0.00  0.00     0.027 H 
BRANCH  22  25
ATOM     25  CD1 ILE d   1       3.451  -1.466  -2.693  0.00  0.00    -0.065 C 
ATOM     26 1HD1 ILE d   1       3.167  -1.996  -1.785  0.00  0.00     0.023 H 
ATOM     27 2HD1 ILE d   1       2.603  -1.436  -3.377  0.00  0.00     0.023 H 
ATOM     28 3HD1 ILE d   1       3.749  -0.447  -2.441  0.00  0.00     0.023 H 
ENDBRANCH  22  25
ENDBRANCH  20  22
BRANCH  20  29
ATOM     29  CG2 ILE d   1       7.114  -2.338  -3.230  0.00  0.00    -0.060 C 
ATOM     30 1HG2 ILE d   1       6.825  -3.236  -3.776  0.00  0.00     0.023 H 
ATOM     31 2HG2 ILE d   1       7.922  -1.834  -3.760  0.00  0.00     0.023 H 
ATOM     32 3HG2 ILE d   1       7.451  -2.612  -2.230  0.00  0.00     0.023 H 
ENDBRANCH  20  29
ENDBRANCH  13  20
ENDBRANCH   8  11
ENDBRANCH   5   8
ENDBRANCH   1   4
BRANCH   1  33
ATOM     33  C   UNK d   0      10.799   2.339  -6.009  0.00  0.00     0.049 A 
ATOM     34  C   UNK d   0      10.167   3.321  -6.802  0.00  0.00     0.341 A 
ATOM     35  O   UNK d   0       9.818   4.516  -6.300  0.00  0.00    -0.422 OA
ATOM     36  O   UNK d   0       9.932   3.077  -7.971  0.00  0.00    -0.245 OA
ATOM     37  C   UNK d   0      10.056   4.837  -5.008  0.00  0.00     0.146 A 
ATOM     38  C   UNK d   0      10.686   3.902  -4.161  0.00  0.00     0.022 A 
ATOM     39  C   UNK d   0       9.686   6.077  -4.516  0.00  0.00     0.035 A 
ATOM     40  C   UNK d   0      11.063   2.593  -4.703  0.00  0.00    -0.029 A 
ATOM     41  C   UNK d   0      10.937   4.221  -2.827  0.00  0.00    -0.040 A 
ATOM     42  C   UNK d   0      10.561   5.467  -2.344  0.00  0.00     0.024 A 
ATOM     43  H   UNK d   0      11.419   3.507  -2.176  0.00  0.00     0.063 H 
ATOM     44  C   UNK d   0       9.932   6.401  -3.191  0.00  0.00     0.142 A 
ATOM     45  C   UNK d   0      10.663   6.130  -1.037  0.00  0.00    -0.002 A 
ATOM     46  O   UNK d   0       9.689   7.505  -2.453  0.00  0.00    -0.459 OA
ATOM     47  C   UNK d   0      10.118   7.343  -1.190  0.00  0.00     0.106 A 
BRANCH  40  48
ATOM     48  C   UNK d   0      11.731   1.558  -3.833  0.00  0.00    -0.038 C 
ATOM     49  H   UNK d   0      12.812   1.636  -3.942  0.00  0.00     0.028 H 
ATOM     50  H   UNK d   0      11.457   1.728  -2.792  0.00  0.00     0.028 H 
ATOM     51  H   UNK d   0      11.406   0.563  -4.137  0.00  0.00     0.028 H 
ENDBRANCH  40  48
BRANCH  47  52
ATOM     52  C   UNK d   0      10.003   8.379  -0.101  0.00  0.00    -0.006 C 
ATOM     53  H   UNK d   0       8.965   8.451   0.223  0.00  0.00     0.031 H 
ATOM     54  H   UNK d   0      10.627   8.089   0.743  0.00  0.00     0.031 H 
ATOM     55  H   UNK d   0      10.333   9.345  -0.482  0.00  0.00     0.031 H 
ENDBRANCH  47  52
BRANCH  45  56
ATOM     56  C   UNK d   0      11.259   5.558   0.224  0.00  0.00    -0.036 C 
ATOM     57  H   UNK d   0      12.203   6.058   0.440  0.00  0.00     0.028 H 
ATOM     58  H   UNK d   0      10.569   5.709   1.054  0.00  0.00     0.028 H 
ATOM     59  H   UNK d   0      11.436   4.490   0.091  0.00  0.00     0.028 H 
ENDBRANCH  45  56
BRANCH  39  60
ATOM     60  C   UNK d   0       9.014   7.075  -5.423  0.00  0.00    -0.033 C 
ATOM     61  H   UNK d   0       9.756   7.774  -5.809  0.00  0.00     0.028 H 
ATOM     62  H   UNK d   0       8.540   6.552  -6.253  0.00  0.00     0.028 H 
ATOM     63  H   UNK d   0       8.256   7.624  -4.861  0.00  0.00     0.028 H 
ENDBRANCH  39  60
ENDBRANCH   1  33
TORSDOF 14
ENDMDL
MODEL 9
REMARK VINA RESULT:      -6.5      2.123      3.333
REMARK  12 active torsions:
REMARK  status: ('A' for Active; 'I' for Inactive)
REMARK    1  A    between atoms: CD1_1  and  CG1_2 
REMARK    2  A    between atoms: CG1_2  and  CB_3 
REMARK    3  A    between atoms: CB_3  and  CG2_5 
REMARK    4  A    between atoms: CB_3  and  CA_6 
REMARK       I    between atoms: CA_6  and  C_8 
REMARK       I    between atoms: CA_6  and  N_10 
REMARK       I    between atoms: N_10  and  C_11 
REMARK    5  A    between atoms: C_11  and  C_13 
REMARK    6  A    between atoms: C_13  and  N_14 
REMARK       I    between atoms: N_14  and  C_15 
REMARK    7  A    between atoms: C_15  and  C_17 
REMARK    8  A    between atoms: C_17  and  C_18 
REMARK    9  A    between atoms: C_19  and  C_35 
REMARK   10  A    between atoms: C_23  and  C_34 
REMARK   11  A    between atoms: C_24  and  C_33 
REMARK   12  A    between atoms: C_27  and  C_32 
ROOT
ATOM      1  C   UNK d   0       8.426   1.709  -8.913  0.00  0.00     0.056 C 
ATOM      2  H   UNK d   0       8.859   0.712  -8.837  0.00  0.00     0.041 H 
ATOM      3  H   UNK d   0       8.777   2.190  -9.827  0.00  0.00     0.041 H 
ENDROOT
BRANCH   1   4
ATOM      4  C   UNK d   0       6.922   1.600  -8.950  0.00  0.00     0.218 C 
ATOM      5  N   UNK d   0       6.317   0.478  -8.515  0.00  0.00    -0.306 N 
ATOM      6  H   UNK d   0       6.849  -0.260  -8.179  0.00  0.00     0.149 HD
ATOM      7  O   UNK d   0       6.258   2.524  -9.371  0.00  0.00    -0.275 OA
BRANCH   5   8
ATOM      8  C   UNK d   0       4.857   0.373  -8.551  0.00  0.00     0.088 C 
ATOM      9  H   UNK d   0       4.557  -0.233  -9.406  0.00  0.00     0.056 H 
ATOM     10  H   UNK d   0       4.422   1.369  -8.640  0.00  0.00     0.056 H 
BRANCH   8  11
ATOM     11  C   UNK d   0       4.368  -0.276  -7.282  0.00  0.00     0.231 C 
ATOM     12  N   ILE d   1       4.748   0.212  -6.085  0.00  0.00    -0.306 N 
ATOM     13  CA  ILE d   1       4.271  -0.419  -4.851  0.00  0.00     0.065 C 
ATOM     14  H   ILE d   1       5.336   0.981  -6.040  0.00  0.00     0.149 HD
ATOM     15  HA  ILE d   1       4.189  -1.496  -5.003  0.00  0.00     0.056 H 
ATOM     16  C   ILE d   1       2.920   0.142  -4.489  0.00  0.00     0.062 C 
ATOM     17  O   ILE d   1       2.579   1.218  -4.918  0.00  0.00    -0.548 OA
ATOM     18  OXT ILE d   1       2.097  -0.555  -3.690  0.00  0.00    -0.548 OA
ATOM     19  O   UNK d   0       3.631  -1.238  -7.338  0.00  0.00    -0.274 OA
BRANCH  13  20
ATOM     20  CB  ILE d   1       5.261  -0.138  -3.719  0.00  0.00    -0.020 C 
ATOM     21  HB  ILE d   1       6.262  -0.014  -4.134  0.00  0.00     0.032 H 
BRANCH  20  22
ATOM     22  CG1 ILE d   1       4.850   1.143  -2.988  0.00  0.00    -0.051 C 
ATOM     23 1HG1 ILE d   1       3.927   1.527  -3.422  0.00  0.00     0.027 H 
ATOM     24 2HG1 ILE d   1       5.639   1.888  -3.091  0.00  0.00     0.027 H 
BRANCH  22  25
ATOM     25  CD1 ILE d   1       4.630   0.835  -1.506  0.00  0.00    -0.065 C 
ATOM     26 1HD1 ILE d   1       3.893   1.525  -1.097  0.00  0.00     0.023 H 
ATOM     27 2HD1 ILE d   1       5.571   0.948  -0.968  0.00  0.00     0.023 H 
ATOM     28 3HD1 ILE d   1       4.271  -0.188  -1.398  0.00  0.00     0.023 H 
ENDBRANCH  22  25
ENDBRANCH  20  22
BRANCH  20  29
ATOM     29  CG2 ILE d   1       5.258  -1.310  -2.736  0.00  0.00    -0.060 C 
ATOM     30 1HG2 ILE d   1       6.271  -1.485  -2.375  0.00  0.00     0.023 H 
ATOM     31 2HG2 ILE d   1       4.607  -1.075  -1.893  0.00  0.00     0.023 H 
ATOM     32 3HG2 ILE d   1       4.891  -2.205  -3.239  0.00  0.00     0.023 H 
ENDBRANCH  20  29
ENDBRANCH  13  20
ENDBRANCH   8  11
ENDBRANCH   5   8
ENDBRANCH   1   4
BRANCH   1  33
ATOM     33  C   UNK d   0       8.841   2.531  -7.721  0.00  0.00     0.049 A 
ATOM     34  C   UNK d   0       8.821   1.963  -6.429  0.00  0.00     0.341 A 
ATOM     35  O   UNK d   0       9.185   2.663  -5.344  0.00  0.00    -0.422 OA
ATOM     36  O   UNK d   0       8.465   0.806  -6.296  0.00  0.00    -0.245 OA
ATOM     37  C   UNK d   0       9.588   3.951  -5.435  0.00  0.00     0.146 A 
ATOM     38  C   UNK d   0       9.631   4.581  -6.697  0.00  0.00     0.022 A 
ATOM     39  C   UNK d   0       9.958   4.651  -4.300  0.00  0.00     0.035 A 
ATOM     40  C   UNK d   0       9.240   3.817  -7.886  0.00  0.00    -0.029 A 
ATOM     41  C   UNK d   0      10.044   5.908  -6.805  0.00  0.00    -0.040 A 
ATOM     42  C   UNK d   0      10.413   6.600  -5.660  0.00  0.00     0.024 A 
ATOM     43  H   UNK d   0      10.078   6.393  -7.770  0.00  0.00     0.063 H 
ATOM     44  C   UNK d   0      10.371   5.970  -4.400  0.00  0.00     0.142 A 
ATOM     45  C   UNK d   0      10.887   7.966  -5.399  0.00  0.00    -0.002 A 
ATOM     46  O   UNK d   0      10.779   6.878  -3.489  0.00  0.00    -0.459 OA
ATOM     47  C   UNK d   0      11.081   8.048  -4.077  0.00  0.00     0.106 A 
BRANCH  40  48
ATOM     48  C   UNK d   0       9.277   4.446  -9.256  0.00  0.00    -0.038 C 
ATOM     49  H   UNK d   0       8.373   5.036  -9.408  0.00  0.00     0.028 H 
ATOM     50  H   UNK d   0      10.150   5.092  -9.335  0.00  0.00     0.028 H 
ATOM     51  H   UNK d   0       9.332   3.664 -10.013  0.00  0.00     0.028 H 
ENDBRANCH  40  48
BRANCH  47  52
ATOM     52  C   UNK d   0      11.569   9.276  -3.353  0.00  0.00    -0.006 C 
ATOM     53  H   UNK d   0      12.571   9.529  -3.699  0.00  0.00     0.031 H 
ATOM     54  H   UNK d   0      10.895  10.109  -3.555  0.00  0.00     0.031 H 
ATOM     55  H   UNK d   0      11.594   9.081  -2.281  0.00  0.00     0.031 H 
ENDBRANCH  47  52
BRANCH  45  56
ATOM     56  C   UNK d   0      11.110   9.056  -6.416  0.00  0.00    -0.036 C 
ATOM     57  H   UNK d   0      10.525   8.845  -7.311  0.00  0.00     0.028 H 
ATOM     58  H   UNK d   0      10.801  10.013  -5.997  0.00  0.00     0.028 H 
ATOM     59  H   UNK d   0      12.168   9.099  -6.677  0.00  0.00     0.028 H 
ENDBRANCH  45  56
BRANCH  39  60
ATOM     60  C   UNK d   0       9.912   3.976  -2.953  0.00  0.00    -0.033 C 
ATOM     61  H   UNK d   0       8.875   3.871  -2.633  0.00  0.00     0.028 H 
ATOM     62  H   UNK d   0      10.372   2.991  -3.023  0.00  0.00     0.028 H 
ATOM     63  H   UNK d   0      10.457   4.580  -2.226  0.00  0.00     0.028 H 
ENDBRANCH  39  60
ENDBRANCH   1  33
TORSDOF 14
ENDMDL
