MODEL 1
REMARK VINA RESULT:      -6.1      0.000      0.000
REMARK  7 active torsions:
REMARK  status: ('A' for Active; 'I' for Inactive)
REMARK    1  A    between atoms: C_1  and  C_2 
REMARK    2  A    between atoms: C_2  and  C_3 
REMARK    3  A    between atoms: C_3  and  C_5 
REMARK    4  A    between atoms: C_3  and  N_6 
REMARK    5  A    between atoms: C_7  and  C_9 
REMARK    6  A    between atoms: C_9  and  C_10 
REMARK    7  A    between atoms: C_9  and  C_14 
ROOT
ATOM      1  C   LIG d   1       3.828   0.111  -7.143  0.00  0.00     0.047 C 
ATOM      2  H   LIG d   1       4.883   0.355  -7.271  0.00  0.00     0.054 H 
ENDROOT
BRANCH   1   3
ATOM      3  C   LIG d   1       3.523  -1.216  -7.842  0.00  0.00    -0.034 C 
ATOM      4  H   LIG d   1       3.146  -1.932  -7.112  0.00  0.00     0.028 H 
ATOM      5  H   LIG d   1       4.435  -1.604  -8.296  0.00  0.00     0.028 H 
BRANCH   3   6
ATOM      6  C   LIG d   1       2.469  -0.990  -8.927  0.00  0.00    -0.063 C 
ATOM      7  H   LIG d   1       1.597  -1.612  -8.721  0.00  0.00     0.023 H 
ATOM      8  H   LIG d   1       2.174   0.059  -8.935  0.00  0.00     0.023 H 
ATOM      9  H   LIG d   1       2.884  -1.258  -9.898  0.00  0.00     0.023 H 
ENDBRANCH   3   6
ENDBRANCH   1   3
BRANCH   1  10
ATOM     10  C   LIG d   1       2.970   1.220  -7.754  0.00  0.00    -0.043 C 
ATOM     11  H   LIG d   1       2.513   1.807  -6.958  0.00  0.00     0.025 H 
ATOM     12  H   LIG d   1       3.596   1.866  -8.369  0.00  0.00     0.025 H 
ATOM     13  H   LIG d   1       2.190   0.775  -8.371  0.00  0.00     0.025 H 
ENDBRANCH   1  10
BRANCH   1  14
ATOM     14  N   LIG d   1       3.526  -0.009  -5.714  0.00  0.00    -0.298 NA
ATOM     15  C   LIG d   1       4.486  -0.039  -4.852  0.00  0.00    -0.003 C 
ATOM     16  O   LIG d   1       5.767   0.041  -5.266  0.00  0.00    -0.862 OA
BRANCH  15  17
ATOM     17  C   LIG d   1       4.175  -0.162  -3.382  0.00  0.00     0.261 C 
ATOM     18 CL   LIG d   1       2.442  -0.619  -3.172  0.00  0.00    -0.094 Cl
BRANCH  17  19
ATOM     19  C   LIG d   1       5.065  -1.240  -2.761  0.00  0.00     0.421 C 
ATOM     20  F   LIG d   1       4.544  -1.615  -1.518  0.00  0.00    -0.168 F 
ATOM     21  F   LIG d   1       5.104  -2.356  -3.605  0.00  0.00    -0.168 F 
ATOM     22  F   LIG d   1       6.358  -0.737  -2.592  0.00  0.00    -0.168 F 
ENDBRANCH  17  19
BRANCH  17  23
ATOM     23  C   LIG d   1       4.436   1.177  -2.691  0.00  0.00     0.421 C 
ATOM     24  F   LIG d   1       4.354   1.012  -1.305  0.00  0.00    -0.168 F 
ATOM     25  F   LIG d   1       5.712   1.636  -3.032  0.00  0.00    -0.168 F 
ATOM     26  F   LIG d   1       3.479   2.110  -3.107  0.00  0.00    -0.168 F 
ENDBRANCH  17  23
ENDBRANCH  15  17
ENDBRANCH   1  14
TORSDOF 7
ENDMDL
MODEL 2
REMARK VINA RESULT:      -6.0      1.582      2.964
REMARK  7 active torsions:
REMARK  status: ('A' for Active; 'I' for Inactive)
REMARK    1  A    between atoms: C_1  and  C_2 
REMARK    2  A    between atoms: C_2  and  C_3 
REMARK    3  A    between atoms: C_3  and  C_5 
REMARK    4  A    between atoms: C_3  and  N_6 
REMARK    5  A    between atoms: C_7  and  C_9 
REMARK    6  A    between atoms: C_9  and  C_10 
REMARK    7  A    between atoms: C_9  and  C_14 
ROOT
ATOM      1  C   LIG d   1       3.408  -0.070  -7.175  0.00  0.00     0.047 C 
ATOM      2  H   LIG d   1       2.364   0.147  -6.953  0.00  0.00     0.054 H 
ENDROOT
BRANCH   1   3
ATOM      3  C   LIG d   1       3.997   1.063  -8.016  0.00  0.00    -0.034 C 
ATOM      4  H   LIG d   1       4.465   0.647  -8.909  0.00  0.00     0.028 H 
ATOM      5  H   LIG d   1       4.744   1.600  -7.431  0.00  0.00     0.028 H 
BRANCH   3   6
ATOM      6  C   LIG d   1       2.882   2.027  -8.427  0.00  0.00    -0.063 C 
ATOM      7  H   LIG d   1       3.317   2.981  -8.723  0.00  0.00     0.023 H 
ATOM      8  H   LIG d   1       2.327   1.605  -9.265  0.00  0.00     0.023 H 
ATOM      9  H   LIG d   1       2.207   2.180  -7.585  0.00  0.00     0.023 H 
ENDBRANCH   3   6
ENDBRANCH   1   3
BRANCH   1  10
ATOM     10  C   LIG d   1       3.502  -1.385  -7.952  0.00  0.00    -0.043 C 
ATOM     11  H   LIG d   1       3.339  -1.193  -9.012  0.00  0.00     0.025 H 
ATOM     12  H   LIG d   1       4.491  -1.821  -7.808  0.00  0.00     0.025 H 
ATOM     13  H   LIG d   1       2.743  -2.077  -7.586  0.00  0.00     0.025 H 
ENDBRANCH   1  10
BRANCH   1  14
ATOM     14  N   LIG d   1       4.159  -0.190  -5.922  0.00  0.00    -0.298 NA
ATOM     15  C   LIG d   1       3.561  -0.007  -4.793  0.00  0.00    -0.003 C 
ATOM     16  O   LIG d   1       2.247   0.292  -4.765  0.00  0.00    -0.862 OA
BRANCH  15  17
ATOM     17  C   LIG d   1       4.334  -0.130  -3.504  0.00  0.00     0.261 C 
ATOM     18 CL   LIG d   1       6.100  -0.196  -3.867  0.00  0.00    -0.094 Cl
BRANCH  17  19
ATOM     19  C   LIG d   1       4.041   1.081  -2.616  0.00  0.00     0.421 C 
ATOM     20  F   LIG d   1       2.804   0.908  -1.986  0.00  0.00    -0.168 F 
ATOM     21  F   LIG d   1       5.044   1.202  -1.648  0.00  0.00    -0.168 F 
ATOM     22  F   LIG d   1       4.008   2.237  -3.401  0.00  0.00    -0.168 F 
ENDBRANCH  17  19
BRANCH  17  23
ATOM     23  C   LIG d   1       3.915  -1.410  -2.778  0.00  0.00     0.421 C 
ATOM     24  F   LIG d   1       4.346  -2.524  -3.507  0.00  0.00    -0.168 F 
ATOM     25  F   LIG d   1       4.493  -1.434  -1.505  0.00  0.00    -0.168 F 
ATOM     26  F   LIG d   1       2.521  -1.442  -2.658  0.00  0.00    -0.168 F 
ENDBRANCH  17  23
ENDBRANCH  15  17
ENDBRANCH   1  14
TORSDOF 7
ENDMDL
MODEL 3
REMARK VINA RESULT:      -5.7      1.829      3.042
REMARK  7 active torsions:
REMARK  status: ('A' for Active; 'I' for Inactive)
REMARK    1  A    between atoms: C_1  and  C_2 
REMARK    2  A    between atoms: C_2  and  C_3 
REMARK    3  A    between atoms: C_3  and  C_5 
REMARK    4  A    between atoms: C_3  and  N_6 
REMARK    5  A    between atoms: C_7  and  C_9 
REMARK    6  A    between atoms: C_9  and  C_10 
REMARK    7  A    between atoms: C_9  and  C_14 
ROOT
ATOM      1  C   LIG d   1       4.563  -1.658  -6.844  0.00  0.00     0.047 C 
ATOM      2  H   LIG d   1       5.555  -1.272  -7.081  0.00  0.00     0.054 H 
ENDROOT
BRANCH   1   3
ATOM      3  C   LIG d   1       4.529  -3.166  -7.100  0.00  0.00    -0.034 C 
ATOM      4  H   LIG d   1       5.267  -3.422  -7.860  0.00  0.00     0.028 H 
ATOM      5  H   LIG d   1       3.536  -3.452  -7.447  0.00  0.00     0.028 H 
BRANCH   3   6
ATOM      6  C   LIG d   1       4.851  -3.911  -5.803  0.00  0.00    -0.063 C 
ATOM      7  H   LIG d   1       5.872  -4.291  -5.848  0.00  0.00     0.023 H 
ATOM      8  H   LIG d   1       4.753  -3.230  -4.958  0.00  0.00     0.023 H 
ATOM      9  H   LIG d   1       4.159  -4.744  -5.682  0.00  0.00     0.023 H 
ENDBRANCH   3   6
ENDBRANCH   1   3
BRANCH   1  10
ATOM     10  C   LIG d   1       3.522  -0.966  -7.725  0.00  0.00    -0.043 C 
ATOM     11  H   LIG d   1       3.387  -1.535  -8.644  0.00  0.00     0.025 H 
ATOM     12  H   LIG d   1       2.573  -0.910  -7.189  0.00  0.00     0.025 H 
ATOM     13  H   LIG d   1       3.863   0.041  -7.966  0.00  0.00     0.025 H 
ENDBRANCH   1  10
BRANCH   1  14
ATOM     14  N   LIG d   1       4.263  -1.395  -5.434  0.00  0.00    -0.298 NA
ATOM     15  C   LIG d   1       4.881  -0.451  -4.808  0.00  0.00    -0.003 C 
ATOM     16  O   LIG d   1       5.804   0.294  -5.451  0.00  0.00    -0.862 OA
BRANCH  15  17
ATOM     17  C   LIG d   1       4.571  -0.181  -3.357  0.00  0.00     0.261 C 
ATOM     18 CL   LIG d   1       5.712   1.064  -2.722  0.00  0.00    -0.094 Cl
BRANCH  17  19
ATOM     19  C   LIG d   1       3.135   0.331  -3.230  0.00  0.00     0.421 C 
ATOM     20  F   LIG d   1       3.049   1.209  -2.144  0.00  0.00    -0.168 F 
ATOM     21  F   LIG d   1       2.774   1.003  -4.403  0.00  0.00    -0.168 F 
ATOM     22  F   LIG d   1       2.271  -0.749  -3.026  0.00  0.00    -0.168 F 
ENDBRANCH  17  19
BRANCH  17  23
ATOM     23  C   LIG d   1       4.727  -1.473  -2.553  0.00  0.00     0.421 C 
ATOM     24  F   LIG d   1       3.794  -2.415  -2.997  0.00  0.00    -0.168 F 
ATOM     25  F   LIG d   1       6.020  -1.978  -2.728  0.00  0.00    -0.168 F 
ATOM     26  F   LIG d   1       4.511  -1.205  -1.196  0.00  0.00    -0.168 F 
ENDBRANCH  17  23
ENDBRANCH  15  17
ENDBRANCH   1  14
TORSDOF 7
ENDMDL
MODEL 4
REMARK VINA RESULT:      -5.6      1.720      2.525
REMARK  7 active torsions:
REMARK  status: ('A' for Active; 'I' for Inactive)
REMARK    1  A    between atoms: C_1  and  C_2 
REMARK    2  A    between atoms: C_2  and  C_3 
REMARK    3  A    between atoms: C_3  and  C_5 
REMARK    4  A    between atoms: C_3  and  N_6 
REMARK    5  A    between atoms: C_7  and  C_9 
REMARK    6  A    between atoms: C_9  and  C_10 
REMARK    7  A    between atoms: C_9  and  C_14 
ROOT
ATOM      1  C   LIG d   1       3.144   0.582  -7.476  0.00  0.00     0.047 C 
ATOM      2  H   LIG d   1       2.507   1.374  -7.083  0.00  0.00     0.054 H 
ENDROOT
BRANCH   1   3
ATOM      3  C   LIG d   1       4.223   1.193  -8.371  0.00  0.00    -0.034 C 
ATOM      4  H   LIG d   1       4.579   0.440  -9.075  0.00  0.00     0.028 H 
ATOM      5  H   LIG d   1       5.054   1.536  -7.755  0.00  0.00     0.028 H 
BRANCH   3   6
ATOM      6  C   LIG d   1       3.636   2.377  -9.143  0.00  0.00    -0.063 C 
ATOM      7  H   LIG d   1       4.419   3.112  -9.329  0.00  0.00     0.023 H 
ATOM      8  H   LIG d   1       3.232   2.027 -10.092  0.00  0.00     0.023 H 
ATOM      9  H   LIG d   1       2.841   2.834  -8.555  0.00  0.00     0.023 H 
ENDBRANCH   3   6
ENDBRANCH   1   3
BRANCH   1  10
ATOM     10  C   LIG d   1       2.296  -0.397  -8.291  0.00  0.00    -0.043 C 
ATOM     11  H   LIG d   1       1.703  -1.014  -7.617  0.00  0.00     0.025 H 
ATOM     12  H   LIG d   1       1.633   0.162  -8.952  0.00  0.00     0.025 H 
ATOM     13  H   LIG d   1       2.950  -1.033  -8.887  0.00  0.00     0.025 H 
ENDBRANCH   1  10
BRANCH   1  14
ATOM     14  N   LIG d   1       3.777  -0.131  -6.363  0.00  0.00    -0.298 NA
ATOM     15  C   LIG d   1       3.589   0.268  -5.151  0.00  0.00    -0.003 C 
ATOM     16  O   LIG d   1       2.809   1.341  -4.907  0.00  0.00    -0.862 OA
BRANCH  15  17
ATOM     17  C   LIG d   1       4.242  -0.466  -4.007  0.00  0.00     0.261 C 
ATOM     18 CL   LIG d   1       4.686  -2.132  -4.538  0.00  0.00    -0.094 Cl
BRANCH  17  19
ATOM     19  C   LIG d   1       5.503   0.284  -3.573  0.00  0.00     0.421 C 
ATOM     20  F   LIG d   1       5.150   1.551  -3.096  0.00  0.00    -0.168 F 
ATOM     21  F   LIG d   1       6.145  -0.434  -2.558  0.00  0.00    -0.168 F 
ATOM     22  F   LIG d   1       6.364   0.419  -4.665  0.00  0.00    -0.168 F 
ENDBRANCH  17  19
BRANCH  17  23
ATOM     23  C   LIG d   1       3.266  -0.549  -2.832  0.00  0.00     0.421 C 
ATOM     24  F   LIG d   1       1.997  -0.903  -3.302  0.00  0.00    -0.168 F 
ATOM     25  F   LIG d   1       3.713  -1.514  -1.923  0.00  0.00    -0.168 F 
ATOM     26  F   LIG d   1       3.197   0.695  -2.195  0.00  0.00    -0.168 F 
ENDBRANCH  17  23
ENDBRANCH  15  17
ENDBRANCH   1  14
TORSDOF 7
ENDMDL
MODEL 5
REMARK VINA RESULT:      -5.6      1.811      2.318
REMARK  7 active torsions:
REMARK  status: ('A' for Active; 'I' for Inactive)
REMARK    1  A    between atoms: C_1  and  C_2 
REMARK    2  A    between atoms: C_2  and  C_3 
REMARK    3  A    between atoms: C_3  and  C_5 
REMARK    4  A    between atoms: C_3  and  N_6 
REMARK    5  A    between atoms: C_7  and  C_9 
REMARK    6  A    between atoms: C_9  and  C_10 
REMARK    7  A    between atoms: C_9  and  C_14 
ROOT
ATOM      1  C   LIG d   1       6.733  -0.378  -6.099  0.00  0.00     0.047 C 
ATOM      2  H   LIG d   1       7.259  -1.162  -5.557  0.00  0.00     0.054 H 
ENDROOT
BRANCH   1   3
ATOM      3  C   LIG d   1       6.418  -0.861  -7.516  0.00  0.00    -0.034 C 
ATOM      4  H   LIG d   1       7.000  -1.758  -7.731  0.00  0.00     0.028 H 
ATOM      5  H   LIG d   1       6.675  -0.081  -8.232  0.00  0.00     0.028 H 
BRANCH   3   6
ATOM      6  C   LIG d   1       4.926  -1.183  -7.626  0.00  0.00    -0.063 C 
ATOM      7  H   LIG d   1       4.686  -1.445  -8.657  0.00  0.00     0.023 H 
ATOM      8  H   LIG d   1       4.685  -2.021  -6.972  0.00  0.00     0.023 H 
ATOM      9  H   LIG d   1       4.344  -0.310  -7.329  0.00  0.00     0.023 H 
ENDBRANCH   3   6
ENDBRANCH   1   3
BRANCH   1  10
ATOM     10  C   LIG d   1       7.612   0.872  -6.170  0.00  0.00    -0.043 C 
ATOM     11  H   LIG d   1       8.547   0.689  -5.642  0.00  0.00     0.025 H 
ATOM     12  H   LIG d   1       7.824   1.108  -7.213  0.00  0.00     0.025 H 
ATOM     13  H   LIG d   1       7.090   1.709  -5.707  0.00  0.00     0.025 H 
ENDBRANCH   1  10
BRANCH   1  14
ATOM     14  N   LIG d   1       5.484  -0.057  -5.403  0.00  0.00    -0.298 NA
ATOM     15  C   LIG d   1       5.352  -0.342  -4.152  0.00  0.00    -0.003 C 
ATOM     16  O   LIG d   1       6.363  -0.933  -3.483  0.00  0.00    -0.862 OA
BRANCH  15  17
ATOM     17  C   LIG d   1       4.066  -0.012  -3.436  0.00  0.00     0.261 C 
ATOM     18 CL   LIG d   1       2.870   0.636  -4.621  0.00  0.00    -0.094 Cl
BRANCH  17  19
ATOM     19  C   LIG d   1       3.505  -1.278  -2.786  0.00  0.00     0.421 C 
ATOM     20  F   LIG d   1       4.222  -1.559  -1.619  0.00  0.00    -0.168 F 
ATOM     21  F   LIG d   1       2.156  -1.080  -2.468  0.00  0.00    -0.168 F 
ATOM     22  F   LIG d   1       3.622  -2.350  -3.675  0.00  0.00    -0.168 F 
ENDBRANCH  17  19
BRANCH  17  23
ATOM     23  C   LIG d   1       4.337   1.040  -2.359  0.00  0.00     0.421 C 
ATOM     24  F   LIG d   1       4.700   0.405  -1.167  0.00  0.00    -0.168 F 
ATOM     25  F   LIG d   1       5.377   1.877  -2.777  0.00  0.00    -0.168 F 
ATOM     26  F   LIG d   1       3.181   1.801  -2.149  0.00  0.00    -0.168 F 
ENDBRANCH  17  23
ENDBRANCH  15  17
ENDBRANCH   1  14
TORSDOF 7
ENDMDL
MODEL 6
REMARK VINA RESULT:      -5.5      1.734      2.734
REMARK  7 active torsions:
REMARK  status: ('A' for Active; 'I' for Inactive)
REMARK    1  A    between atoms: C_1  and  C_2 
REMARK    2  A    between atoms: C_2  and  C_3 
REMARK    3  A    between atoms: C_3  and  C_5 
REMARK    4  A    between atoms: C_3  and  N_6 
REMARK    5  A    between atoms: C_7  and  C_9 
REMARK    6  A    between atoms: C_9  and  C_10 
REMARK    7  A    between atoms: C_9  and  C_14 
ROOT
ATOM      1  C   LIG d   1       5.858  -0.377  -6.630  0.00  0.00     0.047 C 
ATOM      2  H   LIG d   1       5.011   0.093  -7.131  0.00  0.00     0.054 H 
ENDROOT
BRANCH   1   3
ATOM      3  C   LIG d   1       7.115   0.464  -6.858  0.00  0.00    -0.034 C 
ATOM      4  H   LIG d   1       6.830   1.460  -7.196  0.00  0.00     0.028 H 
ATOM      5  H   LIG d   1       7.738  -0.012  -7.615  0.00  0.00     0.028 H 
BRANCH   3   6
ATOM      6  C   LIG d   1       7.900   0.574  -5.549  0.00  0.00    -0.063 C 
ATOM      7  H   LIG d   1       7.771  -0.342  -4.971  0.00  0.00     0.023 H 
ATOM      8  H   LIG d   1       8.957   0.720  -5.769  0.00  0.00     0.023 H 
ATOM      9  H   LIG d   1       7.528   1.421  -4.973  0.00  0.00     0.023 H 
ENDBRANCH   3   6
ENDBRANCH   1   3
BRANCH   1  10
ATOM     10  C   LIG d   1       6.072  -1.781  -7.198  0.00  0.00    -0.043 C 
ATOM     11  H   LIG d   1       5.973  -2.515  -6.399  0.00  0.00     0.025 H 
ATOM     12  H   LIG d   1       5.325  -1.979  -7.967  0.00  0.00     0.025 H 
ATOM     13  H   LIG d   1       7.068  -1.848  -7.633  0.00  0.00     0.025 H 
ENDBRANCH   1  10
BRANCH   1  14
ATOM     14  N   LIG d   1       5.584  -0.468  -5.193  0.00  0.00    -0.298 NA
ATOM     15  C   LIG d   1       4.428  -0.125  -4.734  0.00  0.00    -0.003 C 
ATOM     16  O   LIG d   1       3.471   0.316  -5.576  0.00  0.00    -0.862 OA
BRANCH  15  17
ATOM     17  C   LIG d   1       4.148  -0.219  -3.255  0.00  0.00     0.261 C 
ATOM     18 CL   LIG d   1       2.403  -0.597  -2.999  0.00  0.00    -0.094 Cl
BRANCH  17  19
ATOM     19  C   LIG d   1       5.005  -1.328  -2.643  0.00  0.00     0.421 C 
ATOM     20  F   LIG d   1       6.338  -0.908  -2.585  0.00  0.00    -0.168 F 
ATOM     21  F   LIG d   1       4.549  -1.610  -1.351  0.00  0.00    -0.168 F 
ATOM     22  F   LIG d   1       4.913  -2.479  -3.432  0.00  0.00    -0.168 F 
ENDBRANCH  17  19
BRANCH  17  23
ATOM     23  C   LIG d   1       4.483   1.115  -2.587  0.00  0.00     0.421 C 
ATOM     24  F   LIG d   1       5.720   1.575  -3.054  0.00  0.00    -0.168 F 
ATOM     25  F   LIG d   1       3.492   2.053  -2.893  0.00  0.00    -0.168 F 
ATOM     26  F   LIG d   1       4.545   0.938  -1.200  0.00  0.00    -0.168 F 
ENDBRANCH  17  23
ENDBRANCH  15  17
ENDBRANCH   1  14
TORSDOF 7
ENDMDL
MODEL 7
REMARK VINA RESULT:      -5.5      1.343      2.307
REMARK  7 active torsions:
REMARK  status: ('A' for Active; 'I' for Inactive)
REMARK    1  A    between atoms: C_1  and  C_2 
REMARK    2  A    between atoms: C_2  and  C_3 
REMARK    3  A    between atoms: C_3  and  C_5 
REMARK    4  A    between atoms: C_3  and  N_6 
REMARK    5  A    between atoms: C_7  and  C_9 
REMARK    6  A    between atoms: C_9  and  C_10 
REMARK    7  A    between atoms: C_9  and  C_14 
ROOT
ATOM      1  C   LIG d   1       3.931  -0.338  -7.387  0.00  0.00     0.047 C 
ATOM      2  H   LIG d   1       3.962  -1.427  -7.426  0.00  0.00     0.054 H 
ENDROOT
BRANCH   1   3
ATOM      3  C   LIG d   1       2.686   0.163  -8.122  0.00  0.00    -0.034 C 
ATOM      4  H   LIG d   1       1.810   0.025  -7.487  0.00  0.00     0.028 H 
ATOM      5  H   LIG d   1       2.558  -0.401  -9.045  0.00  0.00     0.028 H 
BRANCH   3   6
ATOM      6  C   LIG d   1       2.850   1.649  -8.450  0.00  0.00    -0.063 C 
ATOM      7  H   LIG d   1       3.597   1.766  -9.235  0.00  0.00     0.023 H 
ATOM      8  H   LIG d   1       1.897   2.053  -8.790  0.00  0.00     0.023 H 
ATOM      9  H   LIG d   1       3.174   2.183  -7.557  0.00  0.00     0.023 H 
ENDBRANCH   3   6
ENDBRANCH   1   3
BRANCH   1  10
ATOM     10  C   LIG d   1       5.183   0.233  -8.056  0.00  0.00    -0.043 C 
ATOM     11  H   LIG d   1       5.367  -0.293  -8.992  0.00  0.00     0.025 H 
ATOM     12  H   LIG d   1       5.034   1.294  -8.259  0.00  0.00     0.025 H 
ATOM     13  H   LIG d   1       6.038   0.106  -7.392  0.00  0.00     0.025 H 
ENDBRANCH   1  10
BRANCH   1  14
ATOM     14  N   LIG d   1       3.882   0.098  -5.989  0.00  0.00    -0.298 NA
ATOM     15  C   LIG d   1       4.398  -0.639  -5.065  0.00  0.00    -0.003 C 
ATOM     16  O   LIG d   1       4.984  -1.811  -5.385  0.00  0.00    -0.862 OA
BRANCH  15  17
ATOM     17  C   LIG d   1       4.348  -0.189  -3.627  0.00  0.00     0.261 C 
ATOM     18 CL   LIG d   1       3.316   1.284  -3.495  0.00  0.00    -0.094 Cl
BRANCH  17  19
ATOM     19  C   LIG d   1       3.755  -1.305  -2.764  0.00  0.00     0.421 C 
ATOM     20  F   LIG d   1       4.203  -2.545  -3.233  0.00  0.00    -0.168 F 
ATOM     21  F   LIG d   1       4.164  -1.135  -1.436  0.00  0.00    -0.168 F 
ATOM     22  F   LIG d   1       2.360  -1.257  -2.832  0.00  0.00    -0.168 F 
ENDBRANCH  17  19
BRANCH  17  23
ATOM     23  C   LIG d   1       5.762   0.134  -3.144  0.00  0.00     0.421 C 
ATOM     24  F   LIG d   1       6.481   0.746  -4.176  0.00  0.00    -0.168 F 
ATOM     25  F   LIG d   1       5.694   0.999  -2.047  0.00  0.00    -0.168 F 
ATOM     26  F   LIG d   1       6.407  -1.049  -2.765  0.00  0.00    -0.168 F 
ENDBRANCH  17  23
ENDBRANCH  15  17
ENDBRANCH   1  14
TORSDOF 7
ENDMDL
MODEL 8
REMARK VINA RESULT:      -5.3      1.444      2.727
REMARK  7 active torsions:
REMARK  status: ('A' for Active; 'I' for Inactive)
REMARK    1  A    between atoms: C_1  and  C_2 
REMARK    2  A    between atoms: C_2  and  C_3 
REMARK    3  A    between atoms: C_3  and  C_5 
REMARK    4  A    between atoms: C_3  and  N_6 
REMARK    5  A    between atoms: C_7  and  C_9 
REMARK    6  A    between atoms: C_9  and  C_10 
REMARK    7  A    between atoms: C_9  and  C_14 
ROOT
ATOM      1  C   LIG d   1       3.957  -0.279  -7.205  0.00  0.00     0.047 C 
ATOM      2  H   LIG d   1       4.958   0.053  -7.479  0.00  0.00     0.054 H 
ENDROOT
BRANCH   1   3
ATOM      3  C   LIG d   1       3.623  -1.568  -7.958  0.00  0.00    -0.034 C 
ATOM      4  H   LIG d   1       3.363  -1.329  -8.990  0.00  0.00     0.028 H 
ATOM      5  H   LIG d   1       2.780  -2.063  -7.476  0.00  0.00     0.028 H 
BRANCH   3   6
ATOM      6  C   LIG d   1       4.838  -2.498  -7.941  0.00  0.00    -0.063 C 
ATOM      7  H   LIG d   1       5.591  -2.125  -8.635  0.00  0.00     0.023 H 
ATOM      8  H   LIG d   1       5.256  -2.532  -6.935  0.00  0.00     0.023 H 
ATOM      9  H   LIG d   1       4.532  -3.500  -8.242  0.00  0.00     0.023 H 
ENDBRANCH   3   6
ENDBRANCH   1   3
BRANCH   1  10
ATOM     10  C   LIG d   1       2.941   0.805  -7.572  0.00  0.00    -0.043 C 
ATOM     11  H   LIG d   1       3.164   1.190  -8.567  0.00  0.00     0.025 H 
ATOM     12  H   LIG d   1       1.937   0.379  -7.564  0.00  0.00     0.025 H 
ATOM     13  H   LIG d   1       2.998   1.615  -6.847  0.00  0.00     0.025 H 
ENDBRANCH   1  10
BRANCH   1  14
ATOM     14  N   LIG d   1       3.904  -0.529  -5.762  0.00  0.00    -0.298 NA
ATOM     15  C   LIG d   1       4.934  -0.280  -5.026  0.00  0.00    -0.003 C 
ATOM     16  O   LIG d   1       6.059   0.211  -5.584  0.00  0.00    -0.862 OA
BRANCH  15  17
ATOM     17  C   LIG d   1       4.878  -0.537  -3.541  0.00  0.00     0.261 C 
ATOM     18 CL   LIG d   1       6.505  -1.057  -2.961  0.00  0.00    -0.094 Cl
BRANCH  17  19
ATOM     19  C   LIG d   1       4.464   0.746  -2.817  0.00  0.00     0.421 C 
ATOM     20  F   LIG d   1       3.377   1.325  -3.480  0.00  0.00    -0.168 F 
ATOM     21  F   LIG d   1       4.099   0.441  -1.501  0.00  0.00    -0.168 F 
ATOM     22  F   LIG d   1       5.537   1.643  -2.807  0.00  0.00    -0.168 F 
ENDBRANCH  17  19
BRANCH  17  23
ATOM     23  C   LIG d   1       3.858  -1.639  -3.252  0.00  0.00     0.421 C 
ATOM     24  F   LIG d   1       4.058  -2.135  -1.960  0.00  0.00    -0.168 F 
ATOM     25  F   LIG d   1       2.565  -1.116  -3.356  0.00  0.00    -0.168 F 
ATOM     26  F   LIG d   1       4.017  -2.676  -4.179  0.00  0.00    -0.168 F 
ENDBRANCH  17  23
ENDBRANCH  15  17
ENDBRANCH   1  14
TORSDOF 7
ENDMDL
MODEL 9
REMARK VINA RESULT:      -5.3      1.480      1.965
REMARK  7 active torsions:
REMARK  status: ('A' for Active; 'I' for Inactive)
REMARK    1  A    between atoms: C_1  and  C_2 
REMARK    2  A    between atoms: C_2  and  C_3 
REMARK    3  A    between atoms: C_3  and  C_5 
REMARK    4  A    between atoms: C_3  and  N_6 
REMARK    5  A    between atoms: C_7  and  C_9 
REMARK    6  A    between atoms: C_9  and  C_10 
REMARK    7  A    between atoms: C_9  and  C_14 
ROOT
ATOM      1  C   LIG d   1       4.059  -0.336  -7.428  0.00  0.00     0.047 C 
ATOM      2  H   LIG d   1       4.131  -1.412  -7.583  0.00  0.00     0.054 H 
ENDROOT
BRANCH   1   3
ATOM      3  C   LIG d   1       2.791   0.192  -8.102  0.00  0.00    -0.034 C 
ATOM      4  H   LIG d   1       1.936   0.030  -7.444  0.00  0.00     0.028 H 
ATOM      5  H   LIG d   1       2.632  -0.336  -9.041  0.00  0.00     0.028 H 
BRANCH   3   6
ATOM      6  C   LIG d   1       2.945   1.689  -8.377  0.00  0.00    -0.063 C 
ATOM      7  H   LIG d   1       2.698   1.894  -9.420  0.00  0.00     0.023 H 
ATOM      8  H   LIG d   1       2.273   2.250  -7.728  0.00  0.00     0.023 H 
ATOM      9  H   LIG d   1       3.974   1.990  -8.183  0.00  0.00     0.023 H 
ENDBRANCH   3   6
ENDBRANCH   1   3
BRANCH   1  10
ATOM     10  C   LIG d   1       5.284   0.351  -8.036  0.00  0.00    -0.043 C 
ATOM     11  H   LIG d   1       5.488  -0.073  -9.018  0.00  0.00     0.025 H 
ATOM     12  H   LIG d   1       5.089   1.419  -8.134  0.00  0.00     0.025 H 
ATOM     13  H   LIG d   1       6.145   0.197  -7.386  0.00  0.00     0.025 H 
ENDBRANCH   1  10
BRANCH   1  14
ATOM     14  N   LIG d   1       4.003  -0.053  -5.991  0.00  0.00    -0.298 NA
ATOM     15  C   LIG d   1       4.328  -0.967  -5.141  0.00  0.00    -0.003 C 
ATOM     16  O   LIG d   1       4.720  -2.182  -5.573  0.00  0.00    -0.862 OA
BRANCH  15  17
ATOM     17  C   LIG d   1       4.271  -0.675  -3.663  0.00  0.00     0.261 C 
ATOM     18 CL   LIG d   1       3.951  -2.204  -2.761  0.00  0.00    -0.094 Cl
BRANCH  17  19
ATOM     19  C   LIG d   1       5.607  -0.084  -3.208  0.00  0.00     0.421 C 
ATOM     20  F   LIG d   1       5.403   0.709  -2.073  0.00  0.00    -0.168 F 
ATOM     21  F   LIG d   1       6.494  -1.121  -2.898  0.00  0.00    -0.168 F 
ATOM     22  F   LIG d   1       6.144   0.699  -4.234  0.00  0.00    -0.168 F 
ENDBRANCH  17  19
BRANCH  17  23
ATOM     23  C   LIG d   1       3.148   0.326  -3.384  0.00  0.00     0.421 C 
ATOM     24  F   LIG d   1       2.850   0.326  -2.017  0.00  0.00    -0.168 F 
ATOM     25  F   LIG d   1       3.556   1.606  -3.772  0.00  0.00    -0.168 F 
ATOM     26  F   LIG d   1       2.008  -0.040  -4.109  0.00  0.00    -0.168 F 
ENDBRANCH  17  23
ENDBRANCH  15  17
ENDBRANCH   1  14
TORSDOF 7
ENDMDL
MODEL 10
REMARK VINA RESULT:      -5.3      2.726      3.420
REMARK  7 active torsions:
REMARK  status: ('A' for Active; 'I' for Inactive)
REMARK    1  A    between atoms: C_1  and  C_2 
REMARK    2  A    between atoms: C_2  and  C_3 
REMARK    3  A    between atoms: C_3  and  C_5 
REMARK    4  A    between atoms: C_3  and  N_6 
REMARK    5  A    between atoms: C_7  and  C_9 
REMARK    6  A    between atoms: C_9  and  C_10 
REMARK    7  A    between atoms: C_9  and  C_14 
ROOT
ATOM      1  C   LIG d   1       7.368   0.632  -5.360  0.00  0.00     0.047 C 
ATOM      2  H   LIG d   1       7.272   1.594  -4.856  0.00  0.00     0.054 H 
ENDROOT
BRANCH   1   3
ATOM      3  C   LIG d   1       8.680  -0.035  -4.940  0.00  0.00    -0.034 C 
ATOM      4  H   LIG d   1       8.911   0.237  -3.910  0.00  0.00     0.028 H 
ATOM      5  H   LIG d   1       9.484   0.302  -5.594  0.00  0.00     0.028 H 
BRANCH   3   6
ATOM      6  C   LIG d   1       8.536  -1.554  -5.047  0.00  0.00    -0.063 C 
ATOM      7  H   LIG d   1       8.752  -2.008  -4.079  0.00  0.00     0.023 H 
ATOM      8  H   LIG d   1       7.518  -1.803  -5.346  0.00  0.00     0.023 H 
ATOM      9  H   LIG d   1       9.237  -1.933  -5.790  0.00  0.00     0.023 H 
ENDBRANCH   3   6
ENDBRANCH   1   3
BRANCH   1  10
ATOM     10  C   LIG d   1       7.367   0.848  -6.875  0.00  0.00    -0.043 C 
ATOM     11  H   LIG d   1       6.713   0.116  -7.346  0.00  0.00     0.025 H 
ATOM     12  H   LIG d   1       7.008   1.854  -7.097  0.00  0.00     0.025 H 
ATOM     13  H   LIG d   1       8.381   0.731  -7.258  0.00  0.00     0.025 H 
ENDBRANCH   1  10
BRANCH   1  14
ATOM     14  N   LIG d   1       6.242  -0.228  -4.989  0.00  0.00    -0.298 NA
ATOM     15  C   LIG d   1       5.462   0.113  -4.019  0.00  0.00    -0.003 C 
ATOM     16  O   LIG d   1       5.684   1.262  -3.347  0.00  0.00    -0.862 OA
BRANCH  15  17
ATOM     17  C   LIG d   1       4.303  -0.772  -3.638  0.00  0.00     0.261 C 
ATOM     18 CL   LIG d   1       4.070  -2.034  -4.905  0.00  0.00    -0.094 Cl
BRANCH  17  19
ATOM     19  C   LIG d   1       4.595  -1.446  -2.295  0.00  0.00     0.421 C 
ATOM     20  F   LIG d   1       5.892  -1.972  -2.311  0.00  0.00    -0.168 F 
ATOM     21  F   LIG d   1       4.488  -0.502  -1.267  0.00  0.00    -0.168 F 
ATOM     22  F   LIG d   1       3.676  -2.477  -2.080  0.00  0.00    -0.168 F 
ENDBRANCH  17  19
BRANCH  17  23
ATOM     23  C   LIG d   1       3.033   0.073  -3.520  0.00  0.00     0.421 C 
ATOM     24  F   LIG d   1       3.089   0.840  -2.352  0.00  0.00    -0.168 F 
ATOM     25  F   LIG d   1       2.931   0.918  -4.630  0.00  0.00    -0.168 F 
ATOM     26  F   LIG d   1       1.916  -0.770  -3.472  0.00  0.00    -0.168 F 
ENDBRANCH  17  23
ENDBRANCH  15  17
ENDBRANCH   1  14
TORSDOF 7
ENDMDL
