MODEL 1
REMARK VINA RESULT:      -5.6      0.000      0.000
REMARK  5 active torsions:
REMARK  status: ('A' for Active; 'I' for Inactive)
REMARK    1  A    between atoms: C4_4  and  O1_7 
REMARK    2  A    between atoms: O1_7  and  C7_8 
REMARK    3  A    between atoms: C7_8  and  C8_9 
REMARK    4  A    between atoms: C8_9  and  C9_11 
REMARK    5  A    between atoms: C8_9  and  N1_23 
ROOT
ATOM      1  O1  <1> d           2.771   1.154  -4.841  0.00  0.00    -0.486 OA
ENDROOT
BRANCH   1   2
ATOM      2  C4  <1> d           3.327   0.539  -3.764  0.00  0.00     0.121 A 
ATOM      3  C3  <1> d           4.042   1.279  -2.834  0.00  0.00    -0.020 A 
ATOM      4  C2  <1> d           4.607   0.651  -1.741  0.00  0.00    -0.058 A 
ATOM      5  H4  <1> d           4.158   2.345  -2.965  0.00  0.00     0.065 H 
ATOM      6  C1  <1> d           4.458  -0.714  -1.573  0.00  0.00    -0.061 A 
ATOM      7  H3  <1> d           5.165   1.227  -1.017  0.00  0.00     0.062 H 
ATOM      8  C6  <1> d           3.746  -1.453  -2.498  0.00  0.00    -0.058 A 
ATOM      9  H2  <1> d           4.900  -1.202  -0.717  0.00  0.00     0.062 H 
ATOM     10  C5  <1> d           3.175  -0.829  -3.591  0.00  0.00    -0.020 A 
ATOM     11  H6  <1> d           3.632  -2.519  -2.365  0.00  0.00     0.062 H 
ATOM     12  H5  <1> d           2.615  -1.406  -4.311  0.00  0.00     0.065 H 
ENDBRANCH   1   2
BRANCH   1  13
ATOM     13  C7  <1> d           2.277   0.313  -5.886  0.00  0.00     0.137 C 
ATOM     14  H7  <1> d           1.358   0.738  -6.290  0.00  0.00     0.076 H 
ATOM     15  H8  <1> d           2.073  -0.680  -5.487  0.00  0.00     0.076 H 
BRANCH  13  16
ATOM     16  C8  <1> d           3.323   0.212  -6.997  0.00  0.00     0.051 C 
ATOM     17  H1  <1> d           4.284   0.567  -6.625  0.00  0.00     0.095 H 
BRANCH  16  18
ATOM     18  C9  <1> d           2.895   1.056  -8.170  0.00  0.00     0.093 C 
ATOM     19  O2  <1> d           2.400   0.534  -9.141  0.00  0.00    -0.544 OA
ATOM     20  O3  <1> d           3.063   2.387  -8.135  0.00  0.00    -0.544 OA
ENDBRANCH  16  18
BRANCH  16  21
ATOM     21  N1  <1> d           3.457  -1.200  -7.401  0.00  0.00     0.227 N 
ATOM     22  H9  <1> d           2.559  -1.557  -7.721  0.00  0.00     0.200 HD
ATOM     23  H10 <1> d           4.142  -1.285  -8.150  0.00  0.00     0.200 HD
ATOM     24  H11 <1> d           3.770  -1.753  -6.595  0.00  0.00     0.200 HD
ENDBRANCH  16  21
ENDBRANCH  13  16
ENDBRANCH   1  13
TORSDOF 5
ENDMDL
MODEL 2
REMARK VINA RESULT:      -5.3      1.368      2.022
REMARK  5 active torsions:
REMARK  status: ('A' for Active; 'I' for Inactive)
REMARK    1  A    between atoms: C4_4  and  O1_7 
REMARK    2  A    between atoms: O1_7  and  C7_8 
REMARK    3  A    between atoms: C7_8  and  C8_9 
REMARK    4  A    between atoms: C8_9  and  C9_11 
REMARK    5  A    between atoms: C8_9  and  N1_23 
ROOT
ATOM      1  O1  <1> d           2.886   0.621  -5.204  0.00  0.00    -0.486 OA
ENDROOT
BRANCH   1   2
ATOM      2  C4  <1> d           3.393   0.258  -3.997  0.00  0.00     0.121 A 
ATOM      3  C3  <1> d           3.451  -1.082  -3.643  0.00  0.00    -0.020 A 
ATOM      4  C2  <1> d           3.968  -1.449  -2.415  0.00  0.00    -0.058 A 
ATOM      5  H4  <1> d           3.094  -1.838  -4.326  0.00  0.00     0.065 H 
ATOM      6  C1  <1> d           4.426  -0.481  -1.540  0.00  0.00    -0.061 A 
ATOM      7  H3  <1> d           4.013  -2.492  -2.138  0.00  0.00     0.062 H 
ATOM      8  C6  <1> d           4.369   0.854  -1.890  0.00  0.00    -0.058 A 
ATOM      9  H2  <1> d           4.830  -0.771  -0.580  0.00  0.00     0.062 H 
ATOM     10  C5  <1> d           3.859   1.226  -3.119  0.00  0.00    -0.020 A 
ATOM     11  H6  <1> d           4.728   1.608  -1.204  0.00  0.00     0.062 H 
ATOM     12  H5  <1> d           3.818   2.269  -3.395  0.00  0.00     0.065 H 
ENDBRANCH   1   2
BRANCH   1  13
ATOM     13  C7  <1> d           3.398  -0.056  -6.354  0.00  0.00     0.137 C 
ATOM     14  H7  <1> d           3.112  -1.108  -6.314  0.00  0.00     0.076 H 
ATOM     15  H8  <1> d           4.485   0.025  -6.369  0.00  0.00     0.076 H 
BRANCH  13  16
ATOM     16  C8  <1> d           2.822   0.581  -7.620  0.00  0.00     0.051 C 
ATOM     17  H1  <1> d           1.910   1.123  -7.371  0.00  0.00     0.095 H 
BRANCH  16  18
ATOM     18  C9  <1> d           2.508  -0.496  -8.627  0.00  0.00     0.093 C 
ATOM     19  O2  <1> d           3.007  -1.591  -8.516  0.00  0.00    -0.544 OA
ATOM     20  O3  <1> d           1.672  -0.238  -9.645  0.00  0.00    -0.544 OA
ENDBRANCH  16  18
BRANCH  16  21
ATOM     21  N1  <1> d           3.808   1.528  -8.170  0.00  0.00     0.227 N 
ATOM     22  H9  <1> d           4.501   1.027  -8.723  0.00  0.00     0.200 HD
ATOM     23  H10 <1> d           3.341   2.217  -8.758  0.00  0.00     0.200 HD
ATOM     24  H11 <1> d           4.281   2.010  -7.398  0.00  0.00     0.200 HD
ENDBRANCH  16  21
ENDBRANCH  13  16
ENDBRANCH   1  13
TORSDOF 5
ENDMDL
MODEL 3
REMARK VINA RESULT:      -5.3      3.603      4.420
REMARK  5 active torsions:
REMARK  status: ('A' for Active; 'I' for Inactive)
REMARK    1  A    between atoms: C4_4  and  O1_7 
REMARK    2  A    between atoms: O1_7  and  C7_8 
REMARK    3  A    between atoms: C7_8  and  C8_9 
REMARK    4  A    between atoms: C8_9  and  C9_11 
REMARK    5  A    between atoms: C8_9  and  N1_23 
ROOT
ATOM      1  O1  <1> d           3.821  -2.819  -3.790  0.00  0.00    -0.486 OA
ENDROOT
BRANCH   1   2
ATOM      2  C4  <1> d           3.824  -1.545  -3.317  0.00  0.00     0.121 A 
ATOM      3  C3  <1> d           4.473  -1.247  -2.128  0.00  0.00    -0.020 A 
ATOM      4  C2  <1> d           4.475   0.048  -1.649  0.00  0.00    -0.058 A 
ATOM      5  H4  <1> d           4.976  -2.028  -1.576  0.00  0.00     0.065 H 
ATOM      6  C1  <1> d           3.832   1.049  -2.355  0.00  0.00    -0.061 A 
ATOM      7  H3  <1> d           4.979   0.281  -0.722  0.00  0.00     0.062 H 
ATOM      8  C6  <1> d           3.185   0.755  -3.540  0.00  0.00    -0.058 A 
ATOM      9  H2  <1> d           3.835   2.061  -1.979  0.00  0.00     0.062 H 
ATOM     10  C5  <1> d           3.185  -0.539  -4.026  0.00  0.00    -0.020 A 
ATOM     11  H6  <1> d           2.683   1.538  -4.090  0.00  0.00     0.062 H 
ATOM     12  H5  <1> d           2.683  -0.767  -4.955  0.00  0.00     0.065 H 
ENDBRANCH   1   2
BRANCH   1  13
ATOM     13  C7  <1> d           4.998  -3.264  -4.467  0.00  0.00     0.137 C 
ATOM     14  H7  <1> d           5.380  -4.161  -3.980  0.00  0.00     0.076 H 
ATOM     15  H8  <1> d           5.756  -2.481  -4.431  0.00  0.00     0.076 H 
BRANCH  13  16
ATOM     16  C8  <1> d           4.660  -3.579  -5.925  0.00  0.00     0.051 C 
ATOM     17  H1  <1> d           3.938  -2.851  -6.296  0.00  0.00     0.095 H 
BRANCH  16  18
ATOM     18  C9  <1> d           4.071  -4.963  -6.017  0.00  0.00     0.093 C 
ATOM     19  O2  <1> d           4.168  -5.724  -5.085  0.00  0.00    -0.544 OA
ATOM     20  O3  <1> d           3.438  -5.348  -7.137  0.00  0.00    -0.544 OA
ENDBRANCH  16  18
BRANCH  16  21
ATOM     21  N1  <1> d           5.890  -3.488  -6.732  0.00  0.00     0.227 N 
ATOM     22  H9  <1> d           6.648  -3.102  -6.171  0.00  0.00     0.200 HD
ATOM     23  H10 <1> d           6.156  -4.412  -7.069  0.00  0.00     0.200 HD
ATOM     24  H11 <1> d           5.722  -2.873  -7.536  0.00  0.00     0.200 HD
ENDBRANCH  16  21
ENDBRANCH  13  16
ENDBRANCH   1  13
TORSDOF 5
ENDMDL
MODEL 4
REMARK VINA RESULT:      -5.2      1.364      1.548
REMARK  5 active torsions:
REMARK  status: ('A' for Active; 'I' for Inactive)
REMARK    1  A    between atoms: C4_4  and  O1_7 
REMARK    2  A    between atoms: O1_7  and  C7_8 
REMARK    3  A    between atoms: C7_8  and  C8_9 
REMARK    4  A    between atoms: C8_9  and  C9_11 
REMARK    5  A    between atoms: C8_9  and  N1_23 
ROOT
ATOM      1  O1  <1> d           2.909   0.610  -5.170  0.00  0.00    -0.486 OA
ENDROOT
BRANCH   1   2
ATOM      2  C4  <1> d           3.419   0.206  -3.977  0.00  0.00     0.121 A 
ATOM      3  C3  <1> d           3.884   1.143  -3.067  0.00  0.00    -0.020 A 
ATOM      4  C2  <1> d           4.402   0.730  -1.855  0.00  0.00    -0.058 A 
ATOM      5  H4  <1> d           3.841   2.196  -3.305  0.00  0.00     0.065 H 
ATOM      6  C1  <1> d           4.457  -0.618  -1.549  0.00  0.00    -0.061 A 
ATOM      7  H3  <1> d           4.765   1.460  -1.146  0.00  0.00     0.062 H 
ATOM      8  C6  <1> d           3.995  -1.554  -2.455  0.00  0.00    -0.058 A 
ATOM      9  H2  <1> d           4.862  -0.939  -0.600  0.00  0.00     0.062 H 
ATOM     10  C5  <1> d           3.471  -1.145  -3.666  0.00  0.00    -0.020 A 
ATOM     11  H6  <1> d           4.039  -2.606  -2.213  0.00  0.00     0.062 H 
ATOM     12  H5  <1> d           3.105  -1.877  -4.371  0.00  0.00     0.065 H 
ENDBRANCH   1   2
BRANCH   1  13
ATOM     13  C7  <1> d           3.419  -0.027  -6.344  0.00  0.00     0.137 C 
ATOM     14  H7  <1> d           3.303  -1.107  -6.250  0.00  0.00     0.076 H 
ATOM     15  H8  <1> d           4.475   0.215  -6.459  0.00  0.00     0.076 H 
BRANCH  13  16
ATOM     16  C8  <1> d           2.646   0.464  -7.569  0.00  0.00     0.051 C 
ATOM     17  H1  <1> d           1.588   0.550  -7.320  0.00  0.00     0.095 H 
BRANCH  16  18
ATOM     18  C9  <1> d           2.818  -0.517  -8.699  0.00  0.00     0.093 C 
ATOM     19  O2  <1> d           3.094  -1.669  -8.463  0.00  0.00    -0.544 OA
ATOM     20  O3  <1> d           2.663  -0.110  -9.969  0.00  0.00    -0.544 OA
ENDBRANCH  16  18
BRANCH  16  21
ATOM     21  N1  <1> d           3.157   1.791  -7.957  0.00  0.00     0.227 N 
ATOM     22  H9  <1> d           4.176   1.787  -7.952  0.00  0.00     0.200 HD
ATOM     23  H10 <1> d           2.825   2.035  -8.888  0.00  0.00     0.200 HD
ATOM     24  H11 <1> d           2.822   2.491  -7.286  0.00  0.00     0.200 HD
ENDBRANCH  16  21
ENDBRANCH  13  16
ENDBRANCH   1  13
TORSDOF 5
ENDMDL
MODEL 5
REMARK VINA RESULT:      -5.0      3.936      4.763
REMARK  5 active torsions:
REMARK  status: ('A' for Active; 'I' for Inactive)
REMARK    1  A    between atoms: C4_4  and  O1_7 
REMARK    2  A    between atoms: O1_7  and  C7_8 
REMARK    3  A    between atoms: C7_8  and  C8_9 
REMARK    4  A    between atoms: C8_9  and  C9_11 
REMARK    5  A    between atoms: C8_9  and  N1_23 
ROOT
ATOM      1  O1  <1> d           4.006  -2.831  -3.707  0.00  0.00    -0.486 OA
ENDROOT
BRANCH   1   2
ATOM      2  C4  <1> d           3.917  -1.548  -3.268  0.00  0.00     0.121 A 
ATOM      3  C3  <1> d           3.204  -0.611  -4.001  0.00  0.00    -0.020 A 
ATOM      4  C2  <1> d           3.115   0.692  -3.553  0.00  0.00    -0.058 A 
ATOM      5  H4  <1> d           2.717  -0.901  -4.921  0.00  0.00     0.065 H 
ATOM      6  C1  <1> d           3.737   1.064  -2.375  0.00  0.00    -0.061 A 
ATOM      7  H3  <1> d           2.560   1.423  -4.124  0.00  0.00     0.062 H 
ATOM      8  C6  <1> d           4.449   0.132  -1.644  0.00  0.00    -0.058 A 
ATOM      9  H2  <1> d           3.666   2.084  -2.027  0.00  0.00     0.062 H 
ATOM     10  C5  <1> d           4.536  -1.174  -2.084  0.00  0.00    -0.020 A 
ATOM     11  H6  <1> d           4.934   0.425  -0.723  0.00  0.00     0.062 H 
ATOM     12  H5  <1> d           5.088  -1.903  -1.510  0.00  0.00     0.065 H 
ENDBRANCH   1   2
BRANCH   1  13
ATOM     13  C7  <1> d           5.011  -3.115  -4.683  0.00  0.00     0.137 C 
ATOM     14  H7  <1> d           5.997  -3.007  -4.231  0.00  0.00     0.076 H 
ATOM     15  H8  <1> d           4.915  -2.419  -5.517  0.00  0.00     0.076 H 
BRANCH  13  16
ATOM     16  C8  <1> d           4.837  -4.547  -5.193  0.00  0.00     0.051 C 
ATOM     17  H1  <1> d           4.622  -5.208  -4.353  0.00  0.00     0.095 H 
BRANCH  16  18
ATOM     18  C9  <1> d           6.104  -4.997  -5.873  0.00  0.00     0.093 C 
ATOM     19  O2  <1> d           6.084  -5.319  -7.037  0.00  0.00    -0.544 OA
ATOM     20  O3  <1> d           7.256  -5.038  -5.185  0.00  0.00    -0.544 OA
ENDBRANCH  16  18
BRANCH  16  21
ATOM     21  N1  <1> d           3.705  -4.586  -6.136  0.00  0.00     0.227 N 
ATOM     22  H9  <1> d           3.052  -3.833  -5.927  0.00  0.00     0.200 HD
ATOM     23  H10 <1> d           4.043  -4.485  -7.091  0.00  0.00     0.200 HD
ATOM     24  H11 <1> d           3.220  -5.486  -6.044  0.00  0.00     0.200 HD
ENDBRANCH  16  21
ENDBRANCH  13  16
ENDBRANCH   1  13
TORSDOF 5
ENDMDL
MODEL 6
REMARK VINA RESULT:      -5.0      1.972      5.701
REMARK  5 active torsions:
REMARK  status: ('A' for Active; 'I' for Inactive)
REMARK    1  A    between atoms: C4_4  and  O1_7 
REMARK    2  A    between atoms: O1_7  and  C7_8 
REMARK    3  A    between atoms: C7_8  and  C8_9 
REMARK    4  A    between atoms: C8_9  and  C9_11 
REMARK    5  A    between atoms: C8_9  and  N1_23 
ROOT
ATOM      1  O1  <1> d           2.889   0.948  -6.325  0.00  0.00    -0.486 OA
ENDROOT
BRANCH   1   2
ATOM      2  C4  <1> d           2.968   0.831  -7.676  0.00  0.00     0.121 A 
ATOM      3  C3  <1> d           2.706  -0.387  -8.285  0.00  0.00    -0.020 A 
ATOM      4  C2  <1> d           2.787  -0.504  -9.659  0.00  0.00    -0.058 A 
ATOM      5  H4  <1> d           2.438  -1.245  -7.685  0.00  0.00     0.065 H 
ATOM      6  C1  <1> d           3.128   0.594 -10.427  0.00  0.00    -0.061 A 
ATOM      7  H3  <1> d           2.583  -1.453 -10.133  0.00  0.00     0.062 H 
ATOM      8  C6  <1> d           3.391   1.809  -9.824  0.00  0.00    -0.058 A 
ATOM      9  H2  <1> d           3.191   0.501 -11.502  0.00  0.00     0.062 H 
ATOM     10  C5  <1> d           3.305   1.932  -8.450  0.00  0.00    -0.020 A 
ATOM     11  H6  <1> d           3.658   2.665 -10.427  0.00  0.00     0.062 H 
ATOM     12  H5  <1> d           3.506   2.883  -7.979  0.00  0.00     0.065 H 
ENDBRANCH   1   2
BRANCH   1  13
ATOM     13  C7  <1> d           3.561  -0.045  -5.547  0.00  0.00     0.137 C 
ATOM     14  H7  <1> d           4.620   0.204  -5.476  0.00  0.00     0.076 H 
ATOM     15  H8  <1> d           3.449  -1.019  -6.025  0.00  0.00     0.076 H 
BRANCH  13  16
ATOM     16  C8  <1> d           2.954  -0.093  -4.144  0.00  0.00     0.051 C 
ATOM     17  H1  <1> d           1.923   0.260  -4.182  0.00  0.00     0.095 H 
BRANCH  16  18
ATOM     18  C9  <1> d           3.753   0.789  -3.219  0.00  0.00     0.093 C 
ATOM     19  O2  <1> d           3.299   1.109  -2.147  0.00  0.00    -0.544 OA
ATOM     20  O3  <1> d           4.970   1.219  -3.589  0.00  0.00    -0.544 OA
ENDBRANCH  16  18
BRANCH  16  21
ATOM     21  N1  <1> d           2.966  -1.486  -3.664  0.00  0.00     0.227 N 
ATOM     22  H9  <1> d           2.113  -1.962  -3.954  0.00  0.00     0.200 HD
ATOM     23  H10 <1> d           3.774  -1.979  -4.042  0.00  0.00     0.200 HD
ATOM     24  H11 <1> d           3.020  -1.490  -2.639  0.00  0.00     0.200 HD
ENDBRANCH  16  21
ENDBRANCH  13  16
ENDBRANCH   1  13
TORSDOF 5
ENDMDL
MODEL 7
REMARK VINA RESULT:      -4.7      3.533      3.985
REMARK  5 active torsions:
REMARK  status: ('A' for Active; 'I' for Inactive)
REMARK    1  A    between atoms: C4_4  and  O1_7 
REMARK    2  A    between atoms: O1_7  and  C7_8 
REMARK    3  A    between atoms: C7_8  and  C8_9 
REMARK    4  A    between atoms: C8_9  and  C9_11 
REMARK    5  A    between atoms: C8_9  and  N1_23 
ROOT
ATOM      1  O1  <1> d           6.877  -0.049  -3.013  0.00  0.00    -0.486 OA
ENDROOT
BRANCH   1   2
ATOM      2  C4  <1> d           5.554  -0.331  -2.887  0.00  0.00     0.121 A 
ATOM      3  C3  <1> d           4.623   0.697  -2.882  0.00  0.00    -0.020 A 
ATOM      4  C2  <1> d           3.278   0.408  -2.753  0.00  0.00    -0.058 A 
ATOM      5  H4  <1> d           4.948   1.723  -2.979  0.00  0.00     0.065 H 
ATOM      6  C1  <1> d           2.861  -0.905  -2.630  0.00  0.00    -0.061 A 
ATOM      7  H3  <1> d           2.552   1.208  -2.749  0.00  0.00     0.062 H 
ATOM      8  C6  <1> d           3.787  -1.931  -2.634  0.00  0.00    -0.058 A 
ATOM      9  H2  <1> d           1.808  -1.129  -2.530  0.00  0.00     0.062 H 
ATOM     10  C5  <1> d           5.133  -1.647  -2.769  0.00  0.00    -0.020 A 
ATOM     11  H6  <1> d           3.458  -2.955  -2.538  0.00  0.00     0.062 H 
ATOM     12  H5  <1> d           5.856  -2.449  -2.777  0.00  0.00     0.065 H 
ENDBRANCH   1   2
BRANCH   1  13
ATOM     13  C7  <1> d           7.224   1.124  -3.754  0.00  0.00     0.137 C 
ATOM     14  H7  <1> d           7.756   1.820  -3.105  0.00  0.00     0.076 H 
ATOM     15  H8  <1> d           6.316   1.598  -4.128  0.00  0.00     0.076 H 
BRANCH  13  16
ATOM     16  C8  <1> d           8.119   0.738  -4.932  0.00  0.00     0.051 C 
ATOM     17  H1  <1> d           8.804   1.557  -5.152  0.00  0.00     0.095 H 
BRANCH  16  18
ATOM     18  C9  <1> d           7.266   0.458  -6.143  0.00  0.00     0.093 C 
ATOM     19  O2  <1> d           6.765  -0.632  -6.290  0.00  0.00    -0.544 OA
ATOM     20  O3  <1> d           7.063   1.420  -7.056  0.00  0.00    -0.544 OA
ENDBRANCH  16  18
BRANCH  16  21
ATOM     21  N1  <1> d           8.902  -0.456  -4.567  0.00  0.00     0.227 N 
ATOM     22  H9  <1> d           9.673  -0.194  -3.955  0.00  0.00     0.200 HD
ATOM     23  H10 <1> d           8.307  -1.133  -4.092  0.00  0.00     0.200 HD
ATOM     24  H11 <1> d           9.283  -0.884  -5.419  0.00  0.00     0.200 HD
ENDBRANCH  16  21
ENDBRANCH  13  16
ENDBRANCH   1  13
TORSDOF 5
ENDMDL
MODEL 8
REMARK VINA RESULT:      -4.7      4.843      6.010
REMARK  5 active torsions:
REMARK  status: ('A' for Active; 'I' for Inactive)
REMARK    1  A    between atoms: C4_4  and  O1_7 
REMARK    2  A    between atoms: O1_7  and  C7_8 
REMARK    3  A    between atoms: C7_8  and  C8_9 
REMARK    4  A    between atoms: C8_9  and  C9_11 
REMARK    5  A    between atoms: C8_9  and  N1_23 
ROOT
ATOM      1  O1  <1> d           7.506   0.329  -3.872  0.00  0.00    -0.486 OA
ENDROOT
BRANCH   1   2
ATOM      2  C4  <1> d           6.359  -0.012  -3.228  0.00  0.00     0.121 A 
ATOM      3  C3  <1> d           5.973  -1.342  -3.154  0.00  0.00    -0.020 A 
ATOM      4  C2  <1> d           4.807  -1.686  -2.499  0.00  0.00    -0.058 A 
ATOM      5  H4  <1> d           6.584  -2.109  -3.607  0.00  0.00     0.065 H 
ATOM      6  C1  <1> d           4.024  -0.706  -1.917  0.00  0.00    -0.061 A 
ATOM      7  H3  <1> d           4.505  -2.722  -2.441  0.00  0.00     0.062 H 
ATOM      8  C6  <1> d           4.406   0.620  -1.990  0.00  0.00    -0.058 A 
ATOM      9  H2  <1> d           3.112  -0.977  -1.405  0.00  0.00     0.062 H 
ATOM     10  C5  <1> d           5.575   0.969  -2.639  0.00  0.00    -0.020 A 
ATOM     11  H6  <1> d           3.792   1.384  -1.535  0.00  0.00     0.062 H 
ATOM     12  H5  <1> d           5.875   2.005  -2.692  0.00  0.00     0.065 H 
ENDBRANCH   1   2
BRANCH   1  13
ATOM     13  C7  <1> d           7.867   1.711  -3.866  0.00  0.00     0.137 C 
ATOM     14  H7  <1> d           7.746   2.115  -2.860  0.00  0.00     0.076 H 
ATOM     15  H8  <1> d           7.225   2.258  -4.556  0.00  0.00     0.076 H 
BRANCH  13  16
ATOM     16  C8  <1> d           9.326   1.860  -4.301  0.00  0.00     0.051 C 
ATOM     17  H1  <1> d           9.789   0.875  -4.362  0.00  0.00     0.095 H 
BRANCH  16  18
ATOM     18  C9  <1> d          10.069   2.703  -3.296  0.00  0.00     0.093 C 
ATOM     19  O2  <1> d          11.177   2.381  -2.940  0.00  0.00    -0.544 OA
ATOM     20  O3  <1> d           9.497   3.810  -2.798  0.00  0.00    -0.544 OA
ENDBRANCH  16  18
BRANCH  16  21
ATOM     21  N1  <1> d           9.366   2.492  -5.632  0.00  0.00     0.227 N 
ATOM     22  H9  <1> d          10.293   2.382  -6.042  0.00  0.00     0.200 HD
ATOM     23  H10 <1> d           8.674   2.063  -6.244  0.00  0.00     0.200 HD
ATOM     24  H11 <1> d           9.158   3.492  -5.538  0.00  0.00     0.200 HD
ENDBRANCH  16  21
ENDBRANCH  13  16
ENDBRANCH   1  13
TORSDOF 5
ENDMDL
MODEL 9
REMARK VINA RESULT:      -4.6      4.271      4.983
REMARK  5 active torsions:
REMARK  status: ('A' for Active; 'I' for Inactive)
REMARK    1  A    between atoms: C4_4  and  O1_7 
REMARK    2  A    between atoms: O1_7  and  C7_8 
REMARK    3  A    between atoms: C7_8  and  C8_9 
REMARK    4  A    between atoms: C8_9  and  C9_11 
REMARK    5  A    between atoms: C8_9  and  N1_23 
ROOT
ATOM      1  O1  <1> d           7.471   0.325  -3.851  0.00  0.00    -0.486 OA
ENDROOT
BRANCH   1   2
ATOM      2  C4  <1> d           6.314  -0.019  -3.226  0.00  0.00     0.121 A 
ATOM      3  C3  <1> d           5.953  -1.354  -3.120  0.00  0.00    -0.020 A 
ATOM      4  C2  <1> d           4.776  -1.701  -2.485  0.00  0.00    -0.058 A 
ATOM      5  H4  <1> d           6.590  -2.122  -3.534  0.00  0.00     0.065 H 
ATOM      6  C1  <1> d           3.960  -0.719  -1.955  0.00  0.00    -0.061 A 
ATOM      7  H3  <1> d           4.494  -2.741  -2.402  0.00  0.00     0.062 H 
ATOM      8  C6  <1> d           4.317   0.612  -2.060  0.00  0.00    -0.058 A 
ATOM      9  H2  <1> d           3.040  -0.993  -1.458  0.00  0.00     0.062 H 
ATOM     10  C5  <1> d           5.496   0.964  -2.689  0.00  0.00    -0.020 A 
ATOM     11  H6  <1> d           3.678   1.377  -1.645  0.00  0.00     0.062 H 
ATOM     12  H5  <1> d           5.778   2.003  -2.767  0.00  0.00     0.065 H 
ENDBRANCH   1   2
BRANCH   1  13
ATOM     13  C7  <1> d           7.826   1.709  -3.844  0.00  0.00     0.137 C 
ATOM     14  H7  <1> d           7.981   2.040  -2.817  0.00  0.00     0.076 H 
ATOM     15  H8  <1> d           7.023   2.293  -4.295  0.00  0.00     0.076 H 
BRANCH  13  16
ATOM     16  C8  <1> d           9.113   1.911  -4.645  0.00  0.00     0.051 C 
ATOM     17  H1  <1> d           9.687   2.729  -4.210  0.00  0.00     0.095 H 
BRANCH  16  18
ATOM     18  C9  <1> d           8.770   2.243  -6.075  0.00  0.00     0.093 C 
ATOM     19  O2  <1> d           9.513   2.934  -6.730  0.00  0.00    -0.544 OA
ATOM     20  O3  <1> d           7.638   1.769  -6.619  0.00  0.00    -0.544 OA
ENDBRANCH  16  18
BRANCH  16  21
ATOM     21  N1  <1> d           9.915   0.676  -4.582  0.00  0.00     0.227 N 
ATOM     22  H9  <1> d          10.866   0.861  -4.895  0.00  0.00     0.200 HD
ATOM     23  H10 <1> d           9.937   0.322  -3.627  0.00  0.00     0.200 HD
ATOM     24  H11 <1> d           9.493  -0.033  -5.193  0.00  0.00     0.200 HD
ENDBRANCH  16  21
ENDBRANCH  13  16
ENDBRANCH   1  13
TORSDOF 5
ENDMDL
MODEL 10
REMARK VINA RESULT:      -4.5      2.346      5.532
REMARK  5 active torsions:
REMARK  status: ('A' for Active; 'I' for Inactive)
REMARK    1  A    between atoms: C4_4  and  O1_7 
REMARK    2  A    between atoms: O1_7  and  C7_8 
REMARK    3  A    between atoms: C7_8  and  C8_9 
REMARK    4  A    between atoms: C8_9  and  C9_11 
REMARK    5  A    between atoms: C8_9  and  N1_23 
ROOT
ATOM      1  O1  <1> d           4.080  -0.795  -6.912  0.00  0.00    -0.486 OA
ENDROOT
BRANCH   1   2
ATOM      2  C4  <1> d           4.084   0.307  -7.707  0.00  0.00     0.121 A 
ATOM      3  C3  <1> d           2.919   1.040  -7.884  0.00  0.00    -0.020 A 
ATOM      4  C2  <1> d           2.926   2.160  -8.693  0.00  0.00    -0.058 A 
ATOM      5  H4  <1> d           2.008   0.736  -7.389  0.00  0.00     0.065 H 
ATOM      6  C1  <1> d           4.092   2.550  -9.326  0.00  0.00    -0.061 A 
ATOM      7  H3  <1> d           2.019   2.731  -8.832  0.00  0.00     0.062 H 
ATOM      8  C6  <1> d           5.253   1.821  -9.152  0.00  0.00    -0.058 A 
ATOM      9  H2  <1> d           4.094   3.426  -9.958  0.00  0.00     0.062 H 
ATOM     10  C5  <1> d           5.253   0.704  -8.339  0.00  0.00    -0.020 A 
ATOM     11  H6  <1> d           6.162   2.129  -9.647  0.00  0.00     0.062 H 
ATOM     12  H5  <1> d           6.162   0.137  -8.199  0.00  0.00     0.065 H 
ENDBRANCH   1   2
BRANCH   1  13
ATOM     13  C7  <1> d           4.860  -0.735  -5.716  0.00  0.00     0.137 C 
ATOM     14  H7  <1> d           5.582   0.078  -5.793  0.00  0.00     0.076 H 
ATOM     15  H8  <1> d           5.389  -1.678  -5.579  0.00  0.00     0.076 H 
BRANCH  13  16
ATOM     16  C8  <1> d           3.940  -0.488  -4.518  0.00  0.00     0.051 C 
ATOM     17  H1  <1> d           3.159   0.218  -4.800  0.00  0.00     0.095 H 
BRANCH  16  18
ATOM     18  C9  <1> d           4.743   0.080  -3.376  0.00  0.00     0.093 C 
ATOM     19  O2  <1> d           4.970  -0.597  -2.402  0.00  0.00    -0.544 OA
ATOM     20  O3  <1> d           5.206   1.338  -3.443  0.00  0.00    -0.544 OA
ENDBRANCH  16  18
BRANCH  16  21
ATOM     21  N1  <1> d           3.316  -1.763  -4.124  0.00  0.00     0.227 N 
ATOM     22  H9  <1> d           2.330  -1.617  -3.910  0.00  0.00     0.200 HD
ATOM     23  H10 <1> d           3.400  -2.442  -4.879  0.00  0.00     0.200 HD
ATOM     24  H11 <1> d           3.789  -2.128  -3.289  0.00  0.00     0.200 HD
ENDBRANCH  16  21
ENDBRANCH  13  16
ENDBRANCH   1  13
TORSDOF 5
ENDMDL
