MODEL 1
REMARK VINA RESULT:      -8.0      0.000      0.000
REMARK  5 active torsions:
REMARK  status: ('A' for Active; 'I' for Inactive)
REMARK    1  A    between atoms: C_4  and  C_7 
REMARK    2  A    between atoms: C_7  and  C_8 
REMARK    3  A    between atoms: C_10  and  C_13 
REMARK    4  A    between atoms: N_23  and  C_24 
REMARK    5  A    between atoms: C_24  and  C_25 
ROOT
ATOM      1  C   LIG d   1       3.063  -0.680  -9.544  0.00  0.00     0.098 C 
ATOM      2  H   LIG d   1       3.629  -0.053 -10.233  0.00  0.00     0.057 H 
ATOM      3  C   LIG d   1       1.568  -0.596  -9.886  0.00  0.00     0.037 C 
ATOM      4  C   LIG d   1       1.350  -1.331 -11.183  0.00  0.00     0.148 A 
ATOM      5  C   LIG d   1       2.252  -2.185 -11.718  0.00  0.00     0.159 A 
ATOM      6  N   LIG d   1       1.747  -2.654 -12.860  0.00  0.00    -0.246 N 
ATOM      7  C   LIG d   1       0.566  -2.126 -13.056  0.00  0.00     0.243 A 
ATOM      8  N   LIG d   1       0.285  -1.294 -12.025  0.00  0.00    -0.247 N 
ATOM      9  H   LIG d   1      -0.524  -0.770 -11.910  0.00  0.00     0.310 HD
ATOM     10  C   LIG d   1       3.576  -2.502 -11.070  0.00  0.00     0.066 C 
ATOM     11  N   LIG d   1       3.518  -2.072  -9.663  0.00  0.00    -0.279 N 
ATOM     12  H   LIG d   1       0.982  -1.063  -9.095  0.00  0.00     0.037 H 
ATOM     13  H   LIG d   1       1.274   0.448  -9.999  0.00  0.00     0.037 H 
ATOM     14  H   LIG d   1      -0.078  -2.322 -13.900  0.00  0.00     0.158 H 
ATOM     15  H   LIG d   1       3.763  -3.576 -11.119  0.00  0.00     0.051 H 
ATOM     16  H   LIG d   1       4.375  -1.967 -11.585  0.00  0.00     0.051 H 
ATOM     17  H   LIG d   1       2.186  -3.286 -13.451  0.00  0.00     0.310 HD
ENDROOT
BRANCH   1  18
ATOM     18  C   LIG d   1       3.283  -0.199  -8.132  0.00  0.00     0.245 A 
ATOM     19  N   LIG d   1       2.390  -0.184  -7.182  0.00  0.00    -0.194 NA
ATOM     20  C   LIG d   1       2.925   0.306  -6.057  0.00  0.00     0.176 A 
ATOM     21  N   LIG d   1       4.169   0.615  -6.283  0.00  0.00    -0.061 NA
ATOM     22  O   LIG d   1       4.429   0.287  -7.639  0.00  0.00    -0.336 OA
BRANCH  20  23
ATOM     23  C   LIG d   1       2.202   0.476  -4.746  0.00  0.00     0.036 C 
ATOM     24  H   LIG d   1       1.259  -0.069  -4.777  0.00  0.00     0.039 H 
ATOM     25  H   LIG d   1       2.007   1.534  -4.574  0.00  0.00     0.039 H 
BRANCH  23  26
ATOM     26  C   LIG d   1       3.058  -0.064  -3.628  0.00  0.00    -0.040 A 
ATOM     27  C   LIG d   1       3.207  -1.429  -3.469  0.00  0.00    -0.058 A 
ATOM     28  C   LIG d   1       3.992  -1.924  -2.445  0.00  0.00    -0.061 A 
ATOM     29  H   LIG d   1       2.710  -2.108  -4.146  0.00  0.00     0.062 H 
ATOM     30  C   LIG d   1       4.629  -1.053  -1.580  0.00  0.00    -0.062 A 
ATOM     31  H   LIG d   1       4.108  -2.989  -2.321  0.00  0.00     0.062 H 
ATOM     32  C   LIG d   1       4.481   0.312  -1.740  0.00  0.00    -0.061 A 
ATOM     33  H   LIG d   1       5.240  -1.440  -0.778  0.00  0.00     0.062 H 
ATOM     34  C   LIG d   1       3.695   0.807  -2.763  0.00  0.00    -0.058 A 
ATOM     35  H   LIG d   1       4.979   0.992  -1.064  0.00  0.00     0.062 H 
ATOM     36  H   LIG d   1       3.579   1.874  -2.888  0.00  0.00     0.062 H 
ENDBRANCH  23  26
ENDBRANCH  20  23
ENDBRANCH   1  18
BRANCH  11  37
ATOM     37  C   LIG d   1       4.816  -2.260  -9.000  0.00  0.00     0.025 C 
ATOM     38  H   LIG d   1       5.546  -2.617  -9.727  0.00  0.00     0.048 H 
ATOM     39  H   LIG d   1       5.152  -1.311  -8.583  0.00  0.00     0.048 H 
BRANCH  37  40
ATOM     40  C   LIG d   1       4.671  -3.273  -7.893  0.00  0.00    -0.033 A 
ATOM     41  C   LIG d   1       5.164  -2.994  -6.632  0.00  0.00    -0.055 A 
ATOM     42  C   LIG d   1       5.028  -3.919  -5.615  0.00  0.00    -0.026 A 
ATOM     43  H   LIG d   1       5.654  -2.049  -6.442  0.00  0.00     0.062 H 
ATOM     44  C   LIG d   1       4.406  -5.131  -5.862  0.00  0.00     0.123 A 
ATOM     45  H   LIG d   1       5.410  -3.698  -4.629  0.00  0.00     0.065 H 
ATOM     46  C   LIG d   1       3.917  -5.413  -7.126  0.00  0.00    -0.026 A 
ATOM     47  F   LIG d   1       4.276  -6.039  -4.870  0.00  0.00    -0.205 F 
ATOM     48  C   LIG d   1       4.050  -4.483  -8.141  0.00  0.00    -0.055 A 
ATOM     49  H   LIG d   1       3.432  -6.357  -7.319  0.00  0.00     0.065 H 
ATOM     50  H   LIG d   1       3.669  -4.702  -9.127  0.00  0.00     0.062 H 
ENDBRANCH  37  40
ENDBRANCH  11  37
TORSDOF 5
ENDMDL
MODEL 2
REMARK VINA RESULT:      -7.9      2.458      3.117
REMARK  5 active torsions:
REMARK  status: ('A' for Active; 'I' for Inactive)
REMARK    1  A    between atoms: C_4  and  C_7 
REMARK    2  A    between atoms: C_7  and  C_8 
REMARK    3  A    between atoms: C_10  and  C_13 
REMARK    4  A    between atoms: N_23  and  C_24 
REMARK    5  A    between atoms: C_24  and  C_25 
ROOT
ATOM      1  C   LIG d   1       4.474  -0.481  -9.104  0.00  0.00     0.098 C 
ATOM      2  H   LIG d   1       4.634   0.258  -9.889  0.00  0.00     0.057 H 
ATOM      3  C   LIG d   1       3.663  -1.657  -9.666  0.00  0.00     0.037 C 
ATOM      4  C   LIG d   1       4.556  -2.427 -10.604  0.00  0.00     0.148 A 
ATOM      5  C   LIG d   1       5.901  -2.288 -10.637  0.00  0.00     0.159 A 
ATOM      6  N   LIG d   1       6.375  -3.107 -11.576  0.00  0.00    -0.246 N 
ATOM      7  C   LIG d   1       5.379  -3.752 -12.127  0.00  0.00     0.243 A 
ATOM      8  N   LIG d   1       4.225  -3.352 -11.542  0.00  0.00    -0.247 N 
ATOM      9  H   LIG d   1       3.331  -3.666 -11.754  0.00  0.00     0.310 HD
ATOM     10  C   LIG d   1       6.657  -1.349  -9.732  0.00  0.00     0.066 C 
ATOM     11  N   LIG d   1       5.773  -0.967  -8.618  0.00  0.00    -0.279 N 
ATOM     12  H   LIG d   1       3.338  -2.304  -8.851  0.00  0.00     0.037 H 
ATOM     13  H   LIG d   1       2.795  -1.281 -10.208  0.00  0.00     0.037 H 
ATOM     14  H   LIG d   1       5.463  -4.482 -12.918  0.00  0.00     0.158 H 
ATOM     15  H   LIG d   1       7.545  -1.849  -9.342  0.00  0.00     0.051 H 
ATOM     16  H   LIG d   1       6.952  -0.459 -10.289  0.00  0.00     0.051 H 
ATOM     17  H   LIG d   1       7.311  -3.209 -11.813  0.00  0.00     0.310 HD
ENDROOT
BRANCH   1  18
ATOM     18  C   LIG d   1       3.717   0.153  -7.965  0.00  0.00     0.245 A 
ATOM     19  N   LIG d   1       3.179  -0.479  -6.960  0.00  0.00    -0.194 NA
ATOM     20  C   LIG d   1       2.586   0.391  -6.134  0.00  0.00     0.176 A 
ATOM     21  N   LIG d   1       2.737   1.593  -6.610  0.00  0.00    -0.061 NA
ATOM     22  O   LIG d   1       3.482   1.462  -7.812  0.00  0.00    -0.336 OA
BRANCH  20  23
ATOM     23  C   LIG d   1       1.858   0.036  -4.862  0.00  0.00     0.036 C 
ATOM     24  H   LIG d   1       1.349  -0.919  -4.990  0.00  0.00     0.039 H 
ATOM     25  H   LIG d   1       1.127   0.812  -4.635  0.00  0.00     0.039 H 
BRANCH  23  26
ATOM     26  C   LIG d   1       2.848  -0.068  -3.731  0.00  0.00    -0.040 A 
ATOM     27  C   LIG d   1       3.184  -1.307  -3.218  0.00  0.00    -0.058 A 
ATOM     28  C   LIG d   1       4.092  -1.404  -2.181  0.00  0.00    -0.061 A 
ATOM     29  H   LIG d   1       2.736  -2.200  -3.629  0.00  0.00     0.062 H 
ATOM     30  C   LIG d   1       4.665  -0.260  -1.656  0.00  0.00    -0.062 A 
ATOM     31  H   LIG d   1       4.354  -2.371  -1.781  0.00  0.00     0.062 H 
ATOM     32  C   LIG d   1       4.330   0.979  -2.169  0.00  0.00    -0.061 A 
ATOM     33  H   LIG d   1       5.372  -0.334  -0.843  0.00  0.00     0.062 H 
ATOM     34  C   LIG d   1       3.421   1.076  -3.205  0.00  0.00    -0.058 A 
ATOM     35  H   LIG d   1       4.778   1.873  -1.759  0.00  0.00     0.062 H 
ATOM     36  H   LIG d   1       3.158   2.044  -3.606  0.00  0.00     0.062 H 
ENDBRANCH  23  26
ENDBRANCH  20  23
ENDBRANCH   1  18
BRANCH  11  37
ATOM     37  C   LIG d   1       6.418   0.030  -7.752  0.00  0.00     0.025 C 
ATOM     38  H   LIG d   1       7.363   0.340  -8.197  0.00  0.00     0.048 H 
ATOM     39  H   LIG d   1       5.764   0.896  -7.645  0.00  0.00     0.048 H 
BRANCH  37  40
ATOM     40  C   LIG d   1       6.675  -0.575  -6.396  0.00  0.00    -0.033 A 
ATOM     41  C   LIG d   1       7.117   0.221  -5.356  0.00  0.00    -0.055 A 
ATOM     42  C   LIG d   1       7.348  -0.331  -4.111  0.00  0.00    -0.026 A 
ATOM     43  H   LIG d   1       7.277   1.277  -5.517  0.00  0.00     0.062 H 
ATOM     44  C   LIG d   1       7.147  -1.687  -3.908  0.00  0.00     0.123 A 
ATOM     45  H   LIG d   1       7.689   0.292  -3.298  0.00  0.00     0.065 H 
ATOM     46  C   LIG d   1       6.710  -2.485  -4.951  0.00  0.00    -0.026 A 
ATOM     47  F   LIG d   1       7.378  -2.230  -2.692  0.00  0.00    -0.205 F 
ATOM     48  C   LIG d   1       6.475  -1.928  -6.195  0.00  0.00    -0.055 A 
ATOM     49  H   LIG d   1       6.554  -3.541  -4.793  0.00  0.00     0.065 H 
ATOM     50  H   LIG d   1       6.134  -2.550  -7.008  0.00  0.00     0.062 H 
ENDBRANCH  37  40
ENDBRANCH  11  37
TORSDOF 5
ENDMDL
MODEL 3
REMARK VINA RESULT:      -7.9      5.376      8.018
REMARK  5 active torsions:
REMARK  status: ('A' for Active; 'I' for Inactive)
REMARK    1  A    between atoms: C_4  and  C_7 
REMARK    2  A    between atoms: C_7  and  C_8 
REMARK    3  A    between atoms: C_10  and  C_13 
REMARK    4  A    between atoms: N_23  and  C_24 
REMARK    5  A    between atoms: C_24  and  C_25 
ROOT
ATOM      1  C   LIG d   1       8.329  -3.419  -4.807  0.00  0.00     0.098 C 
ATOM      2  H   LIG d   1       8.557  -3.977  -5.715  0.00  0.00     0.057 H 
ATOM      3  C   LIG d   1       8.969  -4.122  -3.601  0.00  0.00     0.037 C 
ATOM      4  C   LIG d   1      10.460  -3.924  -3.689  0.00  0.00     0.148 A 
ATOM      5  C   LIG d   1      11.045  -3.002  -4.488  0.00  0.00     0.159 A 
ATOM      6  N   LIG d   1      12.365  -3.097  -4.326  0.00  0.00    -0.246 N 
ATOM      7  C   LIG d   1      12.625  -4.040  -3.458  0.00  0.00     0.243 A 
ATOM      8  N   LIG d   1      11.455  -4.579  -3.038  0.00  0.00    -0.247 N 
ATOM      9  H   LIG d   1      11.349  -5.297  -2.393  0.00  0.00     0.310 HD
ATOM     10  C   LIG d   1      10.266  -2.063  -5.374  0.00  0.00     0.066 C 
ATOM     11  N   LIG d   1       8.865  -2.056  -4.923  0.00  0.00    -0.279 N 
ATOM     12  H   LIG d   1       8.593  -3.683  -2.677  0.00  0.00     0.037 H 
ATOM     13  H   LIG d   1       8.736  -5.186  -3.628  0.00  0.00     0.037 H 
ATOM     14  H   LIG d   1      13.609  -4.340  -3.131  0.00  0.00     0.158 H 
ATOM     15  H   LIG d   1      10.682  -1.057  -5.301  0.00  0.00     0.051 H 
ATOM     16  H   LIG d   1      10.318  -2.406  -6.408  0.00  0.00     0.051 H 
ATOM     17  H   LIG d   1      13.028  -2.553  -4.780  0.00  0.00     0.310 HD
ENDROOT
BRANCH   1  18
ATOM     18  C   LIG d   1       6.835  -3.357  -4.618  0.00  0.00     0.245 A 
ATOM     19  N   LIG d   1       6.215  -2.842  -3.594  0.00  0.00    -0.194 NA
ATOM     20  C   LIG d   1       4.891  -2.955  -3.753  0.00  0.00     0.176 A 
ATOM     21  N   LIG d   1       4.653  -3.554  -4.884  0.00  0.00    -0.061 NA
ATOM     22  O   LIG d   1       5.917  -3.823  -5.474  0.00  0.00    -0.336 OA
BRANCH  20  23
ATOM     23  C   LIG d   1       3.847  -2.474  -2.779  0.00  0.00     0.036 C 
ATOM     24  H   LIG d   1       4.086  -2.839  -1.780  0.00  0.00     0.039 H 
ATOM     25  H   LIG d   1       2.869  -2.851  -3.079  0.00  0.00     0.039 H 
BRANCH  23  26
ATOM     26  C   LIG d   1       3.823  -0.968  -2.772  0.00  0.00    -0.040 A 
ATOM     27  C   LIG d   1       3.145  -0.282  -3.762  0.00  0.00    -0.058 A 
ATOM     28  C   LIG d   1       3.122   1.100  -3.754  0.00  0.00    -0.061 A 
ATOM     29  H   LIG d   1       2.631  -0.827  -4.540  0.00  0.00     0.062 H 
ATOM     30  C   LIG d   1       3.778   1.797  -2.756  0.00  0.00    -0.062 A 
ATOM     31  H   LIG d   1       2.592   1.635  -4.527  0.00  0.00     0.062 H 
ATOM     32  C   LIG d   1       4.456   1.111  -1.766  0.00  0.00    -0.061 A 
ATOM     33  H   LIG d   1       3.764   2.876  -2.753  0.00  0.00     0.062 H 
ATOM     34  C   LIG d   1       4.480  -0.271  -1.774  0.00  0.00    -0.058 A 
ATOM     35  H   LIG d   1       4.969   1.655  -0.986  0.00  0.00     0.062 H 
ATOM     36  H   LIG d   1       5.010  -0.807  -1.000  0.00  0.00     0.062 H 
ENDBRANCH  23  26
ENDBRANCH  20  23
ENDBRANCH   1  18
BRANCH  11  37
ATOM     37  C   LIG d   1       8.029  -1.236  -5.812  0.00  0.00     0.025 C 
ATOM     38  H   LIG d   1       8.334  -1.397  -6.846  0.00  0.00     0.048 H 
ATOM     39  H   LIG d   1       6.984  -1.520  -5.693  0.00  0.00     0.048 H 
BRANCH  37  40
ATOM     40  C   LIG d   1       8.199   0.219  -5.459  0.00  0.00    -0.033 A 
ATOM     41  C   LIG d   1       7.777   0.685  -4.228  0.00  0.00    -0.055 A 
ATOM     42  C   LIG d   1       7.936   2.018  -3.900  0.00  0.00    -0.026 A 
ATOM     43  H   LIG d   1       7.326   0.005  -3.520  0.00  0.00     0.062 H 
ATOM     44  C   LIG d   1       8.510   2.890  -4.811  0.00  0.00     0.123 A 
ATOM     45  H   LIG d   1       7.611   2.380  -2.937  0.00  0.00     0.065 H 
ATOM     46  C   LIG d   1       8.927   2.424  -6.046  0.00  0.00    -0.026 A 
ATOM     47  F   LIG d   1       8.662   4.194  -4.494  0.00  0.00    -0.205 F 
ATOM     48  C   LIG d   1       8.771   1.088  -6.369  0.00  0.00    -0.055 A 
ATOM     49  H   LIG d   1       9.374   3.103  -6.756  0.00  0.00     0.065 H 
ATOM     50  H   LIG d   1       9.096   0.725  -7.332  0.00  0.00     0.062 H 
ENDBRANCH  37  40
ENDBRANCH  11  37
TORSDOF 5
ENDMDL
MODEL 4
REMARK VINA RESULT:      -7.7      4.020      6.353
REMARK  5 active torsions:
REMARK  status: ('A' for Active; 'I' for Inactive)
REMARK    1  A    between atoms: C_4  and  C_7 
REMARK    2  A    between atoms: C_7  and  C_8 
REMARK    3  A    between atoms: C_10  and  C_13 
REMARK    4  A    between atoms: N_23  and  C_24 
REMARK    5  A    between atoms: C_24  and  C_25 
ROOT
ATOM      1  C   LIG d   1       7.602  -2.450  -6.205  0.00  0.00     0.098 C 
ATOM      2  H   LIG d   1       8.068  -3.309  -6.687  0.00  0.00     0.057 H 
ATOM      3  C   LIG d   1       8.604  -1.799  -5.241  0.00  0.00     0.037 C 
ATOM      4  C   LIG d   1       9.666  -1.121  -6.067  0.00  0.00     0.148 A 
ATOM      5  C   LIG d   1       9.531  -0.856  -7.386  0.00  0.00     0.159 A 
ATOM      6  N   LIG d   1      10.648  -0.259  -7.802  0.00  0.00    -0.246 N 
ATOM      7  C   LIG d   1      11.473  -0.141  -6.793  0.00  0.00     0.243 A 
ATOM      8  N   LIG d   1      10.891  -0.669  -5.691  0.00  0.00    -0.247 N 
ATOM      9  H   LIG d   1      11.276  -0.716  -4.801  0.00  0.00     0.310 HD
ATOM     10  C   LIG d   1       8.295  -1.205  -8.176  0.00  0.00     0.066 C 
ATOM     11  N   LIG d   1       7.201  -1.475  -7.229  0.00  0.00    -0.279 N 
ATOM     12  H   LIG d   1       8.093  -1.062  -4.621  0.00  0.00     0.037 H 
ATOM     13  H   LIG d   1       9.058  -2.563  -4.610  0.00  0.00     0.037 H 
ATOM     14  H   LIG d   1      12.456   0.304  -6.834  0.00  0.00     0.158 H 
ATOM     15  H   LIG d   1       8.024  -0.369  -8.823  0.00  0.00     0.051 H 
ATOM     16  H   LIG d   1       8.484  -2.091  -8.783  0.00  0.00     0.051 H 
ATOM     17  H   LIG d   1      10.822   0.040  -8.708  0.00  0.00     0.310 HD
ENDROOT
BRANCH   1  18
ATOM     18  C   LIG d   1       6.387  -2.902  -5.438  0.00  0.00     0.245 A 
ATOM     19  N   LIG d   1       5.849  -2.283  -4.424  0.00  0.00    -0.194 NA
ATOM     20  C   LIG d   1       4.783  -2.962  -3.984  0.00  0.00     0.176 A 
ATOM     21  N   LIG d   1       4.633  -4.029  -4.714  0.00  0.00    -0.061 NA
ATOM     22  O   LIG d   1       5.673  -4.008  -5.681  0.00  0.00    -0.336 OA
BRANCH  20  23
ATOM     23  C   LIG d   1       3.903  -2.559  -2.829  0.00  0.00     0.036 C 
ATOM     24  H   LIG d   1       4.318  -2.953  -1.901  0.00  0.00     0.039 H 
ATOM     25  H   LIG d   1       2.901  -2.960  -2.979  0.00  0.00     0.039 H 
BRANCH  23  26
ATOM     26  C   LIG d   1       3.835  -1.055  -2.751  0.00  0.00    -0.040 A 
ATOM     27  C   LIG d   1       4.534  -0.382  -1.767  0.00  0.00    -0.058 A 
ATOM     28  C   LIG d   1       4.473   0.997  -1.696  0.00  0.00    -0.061 A 
ATOM     29  H   LIG d   1       5.129  -0.934  -1.054  0.00  0.00     0.062 H 
ATOM     30  C   LIG d   1       3.712   1.703  -2.610  0.00  0.00    -0.062 A 
ATOM     31  H   LIG d   1       5.018   1.523  -0.928  0.00  0.00     0.062 H 
ATOM     32  C   LIG d   1       3.013   1.029  -3.594  0.00  0.00    -0.061 A 
ATOM     33  H   LIG d   1       3.661   2.780  -2.552  0.00  0.00     0.062 H 
ATOM     34  C   LIG d   1       3.074  -0.350  -3.665  0.00  0.00    -0.058 A 
ATOM     35  H   LIG d   1       2.419   1.581  -4.308  0.00  0.00     0.062 H 
ATOM     36  H   LIG d   1       2.528  -0.876  -4.434  0.00  0.00     0.062 H 
ENDBRANCH  23  26
ENDBRANCH  20  23
ENDBRANCH   1  18
BRANCH  11  37
ATOM     37  C   LIG d   1       5.991  -1.921  -7.935  0.00  0.00     0.025 C 
ATOM     38  H   LIG d   1       6.261  -2.274  -8.930  0.00  0.00     0.048 H 
ATOM     39  H   LIG d   1       5.522  -2.730  -7.376  0.00  0.00     0.048 H 
BRANCH  37  40
ATOM     40  C   LIG d   1       5.027  -0.769  -8.055  0.00  0.00    -0.033 A 
ATOM     41  C   LIG d   1       3.931  -0.694  -7.215  0.00  0.00    -0.055 A 
ATOM     42  C   LIG d   1       3.049   0.364  -7.321  0.00  0.00    -0.026 A 
ATOM     43  H   LIG d   1       3.766  -1.463  -6.474  0.00  0.00     0.062 H 
ATOM     44  C   LIG d   1       3.258   1.346  -8.275  0.00  0.00     0.123 A 
ATOM     45  H   LIG d   1       2.196   0.424  -6.662  0.00  0.00     0.065 H 
ATOM     46  C   LIG d   1       4.352   1.268  -9.119  0.00  0.00    -0.026 A 
ATOM     47  F   LIG d   1       2.394   2.379  -8.382  0.00  0.00    -0.205 F 
ATOM     48  C   LIG d   1       5.236   0.210  -9.008  0.00  0.00    -0.055 A 
ATOM     49  H   LIG d   1       4.516   2.033  -9.863  0.00  0.00     0.065 H 
ATOM     50  H   LIG d   1       6.090   0.150  -9.666  0.00  0.00     0.062 H 
ENDBRANCH  37  40
ENDBRANCH  11  37
TORSDOF 5
ENDMDL
MODEL 5
REMARK VINA RESULT:      -7.6      3.827      5.615
REMARK  5 active torsions:
REMARK  status: ('A' for Active; 'I' for Inactive)
REMARK    1  A    between atoms: C_4  and  C_7 
REMARK    2  A    between atoms: C_7  and  C_8 
REMARK    3  A    between atoms: C_10  and  C_13 
REMARK    4  A    between atoms: N_23  and  C_24 
REMARK    5  A    between atoms: C_24  and  C_25 
ROOT
ATOM      1  C   LIG d   1       5.849  -0.965  -8.134  0.00  0.00     0.098 C 
ATOM      2  H   LIG d   1       5.849  -0.806  -9.212  0.00  0.00     0.057 H 
ATOM      3  C   LIG d   1       5.685  -2.463  -7.837  0.00  0.00     0.037 C 
ATOM      4  C   LIG d   1       6.967  -3.152  -8.225  0.00  0.00     0.148 A 
ATOM      5  C   LIG d   1       8.130  -2.498  -8.447  0.00  0.00     0.159 A 
ATOM      6  N   LIG d   1       9.055  -3.402  -8.771  0.00  0.00    -0.246 N 
ATOM      7  C   LIG d   1       8.514  -4.593  -8.759  0.00  0.00     0.243 A 
ATOM      8  N   LIG d   1       7.209  -4.475  -8.420  0.00  0.00    -0.247 N 
ATOM      9  H   LIG d   1       6.567  -5.198  -8.334  0.00  0.00     0.310 HD
ATOM     10  C   LIG d   1       8.273  -1.002  -8.323  0.00  0.00     0.066 C 
ATOM     11  N   LIG d   1       7.118  -0.487  -7.569  0.00  0.00    -0.279 N 
ATOM     12  H   LIG d   1       5.495  -2.609  -6.774  0.00  0.00     0.037 H 
ATOM     13  H   LIG d   1       4.858  -2.866  -8.421  0.00  0.00     0.037 H 
ATOM     14  H   LIG d   1       9.025  -5.517  -8.983  0.00  0.00     0.158 H 
ATOM     15  H   LIG d   1       9.196  -0.763  -7.793  0.00  0.00     0.051 H 
ATOM     16  H   LIG d   1       8.294  -0.551  -9.316  0.00  0.00     0.051 H 
ATOM     17  H   LIG d   1       9.982  -3.207  -8.984  0.00  0.00     0.310 HD
ENDROOT
BRANCH   1  18
ATOM     18  C   LIG d   1       4.705  -0.203  -7.515  0.00  0.00     0.245 A 
ATOM     19  N   LIG d   1       4.153  -0.456  -6.362  0.00  0.00    -0.194 NA
ATOM     20  C   LIG d   1       3.167   0.416  -6.123  0.00  0.00     0.176 A 
ATOM     21  N   LIG d   1       3.077   1.236  -7.130  0.00  0.00    -0.061 NA
ATOM     22  O   LIG d   1       4.082   0.852  -8.056  0.00  0.00    -0.336 OA
BRANCH  20  23
ATOM     23  C   LIG d   1       2.299   0.443  -4.891  0.00  0.00     0.036 C 
ATOM     24  H   LIG d   1       1.461  -0.243  -5.022  0.00  0.00     0.039 H 
ATOM     25  H   LIG d   1       1.921   1.453  -4.735  0.00  0.00     0.039 H 
BRANCH  23  26
ATOM     26  C   LIG d   1       3.112   0.020  -3.695  0.00  0.00    -0.040 A 
ATOM     27  C   LIG d   1       3.786   0.967  -2.947  0.00  0.00    -0.058 A 
ATOM     28  C   LIG d   1       4.531   0.580  -1.850  0.00  0.00    -0.061 A 
ATOM     29  H   LIG d   1       3.730   2.010  -3.221  0.00  0.00     0.062 H 
ATOM     30  C   LIG d   1       4.602  -0.756  -1.499  0.00  0.00    -0.062 A 
ATOM     31  H   LIG d   1       5.058   1.319  -1.266  0.00  0.00     0.062 H 
ATOM     32  C   LIG d   1       3.927  -1.703  -2.246  0.00  0.00    -0.061 A 
ATOM     33  H   LIG d   1       5.187  -1.060  -0.644  0.00  0.00     0.062 H 
ATOM     34  C   LIG d   1       3.183  -1.316  -3.345  0.00  0.00    -0.058 A 
ATOM     35  H   LIG d   1       3.983  -2.747  -1.973  0.00  0.00     0.062 H 
ATOM     36  H   LIG d   1       2.656  -2.056  -3.929  0.00  0.00     0.062 H 
ENDBRANCH  23  26
ENDBRANCH  20  23
ENDBRANCH   1  18
BRANCH  11  37
ATOM     37  C   LIG d   1       7.145   0.981  -7.500  0.00  0.00     0.025 C 
ATOM     38  H   LIG d   1       7.689   1.374  -8.359  0.00  0.00     0.048 H 
ATOM     39  H   LIG d   1       6.125   1.364  -7.509  0.00  0.00     0.048 H 
BRANCH  37  40
ATOM     40  C   LIG d   1       7.832   1.411  -6.230  0.00  0.00    -0.033 A 
ATOM     41  C   LIG d   1       7.407   0.915  -5.012  0.00  0.00    -0.055 A 
ATOM     42  C   LIG d   1       8.039   1.305  -3.847  0.00  0.00    -0.026 A 
ATOM     43  H   LIG d   1       6.582   0.219  -4.972  0.00  0.00     0.062 H 
ATOM     44  C   LIG d   1       9.093   2.202  -3.899  0.00  0.00     0.123 A 
ATOM     45  H   LIG d   1       7.710   0.914  -2.896  0.00  0.00     0.065 H 
ATOM     46  C   LIG d   1       9.515   2.703  -5.119  0.00  0.00    -0.026 A 
ATOM     47  F   LIG d   1       9.710   2.588  -2.760  0.00  0.00    -0.205 F 
ATOM     48  C   LIG d   1       8.884   2.307  -6.284  0.00  0.00    -0.055 A 
ATOM     49  H   LIG d   1      10.336   3.403  -5.160  0.00  0.00     0.065 H 
ATOM     50  H   LIG d   1       9.212   2.697  -7.235  0.00  0.00     0.062 H 
ENDBRANCH  37  40
ENDBRANCH  11  37
TORSDOF 5
ENDMDL
MODEL 6
REMARK VINA RESULT:      -7.3      4.579      7.163
REMARK  5 active torsions:
REMARK  status: ('A' for Active; 'I' for Inactive)
REMARK    1  A    between atoms: C_4  and  C_7 
REMARK    2  A    between atoms: C_7  and  C_8 
REMARK    3  A    between atoms: C_10  and  C_13 
REMARK    4  A    between atoms: N_23  and  C_24 
REMARK    5  A    between atoms: C_24  and  C_25 
ROOT
ATOM      1  C   LIG d   1       8.793   0.496  -6.209  0.00  0.00     0.098 C 
ATOM      2  H   LIG d   1       9.707   0.151  -6.692  0.00  0.00     0.057 H 
ATOM      3  C   LIG d   1       9.151   1.358  -4.991  0.00  0.00     0.037 C 
ATOM      4  C   LIG d   1       9.714   2.661  -5.497  0.00  0.00     0.148 A 
ATOM      5  C   LIG d   1       9.578   3.088  -6.773  0.00  0.00     0.159 A 
ATOM      6  N   LIG d   1      10.191   4.266  -6.880  0.00  0.00    -0.246 N 
ATOM      7  C   LIG d   1      10.704   4.591  -5.720  0.00  0.00     0.243 A 
ATOM      8  N   LIG d   1      10.423   3.609  -4.831  0.00  0.00    -0.247 N 
ATOM      9  H   LIG d   1      10.680   3.587  -3.895  0.00  0.00     0.310 HD
ATOM     10  C   LIG d   1       8.839   2.308  -7.831  0.00  0.00     0.066 C 
ATOM     11  N   LIG d   1       8.008   1.292  -7.162  0.00  0.00    -0.279 N 
ATOM     12  H   LIG d   1       8.257   1.548  -4.398  0.00  0.00     0.037 H 
ATOM     13  H   LIG d   1       9.897   0.845  -4.383  0.00  0.00     0.037 H 
ATOM     14  H   LIG d   1      11.259   5.492  -5.508  0.00  0.00     0.158 H 
ATOM     15  H   LIG d   1       8.204   2.980  -8.409  0.00  0.00     0.051 H 
ATOM     16  H   LIG d   1       9.554   1.819  -8.494  0.00  0.00     0.051 H 
ATOM     17  H   LIG d   1      10.250   4.799  -7.689  0.00  0.00     0.310 HD
ENDROOT
BRANCH   1  18
ATOM     18  C   LIG d   1       7.983  -0.694  -5.763  0.00  0.00     0.245 A 
ATOM     19  N   LIG d   1       6.912  -0.654  -5.020  0.00  0.00    -0.194 NA
ATOM     20  C   LIG d   1       6.447  -1.892  -4.817  0.00  0.00     0.176 A 
ATOM     21  N   LIG d   1       7.225  -2.739  -5.427  0.00  0.00    -0.061 NA
ATOM     22  O   LIG d   1       8.240  -1.974  -6.060  0.00  0.00    -0.336 OA
BRANCH  20  23
ATOM     23  C   LIG d   1       5.226  -2.249  -4.009  0.00  0.00     0.036 C 
ATOM     24  H   LIG d   1       5.513  -2.905  -3.187  0.00  0.00     0.039 H 
ATOM     25  H   LIG d   1       4.505  -2.758  -4.647  0.00  0.00     0.039 H 
BRANCH  23  26
ATOM     26  C   LIG d   1       4.606  -0.991  -3.456  0.00  0.00    -0.040 A 
ATOM     27  C   LIG d   1       4.977  -0.529  -2.207  0.00  0.00    -0.058 A 
ATOM     28  C   LIG d   1       4.410   0.625  -1.701  0.00  0.00    -0.061 A 
ATOM     29  H   LIG d   1       5.711  -1.069  -1.628  0.00  0.00     0.062 H 
ATOM     30  C   LIG d   1       3.471   1.317  -2.443  0.00  0.00    -0.062 A 
ATOM     31  H   LIG d   1       4.699   0.986  -0.726  0.00  0.00     0.062 H 
ATOM     32  C   LIG d   1       3.100   0.855  -3.692  0.00  0.00    -0.061 A 
ATOM     33  H   LIG d   1       3.024   2.216  -2.046  0.00  0.00     0.062 H 
ATOM     34  C   LIG d   1       3.667  -0.299  -4.198  0.00  0.00    -0.058 A 
ATOM     35  H   LIG d   1       2.367   1.396  -4.272  0.00  0.00     0.062 H 
ATOM     36  H   LIG d   1       3.377  -0.661  -5.174  0.00  0.00     0.062 H 
ENDBRANCH  23  26
ENDBRANCH  20  23
ENDBRANCH   1  18
BRANCH  11  37
ATOM     37  C   LIG d   1       7.338   0.429  -8.145  0.00  0.00     0.025 C 
ATOM     38  H   LIG d   1       7.876   0.473  -9.092  0.00  0.00     0.048 H 
ATOM     39  H   LIG d   1       7.328  -0.598  -7.780  0.00  0.00     0.048 H 
BRANCH  37  40
ATOM     40  C   LIG d   1       5.923   0.904  -8.348  0.00  0.00    -0.033 A 
ATOM     41  C   LIG d   1       4.870   0.194  -7.801  0.00  0.00    -0.055 A 
ATOM     42  C   LIG d   1       3.572   0.631  -7.982  0.00  0.00    -0.026 A 
ATOM     43  H   LIG d   1       5.064  -0.701  -7.228  0.00  0.00     0.062 H 
ATOM     44  C   LIG d   1       3.325   1.776  -8.721  0.00  0.00     0.123 A 
ATOM     45  H   LIG d   1       2.751   0.079  -7.550  0.00  0.00     0.065 H 
ATOM     46  C   LIG d   1       4.378   2.483  -9.274  0.00  0.00    -0.026 A 
ATOM     47  F   LIG d   1       2.055   2.202  -8.903  0.00  0.00    -0.205 F 
ATOM     48  C   LIG d   1       5.677   2.046  -9.087  0.00  0.00    -0.055 A 
ATOM     49  H   LIG d   1       4.186   3.375  -9.851  0.00  0.00     0.065 H 
ATOM     50  H   LIG d   1       6.499   2.598  -9.518  0.00  0.00     0.062 H 
ENDBRANCH  37  40
ENDBRANCH  11  37
TORSDOF 5
ENDMDL
MODEL 7
REMARK VINA RESULT:      -7.3      3.565      7.504
REMARK  5 active torsions:
REMARK  status: ('A' for Active; 'I' for Inactive)
REMARK    1  A    between atoms: C_4  and  C_7 
REMARK    2  A    between atoms: C_7  and  C_8 
REMARK    3  A    between atoms: C_10  and  C_13 
REMARK    4  A    between atoms: N_23  and  C_24 
REMARK    5  A    between atoms: C_24  and  C_25 
ROOT
ATOM      1  C   LIG d   1       5.222  -2.712  -4.705  0.00  0.00     0.098 C 
ATOM      2  H   LIG d   1       6.297  -2.614  -4.557  0.00  0.00     0.057 H 
ATOM      3  C   LIG d   1       4.505  -2.566  -3.355  0.00  0.00     0.037 C 
ATOM      4  C   LIG d   1       4.604  -1.123  -2.933  0.00  0.00     0.148 A 
ATOM      5  C   LIG d   1       4.949  -0.121  -3.773  0.00  0.00     0.159 A 
ATOM      6  N   LIG d   1       4.943   1.018  -3.079  0.00  0.00    -0.246 N 
ATOM      7  C   LIG d   1       4.607   0.764  -1.841  0.00  0.00     0.243 A 
ATOM      8  N   LIG d   1       4.387  -0.566  -1.713  0.00  0.00    -0.247 N 
ATOM      9  H   LIG d   1       4.124  -1.033  -0.904  0.00  0.00     0.310 HD
ATOM     10  C   LIG d   1       5.266  -0.338  -5.231  0.00  0.00     0.066 C 
ATOM     11  N   LIG d   1       4.758  -1.663  -5.624  0.00  0.00    -0.279 N 
ATOM     12  H   LIG d   1       3.457  -2.847  -3.462  0.00  0.00     0.037 H 
ATOM     13  H   LIG d   1       4.985  -3.202  -2.611  0.00  0.00     0.037 H 
ATOM     14  H   LIG d   1       4.520   1.495  -1.051  0.00  0.00     0.158 H 
ATOM     15  H   LIG d   1       4.783   0.434  -5.832  0.00  0.00     0.051 H 
ATOM     16  H   LIG d   1       6.345  -0.298  -5.383  0.00  0.00     0.051 H 
ATOM     17  H   LIG d   1       5.155   1.895  -3.436  0.00  0.00     0.310 HD
ENDROOT
BRANCH   1  18
ATOM     18  C   LIG d   1       4.917  -4.065  -5.292  0.00  0.00     0.245 A 
ATOM     19  N   LIG d   1       5.781  -5.017  -5.508  0.00  0.00    -0.194 NA
ATOM     20  C   LIG d   1       5.169  -6.082  -6.038  0.00  0.00     0.176 A 
ATOM     21  N   LIG d   1       3.902  -5.816  -6.172  0.00  0.00    -0.061 NA
ATOM     22  O   LIG d   1       3.711  -4.497  -5.684  0.00  0.00    -0.336 OA
BRANCH  20  23
ATOM     23  C   LIG d   1       5.838  -7.377  -6.423  0.00  0.00     0.036 C 
ATOM     24  H   LIG d   1       6.864  -7.177  -6.734  0.00  0.00     0.039 H 
ATOM     25  H   LIG d   1       5.291  -7.838  -7.244  0.00  0.00     0.039 H 
BRANCH  23  26
ATOM     26  C   LIG d   1       5.845  -8.309  -5.238  0.00  0.00    -0.040 A 
ATOM     27  C   LIG d   1       7.002  -8.482  -4.502  0.00  0.00    -0.058 A 
ATOM     28  C   LIG d   1       7.008  -9.336  -3.415  0.00  0.00    -0.061 A 
ATOM     29  H   LIG d   1       7.901  -7.950  -4.776  0.00  0.00     0.062 H 
ATOM     30  C   LIG d   1       5.856 -10.016  -3.064  0.00  0.00    -0.062 A 
ATOM     31  H   LIG d   1       7.911  -9.472  -2.840  0.00  0.00     0.062 H 
ATOM     32  C   LIG d   1       4.700  -9.842  -3.800  0.00  0.00    -0.061 A 
ATOM     33  H   LIG d   1       5.862 -10.686  -2.217  0.00  0.00     0.062 H 
ATOM     34  C   LIG d   1       4.694  -8.989  -4.887  0.00  0.00    -0.058 A 
ATOM     35  H   LIG d   1       3.800 -10.373  -3.525  0.00  0.00     0.062 H 
ATOM     36  H   LIG d   1       3.790  -8.853  -5.463  0.00  0.00     0.062 H 
ENDBRANCH  23  26
ENDBRANCH  20  23
ENDBRANCH   1  18
BRANCH  11  37
ATOM     37  C   LIG d   1       5.126  -1.978  -7.011  0.00  0.00     0.025 C 
ATOM     38  H   LIG d   1       6.005  -1.399  -7.294  0.00  0.00     0.048 H 
ATOM     39  H   LIG d   1       5.348  -3.042  -7.095  0.00  0.00     0.048 H 
BRANCH  37  40
ATOM     40  C   LIG d   1       3.980  -1.631  -7.925  0.00  0.00    -0.033 A 
ATOM     41  C   LIG d   1       3.427  -0.364  -7.891  0.00  0.00    -0.055 A 
ATOM     42  C   LIG d   1       2.379  -0.042  -8.732  0.00  0.00    -0.026 A 
ATOM     43  H   LIG d   1       3.818   0.376  -7.207  0.00  0.00     0.062 H 
ATOM     44  C   LIG d   1       1.875  -0.994  -9.604  0.00  0.00     0.123 A 
ATOM     45  H   LIG d   1       1.951   0.948  -8.708  0.00  0.00     0.065 H 
ATOM     46  C   LIG d   1       2.425  -2.264  -9.635  0.00  0.00    -0.026 A 
ATOM     47  F   LIG d   1       0.848  -0.682 -10.424  0.00  0.00    -0.205 F 
ATOM     48  C   LIG d   1       3.477  -2.581  -8.795  0.00  0.00    -0.055 A 
ATOM     49  H   LIG d   1       2.033  -3.005 -10.314  0.00  0.00     0.065 H 
ATOM     50  H   LIG d   1       3.907  -3.571  -8.819  0.00  0.00     0.062 H 
ENDBRANCH  37  40
ENDBRANCH  11  37
TORSDOF 5
ENDMDL
MODEL 8
REMARK VINA RESULT:      -7.2      2.648      3.379
REMARK  5 active torsions:
REMARK  status: ('A' for Active; 'I' for Inactive)
REMARK    1  A    between atoms: C_4  and  C_7 
REMARK    2  A    between atoms: C_7  and  C_8 
REMARK    3  A    between atoms: C_10  and  C_13 
REMARK    4  A    between atoms: N_23  and  C_24 
REMARK    5  A    between atoms: C_24  and  C_25 
ROOT
ATOM      1  C   LIG d   1       2.999   0.644  -8.926  0.00  0.00     0.098 C 
ATOM      2  H   LIG d   1       2.682   1.565  -9.414  0.00  0.00     0.057 H 
ATOM      3  C   LIG d   1       2.114  -0.518  -9.399  0.00  0.00     0.037 C 
ATOM      4  C   LIG d   1       2.472  -0.818 -10.831  0.00  0.00     0.148 A 
ATOM      5  C   LIG d   1       3.600  -0.371 -11.428  0.00  0.00     0.159 A 
ATOM      6  N   LIG d   1       3.602  -0.813 -12.686  0.00  0.00    -0.246 N 
ATOM      7  C   LIG d   1       2.520  -1.518 -12.895  0.00  0.00     0.243 A 
ATOM      8  N   LIG d   1       1.790  -1.543 -11.755  0.00  0.00    -0.247 N 
ATOM      9  H   LIG d   1       0.940  -1.993 -11.624  0.00  0.00     0.310 HD
ATOM     10  C   LIG d   1       4.631   0.472 -10.721  0.00  0.00     0.066 C 
ATOM     11  N   LIG d   1       4.401   0.366  -9.270  0.00  0.00    -0.279 N 
ATOM     12  H   LIG d   1       2.298  -1.396  -8.781  0.00  0.00     0.037 H 
ATOM     13  H   LIG d   1       1.064  -0.232  -9.333  0.00  0.00     0.037 H 
ATOM     14  H   LIG d   1       2.253  -2.000 -13.823  0.00  0.00     0.158 H 
ATOM     15  H   LIG d   1       5.632   0.110 -10.962  0.00  0.00     0.051 H 
ATOM     16  H   LIG d   1       4.533   1.512 -11.034  0.00  0.00     0.051 H 
ATOM     17  H   LIG d   1       4.296  -0.640 -13.342  0.00  0.00     0.310 HD
ENDROOT
BRANCH   1  18
ATOM     18  C   LIG d   1       2.871   0.798  -7.432  0.00  0.00     0.245 A 
ATOM     19  N   LIG d   1       3.025  -0.149  -6.550  0.00  0.00    -0.194 NA
ATOM     20  C   LIG d   1       2.840   0.337  -5.317  0.00  0.00     0.176 A 
ATOM     21  N   LIG d   1       2.559   1.605  -5.402  0.00  0.00    -0.061 NA
ATOM     22  O   LIG d   1       2.578   1.933  -6.783  0.00  0.00    -0.336 OA
BRANCH  20  23
ATOM     23  C   LIG d   1       2.936  -0.456  -4.039  0.00  0.00     0.036 C 
ATOM     24  H   LIG d   1       2.293  -1.333  -4.106  0.00  0.00     0.039 H 
ATOM     25  H   LIG d   1       2.618   0.165  -3.202  0.00  0.00     0.039 H 
BRANCH  23  26
ATOM     26  C   LIG d   1       4.363  -0.893  -3.826  0.00  0.00    -0.040 A 
ATOM     27  C   LIG d   1       5.338   0.043  -3.537  0.00  0.00    -0.058 A 
ATOM     28  C   LIG d   1       6.645  -0.359  -3.340  0.00  0.00    -0.061 A 
ATOM     29  H   LIG d   1       5.077   1.088  -3.464  0.00  0.00     0.062 H 
ATOM     30  C   LIG d   1       6.978  -1.698  -3.433  0.00  0.00    -0.062 A 
ATOM     31  H   LIG d   1       7.407   0.372  -3.115  0.00  0.00     0.062 H 
ATOM     32  C   LIG d   1       6.003  -2.634  -3.721  0.00  0.00    -0.061 A 
ATOM     33  H   LIG d   1       8.001  -2.011  -3.284  0.00  0.00     0.062 H 
ATOM     34  C   LIG d   1       4.696  -2.233  -3.918  0.00  0.00    -0.058 A 
ATOM     35  H   LIG d   1       6.264  -3.680  -3.793  0.00  0.00     0.062 H 
ATOM     36  H   LIG d   1       3.934  -2.964  -4.144  0.00  0.00     0.062 H 
ENDBRANCH  23  26
ENDBRANCH  20  23
ENDBRANCH   1  18
BRANCH  11  37
ATOM     37  C   LIG d   1       5.311   1.248  -8.526  0.00  0.00     0.025 C 
ATOM     38  H   LIG d   1       5.782   1.948  -9.216  0.00  0.00     0.048 H 
ATOM     39  H   LIG d   1       4.748   1.801  -7.775  0.00  0.00     0.048 H 
BRANCH  37  40
ATOM     40  C   LIG d   1       6.372   0.419  -7.850  0.00  0.00    -0.033 A 
ATOM     41  C   LIG d   1       6.224  -0.953  -7.759  0.00  0.00    -0.055 A 
ATOM     42  C   LIG d   1       7.198  -1.715  -7.144  0.00  0.00    -0.026 A 
ATOM     43  H   LIG d   1       5.346  -1.429  -8.173  0.00  0.00     0.062 H 
ATOM     44  C   LIG d   1       8.319  -1.103  -6.609  0.00  0.00     0.123 A 
ATOM     45  H   LIG d   1       7.084  -2.787  -7.077  0.00  0.00     0.065 H 
ATOM     46  C   LIG d   1       8.465   0.271  -6.695  0.00  0.00    -0.026 A 
ATOM     47  F   LIG d   1       9.271  -1.847  -6.003  0.00  0.00    -0.205 F 
ATOM     48  C   LIG d   1       7.491   1.031  -7.316  0.00  0.00    -0.055 A 
ATOM     49  H   LIG d   1       9.338   0.748  -6.278  0.00  0.00     0.065 H 
ATOM     50  H   LIG d   1       7.604   2.102  -7.384  0.00  0.00     0.062 H 
ENDBRANCH  37  40
ENDBRANCH  11  37
TORSDOF 5
ENDMDL
MODEL 9
REMARK VINA RESULT:      -7.2      3.220      4.957
REMARK  5 active torsions:
REMARK  status: ('A' for Active; 'I' for Inactive)
REMARK    1  A    between atoms: C_4  and  C_7 
REMARK    2  A    between atoms: C_7  and  C_8 
REMARK    3  A    between atoms: C_10  and  C_13 
REMARK    4  A    between atoms: N_23  and  C_24 
REMARK    5  A    between atoms: C_24  and  C_25 
ROOT
ATOM      1  C   LIG d   1       4.731  -3.908  -8.252  0.00  0.00     0.098 C 
ATOM      2  H   LIG d   1       3.873  -4.550  -8.449  0.00  0.00     0.057 H 
ATOM      3  C   LIG d   1       5.998  -4.556  -8.829  0.00  0.00     0.037 C 
ATOM      4  C   LIG d   1       5.917  -4.471 -10.331  0.00  0.00     0.148 A 
ATOM      5  C   LIG d   1       5.058  -3.658 -10.988  0.00  0.00     0.159 A 
ATOM      6  N   LIG d   1       5.247  -3.831 -12.296  0.00  0.00    -0.246 N 
ATOM      7  C   LIG d   1       6.190  -4.720 -12.480  0.00  0.00     0.243 A 
ATOM      8  N   LIG d   1       6.633  -5.140 -11.271  0.00  0.00    -0.247 N 
ATOM      9  H   LIG d   1       7.330  -5.796 -11.108  0.00  0.00     0.310 HD
ATOM     10  C   LIG d   1       4.089  -2.740 -10.286  0.00  0.00     0.066 C 
ATOM     11  N   LIG d   1       4.517  -2.599  -8.884  0.00  0.00    -0.279 N 
ATOM     12  H   LIG d   1       6.879  -4.021  -8.476  0.00  0.00     0.037 H 
ATOM     13  H   LIG d   1       6.050  -5.601  -8.521  0.00  0.00     0.037 H 
ATOM     14  H   LIG d   1       6.554  -5.060 -13.437  0.00  0.00     0.158 H 
ATOM     15  H   LIG d   1       4.091  -1.763 -10.771  0.00  0.00     0.051 H 
ATOM     16  H   LIG d   1       3.086  -3.166 -10.324  0.00  0.00     0.051 H 
ATOM     17  H   LIG d   1       4.762  -3.373 -13.000  0.00  0.00     0.310 HD
ENDROOT
BRANCH   1  18
ATOM     18  C   LIG d   1       4.891  -3.728  -6.765  0.00  0.00     0.245 A 
ATOM     19  N   LIG d   1       5.858  -3.083  -6.173  0.00  0.00    -0.194 NA
ATOM     20  C   LIG d   1       5.690  -3.119  -4.846  0.00  0.00     0.176 A 
ATOM     21  N   LIG d   1       4.611  -3.796  -4.577  0.00  0.00    -0.061 NA
ATOM     22  O   LIG d   1       4.066  -4.202  -5.824  0.00  0.00    -0.336 OA
BRANCH  20  23
ATOM     23  C   LIG d   1       6.603  -2.484  -3.829  0.00  0.00     0.036 C 
ATOM     24  H   LIG d   1       7.521  -2.160  -4.318  0.00  0.00     0.039 H 
ATOM     25  H   LIG d   1       6.840  -3.210  -3.052  0.00  0.00     0.039 H 
BRANCH  23  26
ATOM     26  C   LIG d   1       5.915  -1.294  -3.211  0.00  0.00    -0.040 A 
ATOM     27  C   LIG d   1       6.342  -0.014  -3.513  0.00  0.00    -0.058 A 
ATOM     28  C   LIG d   1       5.711   1.077  -2.947  0.00  0.00    -0.061 A 
ATOM     29  H   LIG d   1       7.170   0.132  -4.191  0.00  0.00     0.062 H 
ATOM     30  C   LIG d   1       4.650   0.889  -2.080  0.00  0.00    -0.062 A 
ATOM     31  H   LIG d   1       6.045   2.076  -3.182  0.00  0.00     0.062 H 
ATOM     32  C   LIG d   1       4.222  -0.390  -1.780  0.00  0.00    -0.061 A 
ATOM     33  H   LIG d   1       4.159   1.741  -1.635  0.00  0.00     0.062 H 
ATOM     34  C   LIG d   1       4.854  -1.482  -2.344  0.00  0.00    -0.058 A 
ATOM     35  H   LIG d   1       3.393  -0.537  -1.102  0.00  0.00     0.062 H 
ATOM     36  H   LIG d   1       4.520  -2.482  -2.109  0.00  0.00     0.062 H 
ENDBRANCH  23  26
ENDBRANCH  20  23
ENDBRANCH   1  18
BRANCH  11  37
ATOM     37  C   LIG d   1       3.554  -1.796  -8.118  0.00  0.00     0.025 C 
ATOM     38  H   LIG d   1       2.540  -2.089  -8.389  0.00  0.00     0.048 H 
ATOM     39  H   LIG d   1       3.708  -1.963  -7.052  0.00  0.00     0.048 H 
BRANCH  37  40
ATOM     40  C   LIG d   1       3.756  -0.336  -8.432  0.00  0.00    -0.033 A 
ATOM     41  C   LIG d   1       5.035   0.186  -8.500  0.00  0.00    -0.055 A 
ATOM     42  C   LIG d   1       5.222   1.523  -8.793  0.00  0.00    -0.026 A 
ATOM     43  H   LIG d   1       5.888  -0.454  -8.327  0.00  0.00     0.062 H 
ATOM     44  C   LIG d   1       4.127   2.344  -9.009  0.00  0.00     0.123 A 
ATOM     45  H   LIG d   1       6.221   1.929  -8.850  0.00  0.00     0.065 H 
ATOM     46  C   LIG d   1       2.847   1.822  -8.935  0.00  0.00    -0.026 A 
ATOM     47  F   LIG d   1       4.309   3.653  -9.290  0.00  0.00    -0.205 F 
ATOM     48  C   LIG d   1       2.663   0.482  -8.647  0.00  0.00    -0.055 A 
ATOM     49  H   LIG d   1       1.993   2.461  -9.103  0.00  0.00     0.065 H 
ATOM     50  H   LIG d   1       1.665   0.075  -8.590  0.00  0.00     0.062 H 
ENDBRANCH  37  40
ENDBRANCH  11  37
TORSDOF 5
ENDMDL
MODEL 10
REMARK VINA RESULT:      -7.0      3.374      7.219
REMARK  5 active torsions:
REMARK  status: ('A' for Active; 'I' for Inactive)
REMARK    1  A    between atoms: C_4  and  C_7 
REMARK    2  A    between atoms: C_7  and  C_8 
REMARK    3  A    between atoms: C_10  and  C_13 
REMARK    4  A    between atoms: N_23  and  C_24 
REMARK    5  A    between atoms: C_24  and  C_25 
ROOT
ATOM      1  C   LIG d   1       6.424  -2.622  -6.451  0.00  0.00     0.098 C 
ATOM      2  H   LIG d   1       6.562  -1.553  -6.286  0.00  0.00     0.057 H 
ATOM      3  C   LIG d   1       7.712  -3.218  -7.038  0.00  0.00     0.037 C 
ATOM      4  C   LIG d   1       8.752  -3.231  -5.949  0.00  0.00     0.148 A 
ATOM      5  C   LIG d   1       8.463  -3.074  -4.637  0.00  0.00     0.159 A 
ATOM      6  N   LIG d   1       9.607  -3.133  -3.954  0.00  0.00    -0.246 N 
ATOM      7  C   LIG d   1      10.597  -3.321  -4.789  0.00  0.00     0.243 A 
ATOM      8  N   LIG d   1      10.098  -3.388  -6.047  0.00  0.00    -0.247 N 
ATOM      9  H   LIG d   1      10.607  -3.523  -6.863  0.00  0.00     0.310 HD
ATOM     10  C   LIG d   1       7.062  -2.877  -4.118  0.00  0.00     0.066 C 
ATOM     11  N   LIG d   1       6.116  -3.278  -5.173  0.00  0.00    -0.279 N 
ATOM     12  H   LIG d   1       7.523  -4.236  -7.380  0.00  0.00     0.037 H 
ATOM     13  H   LIG d   1       8.056  -2.605  -7.871  0.00  0.00     0.037 H 
ATOM     14  H   LIG d   1      11.638  -3.408  -4.520  0.00  0.00     0.158 H 
ATOM     15  H   LIG d   1       6.907  -3.493  -3.231  0.00  0.00     0.051 H 
ATOM     16  H   LIG d   1       6.907  -1.827  -3.866  0.00  0.00     0.051 H 
ATOM     17  H   LIG d   1       9.692  -3.049  -2.991  0.00  0.00     0.310 HD
ENDROOT
BRANCH   1  18
ATOM     18  C   LIG d   1       5.285  -2.838  -7.414  0.00  0.00     0.245 A 
ATOM     19  N   LIG d   1       4.462  -1.922  -7.842  0.00  0.00    -0.194 NA
ATOM     20  C   LIG d   1       3.574  -2.460  -8.686  0.00  0.00     0.176 A 
ATOM     21  N   LIG d   1       3.820  -3.734  -8.800  0.00  0.00    -0.061 NA
ATOM     22  O   LIG d   1       4.945  -4.004  -7.976  0.00  0.00    -0.336 OA
BRANCH  20  23
ATOM     23  C   LIG d   1       2.466  -1.716  -9.386  0.00  0.00     0.036 C 
ATOM     24  H   LIG d   1       1.555  -1.777  -8.790  0.00  0.00     0.039 H 
ATOM     25  H   LIG d   1       2.292  -2.160 -10.365  0.00  0.00     0.039 H 
BRANCH  23  26
ATOM     26  C   LIG d   1       2.861  -0.271  -9.553  0.00  0.00    -0.040 A 
ATOM     27  C   LIG d   1       3.563   0.129 -10.675  0.00  0.00    -0.058 A 
ATOM     28  C   LIG d   1       3.924   1.454 -10.830  0.00  0.00    -0.061 A 
ATOM     29  H   LIG d   1       3.828  -0.595 -11.431  0.00  0.00     0.062 H 
ATOM     30  C   LIG d   1       3.583   2.380  -9.861  0.00  0.00    -0.062 A 
ATOM     31  H   LIG d   1       4.472   1.766 -11.705  0.00  0.00     0.062 H 
ATOM     32  C   LIG d   1       2.880   1.981  -8.740  0.00  0.00    -0.061 A 
ATOM     33  H   LIG d   1       3.868   3.414  -9.979  0.00  0.00     0.062 H 
ATOM     34  C   LIG d   1       2.520   0.655  -8.585  0.00  0.00    -0.058 A 
ATOM     35  H   LIG d   1       2.614   2.705  -7.983  0.00  0.00     0.062 H 
ATOM     36  H   LIG d   1       1.972   0.343  -7.708  0.00  0.00     0.062 H 
ENDBRANCH  23  26
ENDBRANCH  20  23
ENDBRANCH   1  18
BRANCH  11  37
ATOM     37  C   LIG d   1       4.729  -3.013  -4.766  0.00  0.00     0.025 C 
ATOM     38  H   LIG d   1       4.133  -2.770  -5.646  0.00  0.00     0.048 H 
ATOM     39  H   LIG d   1       4.317  -3.898  -4.281  0.00  0.00     0.048 H 
BRANCH  37  40
ATOM     40  C   LIG d   1       4.701  -1.854  -3.804  0.00  0.00    -0.033 A 
ATOM     41  C   LIG d   1       4.389  -2.066  -2.474  0.00  0.00    -0.055 A 
ATOM     42  C   LIG d   1       4.367  -1.005  -1.590  0.00  0.00    -0.026 A 
ATOM     43  H   LIG d   1       4.165  -3.064  -2.126  0.00  0.00     0.062 H 
ATOM     44  C   LIG d   1       4.650   0.275  -2.038  0.00  0.00     0.123 A 
ATOM     45  H   LIG d   1       4.128  -1.172  -0.550  0.00  0.00     0.065 H 
ATOM     46  C   LIG d   1       4.957   0.488  -3.371  0.00  0.00    -0.026 A 
ATOM     47  F   LIG d   1       4.625   1.315  -1.176  0.00  0.00    -0.205 F 
ATOM     48  C   LIG d   1       4.982  -0.577  -4.253  0.00  0.00    -0.055 A 
ATOM     49  H   LIG d   1       5.176   1.485  -3.722  0.00  0.00     0.065 H 
ATOM     50  H   LIG d   1       5.222  -0.411  -5.292  0.00  0.00     0.062 H 
ENDBRANCH  37  40
ENDBRANCH  11  37
TORSDOF 5
ENDMDL
