MODEL 1
REMARK VINA RESULT:      -8.8      0.000      0.000
REMARK  4 active torsions:
REMARK  status: ('A' for Active; 'I' for Inactive)
REMARK    1  A    between atoms: C_4  and  S_9 
REMARK    2  A    between atoms: S_9  and  N_12 
REMARK    3  A    between atoms: C_23  and  C_28 
REMARK    4  A    between atoms: C_32  and  C_34 
ROOT
ATOM      1  C   LIG d   1      10.100  -2.565  -5.547  0.00  0.00    -0.060 A 
ATOM      2  C   LIG d   1       9.025  -2.937  -4.758  0.00  0.00    -0.060 A 
ATOM      3  C   LIG d   1       8.113  -1.988  -4.330  0.00  0.00    -0.034 A 
ATOM      4  C   LIG d   1       8.262  -0.667  -4.698  0.00  0.00     0.123 A 
ATOM      5  C   LIG d   1       9.343  -0.286  -5.495  0.00  0.00     0.078 A 
ATOM      6  C   LIG d   1      10.264  -1.248  -5.918  0.00  0.00    -0.042 A 
ATOM      7  C   LIG d   1       9.508   1.084  -5.877  0.00  0.00     0.101 C 
ATOM      8  N   LIG d   1       9.639   2.171  -6.180  0.00  0.00    -0.191 NA
ATOM      9  H   LIG d   1      10.810  -3.310  -5.874  0.00  0.00     0.062 H 
ATOM     10  H   LIG d   1       8.901  -3.970  -4.470  0.00  0.00     0.062 H 
ATOM     11  H   LIG d   1       7.279  -2.284  -3.710  0.00  0.00     0.064 H 
ATOM     12  H   LIG d   1      11.102  -0.960  -6.535  0.00  0.00     0.063 H 
ENDROOT
BRANCH   4  13
ATOM     13  S   LIG d   1       7.095   0.538  -4.158  0.00  0.00     0.062 S 
ATOM     14  O   LIG d   1       6.341   0.914  -5.302  0.00  0.00    -0.153 OA
ATOM     15  O   LIG d   1       7.817   1.480  -3.377  0.00  0.00    -0.153 OA
BRANCH  13  16
ATOM     16  N   LIG d   1       6.044  -0.224  -3.129  0.00  0.00    -0.176 N 
ATOM     17  C   LIG d   1       6.082  -1.686  -2.964  0.00  0.00     0.029 C 
ATOM     18  C   LIG d   1       4.668  -2.213  -3.263  0.00  0.00     0.014 C 
ATOM     19  H   LIG d   1       6.364  -1.938  -1.943  0.00  0.00     0.045 H 
ATOM     20  H   LIG d   1       6.795  -2.121  -3.665  0.00  0.00     0.045 H 
ATOM     21  C   LIG d   1       3.694  -1.567  -2.274  0.00  0.00    -0.038 C 
ATOM     22  H   LIG d   1       4.645  -3.299  -3.172  0.00  0.00     0.038 H 
ATOM     23  C   LIG d   1       4.311  -1.802  -4.672  0.00  0.00     0.026 A 
ATOM     24  C   LIG d   1       3.673  -0.060  -2.532  0.00  0.00    -0.008 C 
ATOM     25  H   LIG d   1       4.026  -1.760  -1.254  0.00  0.00     0.028 H 
ATOM     26  H   LIG d   1       2.696  -1.978  -2.420  0.00  0.00     0.028 H 
ATOM     27  C   LIG d   1       5.060   0.544  -2.359  0.00  0.00     0.025 C 
ATOM     28  H   LIG d   1       3.012   0.391  -1.792  0.00  0.00     0.033 H 
ATOM     29  C   LIG d   1       3.098   0.219  -3.908  0.00  0.00     0.030 C 
ATOM     30  H   LIG d   1       5.051   1.576  -2.711  0.00  0.00     0.045 H 
ATOM     31  H   LIG d   1       5.332   0.526  -1.303  0.00  0.00     0.045 H 
ATOM     32  N   LIG d   1       3.689  -0.631  -4.943  0.00  0.00    -0.311 N 
ATOM     33  H   LIG d   1       2.023   0.047  -3.883  0.00  0.00     0.050 H 
ATOM     34  H   LIG d   1       3.282   1.263  -4.163  0.00  0.00     0.050 H 
ATOM     35  C   LIG d   1       3.579  -0.202  -6.225  0.00  0.00     0.259 A 
ATOM     36  C   LIG d   1       3.975  -1.030  -7.298  0.00  0.00     0.047 A 
ATOM     37  O   LIG d   1       3.132   0.911  -6.452  0.00  0.00    -0.267 OA
ATOM     38  C   LIG d   1       4.527  -2.270  -7.013  0.00  0.00    -0.047 A 
ATOM     39  C   LIG d   1       4.693  -2.637  -5.678  0.00  0.00    -0.041 A 
ATOM     40  H   LIG d   1       4.821  -2.937  -7.809  0.00  0.00     0.063 H 
ATOM     41  H   LIG d   1       5.131  -3.595  -5.438  0.00  0.00     0.064 H 
BRANCH  36  42
ATOM     42  C   LIG d   1       3.803  -0.583  -8.699  0.00  0.00    -0.012 A 
ATOM     43  C   LIG d   1       2.810  -1.149  -9.499  0.00  0.00    -0.042 A 
ATOM     44  C   LIG d   1       2.655  -0.728 -10.803  0.00  0.00     0.055 A 
ATOM     45  H   LIG d   1       2.164  -1.915  -9.097  0.00  0.00     0.063 H 
ATOM     46  C   LIG d   1       3.483   0.254 -11.320  0.00  0.00    -0.050 A 
ATOM     47  C   LIG d   1       4.470   0.818 -10.532  0.00  0.00    -0.061 A 
ATOM     48  H   LIG d   1       3.357   0.580 -12.341  0.00  0.00     0.062 H 
ATOM     49  C   LIG d   1       4.631   0.410  -9.225  0.00  0.00    -0.054 A 
ATOM     50  H   LIG d   1       5.113   1.585 -10.940  0.00  0.00     0.062 H 
ATOM     51  H   LIG d   1       5.399   0.855  -8.609  0.00  0.00     0.062 H 
BRANCH  44  52
ATOM     52  C   LIG d   1       1.583  -1.339 -11.668  0.00  0.00     0.417 C 
ATOM     53  F   LIG d   1       1.314  -2.639 -11.229  0.00  0.00    -0.166 F 
ATOM     54  F   LIG d   1       0.419  -0.568 -11.582  0.00  0.00    -0.166 F 
ATOM     55  F   LIG d   1       2.020  -1.376 -12.997  0.00  0.00    -0.166 F 
ENDBRANCH  44  52
ENDBRANCH  36  42
ENDBRANCH  13  16
ENDBRANCH   4  13
TORSDOF 4
ENDMDL
MODEL 2
REMARK VINA RESULT:      -8.8      1.906      2.860
REMARK  4 active torsions:
REMARK  status: ('A' for Active; 'I' for Inactive)
REMARK    1  A    between atoms: C_4  and  S_9 
REMARK    2  A    between atoms: S_9  and  N_12 
REMARK    3  A    between atoms: C_23  and  C_28 
REMARK    4  A    between atoms: C_32  and  C_34 
ROOT
ATOM      1  C   LIG d   1      10.149   4.100  -4.150  0.00  0.00    -0.060 A 
ATOM      2  C   LIG d   1       9.627   3.227  -3.211  0.00  0.00    -0.060 A 
ATOM      3  C   LIG d   1       8.870   2.140  -3.614  0.00  0.00    -0.034 A 
ATOM      4  C   LIG d   1       8.643   1.913  -4.955  0.00  0.00     0.123 A 
ATOM      5  C   LIG d   1       9.167   2.789  -5.907  0.00  0.00     0.078 A 
ATOM      6  C   LIG d   1       9.925   3.888  -5.493  0.00  0.00    -0.042 A 
ATOM      7  C   LIG d   1       8.932   2.563  -7.301  0.00  0.00     0.101 C 
ATOM      8  N   LIG d   1       8.743   2.383  -8.407  0.00  0.00    -0.191 NA
ATOM      9  H   LIG d   1      10.735   4.948  -3.828  0.00  0.00     0.062 H 
ATOM     10  H   LIG d   1       9.806   3.398  -2.160  0.00  0.00     0.062 H 
ATOM     11  H   LIG d   1       8.462   1.466  -2.876  0.00  0.00     0.064 H 
ATOM     12  H   LIG d   1      10.334   4.569  -6.224  0.00  0.00     0.063 H 
ENDROOT
BRANCH   4  13
ATOM     13  S   LIG d   1       7.685   0.524  -5.466  0.00  0.00     0.062 S 
ATOM     14  O   LIG d   1       8.607  -0.469  -5.892  0.00  0.00    -0.153 OA
ATOM     15  O   LIG d   1       6.661   1.027  -6.313  0.00  0.00    -0.153 OA
BRANCH  13  16
ATOM     16  N   LIG d   1       6.933  -0.075  -4.118  0.00  0.00    -0.176 N 
ATOM     17  C   LIG d   1       7.037  -1.501  -3.771  0.00  0.00     0.029 C 
ATOM     18  C   LIG d   1       5.603  -2.042  -3.640  0.00  0.00     0.014 C 
ATOM     19  H   LIG d   1       7.565  -1.618  -2.826  0.00  0.00     0.045 H 
ATOM     20  H   LIG d   1       7.564  -2.038  -4.560  0.00  0.00     0.045 H 
ATOM     21  C   LIG d   1       4.890  -1.253  -2.538  0.00  0.00    -0.038 C 
ATOM     22  H   LIG d   1       5.623  -3.105  -3.400  0.00  0.00     0.038 H 
ATOM     23  C   LIG d   1       4.904  -1.820  -4.961  0.00  0.00     0.026 A 
ATOM     24  C   LIG d   1       4.779   0.205  -2.985  0.00  0.00    -0.008 C 
ATOM     25  H   LIG d   1       5.465  -1.312  -1.614  0.00  0.00     0.028 H 
ATOM     26  H   LIG d   1       3.894  -1.665  -2.378  0.00  0.00     0.028 H 
ATOM     27  C   LIG d   1       6.154   0.805  -3.240  0.00  0.00     0.025 C 
ATOM     28  H   LIG d   1       4.311   0.762  -2.172  0.00  0.00     0.033 H 
ATOM     29  C   LIG d   1       3.879   0.304  -4.202  0.00  0.00     0.030 C 
ATOM     30  H   LIG d   1       6.040   1.780  -3.715  0.00  0.00     0.045 H 
ATOM     31  H   LIG d   1       6.677   0.926  -2.291  0.00  0.00     0.045 H 
ATOM     32  N   LIG d   1       4.213  -0.687  -5.226  0.00  0.00    -0.311 N 
ATOM     33  H   LIG d   1       2.845   0.154  -3.890  0.00  0.00     0.050 H 
ATOM     34  H   LIG d   1       3.975   1.302  -4.632  0.00  0.00     0.050 H 
ATOM     35  C   LIG d   1       3.783  -0.433  -6.487  0.00  0.00     0.259 A 
ATOM     36  C   LIG d   1       3.919  -1.405  -7.502  0.00  0.00     0.047 A 
ATOM     37  O   LIG d   1       3.275   0.645  -6.746  0.00  0.00    -0.267 OA
ATOM     38  C   LIG d   1       4.547  -2.604  -7.197  0.00  0.00    -0.047 A 
ATOM     39  C   LIG d   1       5.043  -2.790  -5.907  0.00  0.00    -0.041 A 
ATOM     40  H   LIG d   1       4.649  -3.378  -7.944  0.00  0.00     0.063 H 
ATOM     41  H   LIG d   1       5.543  -3.713  -5.655  0.00  0.00     0.064 H 
BRANCH  36  42
ATOM     42  C   LIG d   1       3.401  -1.150  -8.866  0.00  0.00    -0.012 A 
ATOM     43  C   LIG d   1       4.274  -1.119  -9.953  0.00  0.00    -0.042 A 
ATOM     44  C   LIG d   1       3.786  -0.881 -11.221  0.00  0.00     0.055 A 
ATOM     45  H   LIG d   1       5.331  -1.281  -9.802  0.00  0.00     0.063 H 
ATOM     46  C   LIG d   1       2.431  -0.673 -11.416  0.00  0.00    -0.050 A 
ATOM     47  C   LIG d   1       1.560  -0.703 -10.342  0.00  0.00    -0.061 A 
ATOM     48  H   LIG d   1       2.054  -0.488 -12.410  0.00  0.00     0.062 H 
ATOM     49  C   LIG d   1       2.036  -0.945  -9.070  0.00  0.00    -0.054 A 
ATOM     50  H   LIG d   1       0.504  -0.541 -10.500  0.00  0.00     0.062 H 
ATOM     51  H   LIG d   1       1.354  -0.972  -8.233  0.00  0.00     0.062 H 
BRANCH  44  52
ATOM     52  C   LIG d   1       4.728  -0.847 -12.396  0.00  0.00     0.417 C 
ATOM     53  F   LIG d   1       4.174  -0.066 -13.416  0.00  0.00    -0.166 F 
ATOM     54  F   LIG d   1       5.951  -0.294 -11.999  0.00  0.00    -0.166 F 
ATOM     55  F   LIG d   1       4.936  -2.149 -12.865  0.00  0.00    -0.166 F 
ENDBRANCH  44  52
ENDBRANCH  36  42
ENDBRANCH  13  16
ENDBRANCH   4  13
TORSDOF 4
ENDMDL
MODEL 3
REMARK VINA RESULT:      -8.7      4.629      7.761
REMARK  4 active torsions:
REMARK  status: ('A' for Active; 'I' for Inactive)
REMARK    1  A    between atoms: C_4  and  S_9 
REMARK    2  A    between atoms: S_9  and  N_12 
REMARK    3  A    between atoms: C_23  and  C_28 
REMARK    4  A    between atoms: C_32  and  C_34 
ROOT
ATOM      1  C   LIG d   1       7.298  -0.598 -15.590  0.00  0.00    -0.060 A 
ATOM      2  C   LIG d   1       5.940  -0.821 -15.445  0.00  0.00    -0.060 A 
ATOM      3  C   LIG d   1       5.392  -0.990 -14.186  0.00  0.00    -0.034 A 
ATOM      4  C   LIG d   1       6.194  -0.925 -13.066  0.00  0.00     0.123 A 
ATOM      5  C   LIG d   1       7.565  -0.701 -13.205  0.00  0.00     0.078 A 
ATOM      6  C   LIG d   1       8.113  -0.537 -14.480  0.00  0.00    -0.042 A 
ATOM      7  C   LIG d   1       8.405  -0.637 -12.048  0.00  0.00     0.101 C 
ATOM      8  N   LIG d   1       9.072  -0.588 -11.129  0.00  0.00    -0.191 NA
ATOM      9  H   LIG d   1       7.720  -0.472 -16.577  0.00  0.00     0.062 H 
ATOM     10  H   LIG d   1       5.306  -0.868 -16.318  0.00  0.00     0.062 H 
ATOM     11  H   LIG d   1       4.331  -1.168 -14.080  0.00  0.00     0.064 H 
ATOM     12  H   LIG d   1       9.172  -0.362 -14.595  0.00  0.00     0.063 H 
ENDROOT
BRANCH   4  13
ATOM     13  S   LIG d   1       5.492  -1.134 -11.463  0.00  0.00     0.062 S 
ATOM     14  O   LIG d   1       5.429   0.159 -10.876  0.00  0.00    -0.153 OA
ATOM     15  O   LIG d   1       6.185  -2.215 -10.854  0.00  0.00    -0.153 OA
BRANCH  13  16
ATOM     16  N   LIG d   1       3.928  -1.633 -11.674  0.00  0.00    -0.176 N 
ATOM     17  C   LIG d   1       2.837  -0.654 -11.802  0.00  0.00     0.029 C 
ATOM     18  C   LIG d   1       1.791  -0.996 -10.726  0.00  0.00     0.014 C 
ATOM     19  H   LIG d   1       2.387  -0.724 -12.792  0.00  0.00     0.045 H 
ATOM     20  H   LIG d   1       3.221   0.353 -11.638  0.00  0.00     0.045 H 
ATOM     21  C   LIG d   1       1.290  -2.421 -10.977  0.00  0.00    -0.038 C 
ATOM     22  H   LIG d   1       0.966  -0.285 -10.767  0.00  0.00     0.038 H 
ATOM     23  C   LIG d   1       2.474  -0.924  -9.381  0.00  0.00     0.026 A 
ATOM     24  C   LIG d   1       2.462  -3.385 -10.784  0.00  0.00    -0.008 C 
ATOM     25  H   LIG d   1       0.912  -2.503 -11.996  0.00  0.00     0.028 H 
ATOM     26  H   LIG d   1       0.497  -2.661 -10.270  0.00  0.00     0.028 H 
ATOM     27  C   LIG d   1       3.599  -3.062 -11.743  0.00  0.00     0.025 C 
ATOM     28  H   LIG d   1       2.101  -4.388 -11.010  0.00  0.00     0.033 H 
ATOM     29  C   LIG d   1       2.913  -3.362  -9.336  0.00  0.00     0.030 C 
ATOM     30  H   LIG d   1       4.478  -3.648 -11.471  0.00  0.00     0.045 H 
ATOM     31  H   LIG d   1       3.298  -3.315 -12.760  0.00  0.00     0.045 H 
ATOM     32  N   LIG d   1       3.073  -2.002  -8.821  0.00  0.00    -0.311 N 
ATOM     33  H   LIG d   1       2.176  -3.885  -8.728  0.00  0.00     0.050 H 
ATOM     34  H   LIG d   1       3.868  -3.884  -9.256  0.00  0.00     0.050 H 
ATOM     35  C   LIG d   1       3.853  -1.850  -7.723  0.00  0.00     0.259 A 
ATOM     36  C   LIG d   1       3.934  -0.603  -7.064  0.00  0.00     0.047 A 
ATOM     37  O   LIG d   1       4.491  -2.800  -7.300  0.00  0.00    -0.267 OA
ATOM     38  C   LIG d   1       3.241   0.475  -7.593  0.00  0.00    -0.047 A 
ATOM     39  C   LIG d   1       2.513   0.291  -8.769  0.00  0.00    -0.041 A 
ATOM     40  H   LIG d   1       3.263   1.438  -7.103  0.00  0.00     0.063 H 
ATOM     41  H   LIG d   1       1.976   1.123  -9.200  0.00  0.00     0.064 H 
BRANCH  36  42
ATOM     42  C   LIG d   1       4.743  -0.451  -5.833  0.00  0.00    -0.012 A 
ATOM     43  C   LIG d   1       4.121  -0.417  -4.585  0.00  0.00    -0.042 A 
ATOM     44  C   LIG d   1       4.880  -0.275  -3.442  0.00  0.00     0.055 A 
ATOM     45  H   LIG d   1       3.046  -0.501  -4.515  0.00  0.00     0.063 H 
ATOM     46  C   LIG d   1       6.257  -0.167  -3.532  0.00  0.00    -0.050 A 
ATOM     47  C   LIG d   1       6.880  -0.200  -4.766  0.00  0.00    -0.061 A 
ATOM     48  H   LIG d   1       6.846  -0.057  -2.634  0.00  0.00     0.062 H 
ATOM     49  C   LIG d   1       6.132  -0.346  -5.916  0.00  0.00    -0.054 A 
ATOM     50  H   LIG d   1       7.955  -0.116  -4.829  0.00  0.00     0.062 H 
ATOM     51  H   LIG d   1       6.620  -0.376  -6.879  0.00  0.00     0.062 H 
BRANCH  44  52
ATOM     52  C   LIG d   1       4.209  -0.238  -2.094  0.00  0.00     0.417 C 
ATOM     53  F   LIG d   1       4.444  -1.442  -1.423  0.00  0.00    -0.166 F 
ATOM     54  F   LIG d   1       4.728   0.822  -1.343  0.00  0.00    -0.166 F 
ATOM     55  F   LIG d   1       2.832  -0.058  -2.263  0.00  0.00    -0.166 F 
ENDBRANCH  44  52
ENDBRANCH  36  42
ENDBRANCH  13  16
ENDBRANCH   4  13
TORSDOF 4
ENDMDL
MODEL 4
REMARK VINA RESULT:      -8.6      4.873      8.327
REMARK  4 active torsions:
REMARK  status: ('A' for Active; 'I' for Inactive)
REMARK    1  A    between atoms: C_4  and  S_9 
REMARK    2  A    between atoms: S_9  and  N_12 
REMARK    3  A    between atoms: C_23  and  C_28 
REMARK    4  A    between atoms: C_32  and  C_34 
ROOT
ATOM      1  C   LIG d   1       3.370  -7.245 -13.225  0.00  0.00    -0.060 A 
ATOM      2  C   LIG d   1       3.516  -5.944 -13.674  0.00  0.00    -0.060 A 
ATOM      3  C   LIG d   1       3.608  -4.901 -12.770  0.00  0.00    -0.034 A 
ATOM      4  C   LIG d   1       3.566  -5.152 -11.414  0.00  0.00     0.123 A 
ATOM      5  C   LIG d   1       3.419  -6.462 -10.955  0.00  0.00     0.078 A 
ATOM      6  C   LIG d   1       3.321  -7.511 -11.874  0.00  0.00    -0.042 A 
ATOM      7  C   LIG d   1       3.370  -6.731  -9.550  0.00  0.00     0.101 C 
ATOM      8  N   LIG d   1       3.331  -6.944  -8.434  0.00  0.00    -0.191 NA
ATOM      9  H   LIG d   1       3.294  -8.054 -13.937  0.00  0.00     0.062 H 
ATOM     10  H   LIG d   1       3.554  -5.742 -14.734  0.00  0.00     0.062 H 
ATOM     11  H   LIG d   1       3.717  -3.887 -13.127  0.00  0.00     0.064 H 
ATOM     12  H   LIG d   1       3.208  -8.526 -11.525  0.00  0.00     0.063 H 
ENDROOT
BRANCH   4  13
ATOM     13  S   LIG d   1       3.690  -3.822 -10.264  0.00  0.00     0.062 S 
ATOM     14  O   LIG d   1       4.884  -4.035  -9.525  0.00  0.00    -0.153 OA
ATOM     15  O   LIG d   1       2.418  -3.705  -9.642  0.00  0.00    -0.153 OA
BRANCH  13  16
ATOM     16  N   LIG d   1       3.918  -2.436 -11.141  0.00  0.00    -0.176 N 
ATOM     17  C   LIG d   1       5.272  -1.993 -11.508  0.00  0.00     0.029 C 
ATOM     18  C   LIG d   1       5.434  -0.553 -10.992  0.00  0.00     0.014 C 
ATOM     19  H   LIG d   1       5.390  -2.014 -12.591  0.00  0.00     0.045 H 
ATOM     20  H   LIG d   1       6.014  -2.640 -11.041  0.00  0.00     0.045 H 
ATOM     21  C   LIG d   1       4.366   0.320 -11.654  0.00  0.00    -0.038 C 
ATOM     22  H   LIG d   1       6.433  -0.182 -11.223  0.00  0.00     0.038 H 
ATOM     23  C   LIG d   1       5.222  -0.574  -9.496  0.00  0.00     0.026 A 
ATOM     24  C   LIG d   1       2.992  -0.168 -11.194  0.00  0.00    -0.008 C 
ATOM     25  H   LIG d   1       4.443   0.234 -12.738  0.00  0.00     0.028 H 
ATOM     26  H   LIG d   1       4.505   1.359 -11.358  0.00  0.00     0.028 H 
ATOM     27  C   LIG d   1       2.773  -1.626 -11.573  0.00  0.00     0.025 C 
ATOM     28  H   LIG d   1       2.241   0.433 -11.709  0.00  0.00     0.033 H 
ATOM     29  C   LIG d   1       2.836   0.063  -9.703  0.00  0.00     0.030 C 
ATOM     30  H   LIG d   1       1.868  -1.992 -11.090  0.00  0.00     0.045 H 
ATOM     31  H   LIG d   1       2.662  -1.705 -12.655  0.00  0.00     0.045 H 
ATOM     32  N   LIG d   1       4.000  -0.396  -8.943  0.00  0.00    -0.311 N 
ATOM     33  H   LIG d   1       2.696   1.128  -9.523  0.00  0.00     0.050 H 
ATOM     34  H   LIG d   1       1.953  -0.473  -9.353  0.00  0.00     0.050 H 
ATOM     35  C   LIG d   1       3.813  -0.632  -7.620  0.00  0.00     0.259 A 
ATOM     36  C   LIG d   1       4.909  -0.921  -6.779  0.00  0.00     0.047 A 
ATOM     37  O   LIG d   1       2.686  -0.594  -7.154  0.00  0.00    -0.267 OA
ATOM     38  C   LIG d   1       6.174  -1.010  -7.340  0.00  0.00    -0.047 A 
ATOM     39  C   LIG d   1       6.308  -0.837  -8.718  0.00  0.00    -0.041 A 
ATOM     40  H   LIG d   1       7.038  -1.208  -6.723  0.00  0.00     0.063 H 
ATOM     41  H   LIG d   1       7.284  -0.912  -9.173  0.00  0.00     0.064 H 
BRANCH  36  42
ATOM     42  C   LIG d   1       4.713  -1.125  -5.325  0.00  0.00    -0.012 A 
ATOM     43  C   LIG d   1       4.695  -0.031  -4.460  0.00  0.00    -0.042 A 
ATOM     44  C   LIG d   1       4.510  -0.227  -3.107  0.00  0.00     0.055 A 
ATOM     45  H   LIG d   1       4.825   0.968  -4.849  0.00  0.00     0.063 H 
ATOM     46  C   LIG d   1       4.343  -1.507  -2.608  0.00  0.00    -0.050 A 
ATOM     47  C   LIG d   1       4.361  -2.596  -3.460  0.00  0.00    -0.061 A 
ATOM     48  H   LIG d   1       4.199  -1.655  -1.548  0.00  0.00     0.062 H 
ATOM     49  C   LIG d   1       4.538  -2.412  -4.815  0.00  0.00    -0.054 A 
ATOM     50  H   LIG d   1       4.229  -3.593  -3.064  0.00  0.00     0.062 H 
ATOM     51  H   LIG d   1       4.547  -3.263  -5.481  0.00  0.00     0.062 H 
BRANCH  44  52
ATOM     52  C   LIG d   1       4.491   0.954  -2.171  0.00  0.00     0.417 C 
ATOM     53  F   LIG d   1       4.731   0.517  -0.865  0.00  0.00    -0.166 F 
ATOM     54  F   LIG d   1       5.484   1.864  -2.548  0.00  0.00    -0.166 F 
ATOM     55  F   LIG d   1       3.240   1.577  -2.233  0.00  0.00    -0.166 F 
ENDBRANCH  44  52
ENDBRANCH  36  42
ENDBRANCH  13  16
ENDBRANCH   4  13
TORSDOF 4
ENDMDL
MODEL 5
REMARK VINA RESULT:      -8.6      5.119      8.013
REMARK  4 active torsions:
REMARK  status: ('A' for Active; 'I' for Inactive)
REMARK    1  A    between atoms: C_4  and  S_9 
REMARK    2  A    between atoms: S_9  and  N_12 
REMARK    3  A    between atoms: C_23  and  C_28 
REMARK    4  A    between atoms: C_32  and  C_34 
ROOT
ATOM      1  C   LIG d   1       1.743  -1.826 -10.312  0.00  0.00    -0.060 A 
ATOM      2  C   LIG d   1       2.477  -2.791  -9.644  0.00  0.00    -0.060 A 
ATOM      3  C   LIG d   1       3.468  -2.421  -8.752  0.00  0.00    -0.034 A 
ATOM      4  C   LIG d   1       3.721  -1.087  -8.512  0.00  0.00     0.123 A 
ATOM      5  C   LIG d   1       2.984  -0.108  -9.182  0.00  0.00     0.078 A 
ATOM      6  C   LIG d   1       1.989  -0.489 -10.086  0.00  0.00    -0.042 A 
ATOM      7  C   LIG d   1       3.245   1.279  -8.942  0.00  0.00     0.101 C 
ATOM      8  N   LIG d   1       3.453   2.380  -8.752  0.00  0.00    -0.191 NA
ATOM      9  H   LIG d   1       0.974  -2.123 -11.010  0.00  0.00     0.062 H 
ATOM     10  H   LIG d   1       2.280  -3.837  -9.824  0.00  0.00     0.062 H 
ATOM     11  H   LIG d   1       4.040  -3.179  -8.238  0.00  0.00     0.064 H 
ATOM     12  H   LIG d   1       1.415   0.263 -10.607  0.00  0.00     0.063 H 
ENDROOT
BRANCH   4  13
ATOM     13  S   LIG d   1       4.978  -0.617  -7.369  0.00  0.00     0.062 S 
ATOM     14  O   LIG d   1       4.391   0.328  -6.486  0.00  0.00    -0.153 OA
ATOM     15  O   LIG d   1       6.137  -0.326  -8.138  0.00  0.00    -0.153 OA
BRANCH  13  16
ATOM     16  N   LIG d   1       5.338  -1.954  -6.460  0.00  0.00    -0.176 N 
ATOM     17  C   LIG d   1       4.725  -2.149  -5.136  0.00  0.00     0.029 C 
ATOM     18  C   LIG d   1       5.872  -2.337  -4.129  0.00  0.00     0.014 C 
ATOM     19  H   LIG d   1       4.091  -3.035  -5.146  0.00  0.00     0.045 H 
ATOM     20  H   LIG d   1       4.136  -1.272  -4.867  0.00  0.00     0.045 H 
ATOM     21  C   LIG d   1       6.687  -3.563  -4.549  0.00  0.00    -0.038 C 
ATOM     22  H   LIG d   1       5.471  -2.468  -3.124  0.00  0.00     0.038 H 
ATOM     23  C   LIG d   1       6.741  -1.102  -4.184  0.00  0.00     0.026 A 
ATOM     24  C   LIG d   1       7.328  -3.272  -5.907  0.00  0.00    -0.008 C 
ATOM     25  H   LIG d   1       6.031  -4.429  -4.631  0.00  0.00     0.028 H 
ATOM     26  H   LIG d   1       7.464  -3.758  -3.811  0.00  0.00     0.028 H 
ATOM     27  C   LIG d   1       6.270  -2.972  -6.959  0.00  0.00     0.025 C 
ATOM     28  H   LIG d   1       7.867  -4.169  -6.214  0.00  0.00     0.033 H 
ATOM     29  C   LIG d   1       8.333  -2.144  -5.771  0.00  0.00     0.030 C 
ATOM     30  H   LIG d   1       6.754  -2.605  -7.864  0.00  0.00     0.045 H 
ATOM     31  H   LIG d   1       5.719  -3.885  -7.188  0.00  0.00     0.045 H 
ATOM     32  N   LIG d   1       7.796  -1.005  -5.026  0.00  0.00    -0.311 N 
ATOM     33  H   LIG d   1       9.217  -2.518  -5.255  0.00  0.00     0.050 H 
ATOM     34  H   LIG d   1       8.624  -1.808  -6.768  0.00  0.00     0.050 H 
ATOM     35  C   LIG d   1       8.418   0.189  -5.200  0.00  0.00     0.259 A 
ATOM     36  C   LIG d   1       8.072   1.302  -4.403  0.00  0.00     0.047 A 
ATOM     37  O   LIG d   1       9.283   0.300  -6.052  0.00  0.00    -0.267 OA
ATOM     38  C   LIG d   1       7.050   1.166  -3.476  0.00  0.00    -0.047 A 
ATOM     39  C   LIG d   1       6.386  -0.057  -3.387  0.00  0.00    -0.041 A 
ATOM     40  H   LIG d   1       6.775   1.991  -2.836  0.00  0.00     0.063 H 
ATOM     41  H   LIG d   1       5.582  -0.177  -2.677  0.00  0.00     0.064 H 
BRANCH  36  42
ATOM     42  C   LIG d   1       8.788   2.590  -4.555  0.00  0.00    -0.012 A 
ATOM     43  C   LIG d   1       9.318   3.234  -3.437  0.00  0.00    -0.042 A 
ATOM     44  C   LIG d   1       9.984   4.432  -3.585  0.00  0.00     0.055 A 
ATOM     45  H   LIG d   1       9.207   2.793  -2.457  0.00  0.00     0.063 H 
ATOM     46  C   LIG d   1      10.127   4.997  -4.841  0.00  0.00    -0.050 A 
ATOM     47  C   LIG d   1       9.603   4.364  -5.953  0.00  0.00    -0.061 A 
ATOM     48  H   LIG d   1      10.650   5.935  -4.951  0.00  0.00     0.062 H 
ATOM     49  C   LIG d   1       8.940   3.162  -5.819  0.00  0.00    -0.054 A 
ATOM     50  H   LIG d   1       9.719   4.809  -6.931  0.00  0.00     0.062 H 
ATOM     51  H   LIG d   1       8.536   2.666  -6.689  0.00  0.00     0.062 H 
BRANCH  44  52
ATOM     52  C   LIG d   1      10.557   5.129  -2.378  0.00  0.00     0.417 C 
ATOM     53  F   LIG d   1      11.042   4.175  -1.477  0.00  0.00    -0.166 F 
ATOM     54  F   LIG d   1      11.603   5.968  -2.776  0.00  0.00    -0.166 F 
ATOM     55  F   LIG d   1       9.558   5.889  -1.760  0.00  0.00    -0.166 F 
ENDBRANCH  44  52
ENDBRANCH  36  42
ENDBRANCH  13  16
ENDBRANCH   4  13
TORSDOF 4
ENDMDL
MODEL 6
REMARK VINA RESULT:      -8.5      4.275      7.397
REMARK  4 active torsions:
REMARK  status: ('A' for Active; 'I' for Inactive)
REMARK    1  A    between atoms: C_4  and  S_9 
REMARK    2  A    between atoms: S_9  and  N_12 
REMARK    3  A    between atoms: C_23  and  C_28 
REMARK    4  A    between atoms: C_32  and  C_34 
ROOT
ATOM      1  C   LIG d   1       2.038  -1.298 -10.604  0.00  0.00    -0.060 A 
ATOM      2  C   LIG d   1       2.451  -2.288  -9.729  0.00  0.00    -0.060 A 
ATOM      3  C   LIG d   1       3.455  -2.034  -8.811  0.00  0.00    -0.034 A 
ATOM      4  C   LIG d   1       4.041  -0.787  -8.753  0.00  0.00     0.123 A 
ATOM      5  C   LIG d   1       3.629   0.216  -9.632  0.00  0.00     0.078 A 
ATOM      6  C   LIG d   1       2.619  -0.049 -10.561  0.00  0.00    -0.042 A 
ATOM      7  C   LIG d   1       4.236   1.512  -9.581  0.00  0.00     0.101 C 
ATOM      8  N   LIG d   1       4.719   2.540  -9.541  0.00  0.00    -0.191 NA
ATOM      9  H   LIG d   1       1.257  -1.505 -11.321  0.00  0.00     0.062 H 
ATOM     10  H   LIG d   1       1.992  -3.265  -9.767  0.00  0.00     0.062 H 
ATOM     11  H   LIG d   1       3.776  -2.813  -8.135  0.00  0.00     0.064 H 
ATOM     12  H   LIG d   1       2.295   0.723 -11.243  0.00  0.00     0.063 H 
ENDROOT
BRANCH   4  13
ATOM     13  S   LIG d   1       5.314  -0.463  -7.578  0.00  0.00     0.062 S 
ATOM     14  O   LIG d   1       4.832   0.572  -6.733  0.00  0.00    -0.153 OA
ATOM     15  O   LIG d   1       6.524  -0.346  -8.313  0.00  0.00    -0.153 OA
BRANCH  13  16
ATOM     16  N   LIG d   1       5.463  -1.814  -6.632  0.00  0.00    -0.176 N 
ATOM     17  C   LIG d   1       4.668  -1.963  -5.403  0.00  0.00     0.029 C 
ATOM     18  C   LIG d   1       5.655  -2.216  -4.251  0.00  0.00     0.014 C 
ATOM     19  H   LIG d   1       3.986  -2.807  -5.500  0.00  0.00     0.045 H 
ATOM     20  H   LIG d   1       4.104  -1.049  -5.213  0.00  0.00     0.045 H 
ATOM     21  C   LIG d   1       6.440  -3.493  -4.562  0.00  0.00    -0.038 C 
ATOM     22  H   LIG d   1       5.115  -2.316  -3.310  0.00  0.00     0.038 H 
ATOM     23  C   LIG d   1       6.599  -1.039  -4.186  0.00  0.00     0.026 A 
ATOM     24  C   LIG d   1       7.274  -3.252  -5.820  0.00  0.00    -0.008 C 
ATOM     25  H   LIG d   1       5.747  -4.317  -4.733  0.00  0.00     0.028 H 
ATOM     26  H   LIG d   1       7.097  -3.733  -3.727  0.00  0.00     0.028 H 
ATOM     27  C   LIG d   1       6.388  -2.891  -7.004  0.00  0.00     0.025 C 
ATOM     28  H   LIG d   1       7.792  -4.183  -6.055  0.00  0.00     0.033 H 
ATOM     29  C   LIG d   1       8.321  -2.188  -5.548  0.00  0.00     0.030 C 
ATOM     30  H   LIG d   1       7.011  -2.561  -7.835  0.00  0.00     0.045 H 
ATOM     31  H   LIG d   1       5.817  -3.769  -7.308  0.00  0.00     0.045 H 
ATOM     32  N   LIG d   1       7.762  -1.013  -4.879  0.00  0.00    -0.311 N 
ATOM     33  H   LIG d   1       9.102  -2.614  -4.919  0.00  0.00     0.050 H 
ATOM     34  H   LIG d   1       8.763  -1.877  -6.495  0.00  0.00     0.050 H 
ATOM     35  C   LIG d   1       8.475   0.138  -4.964  0.00  0.00     0.259 A 
ATOM     36  C   LIG d   1       8.097   1.276  -4.218  0.00  0.00     0.047 A 
ATOM     37  O   LIG d   1       9.452   0.190  -5.693  0.00  0.00    -0.267 OA
ATOM     38  C   LIG d   1       6.953   1.210  -3.437  0.00  0.00    -0.047 A 
ATOM     39  C   LIG d   1       6.207   0.031  -3.441  0.00  0.00    -0.041 A 
ATOM     40  H   LIG d   1       6.646   2.054  -2.838  0.00  0.00     0.063 H 
ATOM     41  H   LIG d   1       5.309  -0.034  -2.846  0.00  0.00     0.064 H 
BRANCH  36  42
ATOM     42  C   LIG d   1       8.906   2.515  -4.269  0.00  0.00    -0.012 A 
ATOM     43  C   LIG d   1       9.031   3.222  -5.465  0.00  0.00    -0.042 A 
ATOM     44  C   LIG d   1       9.785   4.376  -5.506  0.00  0.00     0.055 A 
ATOM     45  H   LIG d   1       8.536   2.866  -6.357  0.00  0.00     0.063 H 
ATOM     46  C   LIG d   1      10.418   4.833  -4.364  0.00  0.00    -0.050 A 
ATOM     47  C   LIG d   1      10.299   4.136  -3.175  0.00  0.00    -0.061 A 
ATOM     48  H   LIG d   1      11.007   5.737  -4.401  0.00  0.00     0.062 H 
ATOM     49  C   LIG d   1       9.543   2.984  -3.120  0.00  0.00    -0.054 A 
ATOM     50  H   LIG d   1      10.795   4.498  -2.286  0.00  0.00     0.062 H 
ATOM     51  H   LIG d   1       9.447   2.443  -2.190  0.00  0.00     0.062 H 
BRANCH  44  52
ATOM     52  C   LIG d   1       9.920   5.141  -6.798  0.00  0.00     0.417 C 
ATOM     53  F   LIG d   1       9.454   6.447  -6.617  0.00  0.00    -0.166 F 
ATOM     54  F   LIG d   1      11.266   5.175  -7.181  0.00  0.00    -0.166 F 
ATOM     55  F   LIG d   1       9.168   4.510  -7.794  0.00  0.00    -0.166 F 
ENDBRANCH  44  52
ENDBRANCH  36  42
ENDBRANCH  13  16
ENDBRANCH   4  13
TORSDOF 4
ENDMDL
MODEL 7
REMARK VINA RESULT:      -8.5      1.776      2.148
REMARK  4 active torsions:
REMARK  status: ('A' for Active; 'I' for Inactive)
REMARK    1  A    between atoms: C_4  and  S_9 
REMARK    2  A    between atoms: S_9  and  N_12 
REMARK    3  A    between atoms: C_23  and  C_28 
REMARK    4  A    between atoms: C_32  and  C_34 
ROOT
ATOM      1  C   LIG d   1       8.190  -3.089  -7.502  0.00  0.00    -0.060 A 
ATOM      2  C   LIG d   1       8.407  -3.242  -6.144  0.00  0.00    -0.060 A 
ATOM      3  C   LIG d   1       8.195  -2.182  -5.280  0.00  0.00    -0.034 A 
ATOM      4  C   LIG d   1       7.755  -0.969  -5.766  0.00  0.00     0.123 A 
ATOM      5  C   LIG d   1       7.535  -0.808  -7.135  0.00  0.00     0.078 A 
ATOM      6  C   LIG d   1       7.756  -1.881  -8.003  0.00  0.00    -0.042 A 
ATOM      7  C   LIG d   1       7.083   0.450  -7.649  0.00  0.00     0.101 C 
ATOM      8  N   LIG d   1       6.725   1.449  -8.056  0.00  0.00    -0.191 NA
ATOM      9  H   LIG d   1       8.361  -3.920  -8.171  0.00  0.00     0.062 H 
ATOM     10  H   LIG d   1       8.746  -4.191  -5.757  0.00  0.00     0.062 H 
ATOM     11  H   LIG d   1       8.371  -2.307  -4.222  0.00  0.00     0.064 H 
ATOM     12  H   LIG d   1       7.586  -1.763  -9.063  0.00  0.00     0.063 H 
ENDROOT
BRANCH   4  13
ATOM     13  S   LIG d   1       7.480   0.378  -4.663  0.00  0.00     0.062 S 
ATOM     14  O   LIG d   1       6.675   1.317  -5.362  0.00  0.00    -0.153 OA
ATOM     15  O   LIG d   1       8.746   0.719  -4.115  0.00  0.00    -0.153 OA
BRANCH  13  16
ATOM     16  N   LIG d   1       6.561  -0.194  -3.411  0.00  0.00    -0.176 N 
ATOM     17  C   LIG d   1       6.542  -1.629  -3.087  0.00  0.00     0.029 C 
ATOM     18  C   LIG d   1       5.072  -2.081  -3.112  0.00  0.00     0.014 C 
ATOM     19  H   LIG d   1       6.964  -1.794  -2.096  0.00  0.00     0.045 H 
ATOM     20  H   LIG d   1       7.113  -2.185  -3.831  0.00  0.00     0.045 H 
ATOM     21  C   LIG d   1       4.300  -1.267  -2.070  0.00  0.00    -0.038 C 
ATOM     22  H   LIG d   1       5.003  -3.147  -2.895  0.00  0.00     0.038 H 
ATOM     23  C   LIG d   1       4.525  -1.795  -4.490  0.00  0.00     0.026 A 
ATOM     24  C   LIG d   1       4.324   0.202  -2.493  0.00  0.00    -0.008 C 
ATOM     25  H   LIG d   1       4.774  -1.376  -1.095  0.00  0.00     0.028 H 
ATOM     26  H   LIG d   1       3.270  -1.618  -2.019  0.00  0.00     0.028 H 
ATOM     27  C   LIG d   1       5.751   0.719  -2.596  0.00  0.00     0.025 C 
ATOM     28  H   LIG d   1       3.810   0.774  -1.719  0.00  0.00     0.033 H 
ATOM     29  C   LIG d   1       3.559   0.377  -3.791  0.00  0.00     0.030 C 
ATOM     30  H   LIG d   1       5.745   1.706  -3.059  0.00  0.00     0.045 H 
ATOM     31  H   LIG d   1       6.182   0.792  -1.597  0.00  0.00     0.045 H 
ATOM     32  N   LIG d   1       3.935  -0.617  -4.798  0.00  0.00    -0.311 N 
ATOM     33  H   LIG d   1       2.492   0.287  -3.588  0.00  0.00     0.050 H 
ATOM     34  H   LIG d   1       3.759   1.373  -4.188  0.00  0.00     0.050 H 
ATOM     35  C   LIG d   1       3.651  -0.317  -6.091  0.00  0.00     0.259 A 
ATOM     36  C   LIG d   1       3.830  -1.279  -7.108  0.00  0.00     0.047 A 
ATOM     37  O   LIG d   1       3.237   0.795  -6.375  0.00  0.00    -0.267 OA
ATOM     38  C   LIG d   1       4.349  -2.519  -6.769  0.00  0.00    -0.047 A 
ATOM     39  C   LIG d   1       4.700  -2.756  -5.439  0.00  0.00    -0.041 A 
ATOM     40  H   LIG d   1       4.479  -3.286  -7.518  0.00  0.00     0.063 H 
ATOM     41  H   LIG d   1       5.115  -3.713  -5.159  0.00  0.00     0.064 H 
BRANCH  36  42
ATOM     42  C   LIG d   1       3.469  -0.970  -8.511  0.00  0.00    -0.012 A 
ATOM     43  C   LIG d   1       4.440  -1.012  -9.510  0.00  0.00    -0.042 A 
ATOM     44  C   LIG d   1       4.098  -0.724 -10.815  0.00  0.00     0.055 A 
ATOM     45  H   LIG d   1       5.460  -1.270  -9.262  0.00  0.00     0.063 H 
ATOM     46  C   LIG d   1       2.793  -0.393 -11.134  0.00  0.00    -0.050 A 
ATOM     47  C   LIG d   1       1.824  -0.350 -10.147  0.00  0.00    -0.061 A 
ATOM     48  H   LIG d   1       2.530  -0.169 -12.157  0.00  0.00     0.062 H 
ATOM     49  C   LIG d   1       2.153  -0.642  -8.840  0.00  0.00    -0.054 A 
ATOM     50  H   LIG d   1       0.806  -0.092 -10.402  0.00  0.00     0.062 H 
ATOM     51  H   LIG d   1       1.395  -0.612  -8.071  0.00  0.00     0.062 H 
BRANCH  44  52
ATOM     52  C   LIG d   1       5.147  -0.769 -11.896  0.00  0.00     0.417 C 
ATOM     53  F   LIG d   1       4.691  -0.069 -13.018  0.00  0.00    -0.166 F 
ATOM     54  F   LIG d   1       6.326  -0.178 -11.426  0.00  0.00    -0.166 F 
ATOM     55  F   LIG d   1       5.400  -2.099 -12.246  0.00  0.00    -0.166 F 
ENDBRANCH  44  52
ENDBRANCH  36  42
ENDBRANCH  13  16
ENDBRANCH   4  13
TORSDOF 4
ENDMDL
MODEL 8
REMARK VINA RESULT:      -8.3      4.808      7.735
REMARK  4 active torsions:
REMARK  status: ('A' for Active; 'I' for Inactive)
REMARK    1  A    between atoms: C_4  and  S_9 
REMARK    2  A    between atoms: S_9  and  N_12 
REMARK    3  A    between atoms: C_23  and  C_28 
REMARK    4  A    between atoms: C_32  and  C_34 
ROOT
ATOM      1  C   LIG d   1      12.426   6.440 -10.250  0.00  0.00    -0.060 A 
ATOM      2  C   LIG d   1      13.189   6.010  -9.178  0.00  0.00    -0.060 A 
ATOM      3  C   LIG d   1      12.631   5.198  -8.206  0.00  0.00    -0.034 A 
ATOM      4  C   LIG d   1      11.313   4.803  -8.305  0.00  0.00     0.123 A 
ATOM      5  C   LIG d   1      10.538   5.234  -9.384  0.00  0.00     0.078 A 
ATOM      6  C   LIG d   1      11.106   6.058 -10.359  0.00  0.00    -0.042 A 
ATOM      7  C   LIG d   1       9.168   4.832  -9.491  0.00  0.00     0.101 C 
ATOM      8  N   LIG d   1       8.081   4.514  -9.576  0.00  0.00    -0.191 NA
ATOM      9  H   LIG d   1      12.867   7.077 -11.002  0.00  0.00     0.062 H 
ATOM     10  H   LIG d   1      14.222   6.312  -9.098  0.00  0.00     0.062 H 
ATOM     11  H   LIG d   1      13.231   4.870  -7.370  0.00  0.00     0.064 H 
ATOM     12  H   LIG d   1      10.512   6.394 -11.196  0.00  0.00     0.063 H 
ENDROOT
BRANCH   4  13
ATOM     13  S   LIG d   1      10.607   3.764  -7.069  0.00  0.00     0.062 S 
ATOM     14  O   LIG d   1      10.281   2.538  -7.709  0.00  0.00    -0.153 OA
ATOM     15  O   LIG d   1       9.640   4.548  -6.385  0.00  0.00    -0.153 OA
BRANCH  13  16
ATOM     16  N   LIG d   1      11.801   3.423  -5.974  0.00  0.00    -0.176 N 
ATOM     17  C   LIG d   1      12.665   2.244  -6.147  0.00  0.00     0.029 C 
ATOM     18  C   LIG d   1      12.566   1.416  -4.854  0.00  0.00     0.014 C 
ATOM     19  H   LIG d   1      13.696   2.558  -6.309  0.00  0.00     0.045 H 
ATOM     20  H   LIG d   1      12.319   1.652  -6.994  0.00  0.00     0.045 H 
ATOM     21  C   LIG d   1      13.041   2.286  -3.687  0.00  0.00    -0.038 C 
ATOM     22  H   LIG d   1      13.177   0.517  -4.938  0.00  0.00     0.038 H 
ATOM     23  C   LIG d   1      11.116   1.043  -4.656  0.00  0.00     0.026 A 
ATOM     24  C   LIG d   1      12.075   3.462  -3.539  0.00  0.00    -0.008 C 
ATOM     25  H   LIG d   1      14.045   2.658  -3.892  0.00  0.00     0.028 H 
ATOM     26  H   LIG d   1      13.047   1.698  -2.770  0.00  0.00     0.028 H 
ATOM     27  C   LIG d   1      12.025   4.293  -4.814  0.00  0.00     0.025 C 
ATOM     28  H   LIG d   1      12.451   4.096  -2.736  0.00  0.00     0.033 H 
ATOM     29  C   LIG d   1      10.704   2.955  -3.136  0.00  0.00     0.030 C 
ATOM     30  H   LIG d   1      11.212   5.016  -4.742  0.00  0.00     0.045 H 
ATOM     31  H   LIG d   1      12.970   4.824  -4.936  0.00  0.00     0.045 H 
ATOM     32  N   LIG d   1      10.263   1.825  -3.955  0.00  0.00    -0.311 N 
ATOM     33  H   LIG d   1      10.736   2.643  -2.092  0.00  0.00     0.050 H 
ATOM     34  H   LIG d   1       9.983   3.767  -3.238  0.00  0.00     0.050 H 
ATOM     35  C   LIG d   1       8.931   1.568  -3.978  0.00  0.00     0.259 A 
ATOM     36  C   LIG d   1       8.434   0.406  -4.608  0.00  0.00     0.047 A 
ATOM     37  O   LIG d   1       8.157   2.349  -3.450  0.00  0.00    -0.267 OA
ATOM     38  C   LIG d   1       9.328  -0.440  -5.246  0.00  0.00    -0.047 A 
ATOM     39  C   LIG d   1      10.680  -0.095  -5.264  0.00  0.00    -0.041 A 
ATOM     40  H   LIG d   1       8.985  -1.348  -5.720  0.00  0.00     0.063 H 
ATOM     41  H   LIG d   1      11.388  -0.738  -5.765  0.00  0.00     0.064 H 
BRANCH  36  42
ATOM     42  C   LIG d   1       6.986   0.098  -4.587  0.00  0.00    -0.012 A 
ATOM     43  C   LIG d   1       6.290   0.081  -3.378  0.00  0.00    -0.042 A 
ATOM     44  C   LIG d   1       4.941  -0.206  -3.365  0.00  0.00     0.055 A 
ATOM     45  H   LIG d   1       6.807   0.293  -2.454  0.00  0.00     0.063 H 
ATOM     46  C   LIG d   1       4.277  -0.478  -4.549  0.00  0.00    -0.050 A 
ATOM     47  C   LIG d   1       4.961  -0.463  -5.751  0.00  0.00    -0.061 A 
ATOM     48  H   LIG d   1       3.221  -0.702  -4.533  0.00  0.00     0.062 H 
ATOM     49  C   LIG d   1       6.309  -0.172  -5.777  0.00  0.00    -0.054 A 
ATOM     50  H   LIG d   1       4.437  -0.675  -6.672  0.00  0.00     0.062 H 
ATOM     51  H   LIG d   1       6.842  -0.156  -6.717  0.00  0.00     0.062 H 
BRANCH  44  52
ATOM     52  C   LIG d   1       4.188  -0.225  -2.060  0.00  0.00     0.417 C 
ATOM     53  F   LIG d   1       4.615   0.840  -1.260  0.00  0.00    -0.166 F 
ATOM     54  F   LIG d   1       2.817  -0.099  -2.310  0.00  0.00    -0.166 F 
ATOM     55  F   LIG d   1       4.432  -1.433  -1.398  0.00  0.00    -0.166 F 
ENDBRANCH  44  52
ENDBRANCH  36  42
ENDBRANCH  13  16
ENDBRANCH   4  13
TORSDOF 4
ENDMDL
MODEL 9
REMARK VINA RESULT:      -8.2      6.088      8.549
REMARK  4 active torsions:
REMARK  status: ('A' for Active; 'I' for Inactive)
REMARK    1  A    between atoms: C_4  and  S_9 
REMARK    2  A    between atoms: S_9  and  N_12 
REMARK    3  A    between atoms: C_23  and  C_28 
REMARK    4  A    between atoms: C_32  and  C_34 
ROOT
ATOM      1  C   LIG d   1       5.007 -12.018  -7.073  0.00  0.00    -0.060 A 
ATOM      2  C   LIG d   1       5.569 -11.236  -8.067  0.00  0.00    -0.060 A 
ATOM      3  C   LIG d   1       5.704  -9.871  -7.888  0.00  0.00    -0.034 A 
ATOM      4  C   LIG d   1       5.291  -9.281  -6.712  0.00  0.00     0.123 A 
ATOM      5  C   LIG d   1       4.724 -10.065  -5.704  0.00  0.00     0.078 A 
ATOM      6  C   LIG d   1       4.585 -11.442  -5.894  0.00  0.00    -0.042 A 
ATOM      7  C   LIG d   1       4.288  -9.460  -4.482  0.00  0.00     0.101 C 
ATOM      8  N   LIG d   1       3.941  -8.979  -3.512  0.00  0.00    -0.191 NA
ATOM      9  H   LIG d   1       4.901 -13.082  -7.222  0.00  0.00     0.062 H 
ATOM     10  H   LIG d   1       5.898 -11.692  -8.989  0.00  0.00     0.062 H 
ATOM     11  H   LIG d   1       6.139  -9.265  -8.670  0.00  0.00     0.064 H 
ATOM     12  H   LIG d   1       4.148 -12.053  -5.119  0.00  0.00     0.063 H 
ENDROOT
BRANCH   4  13
ATOM     13  S   LIG d   1       5.470  -7.543  -6.483  0.00  0.00     0.062 S 
ATOM     14  O   LIG d   1       6.250  -7.367  -5.308  0.00  0.00    -0.153 OA
ATOM     15  O   LIG d   1       4.175  -6.979  -6.630  0.00  0.00    -0.153 OA
BRANCH  13  16
ATOM     16  N   LIG d   1       6.381  -6.975  -7.744  0.00  0.00    -0.176 N 
ATOM     17  C   LIG d   1       7.839  -6.831  -7.613  0.00  0.00     0.029 C 
ATOM     18  C   LIG d   1       8.185  -5.373  -7.958  0.00  0.00     0.014 C 
ATOM     19  H   LIG d   1       8.343  -7.506  -8.304  0.00  0.00     0.045 H 
ATOM     20  H   LIG d   1       8.144  -7.052  -6.590  0.00  0.00     0.045 H 
ATOM     21  C   LIG d   1       7.727  -5.095  -9.392  0.00  0.00    -0.038 C 
ATOM     22  H   LIG d   1       9.258  -5.208  -7.858  0.00  0.00     0.038 H 
ATOM     23  C   LIG d   1       7.432  -4.481  -7.000  0.00  0.00     0.026 A 
ATOM     24  C   LIG d   1       6.203  -5.218  -9.443  0.00  0.00    -0.008 C 
ATOM     25  H   LIG d   1       8.176  -5.823 -10.068  0.00  0.00     0.028 H 
ATOM     26  H   LIG d   1       8.024  -4.089  -9.685  0.00  0.00     0.028 H 
ATOM     27  C   LIG d   1       5.751  -6.607  -9.018  0.00  0.00     0.025 C 
ATOM     28  H   LIG d   1       5.896  -5.063 -10.478  0.00  0.00     0.033 H 
ATOM     29  C   LIG d   1       5.571  -4.129  -8.597  0.00  0.00     0.030 C 
ATOM     30  H   LIG d   1       4.668  -6.614  -8.900  0.00  0.00     0.045 H 
ATOM     31  H   LIG d   1       6.036  -7.330  -9.783  0.00  0.00     0.045 H 
ATOM     32  N   LIG d   1       6.191  -4.017  -7.276  0.00  0.00    -0.311 N 
ATOM     33  H   LIG d   1       5.671  -3.176  -9.115  0.00  0.00     0.050 H 
ATOM     34  H   LIG d   1       4.510  -4.351  -8.471  0.00  0.00     0.050 H 
ATOM     35  C   LIG d   1       5.465  -3.401  -6.309  0.00  0.00     0.259 A 
ATOM     36  C   LIG d   1       6.043  -3.106  -5.055  0.00  0.00     0.047 A 
ATOM     37  O   LIG d   1       4.303  -3.100  -6.527  0.00  0.00    -0.267 OA
ATOM     38  C   LIG d   1       7.349  -3.504  -4.813  0.00  0.00    -0.047 A 
ATOM     39  C   LIG d   1       8.030  -4.204  -5.809  0.00  0.00    -0.041 A 
ATOM     40  H   LIG d   1       7.828  -3.276  -3.873  0.00  0.00     0.063 H 
ATOM     41  H   LIG d   1       9.044  -4.530  -5.633  0.00  0.00     0.064 H 
BRANCH  36  42
ATOM     42  C   LIG d   1       5.268  -2.385  -4.019  0.00  0.00    -0.012 A 
ATOM     43  C   LIG d   1       5.506  -1.032  -3.781  0.00  0.00    -0.042 A 
ATOM     44  C   LIG d   1       4.781  -0.366  -2.815  0.00  0.00     0.055 A 
ATOM     45  H   LIG d   1       6.256  -0.506  -4.353  0.00  0.00     0.063 H 
ATOM     46  C   LIG d   1       3.819  -1.038  -2.081  0.00  0.00    -0.050 A 
ATOM     47  C   LIG d   1       3.579  -2.381  -2.312  0.00  0.00    -0.061 A 
ATOM     48  H   LIG d   1       3.254  -0.512  -1.327  0.00  0.00     0.062 H 
ATOM     49  C   LIG d   1       4.293  -3.056  -3.279  0.00  0.00    -0.054 A 
ATOM     50  H   LIG d   1       2.826  -2.900  -1.737  0.00  0.00     0.062 H 
ATOM     51  H   LIG d   1       4.102  -4.103  -3.462  0.00  0.00     0.062 H 
BRANCH  44  52
ATOM     52  C   LIG d   1       5.037   1.097  -2.557  0.00  0.00     0.417 C 
ATOM     53  F   LIG d   1       5.009   1.339  -1.180  0.00  0.00    -0.166 F 
ATOM     54  F   LIG d   1       6.291   1.448  -3.067  0.00  0.00    -0.166 F 
ATOM     55  F   LIG d   1       4.048   1.861  -3.185  0.00  0.00    -0.166 F 
ENDBRANCH  44  52
ENDBRANCH  36  42
ENDBRANCH  13  16
ENDBRANCH   4  13
TORSDOF 4
ENDMDL
