MODEL 1
REMARK VINA RESULT:      -7.8      0.000      0.000
REMARK  7 active torsions:
REMARK  status: ('A' for Active; 'I' for Inactive)
REMARK    1  A    between atoms: C_1  and  C_2 
REMARK    2  A    between atoms: C_7  and  C_35 
REMARK    3  A    between atoms: C_18  and  C_20 
REMARK    4  A    between atoms: C_20  and  N_66 
REMARK    5  A    between atoms: C_21  and  N_66 
REMARK    6  A    between atoms: C_27  and  C_29 
REMARK    7  A    between atoms: C_29  and  C_30 
ROOT
ATOM      1  C   LIG d   1       3.136   0.317  -4.145  0.00  0.00    -0.022 C 
ATOM      2  H   LIG d   1       2.961   0.903  -5.076  0.00  0.00     0.034 H 
ATOM      3  C   LIG d   1       3.637   1.294  -3.082  0.00  0.00    -0.047 C 
ATOM      4  C   LIG d   1       4.348   0.614  -1.923  0.00  0.00    -0.052 C 
ATOM      5  C   LIG d   1       5.497  -0.284  -2.384  0.00  0.00    -0.044 C 
ATOM      6  C   LIG d   1       4.956  -1.351  -3.326  0.00  0.00    -0.007 C 
ATOM      7  C   LIG d   1       4.232  -0.680  -4.451  0.00  0.00    -0.064 C 
ATOM      8  C   LIG d   1       4.536  -0.890  -5.699  0.00  0.00    -0.076 C 
ATOM      9  C   LIG d   1       5.698  -1.666  -6.175  0.00  0.00     0.032 C 
ATOM     10  H   LIG d   1       6.215  -1.086  -6.940  0.00  0.00     0.039 H 
ATOM     11  C   LIG d   1       6.706  -2.002  -5.066  0.00  0.00     0.111 C 
ATOM     12  H   LIG d   1       7.438  -1.209  -4.924  0.00  0.00     0.074 H 
ATOM     13  C   LIG d   1       5.980  -2.365  -3.776  0.00  0.00    -0.006 C 
ATOM     14  O   LIG d   1       7.322  -3.247  -5.561  0.00  0.00    -0.460 OA
ATOM     15  C   LIG d   1       6.340  -3.984  -6.121  0.00  0.00     0.316 C 
ATOM     16  O   LIG d   1       6.265  -5.191  -6.110  0.00  0.00    -0.250 OA
ATOM     17  C   LIG d   1       5.340  -3.036  -6.760  0.00  0.00     0.106 C 
ATOM     18  H   LIG d   1       4.322  -3.315  -6.492  0.00  0.00     0.047 H 
ATOM     19  H   LIG d   1       4.324   2.009  -3.549  0.00  0.00     0.027 H 
ATOM     20  H   LIG d   1       2.786   1.864  -2.691  0.00  0.00     0.027 H 
ATOM     21  H   LIG d   1       4.772   1.400  -1.277  0.00  0.00     0.027 H 
ATOM     22  H   LIG d   1       3.636   0.061  -1.318  0.00  0.00     0.027 H 
ATOM     23  H   LIG d   1       5.961  -0.763  -1.519  0.00  0.00     0.027 H 
ATOM     24  H   LIG d   1       6.247   0.316  -2.905  0.00  0.00     0.027 H 
ATOM     25  H   LIG d   1       3.916  -0.408  -6.440  0.00  0.00     0.058 H 
ATOM     26  H   LIG d   1       5.473  -3.322  -3.910  0.00  0.00     0.031 H 
ATOM     27  H   LIG d   1       6.717  -2.480  -2.977  0.00  0.00     0.031 H 
ENDROOT
BRANCH  17  28
ATOM     28  C   LIG d   1       5.509  -3.028  -8.281  0.00  0.00    -0.019 C 
ATOM     29  H   LIG d   1       6.550  -2.818  -8.530  0.00  0.00     0.082 H 
ATOM     30  H   LIG d   1       5.229  -4.001  -8.684  0.00  0.00     0.082 H 
BRANCH  28  31
ATOM     31  N   LIG d   1       4.641  -1.984  -8.859  0.00  0.00     0.230 N 
ATOM     32  H   LIG d   1       4.986  -1.737  -9.794  0.00  0.00     0.202 HD
ATOM     33  H   LIG d   1       4.662  -1.154  -8.256  0.00  0.00     0.202 HD
BRANCH  31  34
ATOM     34  C   LIG d   1       3.253  -2.473  -8.966  0.00  0.00    -0.019 C 
ATOM     35  H   LIG d   1       2.952  -2.935  -8.026  0.00  0.00     0.085 H 
ATOM     36  C   LIG d   1       2.329  -1.294  -9.276  0.00  0.00     0.009 C 
ATOM     37  C   LIG d   1       2.751  -0.647 -10.595  0.00  0.00    -0.045 C 
ATOM     38  H   LIG d   1       1.301  -1.650  -9.358  0.00  0.00     0.036 H 
ATOM     39  C   LIG d   1       2.659  -1.677 -11.722  0.00  0.00    -0.052 C 
ATOM     40  H   LIG d   1       2.092   0.194 -10.815  0.00  0.00     0.027 H 
ATOM     41  H   LIG d   1       3.779  -0.290 -10.513  0.00  0.00     0.027 H 
ATOM     42  C   LIG d   1       3.584  -2.855 -11.413  0.00  0.00    -0.048 C 
ATOM     43  H   LIG d   1       1.632  -2.033 -11.805  0.00  0.00     0.026 H 
ATOM     44  H   LIG d   1       2.960  -1.215 -12.663  0.00  0.00     0.026 H 
ATOM     45  C   LIG d   1       3.161  -3.504 -10.093  0.00  0.00    -0.009 C 
ATOM     46  H   LIG d   1       3.518  -3.589 -12.216  0.00  0.00     0.027 H 
ATOM     47  H   LIG d   1       4.611  -2.499 -11.330  0.00  0.00     0.027 H 
ATOM     48  H   LIG d   1       3.820  -4.344  -9.873  0.00  0.00     0.032 H 
ATOM     49  H   LIG d   1       2.134  -3.860 -10.176  0.00  0.00     0.032 H 
BRANCH  36  50
ATOM     50  C   LIG d   1       2.422  -0.264  -8.148  0.00  0.00     0.013 C 
ATOM     51  H   LIG d   1       1.422   0.091  -7.897  0.00  0.00     0.035 H 
ATOM     52  H   LIG d   1       2.876  -0.725  -7.272  0.00  0.00     0.035 H 
BRANCH  50  53
ATOM     53  C   LIG d   1       3.268   0.899  -8.599  0.00  0.00     0.105 A 
ATOM     54  O   LIG d   1       4.601   0.885  -8.757  0.00  0.00    -0.468 OA
ATOM     55  C   LIG d   1       5.016   2.095  -9.169  0.00  0.00     0.092 A 
ATOM     56  C   LIG d   1       3.942   2.897  -9.279  0.00  0.00    -0.024 A 
ATOM     57  H   LIG d   1       6.038   2.374  -9.378  0.00  0.00     0.103 H 
ATOM     58  C   LIG d   1       2.815   2.126  -8.917  0.00  0.00    -0.021 A 
ATOM     59  H   LIG d   1       3.942   3.931  -9.589  0.00  0.00     0.065 H 
ATOM     60  H   LIG d   1       1.787   2.457  -8.897  0.00  0.00     0.065 H 
ENDBRANCH  50  53
ENDBRANCH  36  50
ENDBRANCH  31  34
ENDBRANCH  28  31
ENDBRANCH  17  28
BRANCH   1  61
ATOM     61  C   LIG d   1       1.809  -0.321  -3.764  0.00  0.00    -0.059 C 
ATOM     62  H   LIG d   1       1.873  -0.716  -2.750  0.00  0.00     0.024 H 
ATOM     63  H   LIG d   1       1.018   0.426  -3.814  0.00  0.00     0.024 H 
ATOM     64  H   LIG d   1       1.585  -1.134  -4.455  0.00  0.00     0.024 H 
ENDBRANCH   1  61
BRANCH   6  65
ATOM     65  C   LIG d   1       3.953  -2.188  -2.520  0.00  0.00    -0.056 C 
ATOM     66  H   LIG d   1       4.492  -2.898  -1.894  0.00  0.00     0.024 H 
ATOM     67  H   LIG d   1       3.353  -1.530  -1.892  0.00  0.00     0.024 H 
ATOM     68  H   LIG d   1       3.300  -2.730  -3.204  0.00  0.00     0.024 H 
ENDBRANCH   6  65
TORSDOF 7
ENDMDL
MODEL 2
REMARK VINA RESULT:      -7.7      2.119      7.066
REMARK  7 active torsions:
REMARK  status: ('A' for Active; 'I' for Inactive)
REMARK    1  A    between atoms: C_1  and  C_2 
REMARK    2  A    between atoms: C_7  and  C_35 
REMARK    3  A    between atoms: C_18  and  C_20 
REMARK    4  A    between atoms: C_20  and  N_66 
REMARK    5  A    between atoms: C_21  and  N_66 
REMARK    6  A    between atoms: C_27  and  C_29 
REMARK    7  A    between atoms: C_29  and  C_30 
ROOT
ATOM      1  C   LIG d   1       2.034  -3.768 -10.552  0.00  0.00    -0.022 C 
ATOM      2  H   LIG d   1       2.373  -4.452  -9.741  0.00  0.00     0.034 H 
ATOM      3  C   LIG d   1       2.654  -4.269 -11.856  0.00  0.00    -0.047 C 
ATOM      4  C   LIG d   1       2.677  -3.220 -12.957  0.00  0.00    -0.052 C 
ATOM      5  C   LIG d   1       3.364  -1.926 -12.520  0.00  0.00    -0.044 C 
ATOM      6  C   LIG d   1       2.641  -1.354 -11.309  0.00  0.00    -0.007 C 
ATOM      7  C   LIG d   1       2.594  -2.398 -10.237  0.00  0.00    -0.064 C 
ATOM      8  C   LIG d   1       3.057  -2.189  -9.040  0.00  0.00    -0.076 C 
ATOM      9  C   LIG d   1       3.816  -0.995  -8.615  0.00  0.00     0.032 C 
ATOM     10  H   LIG d   1       4.706  -1.321  -8.076  0.00  0.00     0.039 H 
ATOM     11  C   LIG d   1       4.262  -0.105  -9.784  0.00  0.00     0.111 C 
ATOM     12  H   LIG d   1       5.216  -0.423 -10.200  0.00  0.00     0.074 H 
ATOM     13  C   LIG d   1       3.165  -0.019 -10.840  0.00  0.00    -0.006 C 
ATOM     14  O   LIG d   1       4.342   1.227  -9.158  0.00  0.00    -0.460 OA
ATOM     15  C   LIG d   1       3.299   1.335  -8.310  0.00  0.00     0.316 C 
ATOM     16  O   LIG d   1       2.684   2.347  -8.067  0.00  0.00    -0.250 OA
ATOM     17  C   LIG d   1       3.025  -0.037  -7.718  0.00  0.00     0.106 C 
ATOM     18  H   LIG d   1       1.960  -0.265  -7.754  0.00  0.00     0.047 H 
ATOM     19  H   LIG d   1       3.680  -4.600 -11.660  0.00  0.00     0.027 H 
ATOM     20  H   LIG d   1       2.089  -5.140 -12.208  0.00  0.00     0.027 H 
ATOM     21  H   LIG d   1       3.243  -3.633 -13.807  0.00  0.00     0.027 H 
ATOM     22  H   LIG d   1       1.669  -3.028 -13.315  0.00  0.00     0.027 H 
ATOM     23  H   LIG d   1       3.338  -1.200 -13.336  0.00  0.00     0.027 H 
ATOM     24  H   LIG d   1       4.405  -2.131 -12.260  0.00  0.00     0.027 H 
ATOM     25  H   LIG d   1       2.922  -2.981  -8.319  0.00  0.00     0.058 H 
ATOM     26  H   LIG d   1       2.327   0.552 -10.436  0.00  0.00     0.031 H 
ATOM     27  H   LIG d   1       3.554   0.517 -11.709  0.00  0.00     0.031 H 
ENDROOT
BRANCH  17  28
ATOM     28  C   LIG d   1       3.538  -0.109  -6.278  0.00  0.00    -0.019 C 
ATOM     29  H   LIG d   1       4.376   0.577  -6.155  0.00  0.00     0.082 H 
ATOM     30  H   LIG d   1       2.738   0.169  -5.592  0.00  0.00     0.082 H 
BRANCH  28  31
ATOM     31  N   LIG d   1       3.980  -1.487  -5.989  0.00  0.00     0.230 N 
ATOM     32  H   LIG d   1       4.183  -1.969  -6.874  0.00  0.00     0.202 HD
ATOM     33  H   LIG d   1       3.232  -1.985  -5.492  0.00  0.00     0.202 HD
BRANCH  31  34
ATOM     34  C   LIG d   1       5.195  -1.472  -5.153  0.00  0.00    -0.019 C 
ATOM     35  H   LIG d   1       5.312  -0.491  -4.692  0.00  0.00     0.085 H 
ATOM     36  C   LIG d   1       5.065  -2.537  -4.062  0.00  0.00     0.009 C 
ATOM     37  C   LIG d   1       4.901  -3.913  -4.708  0.00  0.00    -0.045 C 
ATOM     38  H   LIG d   1       5.961  -2.531  -3.441  0.00  0.00     0.036 H 
ATOM     39  C   LIG d   1       6.122  -4.218  -5.576  0.00  0.00    -0.052 C 
ATOM     40  H   LIG d   1       4.808  -4.671  -3.930  0.00  0.00     0.027 H 
ATOM     41  H   LIG d   1       4.004  -3.918  -5.328  0.00  0.00     0.027 H 
ATOM     42  C   LIG d   1       6.251  -3.154  -6.668  0.00  0.00    -0.048 C 
ATOM     43  H   LIG d   1       7.019  -4.213  -4.956  0.00  0.00     0.026 H 
ATOM     44  H   LIG d   1       6.005  -5.199  -6.037  0.00  0.00     0.026 H 
ATOM     45  C   LIG d   1       6.416  -1.777  -6.021  0.00  0.00    -0.009 C 
ATOM     46  H   LIG d   1       7.122  -3.372  -7.286  0.00  0.00     0.027 H 
ATOM     47  H   LIG d   1       5.355  -3.159  -7.287  0.00  0.00     0.027 H 
ATOM     48  H   LIG d   1       6.509  -1.019  -6.799  0.00  0.00     0.032 H 
ATOM     49  H   LIG d   1       7.313  -1.773  -5.401  0.00  0.00     0.032 H 
BRANCH  36  50
ATOM     50  C   LIG d   1       3.843  -2.231  -3.193  0.00  0.00     0.013 C 
ATOM     51  H   LIG d   1       2.937  -2.339  -3.789  0.00  0.00     0.035 H 
ATOM     52  H   LIG d   1       3.811  -2.926  -2.354  0.00  0.00     0.035 H 
BRANCH  50  53
ATOM     53  C   LIG d   1       3.937  -0.820  -2.673  0.00  0.00     0.105 A 
ATOM     54  O   LIG d   1       3.091   0.182  -2.964  0.00  0.00    -0.468 OA
ATOM     55  C   LIG d   1       3.481   1.297  -2.326  0.00  0.00     0.092 A 
ATOM     56  C   LIG d   1       4.589   1.015  -1.617  0.00  0.00    -0.024 A 
ATOM     57  H   LIG d   1       2.988   2.257  -2.373  0.00  0.00     0.103 H 
ATOM     58  C   LIG d   1       4.880  -0.350  -1.838  0.00  0.00    -0.021 A 
ATOM     59  H   LIG d   1       5.147   1.700  -0.996  0.00  0.00     0.065 H 
ATOM     60  H   LIG d   1       5.703  -0.909  -1.417  0.00  0.00     0.065 H 
ENDBRANCH  50  53
ENDBRANCH  36  50
ENDBRANCH  31  34
ENDBRANCH  28  31
ENDBRANCH  17  28
BRANCH   1  61
ATOM     61  C   LIG d   1       0.513  -3.824 -10.576  0.00  0.00    -0.059 C 
ATOM     62  H   LIG d   1       0.114  -2.816 -10.692  0.00  0.00     0.024 H 
ATOM     63  H   LIG d   1       0.185  -4.443 -11.410  0.00  0.00     0.024 H 
ATOM     64  H   LIG d   1       0.151  -4.252  -9.641  0.00  0.00     0.024 H 
ENDBRANCH   1  61
BRANCH   6  65
ATOM     65  C   LIG d   1       1.206  -1.039 -11.756  0.00  0.00    -0.056 C 
ATOM     66  H   LIG d   1       1.204  -0.786 -12.816  0.00  0.00     0.024 H 
ATOM     67  H   LIG d   1       0.573  -1.909 -11.588  0.00  0.00     0.024 H 
ATOM     68  H   LIG d   1       0.824  -0.195 -11.181  0.00  0.00     0.024 H 
ENDBRANCH   6  65
TORSDOF 7
ENDMDL
MODEL 3
REMARK VINA RESULT:      -7.6      1.883      3.462
REMARK  7 active torsions:
REMARK  status: ('A' for Active; 'I' for Inactive)
REMARK    1  A    between atoms: C_1  and  C_2 
REMARK    2  A    between atoms: C_7  and  C_35 
REMARK    3  A    between atoms: C_18  and  C_20 
REMARK    4  A    between atoms: C_20  and  N_66 
REMARK    5  A    between atoms: C_21  and  N_66 
REMARK    6  A    between atoms: C_27  and  C_29 
REMARK    7  A    between atoms: C_29  and  C_30 
ROOT
ATOM      1  C   LIG d   1       3.568  -0.822  -3.261  0.00  0.00    -0.022 C 
ATOM      2  H   LIG d   1       2.605  -0.841  -3.821  0.00  0.00     0.034 H 
ATOM      3  C   LIG d   1       3.534   0.398  -2.341  0.00  0.00    -0.047 C 
ATOM      4  C   LIG d   1       4.909   0.832  -1.860  0.00  0.00    -0.052 C 
ATOM      5  C   LIG d   1       5.884   1.079  -3.012  0.00  0.00    -0.044 C 
ATOM      6  C   LIG d   1       6.027  -0.195  -3.833  0.00  0.00    -0.007 C 
ATOM      7  C   LIG d   1       4.669  -0.636  -4.282  0.00  0.00    -0.064 C 
ATOM      8  C   LIG d   1       4.378  -0.830  -5.536  0.00  0.00    -0.076 C 
ATOM      9  C   LIG d   1       5.258  -0.504  -6.676  0.00  0.00     0.032 C 
ATOM     10  H   LIG d   1       4.678   0.048  -7.417  0.00  0.00     0.039 H 
ATOM     11  C   LIG d   1       6.475   0.348  -6.287  0.00  0.00     0.111 C 
ATOM     12  H   LIG d   1       6.251   1.413  -6.302  0.00  0.00     0.074 H 
ATOM     13  C   LIG d   1       7.041  -0.109  -4.948  0.00  0.00    -0.006 C 
ATOM     14  O   LIG d   1       7.468  -0.028  -7.310  0.00  0.00    -0.460 OA
ATOM     15  C   LIG d   1       7.345  -1.356  -7.518  0.00  0.00     0.316 C 
ATOM     16  O   LIG d   1       8.245  -2.119  -7.782  0.00  0.00    -0.250 OA
ATOM     17  C   LIG d   1       5.881  -1.728  -7.356  0.00  0.00     0.106 C 
ATOM     18  H   LIG d   1       5.777  -2.612  -6.728  0.00  0.00     0.047 H 
ATOM     19  H   LIG d   1       3.064   1.234  -2.874  0.00  0.00     0.027 H 
ATOM     20  H   LIG d   1       2.908   0.171  -1.470  0.00  0.00     0.027 H 
ATOM     21  H   LIG d   1       4.792   1.778  -1.308  0.00  0.00     0.027 H 
ATOM     22  H   LIG d   1       5.307   0.106  -1.157  0.00  0.00     0.027 H 
ATOM     23  H   LIG d   1       6.859   1.368  -2.615  0.00  0.00     0.027 H 
ATOM     24  H   LIG d   1       5.506   1.883  -3.649  0.00  0.00     0.027 H 
ATOM     25  H   LIG d   1       3.391  -1.207  -5.755  0.00  0.00     0.058 H 
ATOM     26  H   LIG d   1       7.494  -1.096  -5.071  0.00  0.00     0.031 H 
ATOM     27  H   LIG d   1       7.825   0.588  -4.640  0.00  0.00     0.031 H 
ENDROOT
BRANCH  17  28
ATOM     28  C   LIG d   1       5.235  -1.964  -8.723  0.00  0.00    -0.019 C 
ATOM     29  H   LIG d   1       5.946  -1.710  -9.510  0.00  0.00     0.082 H 
ATOM     30  H   LIG d   1       4.953  -3.013  -8.816  0.00  0.00     0.082 H 
BRANCH  28  31
ATOM     31  N   LIG d   1       4.035  -1.116  -8.846  0.00  0.00     0.230 N 
ATOM     32  H   LIG d   1       4.118  -0.318  -8.204  0.00  0.00     0.202 HD
ATOM     33  H   LIG d   1       3.204  -1.666  -8.601  0.00  0.00     0.202 HD
BRANCH  31  34
ATOM     34  C   LIG d   1       3.899  -0.616 -10.227  0.00  0.00    -0.019 C 
ATOM     35  H   LIG d   1       3.898  -1.455 -10.924  0.00  0.00     0.085 H 
ATOM     36  C   LIG d   1       2.583   0.154 -10.354  0.00  0.00     0.009 C 
ATOM     37  C   LIG d   1       2.584   1.331  -9.378  0.00  0.00    -0.045 C 
ATOM     38  H   LIG d   1       2.477   0.527 -11.373  0.00  0.00     0.036 H 
ATOM     39  C   LIG d   1       3.753   2.262  -9.702  0.00  0.00    -0.052 C 
ATOM     40  H   LIG d   1       1.646   1.879  -9.468  0.00  0.00     0.027 H 
ATOM     41  H   LIG d   1       2.689   0.957  -8.358  0.00  0.00     0.027 H 
ATOM     42  C   LIG d   1       5.069   1.492  -9.574  0.00  0.00    -0.048 C 
ATOM     43  H   LIG d   1       3.648   2.636 -10.720  0.00  0.00     0.026 H 
ATOM     44  H   LIG d   1       3.754   3.101  -9.005  0.00  0.00     0.026 H 
ATOM     45  C   LIG d   1       5.068   0.315 -10.551  0.00  0.00    -0.009 C 
ATOM     46  H   LIG d   1       5.902   2.156  -9.805  0.00  0.00     0.027 H 
ATOM     47  H   LIG d   1       5.174   1.119  -8.555  0.00  0.00     0.027 H 
ATOM     48  H   LIG d   1       6.006  -0.234 -10.461  0.00  0.00     0.032 H 
ATOM     49  H   LIG d   1       4.963   0.688 -11.570  0.00  0.00     0.032 H 
BRANCH  36  50
ATOM     50  C   LIG d   1       1.413  -0.778 -10.029  0.00  0.00     0.013 C 
ATOM     51  H   LIG d   1       1.574  -1.238  -9.055  0.00  0.00     0.035 H 
ATOM     52  H   LIG d   1       0.487  -0.204 -10.012  0.00  0.00     0.035 H 
BRANCH  50  53
ATOM     53  C   LIG d   1       1.319  -1.851 -11.083  0.00  0.00     0.105 A 
ATOM     54  O   LIG d   1       1.517  -3.164 -10.885  0.00  0.00    -0.468 OA
ATOM     55  C   LIG d   1       1.353  -3.822 -12.045  0.00  0.00     0.092 A 
ATOM     56  C   LIG d   1       1.046  -2.926 -13.001  0.00  0.00    -0.024 A 
ATOM     57  H   LIG d   1       1.449  -4.889 -12.185  0.00  0.00     0.103 H 
ATOM     58  C   LIG d   1       1.020  -1.657 -12.380  0.00  0.00    -0.021 A 
ATOM     59  H   LIG d   1       0.854  -3.138 -14.042  0.00  0.00     0.065 H 
ATOM     60  H   LIG d   1       0.803  -0.712 -12.856  0.00  0.00     0.065 H 
ENDBRANCH  50  53
ENDBRANCH  36  50
ENDBRANCH  31  34
ENDBRANCH  28  31
ENDBRANCH  17  28
BRANCH   1  61
ATOM     61  C   LIG d   1       3.659  -2.128  -2.485  0.00  0.00    -0.059 C 
ATOM     62  H   LIG d   1       3.425  -1.945  -1.437  0.00  0.00     0.024 H 
ATOM     63  H   LIG d   1       2.950  -2.845  -2.897  0.00  0.00     0.024 H 
ATOM     64  H   LIG d   1       4.670  -2.529  -2.567  0.00  0.00     0.024 H 
ENDBRANCH   1  61
BRANCH   6  65
ATOM     65  C   LIG d   1       6.610  -1.263  -2.898  0.00  0.00    -0.056 C 
ATOM     66  H   LIG d   1       5.870  -1.529  -2.144  0.00  0.00     0.024 H 
ATOM     67  H   LIG d   1       6.875  -2.148  -3.476  0.00  0.00     0.024 H 
ATOM     68  H   LIG d   1       7.501  -0.870  -2.408  0.00  0.00     0.024 H 
ENDBRANCH   6  65
TORSDOF 7
ENDMDL
MODEL 4
REMARK VINA RESULT:      -7.4      1.549      7.242
REMARK  7 active torsions:
REMARK  status: ('A' for Active; 'I' for Inactive)
REMARK    1  A    between atoms: C_1  and  C_2 
REMARK    2  A    between atoms: C_7  and  C_35 
REMARK    3  A    between atoms: C_18  and  C_20 
REMARK    4  A    between atoms: C_20  and  N_66 
REMARK    5  A    between atoms: C_21  and  N_66 
REMARK    6  A    between atoms: C_27  and  C_29 
REMARK    7  A    between atoms: C_29  and  C_30 
ROOT
ATOM      1  C   LIG d   1       2.658  -3.674 -10.242  0.00  0.00    -0.022 C 
ATOM      2  H   LIG d   1       2.619  -4.329  -9.342  0.00  0.00     0.034 H 
ATOM      3  C   LIG d   1       3.687  -4.277 -11.197  0.00  0.00    -0.047 C 
ATOM      4  C   LIG d   1       4.194  -3.293 -12.240  0.00  0.00    -0.052 C 
ATOM      5  C   LIG d   1       4.753  -2.014 -11.616  0.00  0.00    -0.044 C 
ATOM      6  C   LIG d   1       3.667  -1.340 -10.789  0.00  0.00    -0.007 C 
ATOM      7  C   LIG d   1       3.150  -2.319  -9.782  0.00  0.00    -0.064 C 
ATOM      8  C   LIG d   1       3.141  -2.068  -8.505  0.00  0.00    -0.076 C 
ATOM      9  C   LIG d   1       3.763  -0.893  -7.864  0.00  0.00     0.032 C 
ATOM     10  H   LIG d   1       4.361  -1.233  -7.017  0.00  0.00     0.039 H 
ATOM     11  C   LIG d   1       4.677  -0.093  -8.803  0.00  0.00     0.111 C 
ATOM     12  H   LIG d   1       5.693  -0.481  -8.816  0.00  0.00     0.074 H 
ATOM     13  C   LIG d   1       4.066  -0.010 -10.198  0.00  0.00    -0.006 C 
ATOM     14  O   LIG d   1       4.605   1.267  -8.237  0.00  0.00    -0.460 OA
ATOM     15  C   LIG d   1       3.329   1.474  -7.852  0.00  0.00     0.316 C 
ATOM     16  O   LIG d   1       2.738   2.528  -7.892  0.00  0.00    -0.250 OA
ATOM     17  C   LIG d   1       2.760   0.152  -7.364  0.00  0.00     0.106 C 
ATOM     18  H   LIG d   1       1.775  -0.023  -7.794  0.00  0.00     0.047 H 
ATOM     19  H   LIG d   1       4.539  -4.649 -10.616  0.00  0.00     0.027 H 
ATOM     20  H   LIG d   1       3.239  -5.137 -11.709  0.00  0.00     0.027 H 
ATOM     21  H   LIG d   1       5.010  -3.781 -12.798  0.00  0.00     0.027 H 
ATOM     22  H   LIG d   1       3.412  -3.071 -12.959  0.00  0.00     0.027 H 
ATOM     23  H   LIG d   1       5.085  -1.334 -12.404  0.00  0.00     0.027 H 
ATOM     24  H   LIG d   1       5.603  -2.257 -10.974  0.00  0.00     0.027 H 
ATOM     25  H   LIG d   1       2.691  -2.811  -7.865  0.00  0.00     0.058 H 
ATOM     26  H   LIG d   1       3.178   0.625 -10.161  0.00  0.00     0.031 H 
ATOM     27  H   LIG d   1       4.790   0.458 -10.872  0.00  0.00     0.031 H 
ENDROOT
BRANCH  17  28
ATOM     28  C   LIG d   1       2.687   0.134  -5.835  0.00  0.00    -0.019 C 
ATOM     29  H   LIG d   1       2.090   0.977  -5.489  0.00  0.00     0.082 H 
ATOM     30  H   LIG d   1       2.226  -0.797  -5.504  0.00  0.00     0.082 H 
BRANCH  28  31
ATOM     31  N   LIG d   1       4.052   0.233  -5.284  0.00  0.00     0.230 N 
ATOM     32  H   LIG d   1       4.184   1.165  -4.873  0.00  0.00     0.202 HD
ATOM     33  H   LIG d   1       4.733   0.091  -6.039  0.00  0.00     0.202 HD
BRANCH  31  34
ATOM     34  C   LIG d   1       4.260  -0.792  -4.243  0.00  0.00    -0.019 C 
ATOM     35  H   LIG d   1       4.170  -1.786  -4.681  0.00  0.00     0.085 H 
ATOM     36  C   LIG d   1       5.658  -0.621  -3.644  0.00  0.00     0.009 C 
ATOM     37  C   LIG d   1       5.784   0.773  -3.029  0.00  0.00    -0.045 C 
ATOM     38  H   LIG d   1       5.817  -1.375  -2.873  0.00  0.00     0.036 H 
ATOM     39  C   LIG d   1       4.734   0.942  -1.930  0.00  0.00    -0.052 C 
ATOM     40  H   LIG d   1       6.780   0.894  -2.603  0.00  0.00     0.027 H 
ATOM     41  H   LIG d   1       5.625   1.526  -3.802  0.00  0.00     0.027 H 
ATOM     42  C   LIG d   1       3.336   0.774  -2.528  0.00  0.00    -0.048 C 
ATOM     43  H   LIG d   1       4.892   0.190  -1.157  0.00  0.00     0.026 H 
ATOM     44  H   LIG d   1       4.824   1.937  -1.491  0.00  0.00     0.026 H 
ATOM     45  C   LIG d   1       3.210  -0.622  -3.143  0.00  0.00    -0.009 C 
ATOM     46  H   LIG d   1       2.588   0.894  -1.745  0.00  0.00     0.027 H 
ATOM     47  H   LIG d   1       3.178   1.526  -3.300  0.00  0.00     0.027 H 
ATOM     48  H   LIG d   1       2.214  -0.743  -3.569  0.00  0.00     0.032 H 
ATOM     49  H   LIG d   1       3.368  -1.375  -2.371  0.00  0.00     0.032 H 
BRANCH  36  50
ATOM     50  C   LIG d   1       6.708  -0.791  -4.745  0.00  0.00     0.013 C 
ATOM     51  H   LIG d   1       6.461  -0.143  -5.585  0.00  0.00     0.035 H 
ATOM     52  H   LIG d   1       7.689  -0.523  -4.354  0.00  0.00     0.035 H 
BRANCH  50  53
ATOM     53  C   LIG d   1       6.725  -2.226  -5.205  0.00  0.00     0.105 A 
ATOM     54  O   LIG d   1       6.390  -2.662  -6.430  0.00  0.00    -0.468 OA
ATOM     55  C   LIG d   1       6.523  -3.997  -6.482  0.00  0.00     0.092 A 
ATOM     56  C   LIG d   1       6.947  -4.429  -5.281  0.00  0.00    -0.024 A 
ATOM     57  H   LIG d   1       6.325  -4.618  -7.343  0.00  0.00     0.103 H 
ATOM     58  C   LIG d   1       7.081  -3.287  -4.459  0.00  0.00    -0.021 A 
ATOM     59  H   LIG d   1       7.149  -5.452  -5.000  0.00  0.00     0.065 H 
ATOM     60  H   LIG d   1       7.407  -3.270  -3.429  0.00  0.00     0.065 H 
ENDBRANCH  50  53
ENDBRANCH  36  50
ENDBRANCH  31  34
ENDBRANCH  28  31
ENDBRANCH  17  28
BRANCH   1  61
ATOM     61  C   LIG d   1       1.258  -3.654 -10.839  0.00  0.00    -0.059 C 
ATOM     62  H   LIG d   1       1.327  -3.646 -11.927  0.00  0.00     0.024 H 
ATOM     63  H   LIG d   1       0.712  -4.539 -10.515  0.00  0.00     0.024 H 
ATOM     64  H   LIG d   1       0.733  -2.759 -10.502  0.00  0.00     0.024 H 
ENDBRANCH   1  61
BRANCH   6  65
ATOM     65  C   LIG d   1       2.532  -0.977 -11.756  0.00  0.00    -0.056 C 
ATOM     66  H   LIG d   1       2.537   0.098 -11.935  0.00  0.00     0.024 H 
ATOM     67  H   LIG d   1       2.676  -1.503 -12.699  0.00  0.00     0.024 H 
ATOM     68  H   LIG d   1       1.576  -1.268 -11.320  0.00  0.00     0.024 H 
ENDBRANCH   6  65
TORSDOF 7
ENDMDL
MODEL 5
REMARK VINA RESULT:      -7.3      5.491      7.615
REMARK  7 active torsions:
REMARK  status: ('A' for Active; 'I' for Inactive)
REMARK    1  A    between atoms: C_1  and  C_2 
REMARK    2  A    between atoms: C_7  and  C_35 
REMARK    3  A    between atoms: C_18  and  C_20 
REMARK    4  A    between atoms: C_20  and  N_66 
REMARK    5  A    between atoms: C_21  and  N_66 
REMARK    6  A    between atoms: C_27  and  C_29 
REMARK    7  A    between atoms: C_29  and  C_30 
ROOT
ATOM      1  C   LIG d   1       4.875   0.327  -2.167  0.00  0.00    -0.022 C 
ATOM      2  H   LIG d   1       5.563   0.744  -1.397  0.00  0.00     0.034 H 
ATOM      3  C   LIG d   1       4.352  -1.006  -1.634  0.00  0.00    -0.047 C 
ATOM      4  C   LIG d   1       3.782  -1.909  -2.717  0.00  0.00    -0.052 C 
ATOM      5  C   LIG d   1       4.773  -2.158  -3.854  0.00  0.00    -0.044 C 
ATOM      6  C   LIG d   1       5.170  -0.828  -4.479  0.00  0.00    -0.007 C 
ATOM      7  C   LIG d   1       5.704   0.069  -3.407  0.00  0.00    -0.064 C 
ATOM      8  C   LIG d   1       6.884   0.613  -3.476  0.00  0.00    -0.076 C 
ATOM      9  C   LIG d   1       7.901   0.314  -4.503  0.00  0.00     0.032 C 
ATOM     10  H   LIG d   1       8.855   0.130  -4.007  0.00  0.00     0.039 H 
ATOM     11  C   LIG d   1       7.563  -0.913  -5.362  0.00  0.00     0.111 C 
ATOM     12  H   LIG d   1       7.913  -1.839  -4.910  0.00  0.00     0.074 H 
ATOM     13  C   LIG d   1       6.073  -0.947  -5.682  0.00  0.00    -0.006 C 
ATOM     14  O   LIG d   1       8.254  -0.615  -6.630  0.00  0.00    -0.460 OA
ATOM     15  C   LIG d   1       8.102   0.704  -6.869  0.00  0.00     0.316 C 
ATOM     16  O   LIG d   1       7.985   1.218  -7.957  0.00  0.00    -0.250 OA
ATOM     17  C   LIG d   1       8.096   1.431  -5.535  0.00  0.00     0.106 C 
ATOM     18  H   LIG d   1       7.274   2.144  -5.491  0.00  0.00     0.047 H 
ATOM     19  H   LIG d   1       5.168  -1.533  -1.126  0.00  0.00     0.027 H 
ATOM     20  H   LIG d   1       3.573  -0.811  -0.888  0.00  0.00     0.027 H 
ATOM     21  H   LIG d   1       3.544  -2.881  -2.256  0.00  0.00     0.027 H 
ATOM     22  H   LIG d   1       2.848  -1.503  -3.092  0.00  0.00     0.027 H 
ATOM     23  H   LIG d   1       4.312  -2.795  -4.613  0.00  0.00     0.027 H 
ATOM     24  H   LIG d   1       5.664  -2.658  -3.465  0.00  0.00     0.027 H 
ATOM     25  H   LIG d   1       7.154   1.294  -2.684  0.00  0.00     0.058 H 
ATOM     26  H   LIG d   1       5.837  -0.128  -6.365  0.00  0.00     0.031 H 
ATOM     27  H   LIG d   1       5.843  -1.888  -6.188  0.00  0.00     0.031 H 
ENDROOT
BRANCH  17  28
ATOM     28  C   LIG d   1       9.433   2.140  -5.308  0.00  0.00    -0.019 C 
ATOM     29  H   LIG d   1       9.871   1.798  -4.370  0.00  0.00     0.082 H 
ATOM     30  H   LIG d   1      10.111   1.911  -6.130  0.00  0.00     0.082 H 
BRANCH  28  31
ATOM     31  N   LIG d   1       9.204   3.596  -5.246  0.00  0.00     0.230 N 
ATOM     32  H   LIG d   1       8.596   3.809  -4.446  0.00  0.00     0.202 HD
ATOM     33  H   LIG d   1       8.749   3.905  -6.113  0.00  0.00     0.202 HD
BRANCH  31  34
ATOM     34  C   LIG d   1      10.485   4.311  -5.088  0.00  0.00    -0.019 C 
ATOM     35  H   LIG d   1      11.211   3.927  -5.804  0.00  0.00     0.085 H 
ATOM     36  C   LIG d   1      10.260   5.803  -5.338  0.00  0.00     0.009 C 
ATOM     37  C   LIG d   1       9.241   6.342  -4.333  0.00  0.00    -0.045 C 
ATOM     38  H   LIG d   1      11.204   6.337  -5.221  0.00  0.00     0.036 H 
ATOM     39  C   LIG d   1       9.768   6.137  -2.912  0.00  0.00    -0.052 C 
ATOM     40  H   LIG d   1       9.082   7.406  -4.512  0.00  0.00     0.027 H 
ATOM     41  H   LIG d   1       8.297   5.808  -4.451  0.00  0.00     0.027 H 
ATOM     42  C   LIG d   1       9.991   4.644  -2.662  0.00  0.00    -0.048 C 
ATOM     43  H   LIG d   1      10.711   6.670  -2.794  0.00  0.00     0.026 H 
ATOM     44  H   LIG d   1       9.041   6.521  -2.196  0.00  0.00     0.026 H 
ATOM     45  C   LIG d   1      11.011   4.105  -3.667  0.00  0.00    -0.009 C 
ATOM     46  H   LIG d   1      10.367   4.498  -1.649  0.00  0.00     0.027 H 
ATOM     47  H   LIG d   1       9.048   4.111  -2.780  0.00  0.00     0.027 H 
ATOM     48  H   LIG d   1      11.171   3.042  -3.488  0.00  0.00     0.032 H 
ATOM     49  H   LIG d   1      11.954   4.639  -3.548  0.00  0.00     0.032 H 
BRANCH  36  50
ATOM     50  C   LIG d   1       9.733   6.009  -6.760  0.00  0.00     0.013 C 
ATOM     51  H   LIG d   1      10.221   5.305  -7.434  0.00  0.00     0.035 H 
ATOM     52  H   LIG d   1       8.657   5.840  -6.776  0.00  0.00     0.035 H 
BRANCH  50  53
ATOM     53  C   LIG d   1      10.028   7.418  -7.206  0.00  0.00     0.105 A 
ATOM     54  O   LIG d   1      11.210   7.868  -7.655  0.00  0.00    -0.468 OA
ATOM     55  C   LIG d   1      11.106   9.172  -7.961  0.00  0.00     0.092 A 
ATOM     56  C   LIG d   1       9.846   9.568  -7.707  0.00  0.00    -0.024 A 
ATOM     57  H   LIG d   1      11.900   9.795  -8.347  0.00  0.00     0.103 H 
ATOM     58  C   LIG d   1       9.150   8.437  -7.225  0.00  0.00    -0.021 A 
ATOM     59  H   LIG d   1       9.444  10.560  -7.848  0.00  0.00     0.065 H 
ATOM     60  H   LIG d   1       8.112   8.398  -6.927  0.00  0.00     0.065 H 
ENDBRANCH  50  53
ENDBRANCH  36  50
ENDBRANCH  31  34
ENDBRANCH  28  31
ENDBRANCH  17  28
BRANCH   1  61
ATOM     61  C   LIG d   1       3.762   1.346  -2.369  0.00  0.00    -0.059 C 
ATOM     62  H   LIG d   1       3.359   1.248  -3.376  0.00  0.00     0.024 H 
ATOM     63  H   LIG d   1       2.971   1.168  -1.641  0.00  0.00     0.024 H 
ATOM     64  H   LIG d   1       4.162   2.351  -2.233  0.00  0.00     0.024 H 
ENDBRANCH   1  61
BRANCH   6  65
ATOM     65  C   LIG d   1       3.888  -0.207  -5.052  0.00  0.00    -0.056 C 
ATOM     66  H   LIG d   1       4.062   0.846  -5.271  0.00  0.00     0.024 H 
ATOM     67  H   LIG d   1       3.609  -0.728  -5.967  0.00  0.00     0.024 H 
ATOM     68  H   LIG d   1       3.083  -0.297  -4.322  0.00  0.00     0.024 H 
ENDBRANCH   6  65
TORSDOF 7
ENDMDL
MODEL 6
REMARK VINA RESULT:      -7.2      2.098      4.489
REMARK  7 active torsions:
REMARK  status: ('A' for Active; 'I' for Inactive)
REMARK    1  A    between atoms: C_1  and  C_2 
REMARK    2  A    between atoms: C_7  and  C_35 
REMARK    3  A    between atoms: C_18  and  C_20 
REMARK    4  A    between atoms: C_20  and  N_66 
REMARK    5  A    between atoms: C_21  and  N_66 
REMARK    6  A    between atoms: C_27  and  C_29 
REMARK    7  A    between atoms: C_29  and  C_30 
ROOT
ATOM      1  C   LIG d   1       5.872  -0.783  -3.648  0.00  0.00    -0.022 C 
ATOM      2  H   LIG d   1       6.675  -1.394  -4.121  0.00  0.00     0.034 H 
ATOM      3  C   LIG d   1       5.184  -1.666  -2.608  0.00  0.00    -0.047 C 
ATOM      4  C   LIG d   1       3.806  -1.165  -2.205  0.00  0.00    -0.052 C 
ATOM      5  C   LIG d   1       2.881  -0.962  -3.406  0.00  0.00    -0.044 C 
ATOM      6  C   LIG d   1       3.510   0.039  -4.364  0.00  0.00    -0.007 C 
ATOM      7  C   LIG d   1       4.878  -0.442  -4.737  0.00  0.00    -0.064 C 
ATOM      8  C   LIG d   1       5.242  -0.621  -5.973  0.00  0.00    -0.076 C 
ATOM      9  C   LIG d   1       4.348  -0.534  -7.145  0.00  0.00     0.032 C 
ATOM     10  H   LIG d   1       4.510  -1.413  -7.772  0.00  0.00     0.039 H 
ATOM     11  C   LIG d   1       2.859  -0.475  -6.778  0.00  0.00     0.111 C 
ATOM     12  H   LIG d   1       2.425  -1.466  -6.664  0.00  0.00     0.074 H 
ATOM     13  C   LIG d   1       2.646   0.400  -5.548  0.00  0.00    -0.006 C 
ATOM     14  O   LIG d   1       2.278   0.260  -7.917  0.00  0.00    -0.460 OA
ATOM     15  C   LIG d   1       3.149   1.235  -8.250  0.00  0.00     0.316 C 
ATOM     16  O   LIG d   1       2.859   2.332  -8.670  0.00  0.00    -0.250 OA
ATOM     17  C   LIG d   1       4.556   0.720  -8.001  0.00  0.00     0.106 C 
ATOM     18  H   LIG d   1       5.145   1.461  -7.462  0.00  0.00     0.047 H 
ATOM     19  H   LIG d   1       5.089  -2.682  -3.007  0.00  0.00     0.027 H 
ATOM     20  H   LIG d   1       5.816  -1.723  -1.713  0.00  0.00     0.027 H 
ATOM     21  H   LIG d   1       3.348  -1.922  -1.550  0.00  0.00     0.027 H 
ATOM     22  H   LIG d   1       3.893  -0.255  -1.619  0.00  0.00     0.027 H 
ATOM     23  H   LIG d   1       1.914  -0.585  -3.068  0.00  0.00     0.027 H 
ATOM     24  H   LIG d   1       2.731  -1.914  -3.921  0.00  0.00     0.027 H 
ATOM     25  H   LIG d   1       6.268  -0.910  -6.143  0.00  0.00     0.058 H 
ATOM     26  H   LIG d   1       2.850   1.440  -5.811  0.00  0.00     0.031 H 
ATOM     27  H   LIG d   1       1.600   0.326  -5.239  0.00  0.00     0.031 H 
ENDROOT
BRANCH  17  28
ATOM     28  C   LIG d   1       5.235   0.358  -9.324  0.00  0.00    -0.019 C 
ATOM     29  H   LIG d   1       5.722   1.241  -9.737  0.00  0.00     0.082 H 
ATOM     30  H   LIG d   1       5.979  -0.419  -9.150  0.00  0.00     0.082 H 
BRANCH  28  31
ATOM     31  N   LIG d   1       4.217  -0.136 -10.271  0.00  0.00     0.230 N 
ATOM     32  H   LIG d   1       4.096   0.551 -11.025  0.00  0.00     0.202 HD
ATOM     33  H   LIG d   1       3.326  -0.261  -9.776  0.00  0.00     0.202 HD
BRANCH  31  34
ATOM     34  C   LIG d   1       4.637  -1.426 -10.849  0.00  0.00    -0.019 C 
ATOM     35  H   LIG d   1       5.283  -1.952 -10.146  0.00  0.00     0.085 H 
ATOM     36  C   LIG d   1       3.397  -2.275 -11.136  0.00  0.00     0.009 C 
ATOM     37  C   LIG d   1       2.491  -1.537 -12.123  0.00  0.00    -0.045 C 
ATOM     38  H   LIG d   1       3.701  -3.229 -11.566  0.00  0.00     0.036 H 
ATOM     39  C   LIG d   1       3.252  -1.289 -13.427  0.00  0.00    -0.052 C 
ATOM     40  H   LIG d   1       1.607  -2.142 -12.327  0.00  0.00     0.027 H 
ATOM     41  H   LIG d   1       2.186  -0.582 -11.693  0.00  0.00     0.027 H 
ATOM     42  C   LIG d   1       4.491  -0.439 -13.140  0.00  0.00    -0.048 C 
ATOM     43  H   LIG d   1       3.556  -2.242 -13.857  0.00  0.00     0.026 H 
ATOM     44  H   LIG d   1       2.606  -0.763 -14.130  0.00  0.00     0.026 H 
ATOM     45  C   LIG d   1       5.398  -1.177 -12.153  0.00  0.00    -0.009 C 
ATOM     46  H   LIG d   1       5.033  -0.262 -14.069  0.00  0.00     0.027 H 
ATOM     47  H   LIG d   1       4.186   0.515 -12.710  0.00  0.00     0.027 H 
ATOM     48  H   LIG d   1       6.282  -0.572 -11.949  0.00  0.00     0.032 H 
ATOM     49  H   LIG d   1       5.703  -2.131 -12.583  0.00  0.00     0.032 H 
BRANCH  36  50
ATOM     50  C   LIG d   1       2.636  -2.523  -9.832  0.00  0.00     0.013 C 
ATOM     51  H   LIG d   1       2.825  -1.704  -9.139  0.00  0.00     0.035 H 
ATOM     52  H   LIG d   1       1.568  -2.584 -10.041  0.00  0.00     0.035 H 
BRANCH  50  53
ATOM     53  C   LIG d   1       3.102  -3.818  -9.218  0.00  0.00     0.105 A 
ATOM     54  O   LIG d   1       2.907  -5.044  -9.729  0.00  0.00    -0.468 OA
ATOM     55  C   LIG d   1       3.458  -5.961  -8.916  0.00  0.00     0.092 A 
ATOM     56  C   LIG d   1       4.013  -5.322  -7.870  0.00  0.00    -0.024 A 
ATOM     57  H   LIG d   1       3.456  -7.029  -9.075  0.00  0.00     0.103 H 
ATOM     58  C   LIG d   1       3.788  -3.941  -8.067  0.00  0.00    -0.021 A 
ATOM     59  H   LIG d   1       4.534  -5.778  -7.042  0.00  0.00     0.065 H 
ATOM     60  H   LIG d   1       4.105  -3.138  -7.418  0.00  0.00     0.065 H 
ENDBRANCH  50  53
ENDBRANCH  36  50
ENDBRANCH  31  34
ENDBRANCH  28  31
ENDBRANCH  17  28
BRANCH   1  61
ATOM     61  C   LIG d   1       6.545   0.430  -3.023  0.00  0.00    -0.059 C 
ATOM     62  H   LIG d   1       6.817   0.204  -1.992  0.00  0.00     0.024 H 
ATOM     63  H   LIG d   1       7.441   0.680  -3.589  0.00  0.00     0.024 H 
ATOM     64  H   LIG d   1       5.857   1.276  -3.040  0.00  0.00     0.024 H 
ENDBRANCH   1  61
BRANCH   6  65
ATOM     65  C   LIG d   1       3.643   1.364  -3.599  0.00  0.00    -0.056 C 
ATOM     66  H   LIG d   1       2.654   1.707  -3.296  0.00  0.00     0.024 H 
ATOM     67  H   LIG d   1       4.263   1.213  -2.716  0.00  0.00     0.024 H 
ATOM     68  H   LIG d   1       4.104   2.111  -4.244  0.00  0.00     0.024 H 
ENDBRANCH   6  65
TORSDOF 7
ENDMDL
MODEL 7
REMARK VINA RESULT:      -7.2      1.710      7.419
REMARK  7 active torsions:
REMARK  status: ('A' for Active; 'I' for Inactive)
REMARK    1  A    between atoms: C_1  and  C_2 
REMARK    2  A    between atoms: C_7  and  C_35 
REMARK    3  A    between atoms: C_18  and  C_20 
REMARK    4  A    between atoms: C_20  and  N_66 
REMARK    5  A    between atoms: C_21  and  N_66 
REMARK    6  A    between atoms: C_27  and  C_29 
REMARK    7  A    between atoms: C_29  and  C_30 
ROOT
ATOM      1  C   LIG d   1       2.410  -3.456 -11.150  0.00  0.00    -0.022 C 
ATOM      2  H   LIG d   1       2.992  -4.347 -10.819  0.00  0.00     0.034 H 
ATOM      3  C   LIG d   1       2.786  -3.184 -12.606  0.00  0.00    -0.047 C 
ATOM      4  C   LIG d   1       2.451  -1.773 -13.063  0.00  0.00    -0.052 C 
ATOM      5  C   LIG d   1       3.065  -0.703 -12.161  0.00  0.00    -0.044 C 
ATOM      6  C   LIG d   1       2.561  -0.893 -10.737  0.00  0.00    -0.007 C 
ATOM      7  C   LIG d   1       2.866  -2.291 -10.299  0.00  0.00    -0.064 C 
ATOM      8  C   LIG d   1       3.551  -2.551  -9.224  0.00  0.00    -0.076 C 
ATOM      9  C   LIG d   1       4.243  -1.548  -8.390  0.00  0.00     0.032 C 
ATOM     10  H   LIG d   1       5.260  -1.893  -8.201  0.00  0.00     0.039 H 
ATOM     11  C   LIG d   1       4.322  -0.159  -9.041  0.00  0.00     0.111 C 
ATOM     12  H   LIG d   1       5.193  -0.057  -9.685  0.00  0.00     0.074 H 
ATOM     13  C   LIG d   1       3.020   0.166  -9.765  0.00  0.00    -0.006 C 
ATOM     14  O   LIG d   1       4.384   0.738  -7.873  0.00  0.00    -0.460 OA
ATOM     15  C   LIG d   1       3.543   0.241  -6.942  0.00  0.00     0.316 C 
ATOM     16  O   LIG d   1       2.884   0.890  -6.162  0.00  0.00    -0.250 OA
ATOM     17  C   LIG d   1       3.562  -1.274  -7.045  0.00  0.00     0.106 C 
ATOM     18  H   LIG d   1       2.547  -1.671  -7.038  0.00  0.00     0.047 H 
ATOM     19  H   LIG d   1       3.861  -3.354 -12.735  0.00  0.00     0.027 H 
ATOM     20  H   LIG d   1       2.261  -3.900 -13.250  0.00  0.00     0.027 H 
ATOM     21  H   LIG d   1       2.863  -1.639 -14.076  0.00  0.00     0.027 H 
ATOM     22  H   LIG d   1       1.375  -1.650 -13.143  0.00  0.00     0.027 H 
ATOM     23  H   LIG d   1       2.781   0.289 -12.519  0.00  0.00     0.027 H 
ATOM     24  H   LIG d   1       4.154  -0.788 -12.177  0.00  0.00     0.027 H 
ATOM     25  H   LIG d   1       3.665  -3.591  -8.958  0.00  0.00     0.058 H 
ATOM     26  H   LIG d   1       2.229   0.314  -9.026  0.00  0.00     0.031 H 
ATOM     27  H   LIG d   1       3.148   1.101 -10.317  0.00  0.00     0.031 H 
ENDROOT
BRANCH  17  28
ATOM     28  C   LIG d   1       4.379  -1.878  -5.900  0.00  0.00    -0.019 C 
ATOM     29  H   LIG d   1       3.785  -2.635  -5.389  0.00  0.00     0.082 H 
ATOM     30  H   LIG d   1       5.283  -2.336  -6.302  0.00  0.00     0.082 H 
BRANCH  28  31
ATOM     31  N   LIG d   1       4.745  -0.810  -4.951  0.00  0.00     0.230 N 
ATOM     32  H   LIG d   1       3.949  -0.170  -4.838  0.00  0.00     0.202 HD
ATOM     33  H   LIG d   1       5.551  -0.291  -5.319  0.00  0.00     0.202 HD
BRANCH  31  34
ATOM     34  C   LIG d   1       5.096  -1.387  -3.640  0.00  0.00    -0.019 C 
ATOM     35  H   LIG d   1       5.454  -2.408  -3.771  0.00  0.00     0.085 H 
ATOM     36  C   LIG d   1       6.194  -0.539  -2.995  0.00  0.00     0.009 C 
ATOM     37  C   LIG d   1       5.691   0.894  -2.811  0.00  0.00    -0.045 C 
ATOM     38  H   LIG d   1       6.456  -0.960  -2.025  0.00  0.00     0.036 H 
ATOM     39  C   LIG d   1       4.455   0.888  -1.909  0.00  0.00    -0.052 C 
ATOM     40  H   LIG d   1       6.474   1.498  -2.352  0.00  0.00     0.027 H 
ATOM     41  H   LIG d   1       5.429   1.315  -3.782  0.00  0.00     0.027 H 
ATOM     42  C   LIG d   1       3.357   0.041  -2.554  0.00  0.00    -0.048 C 
ATOM     43  H   LIG d   1       4.716   0.468  -0.938  0.00  0.00     0.026 H 
ATOM     44  H   LIG d   1       4.097   1.910  -1.778  0.00  0.00     0.026 H 
ATOM     45  C   LIG d   1       3.860  -1.392  -2.738  0.00  0.00    -0.009 C 
ATOM     46  H   LIG d   1       2.477   0.037  -1.911  0.00  0.00     0.027 H 
ATOM     47  H   LIG d   1       3.096   0.462  -3.525  0.00  0.00     0.027 H 
ATOM     48  H   LIG d   1       3.077  -1.996  -3.197  0.00  0.00     0.032 H 
ATOM     49  H   LIG d   1       4.121  -1.813  -1.767  0.00  0.00     0.032 H 
BRANCH  36  50
ATOM     50  C   LIG d   1       7.430  -0.534  -3.898  0.00  0.00     0.013 C 
ATOM     51  H   LIG d   1       7.236   0.081  -4.777  0.00  0.00     0.035 H 
ATOM     52  H   LIG d   1       8.278  -0.126  -3.349  0.00  0.00     0.035 H 
BRANCH  50  53
ATOM     53  C   LIG d   1       7.742  -1.943  -4.330  0.00  0.00     0.105 A 
ATOM     54  O   LIG d   1       7.665  -2.415  -5.584  0.00  0.00    -0.468 OA
ATOM     55  C   LIG d   1       8.013  -3.712  -5.598  0.00  0.00     0.092 A 
ATOM     56  C   LIG d   1       8.318  -4.083  -4.341  0.00  0.00    -0.024 A 
ATOM     57  H   LIG d   1       8.045  -4.349  -6.470  0.00  0.00     0.103 H 
ATOM     58  C   LIG d   1       8.147  -2.942  -3.525  0.00  0.00    -0.021 A 
ATOM     59  H   LIG d   1       8.636  -5.063  -4.019  0.00  0.00     0.065 H 
ATOM     60  H   LIG d   1       8.310  -2.883  -2.459  0.00  0.00     0.065 H 
ENDBRANCH  50  53
ENDBRANCH  36  50
ENDBRANCH  31  34
ENDBRANCH  28  31
ENDBRANCH  17  28
BRANCH   1  61
ATOM     61  C   LIG d   1       0.937  -3.801 -10.987  0.00  0.00    -0.059 C 
ATOM     62  H   LIG d   1       0.396  -2.925 -10.629  0.00  0.00     0.024 H 
ATOM     63  H   LIG d   1       0.529  -4.114 -11.947  0.00  0.00     0.024 H 
ATOM     64  H   LIG d   1       0.832  -4.612 -10.266  0.00  0.00     0.024 H 
ENDBRANCH   1  61
BRANCH   6  65
ATOM     65  C   LIG d   1       1.037  -0.707 -10.777  0.00  0.00    -0.056 C 
ATOM     66  H   LIG d   1       0.804   0.311 -11.085  0.00  0.00     0.024 H 
ATOM     67  H   LIG d   1       0.604  -1.411 -11.487  0.00  0.00     0.024 H 
ATOM     68  H   LIG d   1       0.623  -0.891  -9.786  0.00  0.00     0.024 H 
ENDBRANCH   6  65
TORSDOF 7
ENDMDL
MODEL 8
REMARK VINA RESULT:      -7.1      5.692      7.848
REMARK  7 active torsions:
REMARK  status: ('A' for Active; 'I' for Inactive)
REMARK    1  A    between atoms: C_1  and  C_2 
REMARK    2  A    between atoms: C_7  and  C_35 
REMARK    3  A    between atoms: C_18  and  C_20 
REMARK    4  A    between atoms: C_20  and  N_66 
REMARK    5  A    between atoms: C_21  and  N_66 
REMARK    6  A    between atoms: C_27  and  C_29 
REMARK    7  A    between atoms: C_29  and  C_30 
ROOT
ATOM      1  C   LIG d   1       4.546   0.012  -2.234  0.00  0.00    -0.022 C 
ATOM      2  H   LIG d   1       4.938   0.556  -1.344  0.00  0.00     0.034 H 
ATOM      3  C   LIG d   1       4.337  -1.444  -1.819  0.00  0.00    -0.047 C 
ATOM      4  C   LIG d   1       4.249  -2.402  -2.996  0.00  0.00    -0.052 C 
ATOM      5  C   LIG d   1       5.456  -2.296  -3.929  0.00  0.00    -0.044 C 
ATOM      6  C   LIG d   1       5.564  -0.873  -4.457  0.00  0.00    -0.007 C 
ATOM      7  C   LIG d   1       5.621   0.070  -3.297  0.00  0.00    -0.064 C 
ATOM      8  C   LIG d   1       6.590   0.923  -3.138  0.00  0.00    -0.076 C 
ATOM      9  C   LIG d   1       7.817   0.981  -3.958  0.00  0.00     0.032 C 
ATOM     10  H   LIG d   1       8.679   1.039  -3.292  0.00  0.00     0.039 H 
ATOM     11  C   LIG d   1       8.000  -0.237  -4.875  0.00  0.00     0.111 C 
ATOM     12  H   LIG d   1       8.512  -1.055  -4.372  0.00  0.00     0.074 H 
ATOM     13  C   LIG d   1       6.663  -0.664  -5.470  0.00  0.00    -0.006 C 
ATOM     14  O   LIG d   1       8.793   0.317  -5.987  0.00  0.00    -0.460 OA
ATOM     15  C   LIG d   1       8.318   1.554  -6.241  0.00  0.00     0.316 C 
ATOM     16  O   LIG d   1       8.256   2.081  -7.327  0.00  0.00    -0.250 OA
ATOM     17  C   LIG d   1       7.868   2.168  -4.926  0.00  0.00     0.106 C 
ATOM     18  H   LIG d   1       6.883   2.622  -5.032  0.00  0.00     0.047 H 
ATOM     19  H   LIG d   1       5.164  -1.753  -1.170  0.00  0.00     0.027 H 
ATOM     20  H   LIG d   1       3.414  -1.518  -1.231  0.00  0.00     0.027 H 
ATOM     21  H   LIG d   1       4.219  -3.428  -2.597  0.00  0.00     0.027 H 
ATOM     22  H   LIG d   1       3.320  -2.248  -3.538  0.00  0.00     0.027 H 
ATOM     23  H   LIG d   1       5.337  -2.989  -4.766  0.00  0.00     0.027 H 
ATOM     24  H   LIG d   1       6.367  -2.553  -3.383  0.00  0.00     0.027 H 
ATOM     25  H   LIG d   1       6.511   1.603  -2.304  0.00  0.00     0.058 H 
ATOM     26  H   LIG d   1       6.330   0.097  -6.179  0.00  0.00     0.031 H 
ATOM     27  H   LIG d   1       6.803  -1.599  -6.017  0.00  0.00     0.031 H 
ENDROOT
BRANCH  17  28
ATOM     28  C   LIG d   1       8.885   3.206  -4.445  0.00  0.00    -0.019 C 
ATOM     29  H   LIG d   1       8.377   4.149  -4.248  0.00  0.00     0.082 H 
ATOM     30  H   LIG d   1       9.361   2.852  -3.531  0.00  0.00     0.082 H 
BRANCH  28  31
ATOM     31  N   LIG d   1       9.908   3.402  -5.490  0.00  0.00     0.230 N 
ATOM     32  H   LIG d   1       9.603   2.934  -6.353  0.00  0.00     0.202 HD
ATOM     33  H   LIG d   1      10.796   2.995  -5.176  0.00  0.00     0.202 HD
BRANCH  31  34
ATOM     34  C   LIG d   1      10.098   4.840  -5.758  0.00  0.00    -0.019 C 
ATOM     35  H   LIG d   1       9.396   5.422  -5.160  0.00  0.00     0.085 H 
ATOM     36  C   LIG d   1      11.530   5.233  -5.389  0.00  0.00     0.009 C 
ATOM     37  C   LIG d   1      12.516   4.417  -6.227  0.00  0.00    -0.045 C 
ATOM     38  H   LIG d   1      11.678   6.295  -5.586  0.00  0.00     0.036 H 
ATOM     39  C   LIG d   1      12.277   4.697  -7.712  0.00  0.00    -0.052 C 
ATOM     40  H   LIG d   1      13.536   4.698  -5.963  0.00  0.00     0.027 H 
ATOM     41  H   LIG d   1      12.368   3.355  -6.029  0.00  0.00     0.027 H 
ATOM     42  C   LIG d   1      10.845   4.303  -8.081  0.00  0.00    -0.048 C 
ATOM     43  H   LIG d   1      12.424   5.759  -7.910  0.00  0.00     0.026 H 
ATOM     44  H   LIG d   1      12.979   4.115  -8.309  0.00  0.00     0.026 H 
ATOM     45  C   LIG d   1       9.859   5.120  -7.242  0.00  0.00    -0.009 C 
ATOM     46  H   LIG d   1      10.675   4.502  -9.138  0.00  0.00     0.027 H 
ATOM     47  H   LIG d   1      10.698   3.242  -7.883  0.00  0.00     0.027 H 
ATOM     48  H   LIG d   1       8.839   4.839  -7.506  0.00  0.00     0.032 H 
ATOM     49  H   LIG d   1      10.006   6.181  -7.440  0.00  0.00     0.032 H 
BRANCH  36  50
ATOM     50  C   LIG d   1      11.770   4.953  -3.903  0.00  0.00     0.013 C 
ATOM     51  H   LIG d   1      11.426   3.947  -3.663  0.00  0.00     0.035 H 
ATOM     52  H   LIG d   1      12.834   5.036  -3.685  0.00  0.00     0.035 H 
BRANCH  50  53
ATOM     53  C   LIG d   1      11.007   5.955  -3.075  0.00  0.00     0.105 A 
ATOM     54  O   LIG d   1      10.990   7.283  -3.269  0.00  0.00    -0.468 OA
ATOM     55  C   LIG d   1      10.207   7.862  -2.344  0.00  0.00     0.092 A 
ATOM     56  C   LIG d   1       9.713   6.899  -1.544  0.00  0.00    -0.024 A 
ATOM     57  H   LIG d   1      10.006   8.919  -2.258  0.00  0.00     0.103 H 
ATOM     58  C   LIG d   1      10.225   5.670  -2.018  0.00  0.00    -0.021 A 
ATOM     59  H   LIG d   1       9.050   7.039  -0.704  0.00  0.00     0.065 H 
ATOM     60  H   LIG d   1      10.028   4.690  -1.609  0.00  0.00     0.065 H 
ENDBRANCH  50  53
ENDBRANCH  36  50
ENDBRANCH  31  34
ENDBRANCH  28  31
ENDBRANCH  17  28
BRANCH   1  61
ATOM     61  C   LIG d   1       3.244   0.692  -2.633  0.00  0.00    -0.059 C 
ATOM     62  H   LIG d   1       3.465   1.573  -3.237  0.00  0.00     0.024 H 
ATOM     63  H   LIG d   1       2.634  -0.001  -3.210  0.00  0.00     0.024 H 
ATOM     64  H   LIG d   1       2.703   0.994  -1.736  0.00  0.00     0.024 H 
ENDBRANCH   1  61
BRANCH   6  65
ATOM     65  C   LIG d   1       4.282  -0.598  -5.257  0.00  0.00    -0.056 C 
ATOM     66  H   LIG d   1       4.173   0.475  -5.409  0.00  0.00     0.024 H 
ATOM     67  H   LIG d   1       4.341  -1.099  -6.222  0.00  0.00     0.024 H 
ATOM     68  H   LIG d   1       3.421  -0.975  -4.704  0.00  0.00     0.024 H 
ENDBRANCH   6  65
TORSDOF 7
ENDMDL
MODEL 9
REMARK VINA RESULT:      -7.1      2.813      5.665
REMARK  7 active torsions:
REMARK  status: ('A' for Active; 'I' for Inactive)
REMARK    1  A    between atoms: C_1  and  C_2 
REMARK    2  A    between atoms: C_7  and  C_35 
REMARK    3  A    between atoms: C_18  and  C_20 
REMARK    4  A    between atoms: C_20  and  N_66 
REMARK    5  A    between atoms: C_21  and  N_66 
REMARK    6  A    between atoms: C_27  and  C_29 
REMARK    7  A    between atoms: C_29  and  C_30 
ROOT
ATOM      1  C   LIG d   1       9.762  -3.925  -3.068  0.00  0.00    -0.022 C 
ATOM      2  H   LIG d   1       9.657  -2.826  -3.216  0.00  0.00     0.034 H 
ATOM      3  C   LIG d   1      11.198  -4.296  -3.437  0.00  0.00    -0.047 C 
ATOM      4  C   LIG d   1      11.384  -5.775  -3.733  0.00  0.00    -0.052 C 
ATOM      5  C   LIG d   1      10.425  -6.283  -4.811  0.00  0.00    -0.044 C 
ATOM      6  C   LIG d   1       8.991  -6.046  -4.362  0.00  0.00    -0.007 C 
ATOM      7  C   LIG d   1       8.818  -4.594  -4.043  0.00  0.00    -0.064 C 
ATOM      8  C   LIG d   1       7.902  -3.861  -4.606  0.00  0.00    -0.076 C 
ATOM      9  C   LIG d   1       7.032  -4.290  -5.719  0.00  0.00     0.032 C 
ATOM     10  H   LIG d   1       7.042  -3.516  -6.488  0.00  0.00     0.039 H 
ATOM     11  C   LIG d   1       7.469  -5.613  -6.364  0.00  0.00     0.111 C 
ATOM     12  H   LIG d   1       8.206  -5.462  -7.150  0.00  0.00     0.074 H 
ATOM     13  C   LIG d   1       7.943  -6.595  -5.299  0.00  0.00    -0.006 C 
ATOM     14  O   LIG d   1       6.198  -6.148  -6.887  0.00  0.00    -0.460 OA
ATOM     15  C   LIG d   1       5.244  -5.880  -5.971  0.00  0.00     0.316 C 
ATOM     16  O   LIG d   1       4.290  -6.578  -5.716  0.00  0.00    -0.250 OA
ATOM     17  C   LIG d   1       5.578  -4.553  -5.312  0.00  0.00     0.106 C 
ATOM     18  H   LIG d   1       5.489  -4.630  -4.229  0.00  0.00     0.047 H 
ATOM     19  H   LIG d   1      11.503  -3.716  -4.316  0.00  0.00     0.027 H 
ATOM     20  H   LIG d   1      11.863  -4.013  -2.612  0.00  0.00     0.027 H 
ATOM     21  H   LIG d   1      12.413  -5.921  -4.100  0.00  0.00     0.027 H 
ATOM     22  H   LIG d   1      11.292  -6.356  -2.820  0.00  0.00     0.027 H 
ATOM     23  H   LIG d   1      10.585  -7.352  -4.973  0.00  0.00     0.027 H 
ATOM     24  H   LIG d   1      10.608  -5.750  -5.747  0.00  0.00     0.027 H 
ATOM     25  H   LIG d   1       7.816  -2.841  -4.265  0.00  0.00     0.058 H 
ATOM     26  H   LIG d   1       7.087  -6.914  -4.702  0.00  0.00     0.031 H 
ATOM     27  H   LIG d   1       8.359  -7.477  -5.794  0.00  0.00     0.031 H 
ENDROOT
BRANCH  17  28
ATOM     28  C   LIG d   1       4.665  -3.447  -5.846  0.00  0.00    -0.019 C 
ATOM     29  H   LIG d   1       5.213  -2.840  -6.568  0.00  0.00     0.082 H 
ATOM     30  H   LIG d   1       3.798  -3.893  -6.333  0.00  0.00     0.082 H 
BRANCH  28  31
ATOM     31  N   LIG d   1       4.221  -2.601  -4.722  0.00  0.00     0.230 N 
ATOM     32  H   LIG d   1       4.464  -3.061  -3.836  0.00  0.00     0.202 HD
ATOM     33  H   LIG d   1       3.204  -2.475  -4.774  0.00  0.00     0.202 HD
BRANCH  31  34
ATOM     34  C   LIG d   1       4.879  -1.282  -4.782  0.00  0.00    -0.019 C 
ATOM     35  H   LIG d   1       5.585  -1.259  -5.613  0.00  0.00     0.085 H 
ATOM     36  C   LIG d   1       3.816  -0.200  -4.986  0.00  0.00     0.009 C 
ATOM     37  C   LIG d   1       2.826  -0.231  -3.821  0.00  0.00    -0.045 C 
ATOM     38  H   LIG d   1       4.296   0.778  -5.030  0.00  0.00     0.036 H 
ATOM     39  C   LIG d   1       3.572   0.028  -2.511  0.00  0.00    -0.052 C 
ATOM     40  H   LIG d   1       2.069   0.540  -3.966  0.00  0.00     0.027 H 
ATOM     41  H   LIG d   1       2.345  -1.209  -3.778  0.00  0.00     0.027 H 
ATOM     42  C   LIG d   1       4.634  -1.054  -2.306  0.00  0.00    -0.048 C 
ATOM     43  H   LIG d   1       4.052   1.005  -2.553  0.00  0.00     0.026 H 
ATOM     44  H   LIG d   1       2.866   0.005  -1.680  0.00  0.00     0.026 H 
ATOM     45  C   LIG d   1       5.625  -1.023  -3.472  0.00  0.00    -0.009 C 
ATOM     46  H   LIG d   1       5.166  -0.870  -1.373  0.00  0.00     0.027 H 
ATOM     47  H   LIG d   1       4.154  -2.032  -2.264  0.00  0.00     0.027 H 
ATOM     48  H   LIG d   1       6.382  -1.794  -3.326  0.00  0.00     0.032 H 
ATOM     49  H   LIG d   1       6.105  -0.046  -3.514  0.00  0.00     0.032 H 
BRANCH  36  50
ATOM     50  C   LIG d   1       3.069  -0.459  -6.297  0.00  0.00     0.013 C 
ATOM     51  H   LIG d   1       3.251  -1.483  -6.622  0.00  0.00     0.035 H 
ATOM     52  H   LIG d   1       2.001  -0.311  -6.141  0.00  0.00     0.035 H 
BRANCH  50  53
ATOM     53  C   LIG d   1       3.561   0.498  -7.352  0.00  0.00     0.105 A 
ATOM     54  O   LIG d   1       4.840   0.665  -7.725  0.00  0.00    -0.468 OA
ATOM     55  C   LIG d   1       4.907   1.599  -8.688  0.00  0.00     0.092 A 
ATOM     56  C   LIG d   1       3.661   2.041  -8.939  0.00  0.00    -0.024 A 
ATOM     57  H   LIG d   1       5.808   1.937  -9.178  0.00  0.00     0.103 H 
ATOM     58  C   LIG d   1       2.794   1.328  -8.081  0.00  0.00    -0.021 A 
ATOM     59  H   LIG d   1       3.379   2.793  -9.660  0.00  0.00     0.065 H 
ATOM     60  H   LIG d   1       1.720   1.430  -8.021  0.00  0.00     0.065 H 
ENDBRANCH  50  53
ENDBRANCH  36  50
ENDBRANCH  31  34
ENDBRANCH  28  31
ENDBRANCH  17  28
BRANCH   1  61
ATOM     61  C   LIG d   1       9.448  -4.212  -1.607  0.00  0.00    -0.059 C 
ATOM     62  H   LIG d   1      10.378  -4.292  -1.045  0.00  0.00     0.024 H 
ATOM     63  H   LIG d   1       8.845  -3.401  -1.200  0.00  0.00     0.024 H 
ATOM     64  H   LIG d   1       8.896  -5.149  -1.532  0.00  0.00     0.024 H 
ENDBRANCH   1  61
BRANCH   6  65
ATOM     65  C   LIG d   1       8.786  -6.863  -3.078  0.00  0.00    -0.056 C 
ATOM     66  H   LIG d   1       8.391  -6.216  -2.295  0.00  0.00     0.024 H 
ATOM     67  H   LIG d   1       8.084  -7.673  -3.270  0.00  0.00     0.024 H 
ATOM     68  H   LIG d   1       9.741  -7.279  -2.756  0.00  0.00     0.024 H 
ENDBRANCH   6  65
TORSDOF 7
ENDMDL
MODEL 10
REMARK VINA RESULT:      -7.0      4.806      6.882
REMARK  7 active torsions:
REMARK  status: ('A' for Active; 'I' for Inactive)
REMARK    1  A    between atoms: C_1  and  C_2 
REMARK    2  A    between atoms: C_7  and  C_35 
REMARK    3  A    between atoms: C_18  and  C_20 
REMARK    4  A    between atoms: C_20  and  N_66 
REMARK    5  A    between atoms: C_21  and  N_66 
REMARK    6  A    between atoms: C_27  and  C_29 
REMARK    7  A    between atoms: C_29  and  C_30 
ROOT
ATOM      1  C   LIG d   1      11.040   5.126  -3.580  0.00  0.00    -0.022 C 
ATOM      2  H   LIG d   1      10.227   5.656  -3.031  0.00  0.00     0.034 H 
ATOM      3  C   LIG d   1      11.603   6.104  -4.610  0.00  0.00    -0.047 C 
ATOM      4  C   LIG d   1      12.378   5.425  -5.728  0.00  0.00    -0.052 C 
ATOM      5  C   LIG d   1      11.562   4.342  -6.434  0.00  0.00    -0.044 C 
ATOM      6  C   LIG d   1      11.135   3.290  -5.420  0.00  0.00    -0.007 C 
ATOM      7  C   LIG d   1      10.397   3.964  -4.306  0.00  0.00    -0.064 C 
ATOM      8  C   LIG d   1       9.193   3.616  -3.956  0.00  0.00    -0.076 C 
ATOM      9  C   LIG d   1       8.341   2.651  -4.678  0.00  0.00     0.032 C 
ATOM     10  H   LIG d   1       7.352   3.090  -4.813  0.00  0.00     0.039 H 
ATOM     11  C   LIG d   1       8.887   2.265  -6.061  0.00  0.00     0.111 C 
ATOM     12  H   LIG d   1       8.563   2.957  -6.836  0.00  0.00     0.074 H 
ATOM     13  C   LIG d   1      10.403   2.111  -6.013  0.00  0.00    -0.006 C 
ATOM     14  O   LIG d   1       8.336   0.911  -6.255  0.00  0.00    -0.460 OA
ATOM     15  C   LIG d   1       8.405   0.277  -5.066  0.00  0.00     0.316 C 
ATOM     16  O   LIG d   1       8.612  -0.903  -4.903  0.00  0.00    -0.250 OA
ATOM     17  C   LIG d   1       8.182   1.302  -3.967  0.00  0.00     0.106 C 
ATOM     18  H   LIG d   1       8.929   1.190  -3.182  0.00  0.00     0.047 H 
ATOM     19  H   LIG d   1      10.777   6.677  -5.048  0.00  0.00     0.027 H 
ATOM     20  H   LIG d   1      12.264   6.816  -4.102  0.00  0.00     0.027 H 
ATOM     21  H   LIG d   1      12.638   6.192  -6.474  0.00  0.00     0.027 H 
ATOM     22  H   LIG d   1      13.314   5.026  -5.348  0.00  0.00     0.027 H 
ATOM     23  H   LIG d   1      12.167   3.873  -7.213  0.00  0.00     0.027 H 
ATOM     24  H   LIG d   1      10.676   4.788  -6.892  0.00  0.00     0.027 H 
ATOM     25  H   LIG d   1       8.769   4.120  -3.101  0.00  0.00     0.058 H 
ATOM     26  H   LIG d   1      10.652   1.226  -5.423  0.00  0.00     0.031 H 
ATOM     27  H   LIG d   1      10.773   1.957  -7.029  0.00  0.00     0.031 H 
ENDROOT
BRANCH  17  28
ATOM     28  C   LIG d   1       6.772   1.166  -3.388  0.00  0.00    -0.019 C 
ATOM     29  H   LIG d   1       6.828   1.123  -2.300  0.00  0.00     0.082 H 
ATOM     30  H   LIG d   1       6.173   2.026  -3.686  0.00  0.00     0.082 H 
BRANCH  28  31
ATOM     31  N   LIG d   1       6.154  -0.070  -3.903  0.00  0.00     0.230 N 
ATOM     32  H   LIG d   1       6.343  -0.840  -3.250  0.00  0.00     0.202 HD
ATOM     33  H   LIG d   1       6.556  -0.293  -4.821  0.00  0.00     0.202 HD
BRANCH  31  34
ATOM     34  C   LIG d   1       4.695   0.104  -4.039  0.00  0.00    -0.019 C 
ATOM     35  H   LIG d   1       4.485   0.978  -4.657  0.00  0.00     0.085 H 
ATOM     36  C   LIG d   1       4.101  -1.142  -4.698  0.00  0.00     0.009 C 
ATOM     37  C   LIG d   1       4.395  -2.367  -3.832  0.00  0.00    -0.045 C 
ATOM     38  H   LIG d   1       3.022  -1.020  -4.800  0.00  0.00     0.036 H 
ATOM     39  C   LIG d   1       3.772  -2.176  -2.448  0.00  0.00    -0.052 C 
ATOM     40  H   LIG d   1       3.972  -3.255  -4.302  0.00  0.00     0.027 H 
ATOM     41  H   LIG d   1       5.474  -2.490  -3.730  0.00  0.00     0.027 H 
ATOM     42  C   LIG d   1       4.367  -0.931  -1.789  0.00  0.00    -0.048 C 
ATOM     43  H   LIG d   1       2.694  -2.054  -2.549  0.00  0.00     0.026 H 
ATOM     44  H   LIG d   1       3.983  -3.049  -1.831  0.00  0.00     0.026 H 
ATOM     45  C   LIG d   1       4.072   0.296  -2.655  0.00  0.00    -0.009 C 
ATOM     46  H   LIG d   1       3.923  -0.794  -0.803  0.00  0.00     0.027 H 
ATOM     47  H   LIG d   1       5.446  -1.053  -1.688  0.00  0.00     0.027 H 
ATOM     48  H   LIG d   1       4.496   1.184  -2.185  0.00  0.00     0.032 H 
ATOM     49  H   LIG d   1       2.994   0.418  -2.756  0.00  0.00     0.032 H 
BRANCH  36  50
ATOM     50  C   LIG d   1       4.724  -1.334  -6.083  0.00  0.00     0.013 C 
ATOM     51  H   LIG d   1       5.808  -1.242  -6.009  0.00  0.00     0.035 H 
ATOM     52  H   LIG d   1       4.468  -2.322  -6.462  0.00  0.00     0.035 H 
BRANCH  50  53
ATOM     53  C   LIG d   1       4.194  -0.281  -7.022  0.00  0.00     0.105 A 
ATOM     54  O   LIG d   1       4.936   0.598  -7.715  0.00  0.00    -0.468 OA
ATOM     55  C   LIG d   1       4.130   1.385  -8.447  0.00  0.00     0.092 A 
ATOM     56  C   LIG d   1       2.857   1.012  -8.225  0.00  0.00    -0.024 A 
ATOM     57  H   LIG d   1       4.451   2.180  -9.103  0.00  0.00     0.103 H 
ATOM     58  C   LIG d   1       2.898  -0.064  -7.310  0.00  0.00    -0.021 A 
ATOM     59  H   LIG d   1       1.973   1.449  -8.665  0.00  0.00     0.065 H 
ATOM     60  H   LIG d   1       2.052  -0.608  -6.917  0.00  0.00     0.065 H 
ENDBRANCH  50  53
ENDBRANCH  36  50
ENDBRANCH  31  34
ENDBRANCH  28  31
ENDBRANCH  17  28
BRANCH   1  61
ATOM     61  C   LIG d   1      12.078   4.711  -2.548  0.00  0.00    -0.059 C 
ATOM     62  H   LIG d   1      12.850   4.111  -3.030  0.00  0.00     0.024 H 
ATOM     63  H   LIG d   1      12.529   5.600  -2.108  0.00  0.00     0.024 H 
ATOM     64  H   LIG d   1      11.597   4.123  -1.765  0.00  0.00     0.024 H 
ENDBRANCH   1  61
BRANCH   6  65
ATOM     65  C   LIG d   1      12.421   2.668  -4.857  0.00  0.00    -0.056 C 
ATOM     66  H   LIG d   1      12.917   3.387  -4.206  0.00  0.00     0.024 H 
ATOM     67  H   LIG d   1      12.173   1.772  -4.289  0.00  0.00     0.024 H 
ATOM     68  H   LIG d   1      13.086   2.404  -5.679  0.00  0.00     0.024 H 
ENDBRANCH   6  65
TORSDOF 7
ENDMDL
