MODEL 1
REMARK VINA RESULT:      -5.6      0.000      0.000
REMARK  6 active torsions:
REMARK  status: ('A' for Active; 'I' for Inactive)
REMARK    1  A    between atoms: C_1  and  C_2 
REMARK    2  A    between atoms: C_2  and  C_4 
REMARK    3  A    between atoms: C_2  and  O_18 
REMARK    4  A    between atoms: C_4  and  C_6 
REMARK    5  A    between atoms: C_6  and  C_7 
REMARK    6  A    between atoms: C_13  and  O_17 
ROOT
ATOM      1  C   LIG d   1       5.882  -2.203  -5.448  0.00  0.00     0.091 C 
ATOM      2  H   LIG d   1       5.187  -2.122  -6.296  0.00  0.00     0.065 H 
ATOM      3  C   LIG d   1       5.252  -1.782  -4.141  0.00  0.00    -0.010 A 
ATOM      4  C   LIG d   1       4.389  -2.417  -3.272  0.00  0.00    -0.056 A 
ATOM      5  C   LIG d   1       3.960  -1.771  -2.126  0.00  0.00    -0.058 A 
ATOM      6  C   LIG d   1       4.390  -0.487  -1.853  0.00  0.00    -0.020 A 
ATOM      7  C   LIG d   1       5.253   0.157  -2.729  0.00  0.00     0.123 A 
ATOM      8  C   LIG d   1       5.680  -0.492  -3.875  0.00  0.00     0.025 A 
ATOM      9  C   LIG d   1       6.597  -0.081  -5.003  0.00  0.00     0.077 C 
ATOM     10  O   LIG d   1       6.982  -1.301  -5.665  0.00  0.00    -0.367 OA
ATOM     11  H   LIG d   1       4.053  -3.422  -3.483  0.00  0.00     0.062 H 
ATOM     12  H   LIG d   1       3.287  -2.271  -1.445  0.00  0.00     0.062 H 
ATOM     13  H   LIG d   1       4.053   0.017  -0.959  0.00  0.00     0.065 H 
ATOM     14  H   LIG d   1       6.056   0.589  -5.689  0.00  0.00     0.061 H 
ATOM     15  H   LIG d   1       7.472   0.443  -4.593  0.00  0.00     0.061 H 
ENDROOT
BRANCH   1  16
ATOM     16  C   LIG d   1       6.394  -3.641  -5.343  0.00  0.00     0.039 C 
ATOM     17  H   LIG d   1       6.333  -3.978  -4.298  0.00  0.00     0.037 H 
ATOM     18  H   LIG d   1       7.440  -3.685  -5.681  0.00  0.00     0.037 H 
BRANCH  16  19
ATOM     19  C   LIG d   1       5.548  -4.539  -6.210  0.00  0.00     0.164 C 
ATOM     20  O   LIG d   1       5.729  -4.571  -7.403  0.00  0.00    -0.295 OA
BRANCH  19  21
ATOM     21  C   LIG d   1       4.478  -5.398  -5.586  0.00  0.00     0.110 C 
ATOM     22  H   LIG d   1       4.345  -5.135  -4.526  0.00  0.00     0.067 H 
BRANCH  21  23
ATOM     23  C   LIG d   1       4.841  -6.873  -5.761  0.00  0.00    -0.032 C 
ATOM     24  H   LIG d   1       5.880  -6.957  -6.116  0.00  0.00     0.026 H 
ATOM     25  H   LIG d   1       4.164  -7.333  -6.497  0.00  0.00     0.026 H 
ATOM     26  H   LIG d   1       4.741  -7.392  -4.797  0.00  0.00     0.026 H 
ENDBRANCH  21  23
BRANCH  21  27
ATOM     27  O   LIG d   1       3.227  -5.136  -6.224  0.00  0.00    -0.385 OA
ATOM     28  H   LIG d   1       2.412  -5.872  -6.158  0.00  0.00     0.210 HD
ENDBRANCH  21  27
ENDBRANCH  19  21
ENDBRANCH  16  19
ENDBRANCH   1  16
BRANCH   7  29
ATOM     29  O   LIG d   1       5.676   1.420  -2.463  0.00  0.00    -0.506 OA
ATOM     30  H   LIG d   1       5.784   1.755  -1.421  0.00  0.00     0.292 HD
ENDBRANCH   7  29
TORSDOF 6
ENDMDL
MODEL 2
REMARK VINA RESULT:      -5.5      3.075      6.260
REMARK  6 active torsions:
REMARK  status: ('A' for Active; 'I' for Inactive)
REMARK    1  A    between atoms: C_1  and  C_2 
REMARK    2  A    between atoms: C_2  and  C_4 
REMARK    3  A    between atoms: C_2  and  O_18 
REMARK    4  A    between atoms: C_4  and  C_6 
REMARK    5  A    between atoms: C_6  and  C_7 
REMARK    6  A    between atoms: C_13  and  O_17 
ROOT
ATOM      1  C   LIG d   1       7.350   0.440  -3.700  0.00  0.00     0.091 C 
ATOM      2  H   LIG d   1       8.041   0.060  -2.934  0.00  0.00     0.065 H 
ATOM      3  C   LIG d   1       5.912   0.438  -3.236  0.00  0.00    -0.010 A 
ATOM      4  C   LIG d   1       5.194   1.282  -2.414  0.00  0.00    -0.056 A 
ATOM      5  C   LIG d   1       3.861   1.023  -2.151  0.00  0.00    -0.058 A 
ATOM      6  C   LIG d   1       3.247  -0.085  -2.705  0.00  0.00    -0.020 A 
ATOM      7  C   LIG d   1       3.970  -0.940  -3.526  0.00  0.00     0.123 A 
ATOM      8  C   LIG d   1       5.304  -0.677  -3.788  0.00  0.00     0.025 A 
ATOM      9  C   LIG d   1       6.344  -1.391  -4.619  0.00  0.00     0.077 C 
ATOM     10  O   LIG d   1       7.397  -0.435  -4.842  0.00  0.00    -0.367 OA
ATOM     11  H   LIG d   1       5.670   2.149  -1.981  0.00  0.00     0.062 H 
ATOM     12  H   LIG d   1       3.298   1.686  -1.510  0.00  0.00     0.062 H 
ATOM     13  H   LIG d   1       2.207  -0.286  -2.498  0.00  0.00     0.065 H 
ATOM     14  H   LIG d   1       6.713  -2.269  -4.069  0.00  0.00     0.061 H 
ATOM     15  H   LIG d   1       5.894  -1.716  -5.569  0.00  0.00     0.061 H 
ENDROOT
BRANCH   1  16
ATOM     16  C   LIG d   1       7.766   1.856  -4.105  0.00  0.00     0.039 C 
ATOM     17  H   LIG d   1       7.225   2.589  -3.488  0.00  0.00     0.037 H 
ATOM     18  H   LIG d   1       7.525   2.021  -5.165  0.00  0.00     0.037 H 
BRANCH  16  19
ATOM     19  C   LIG d   1       9.250   2.023  -3.895  0.00  0.00     0.164 C 
ATOM     20  O   LIG d   1      10.019   1.222  -4.368  0.00  0.00    -0.295 OA
BRANCH  19  21
ATOM     21  C   LIG d   1       9.771   3.189  -3.097  0.00  0.00     0.110 C 
ATOM     22  H   LIG d   1       8.963   3.638  -2.500  0.00  0.00     0.067 H 
BRANCH  21  23
ATOM     23  C   LIG d   1      10.409   4.210  -4.041  0.00  0.00    -0.032 C 
ATOM     24  H   LIG d   1       9.693   5.021  -4.242  0.00  0.00     0.026 H 
ATOM     25  H   LIG d   1      10.679   3.717  -4.988  0.00  0.00     0.026 H 
ATOM     26  H   LIG d   1      11.313   4.627  -3.575  0.00  0.00     0.026 H 
ENDBRANCH  21  23
BRANCH  21  27
ATOM     27  O   LIG d   1      10.749   2.728  -2.164  0.00  0.00    -0.385 OA
ATOM     28  H   LIG d   1      11.451   3.440  -1.705  0.00  0.00     0.210 HD
ENDBRANCH  21  27
ENDBRANCH  19  21
ENDBRANCH  16  19
ENDBRANCH   1  16
BRANCH   7  29
ATOM     29  O   LIG d   1       3.369  -2.029  -4.071  0.00  0.00    -0.506 OA
ATOM     30  H   LIG d   1       2.563  -1.901  -4.809  0.00  0.00     0.292 HD
ENDBRANCH   7  29
TORSDOF 6
ENDMDL
MODEL 3
REMARK VINA RESULT:      -5.4      3.776      5.749
REMARK  6 active torsions:
REMARK  status: ('A' for Active; 'I' for Inactive)
REMARK    1  A    between atoms: C_1  and  C_2 
REMARK    2  A    between atoms: C_2  and  C_4 
REMARK    3  A    between atoms: C_2  and  O_18 
REMARK    4  A    between atoms: C_4  and  C_6 
REMARK    5  A    between atoms: C_6  and  C_7 
REMARK    6  A    between atoms: C_13  and  O_17 
ROOT
ATOM      1  C   LIG d   1       3.576  -0.348  -6.514  0.00  0.00     0.091 C 
ATOM      2  H   LIG d   1       3.152  -1.317  -6.818  0.00  0.00     0.065 H 
ATOM      3  C   LIG d   1       3.650   0.636  -7.658  0.00  0.00    -0.010 A 
ATOM      4  C   LIG d   1       2.705   1.435  -8.267  0.00  0.00    -0.056 A 
ATOM      5  C   LIG d   1       3.065   2.250  -9.325  0.00  0.00    -0.058 A 
ATOM      6  C   LIG d   1       4.371   2.262  -9.777  0.00  0.00    -0.020 A 
ATOM      7  C   LIG d   1       5.323   1.454  -9.171  0.00  0.00     0.123 A 
ATOM      8  C   LIG d   1       4.959   0.639  -8.112  0.00  0.00     0.025 A 
ATOM      9  C   LIG d   1       5.734  -0.334  -7.255  0.00  0.00     0.077 C 
ATOM     10  O   LIG d   1       4.932  -0.553  -6.080  0.00  0.00    -0.367 OA
ATOM     11  H   LIG d   1       1.684   1.428  -7.915  0.00  0.00     0.062 H 
ATOM     12  H   LIG d   1       2.325   2.878  -9.799  0.00  0.00     0.062 H 
ATOM     13  H   LIG d   1       4.651   2.899 -10.604  0.00  0.00     0.065 H 
ATOM     14  H   LIG d   1       5.888  -1.271  -7.812  0.00  0.00     0.061 H 
ATOM     15  H   LIG d   1       6.710   0.102  -6.996  0.00  0.00     0.061 H 
ENDROOT
BRANCH   1  16
ATOM     16  C   LIG d   1       2.740   0.238  -5.374  0.00  0.00     0.039 C 
ATOM     17  H   LIG d   1       1.780  -0.296  -5.309  0.00  0.00     0.037 H 
ATOM     18  H   LIG d   1       2.553   1.305  -5.567  0.00  0.00     0.037 H 
BRANCH  16  19
ATOM     19  C   LIG d   1       3.488   0.086  -4.074  0.00  0.00     0.164 C 
ATOM     20  O   LIG d   1       4.248   0.951  -3.711  0.00  0.00    -0.295 OA
BRANCH  19  21
ATOM     21  C   LIG d   1       3.285  -1.143  -3.227  0.00  0.00     0.110 C 
ATOM     22  H   LIG d   1       2.234  -1.221  -2.909  0.00  0.00     0.067 H 
BRANCH  21  23
ATOM     23  C   LIG d   1       4.236  -1.102  -2.030  0.00  0.00    -0.032 C 
ATOM     24  H   LIG d   1       5.261  -1.317  -2.368  0.00  0.00     0.026 H 
ATOM     25  H   LIG d   1       3.928  -1.857  -1.290  0.00  0.00     0.026 H 
ATOM     26  H   LIG d   1       4.204  -0.104  -1.570  0.00  0.00     0.026 H 
ENDBRANCH  21  23
BRANCH  21  27
ATOM     27  O   LIG d   1       3.552  -2.309  -4.009  0.00  0.00    -0.385 OA
ATOM     28  H   LIG d   1       3.677  -2.224  -5.098  0.00  0.00     0.210 HD
ENDBRANCH  21  27
ENDBRANCH  19  21
ENDBRANCH  16  19
ENDBRANCH   1  16
BRANCH   7  29
ATOM     29  O   LIG d   1       6.607   1.463  -9.614  0.00  0.00    -0.506 OA
ATOM     30  H   LIG d   1       7.084   0.526  -9.937  0.00  0.00     0.292 HD
ENDBRANCH   7  29
TORSDOF 6
ENDMDL
MODEL 4
REMARK VINA RESULT:      -5.3      2.519      3.379
REMARK  6 active torsions:
REMARK  status: ('A' for Active; 'I' for Inactive)
REMARK    1  A    between atoms: C_1  and  C_2 
REMARK    2  A    between atoms: C_2  and  C_4 
REMARK    3  A    between atoms: C_2  and  O_18 
REMARK    4  A    between atoms: C_4  and  C_6 
REMARK    5  A    between atoms: C_6  and  C_7 
REMARK    6  A    between atoms: C_13  and  O_17 
ROOT
ATOM      1  C   LIG d   1       7.007  -2.195  -4.699  0.00  0.00     0.091 C 
ATOM      2  H   LIG d   1       6.705  -2.151  -5.755  0.00  0.00     0.065 H 
ATOM      3  C   LIG d   1       5.880  -1.835  -3.759  0.00  0.00    -0.010 A 
ATOM      4  C   LIG d   1       4.786  -2.537  -3.298  0.00  0.00    -0.056 A 
ATOM      5  C   LIG d   1       3.892  -1.936  -2.430  0.00  0.00    -0.058 A 
ATOM      6  C   LIG d   1       4.090  -0.629  -2.028  0.00  0.00    -0.020 A 
ATOM      7  C   LIG d   1       5.186   0.083  -2.495  0.00  0.00     0.123 A 
ATOM      8  C   LIG d   1       6.079  -0.522  -3.364  0.00  0.00     0.025 A 
ATOM      9  C   LIG d   1       7.341  -0.036  -4.038  0.00  0.00     0.077 C 
ATOM     10  O   LIG d   1       8.039  -1.219  -4.471  0.00  0.00    -0.367 OA
ATOM     11  H   LIG d   1       4.630  -3.559  -3.611  0.00  0.00     0.062 H 
ATOM     12  H   LIG d   1       3.038  -2.488  -2.067  0.00  0.00     0.062 H 
ATOM     13  H   LIG d   1       3.391  -0.160  -1.350  0.00  0.00     0.065 H 
ATOM     14  H   LIG d   1       7.076   0.604  -4.892  0.00  0.00     0.061 H 
ATOM     15  H   LIG d   1       7.942   0.541  -3.320  0.00  0.00     0.061 H 
ENDROOT
BRANCH   1  16
ATOM     16  C   LIG d   1       7.528  -3.598  -4.376  0.00  0.00     0.039 C 
ATOM     17  H   LIG d   1       6.876  -4.349  -4.845  0.00  0.00     0.037 H 
ATOM     18  H   LIG d   1       7.533  -3.746  -3.286  0.00  0.00     0.037 H 
BRANCH  16  19
ATOM     19  C   LIG d   1       8.930  -3.747  -4.909  0.00  0.00     0.164 C 
ATOM     20  O   LIG d   1       9.118  -3.829  -6.098  0.00  0.00    -0.295 OA
BRANCH  19  21
ATOM     21  C   LIG d   1      10.097  -3.794  -3.956  0.00  0.00     0.110 C 
ATOM     22  H   LIG d   1      10.864  -4.493  -4.322  0.00  0.00     0.067 H 
BRANCH  21  23
ATOM     23  C   LIG d   1       9.602  -4.177  -2.560  0.00  0.00    -0.032 C 
ATOM     24  H   LIG d   1       9.531  -5.272  -2.484  0.00  0.00     0.026 H 
ATOM     25  H   LIG d   1       8.610  -3.732  -2.388  0.00  0.00     0.026 H 
ATOM     26  H   LIG d   1      10.308  -3.802  -1.805  0.00  0.00     0.026 H 
ENDBRANCH  21  23
BRANCH  21  27
ATOM     27  O   LIG d   1      10.721  -2.509  -3.904  0.00  0.00    -0.385 OA
ATOM     28  H   LIG d   1      10.180  -1.621  -4.261  0.00  0.00     0.210 HD
ENDBRANCH  21  27
ENDBRANCH  19  21
ENDBRANCH  16  19
ENDBRANCH   1  16
BRANCH   7  29
ATOM     29  O   LIG d   1       5.383   1.368  -2.101  0.00  0.00    -0.506 OA
ATOM     30  H   LIG d   1       6.405   1.766  -2.015  0.00  0.00     0.292 HD
ENDBRANCH   7  29
TORSDOF 6
ENDMDL
MODEL 5
REMARK VINA RESULT:      -5.2      1.041      1.562
REMARK  6 active torsions:
REMARK  status: ('A' for Active; 'I' for Inactive)
REMARK    1  A    between atoms: C_1  and  C_2 
REMARK    2  A    between atoms: C_2  and  C_4 
REMARK    3  A    between atoms: C_2  and  O_18 
REMARK    4  A    between atoms: C_4  and  C_6 
REMARK    5  A    between atoms: C_6  and  C_7 
REMARK    6  A    between atoms: C_13  and  O_17 
ROOT
ATOM      1  C   LIG d   1       4.685  -2.728  -5.278  0.00  0.00     0.091 C 
ATOM      2  H   LIG d   1       3.732  -2.717  -5.828  0.00  0.00     0.065 H 
ATOM      3  C   LIG d   1       4.639  -1.890  -4.022  0.00  0.00    -0.010 A 
ATOM      4  C   LIG d   1       4.110  -2.114  -2.768  0.00  0.00    -0.056 A 
ATOM      5  C   LIG d   1       4.210  -1.141  -1.790  0.00  0.00    -0.058 A 
ATOM      6  C   LIG d   1       4.834   0.061  -2.070  0.00  0.00    -0.020 A 
ATOM      7  C   LIG d   1       5.361   0.291  -3.333  0.00  0.00     0.123 A 
ATOM      8  C   LIG d   1       5.259  -0.686  -4.309  0.00  0.00     0.025 A 
ATOM      9  C   LIG d   1       5.717  -0.748  -5.747  0.00  0.00     0.077 C 
ATOM     10  O   LIG d   1       5.704  -2.142  -6.107  0.00  0.00    -0.367 OA
ATOM     11  H   LIG d   1       3.622  -3.052  -2.547  0.00  0.00     0.062 H 
ATOM     12  H   LIG d   1       3.799  -1.318  -0.807  0.00  0.00     0.062 H 
ATOM     13  H   LIG d   1       4.911   0.820  -1.306  0.00  0.00     0.065 H 
ATOM     14  H   LIG d   1       5.026  -0.168  -6.377  0.00  0.00     0.061 H 
ATOM     15  H   LIG d   1       6.729  -0.325  -5.829  0.00  0.00     0.061 H 
ENDROOT
BRANCH   1  16
ATOM     16  C   LIG d   1       5.055  -4.172  -4.931  0.00  0.00     0.039 C 
ATOM     17  H   LIG d   1       4.581  -4.454  -3.979  0.00  0.00     0.037 H 
ATOM     18  H   LIG d   1       6.148  -4.258  -4.835  0.00  0.00     0.037 H 
BRANCH  16  19
ATOM     19  C   LIG d   1       4.573  -5.092  -6.023  0.00  0.00     0.164 C 
ATOM     20  O   LIG d   1       3.392  -5.301  -6.158  0.00  0.00    -0.295 OA
BRANCH  19  21
ATOM     21  C   LIG d   1       5.565  -5.748  -6.948  0.00  0.00     0.110 C 
ATOM     22  H   LIG d   1       5.075  -6.048  -7.887  0.00  0.00     0.067 H 
BRANCH  21  23
ATOM     23  C   LIG d   1       6.209  -6.942  -6.241  0.00  0.00    -0.032 C 
ATOM     24  H   LIG d   1       7.168  -7.182  -6.725  0.00  0.00     0.026 H 
ATOM     25  H   LIG d   1       5.538  -7.812  -6.304  0.00  0.00     0.026 H 
ATOM     26  H   LIG d   1       6.385  -6.691  -5.185  0.00  0.00     0.026 H 
ENDBRANCH  21  23
BRANCH  21  27
ATOM     27  O   LIG d   1       6.576  -4.805  -7.308  0.00  0.00    -0.385 OA
ATOM     28  H   LIG d   1       6.963  -4.780  -8.337  0.00  0.00     0.210 HD
ENDBRANCH  21  27
ENDBRANCH  19  21
ENDBRANCH  16  19
ENDBRANCH   1  16
BRANCH   7  29
ATOM     29  O   LIG d   1       5.974   1.471  -3.610  0.00  0.00    -0.506 OA
ATOM     30  H   LIG d   1       5.968   1.866  -4.636  0.00  0.00     0.292 HD
ENDBRANCH   7  29
TORSDOF 6
ENDMDL
MODEL 6
REMARK VINA RESULT:      -5.1      3.832      5.297
REMARK  6 active torsions:
REMARK  status: ('A' for Active; 'I' for Inactive)
REMARK    1  A    between atoms: C_1  and  C_2 
REMARK    2  A    between atoms: C_2  and  C_4 
REMARK    3  A    between atoms: C_2  and  O_18 
REMARK    4  A    between atoms: C_4  and  C_6 
REMARK    5  A    between atoms: C_6  and  C_7 
REMARK    6  A    between atoms: C_13  and  O_17 
ROOT
ATOM      1  C   LIG d   1       4.022  -0.467  -6.891  0.00  0.00     0.091 C 
ATOM      2  H   LIG d   1       4.933   0.118  -7.084  0.00  0.00     0.065 H 
ATOM      3  C   LIG d   1       3.644  -0.484  -5.428  0.00  0.00    -0.010 A 
ATOM      4  C   LIG d   1       3.019   0.436  -4.613  0.00  0.00    -0.056 A 
ATOM      5  C   LIG d   1       2.807   0.147  -3.277  0.00  0.00    -0.058 A 
ATOM      6  C   LIG d   1       3.225  -1.062  -2.755  0.00  0.00    -0.020 A 
ATOM      7  C   LIG d   1       3.860  -1.988  -3.571  0.00  0.00     0.123 A 
ATOM      8  C   LIG d   1       4.071  -1.695  -4.908  0.00  0.00     0.025 A 
ATOM      9  C   LIG d   1       4.715  -2.466  -6.036  0.00  0.00     0.077 C 
ATOM     10  O   LIG d   1       4.268  -1.838  -7.252  0.00  0.00    -0.367 OA
ATOM     11  H   LIG d   1       2.691   1.382  -5.018  0.00  0.00     0.062 H 
ATOM     12  H   LIG d   1       2.314   0.867  -2.640  0.00  0.00     0.062 H 
ATOM     13  H   LIG d   1       3.059  -1.287  -1.711  0.00  0.00     0.065 H 
ATOM     14  H   LIG d   1       5.810  -2.411  -5.940  0.00  0.00     0.061 H 
ATOM     15  H   LIG d   1       4.397  -3.518  -5.991  0.00  0.00     0.061 H 
ENDROOT
BRANCH   1  16
ATOM     16  C   LIG d   1       2.868   0.098  -7.722  0.00  0.00     0.039 C 
ATOM     17  H   LIG d   1       2.009   0.305  -7.066  0.00  0.00     0.037 H 
ATOM     18  H   LIG d   1       2.574  -0.635  -8.488  0.00  0.00     0.037 H 
BRANCH  16  19
ATOM     19  C   LIG d   1       3.309   1.375  -8.391  0.00  0.00     0.164 C 
ATOM     20  O   LIG d   1       2.857   2.433  -8.028  0.00  0.00    -0.295 OA
BRANCH  19  21
ATOM     21  C   LIG d   1       4.314   1.329  -9.513  0.00  0.00     0.110 C 
ATOM     22  H   LIG d   1       4.550   0.286  -9.774  0.00  0.00     0.067 H 
BRANCH  21  23
ATOM     23  C   LIG d   1       5.567   2.107  -9.108  0.00  0.00    -0.032 C 
ATOM     24  H   LIG d   1       6.364   1.402  -8.831  0.00  0.00     0.026 H 
ATOM     25  H   LIG d   1       5.335   2.754  -8.248  0.00  0.00     0.026 H 
ATOM     26  H   LIG d   1       5.903   2.727  -9.952  0.00  0.00     0.026 H 
ENDBRANCH  21  23
BRANCH  21  27
ATOM     27  O   LIG d   1       3.747   1.916 -10.685  0.00  0.00    -0.385 OA
ATOM     28  H   LIG d   1       3.101   1.316 -11.343  0.00  0.00     0.210 HD
ENDBRANCH  21  27
ENDBRANCH  19  21
ENDBRANCH  16  19
ENDBRANCH   1  16
BRANCH   7  29
ATOM     29  O   LIG d   1       4.273  -3.177  -3.060  0.00  0.00    -0.506 OA
ATOM     30  H   LIG d   1       3.532  -3.936  -2.767  0.00  0.00     0.292 HD
ENDBRANCH   7  29
TORSDOF 6
ENDMDL
MODEL 7
REMARK VINA RESULT:      -5.1      2.062      4.847
REMARK  6 active torsions:
REMARK  status: ('A' for Active; 'I' for Inactive)
REMARK    1  A    between atoms: C_1  and  C_2 
REMARK    2  A    between atoms: C_2  and  C_4 
REMARK    3  A    between atoms: C_2  and  O_18 
REMARK    4  A    between atoms: C_4  and  C_6 
REMARK    5  A    between atoms: C_6  and  C_7 
REMARK    6  A    between atoms: C_13  and  O_17 
ROOT
ATOM      1  C   LIG d   1       6.020   0.182  -4.163  0.00  0.00     0.091 C 
ATOM      2  H   LIG d   1       6.776   0.963  -4.329  0.00  0.00     0.065 H 
ATOM      3  C   LIG d   1       6.590  -1.211  -4.289  0.00  0.00    -0.010 A 
ATOM      4  C   LIG d   1       7.340  -1.996  -3.437  0.00  0.00    -0.056 A 
ATOM      5  C   LIG d   1       7.739  -3.260  -3.831  0.00  0.00    -0.058 A 
ATOM      6  C   LIG d   1       7.393  -3.738  -5.080  0.00  0.00    -0.020 A 
ATOM      7  C   LIG d   1       6.645  -2.949  -5.942  0.00  0.00     0.123 A 
ATOM      8  C   LIG d   1       6.247  -1.683  -5.545  0.00  0.00     0.025 A 
ATOM      9  C   LIG d   1       5.444  -0.601  -6.228  0.00  0.00     0.077 C 
ATOM     10  O   LIG d   1       5.011   0.290  -5.183  0.00  0.00    -0.367 OA
ATOM     11  H   LIG d   1       7.611  -1.624  -2.460  0.00  0.00     0.062 H 
ATOM     12  H   LIG d   1       8.323  -3.875  -3.161  0.00  0.00     0.062 H 
ATOM     13  H   LIG d   1       7.706  -4.725  -5.387  0.00  0.00     0.065 H 
ATOM     14  H   LIG d   1       6.081  -0.078  -6.957  0.00  0.00     0.061 H 
ATOM     15  H   LIG d   1       4.586  -1.052  -6.748  0.00  0.00     0.061 H 
ENDROOT
BRANCH   1  16
ATOM     16  C   LIG d   1       5.392   0.367  -2.779  0.00  0.00     0.039 C 
ATOM     17  H   LIG d   1       5.880   1.207  -2.263  0.00  0.00     0.037 H 
ATOM     18  H   LIG d   1       5.527  -0.552  -2.190  0.00  0.00     0.037 H 
BRANCH  16  19
ATOM     19  C   LIG d   1       3.921   0.656  -2.930  0.00  0.00     0.164 C 
ATOM     20  O   LIG d   1       3.543   1.790  -3.098  0.00  0.00    -0.295 OA
BRANCH  19  21
ATOM     21  C   LIG d   1       2.922  -0.471  -2.871  0.00  0.00     0.110 C 
ATOM     22  H   LIG d   1       2.048  -0.178  -2.269  0.00  0.00     0.067 H 
BRANCH  21  23
ATOM     23  C   LIG d   1       3.598  -1.724  -2.312  0.00  0.00    -0.032 C 
ATOM     24  H   LIG d   1       4.563  -1.877  -2.819  0.00  0.00     0.026 H 
ATOM     25  H   LIG d   1       2.951  -2.598  -2.483  0.00  0.00     0.026 H 
ATOM     26  H   LIG d   1       3.767  -1.599  -1.232  0.00  0.00     0.026 H 
ENDBRANCH  21  23
BRANCH  21  27
ATOM     27  O   LIG d   1       2.430  -0.740  -4.185  0.00  0.00    -0.385 OA
ATOM     28  H   LIG d   1       2.091   0.087  -4.825  0.00  0.00     0.210 HD
ENDBRANCH  21  27
ENDBRANCH  19  21
ENDBRANCH  16  19
ENDBRANCH   1  16
BRANCH   7  29
ATOM     29  O   LIG d   1       6.303  -3.416  -7.171  0.00  0.00    -0.506 OA
ATOM     30  H   LIG d   1       5.789  -2.758  -7.886  0.00  0.00     0.292 HD
ENDBRANCH   7  29
TORSDOF 6
ENDMDL
MODEL 8
REMARK VINA RESULT:      -5.1      8.817     12.531
REMARK  6 active torsions:
REMARK  status: ('A' for Active; 'I' for Inactive)
REMARK    1  A    between atoms: C_1  and  C_2 
REMARK    2  A    between atoms: C_2  and  C_4 
REMARK    3  A    between atoms: C_2  and  O_18 
REMARK    4  A    between atoms: C_4  and  C_6 
REMARK    5  A    between atoms: C_6  and  C_7 
REMARK    6  A    between atoms: C_13  and  O_17 
ROOT
ATOM      1  C   LIG d   1       9.735   7.718  -1.497  0.00  0.00     0.091 C 
ATOM      2  H   LIG d   1       8.746   7.866  -1.040  0.00  0.00     0.065 H 
ATOM      3  C   LIG d   1       9.749   6.578  -2.490  0.00  0.00    -0.010 A 
ATOM      4  C   LIG d   1       9.319   6.470  -3.796  0.00  0.00    -0.056 A 
ATOM      5  C   LIG d   1       9.454   5.271  -4.473  0.00  0.00    -0.058 A 
ATOM      6  C   LIG d   1      10.015   4.178  -3.840  0.00  0.00    -0.020 A 
ATOM      7  C   LIG d   1      10.442   4.281  -2.524  0.00  0.00     0.123 A 
ATOM      8  C   LIG d   1      10.305   5.483  -1.849  0.00  0.00     0.025 A 
ATOM      9  C   LIG d   1      10.662   5.916  -0.446  0.00  0.00     0.077 C 
ATOM     10  O   LIG d   1      10.672   7.356  -0.467  0.00  0.00    -0.367 OA
ATOM     11  H   LIG d   1       8.881   7.323  -4.292  0.00  0.00     0.062 H 
ATOM     12  H   LIG d   1       9.121   5.189  -5.497  0.00  0.00     0.062 H 
ATOM     13  H   LIG d   1      10.119   3.242  -4.370  0.00  0.00     0.065 H 
ATOM     14  H   LIG d   1       9.908   5.534   0.258  0.00  0.00     0.061 H 
ATOM     15  H   LIG d   1      11.650   5.515  -0.178  0.00  0.00     0.061 H 
ENDROOT
BRANCH   1  16
ATOM     16  C   LIG d   1      10.179   9.012  -2.182  0.00  0.00     0.039 C 
ATOM     17  H   LIG d   1      10.240   8.851  -3.269  0.00  0.00     0.037 H 
ATOM     18  H   LIG d   1      11.167   9.309  -1.800  0.00  0.00     0.037 H 
BRANCH  16  19
ATOM     19  C   LIG d   1       9.180  10.103  -1.891  0.00  0.00     0.164 C 
ATOM     20  O   LIG d   1       8.514  10.057  -0.886  0.00  0.00    -0.295 OA
BRANCH  19  21
ATOM     21  C   LIG d   1       9.014  11.249  -2.855  0.00  0.00     0.110 C 
ATOM     22  H   LIG d   1       9.378  10.966  -3.854  0.00  0.00     0.067 H 
BRANCH  21  23
ATOM     23  C   LIG d   1       9.746  12.480  -2.315  0.00  0.00    -0.032 C 
ATOM     24  H   LIG d   1      10.602  12.159  -1.703  0.00  0.00     0.026 H 
ATOM     25  H   LIG d   1       9.056  13.075  -1.697  0.00  0.00     0.026 H 
ATOM     26  H   LIG d   1      10.104  13.091  -3.156  0.00  0.00     0.026 H 
ENDBRANCH  21  23
BRANCH  21  27
ATOM     27  O   LIG d   1       7.625  11.548  -3.004  0.00  0.00    -0.385 OA
ATOM     28  H   LIG d   1       6.913  11.265  -2.215  0.00  0.00     0.210 HD
ENDBRANCH  21  27
ENDBRANCH  19  21
ENDBRANCH  16  19
ENDBRANCH   1  16
BRANCH   7  29
ATOM     29  O   LIG d   1      10.993   3.208  -1.900  0.00  0.00    -0.506 OA
ATOM     30  H   LIG d   1      11.199   3.246  -0.820  0.00  0.00     0.292 HD
ENDBRANCH   7  29
TORSDOF 6
ENDMDL
MODEL 9
REMARK VINA RESULT:      -4.6     10.611     13.669
REMARK  6 active torsions:
REMARK  status: ('A' for Active; 'I' for Inactive)
REMARK    1  A    between atoms: C_1  and  C_2 
REMARK    2  A    between atoms: C_2  and  C_4 
REMARK    3  A    between atoms: C_2  and  O_18 
REMARK    4  A    between atoms: C_4  and  C_6 
REMARK    5  A    between atoms: C_6  and  C_7 
REMARK    6  A    between atoms: C_13  and  O_17 
ROOT
ATOM      1  C   LIG d   1      10.369   9.640  -0.784  0.00  0.00     0.091 C 
ATOM      2  H   LIG d   1       9.400  10.043  -0.454  0.00  0.00     0.065 H 
ATOM      3  C   LIG d   1      10.270   8.208  -1.255  0.00  0.00    -0.010 A 
ATOM      4  C   LIG d   1       9.827   7.639  -2.431  0.00  0.00    -0.056 A 
ATOM      5  C   LIG d   1       9.843   6.264  -2.585  0.00  0.00    -0.058 A 
ATOM      6  C   LIG d   1      10.299   5.458  -1.559  0.00  0.00    -0.020 A 
ATOM      7  C   LIG d   1      10.739   6.027  -0.372  0.00  0.00     0.123 A 
ATOM      8  C   LIG d   1      10.721   7.403  -0.222  0.00  0.00     0.025 A 
ATOM      9  C   LIG d   1      11.123   8.315   0.914  0.00  0.00     0.077 C 
ATOM     10  O   LIG d   1      11.270   9.626   0.337  0.00  0.00    -0.367 OA
ATOM     11  H   LIG d   1       9.471   8.267  -3.234  0.00  0.00     0.062 H 
ATOM     12  H   LIG d   1       9.499   5.820  -3.507  0.00  0.00     0.062 H 
ATOM     13  H   LIG d   1      10.311   4.385  -1.680  0.00  0.00     0.065 H 
ATOM     14  H   LIG d   1      10.339   8.306   1.686  0.00  0.00     0.061 H 
ATOM     15  H   LIG d   1      12.069   7.963   1.350  0.00  0.00     0.061 H 
ENDROOT
BRANCH   1  16
ATOM     16  C   LIG d   1      10.932  10.520  -1.902  0.00  0.00     0.039 C 
ATOM     17  H   LIG d   1      11.210   9.891  -2.761  0.00  0.00     0.037 H 
ATOM     18  H   LIG d   1      11.822  11.054  -1.536  0.00  0.00     0.037 H 
BRANCH  16  19
ATOM     19  C   LIG d   1       9.888  11.519  -2.330  0.00  0.00     0.164 C 
ATOM     20  O   LIG d   1       9.842  12.606  -1.806  0.00  0.00    -0.295 OA
BRANCH  19  21
ATOM     21  C   LIG d   1       8.902  11.162  -3.411  0.00  0.00     0.110 C 
ATOM     22  H   LIG d   1       8.832  10.069  -3.521  0.00  0.00     0.067 H 
BRANCH  21  23
ATOM     23  C   LIG d   1       9.314  11.836  -4.721  0.00  0.00    -0.032 C 
ATOM     24  H   LIG d   1      10.296  12.315  -4.594  0.00  0.00     0.026 H 
ATOM     25  H   LIG d   1       8.567  12.597  -4.994  0.00  0.00     0.026 H 
ATOM     26  H   LIG d   1       9.375  11.081  -5.519  0.00  0.00     0.026 H 
ENDBRANCH  21  23
BRANCH  21  27
ATOM     27  O   LIG d   1       7.598  11.610  -3.035  0.00  0.00    -0.385 OA
ATOM     28  H   LIG d   1       7.362  11.785  -1.975  0.00  0.00     0.210 HD
ENDBRANCH  21  27
ENDBRANCH  19  21
ENDBRANCH  16  19
ENDBRANCH   1  16
BRANCH   7  29
ATOM     29  O   LIG d   1      11.187   5.237   0.638  0.00  0.00    -0.506 OA
ATOM     30  H   LIG d   1      12.201   5.381   1.040  0.00  0.00     0.292 HD
ENDBRANCH   7  29
TORSDOF 6
ENDMDL
