MODEL 1
REMARK VINA RESULT:      -5.9      0.000      0.000
REMARK  6 active torsions:
REMARK  status: ('A' for Active; 'I' for Inactive)
REMARK    1  A    between atoms: C_2  and  C_3 
REMARK    2  A    between atoms: C_3  and  S_4 
REMARK    3  A    between atoms: S_4  and  C_5 
REMARK    4  A    between atoms: C_5  and  C_6 
REMARK    5  A    between atoms: C_12  and  S_19 
REMARK    6  A    between atoms: S_19  and  N_22 
ROOT
ATOM      1  C   LIG d   1       4.528  -2.036  -4.606  0.00  0.00     0.100 C 
ATOM      2  H   LIG d   1       4.261  -2.080  -3.551  0.00  0.00     0.069 H 
ATOM      3  N   LIG d   1       3.692  -1.046  -5.282  0.00  0.00    -0.325 N 
ATOM      4  C   LIG d   1       3.649  -0.897  -6.666  0.00  0.00     0.057 A 
ATOM      5  C   LIG d   1       3.214   0.316  -7.197  0.00  0.00    -0.019 A 
ATOM      6  C   LIG d   1       3.144   0.489  -8.565  0.00  0.00     0.069 A 
ATOM      7  C   LIG d   1       3.502  -0.541  -9.418  0.00  0.00     0.125 A 
ATOM      8  C   LIG d   1       3.940  -1.744  -8.897  0.00  0.00    -0.006 A 
ATOM      9  C   LIG d   1       4.020  -1.917  -7.531  0.00  0.00     0.128 A 
ATOM     10  S   LIG d   1       4.619  -3.444  -6.871  0.00  0.00     0.062 S 
ATOM     11  O   LIG d   1       3.794  -4.475  -7.397  0.00  0.00    -0.153 OA
ATOM     12  O   LIG d   1       6.031  -3.437  -7.022  0.00  0.00    -0.153 OA
ATOM     13  N   LIG d   1       4.302  -3.355  -5.231  0.00  0.00    -0.169 N 
ATOM     14 CL   LIG d   1       2.604   2.004  -9.217  0.00  0.00    -0.082 Cl
ATOM     15  H   LIG d   1       3.140  -0.462  -4.739  0.00  0.00     0.148 HD
ATOM     16  H   LIG d   1       2.932   1.123  -6.537  0.00  0.00     0.065 H 
ATOM     17  H   LIG d   1       4.219  -2.551  -9.560  0.00  0.00     0.066 H 
ATOM     18  H   LIG d   1       3.989  -4.118  -4.722  0.00  0.00     0.150 HD
ENDROOT
BRANCH   1  19
ATOM     19  C   LIG d   1       6.001  -1.646  -4.748  0.00  0.00     0.027 C 
ATOM     20  H   LIG d   1       6.103  -0.884  -5.520  0.00  0.00     0.041 H 
ATOM     21  H   LIG d   1       6.584  -2.525  -5.025  0.00  0.00     0.041 H 
BRANCH  19  22
ATOM     22  S   LIG d   1       6.607  -0.991  -3.169  0.00  0.00    -0.153 SA
BRANCH  22  23
ATOM     23  C   LIG d   1       5.918   0.686  -3.095  0.00  0.00     0.012 C 
ATOM     24  H   LIG d   1       5.492   0.946  -4.064  0.00  0.00     0.042 H 
ATOM     25  H   LIG d   1       6.709   1.392  -2.846  0.00  0.00     0.042 H 
BRANCH  23  26
ATOM     26  C   LIG d   1       4.844   0.741  -2.041  0.00  0.00    -0.081 C 
ATOM     27  C   LIG d   1       3.655   1.203  -2.340  0.00  0.00    -0.102 C 
ATOM     28  H   LIG d   1       2.885   1.242  -1.585  0.00  0.00     0.053 H 
ATOM     29  H   LIG d   1       3.448   1.551  -3.341  0.00  0.00     0.053 H 
ATOM     30  H   LIG d   1       5.052   0.398  -1.038  0.00  0.00     0.057 H 
ENDBRANCH  23  26
ENDBRANCH  22  23
ENDBRANCH  19  22
ENDBRANCH   1  19
BRANCH   7  31
ATOM     31  S   LIG d   1       3.401  -0.318 -11.162  0.00  0.00     0.057 S 
ATOM     32  O   LIG d   1       2.031  -0.456 -11.511  0.00  0.00    -0.153 OA
ATOM     33  O   LIG d   1       4.151   0.850 -11.467  0.00  0.00    -0.153 OA
BRANCH  31  34
ATOM     34  N   LIG d   1       4.198  -1.589 -11.865  0.00  0.00    -0.203 N 
ATOM     35  H   LIG d   1       3.713  -2.397 -12.096  0.00  0.00     0.144 HD
ATOM     36  H   LIG d   1       5.148  -1.524 -12.047  0.00  0.00     0.144 HD
ENDBRANCH  31  34
ENDBRANCH   7  31
TORSDOF 6
ENDMDL
MODEL 2
REMARK VINA RESULT:      -5.5      4.630      6.832
REMARK  6 active torsions:
REMARK  status: ('A' for Active; 'I' for Inactive)
REMARK    1  A    between atoms: C_2  and  C_3 
REMARK    2  A    between atoms: C_3  and  S_4 
REMARK    3  A    between atoms: S_4  and  C_5 
REMARK    4  A    between atoms: C_5  and  C_6 
REMARK    5  A    between atoms: C_12  and  S_19 
REMARK    6  A    between atoms: S_19  and  N_22 
ROOT
ATOM      1  C   LIG d   1       3.297  -0.740  -4.198  0.00  0.00     0.100 C 
ATOM      2  H   LIG d   1       2.629  -1.600  -4.211  0.00  0.00     0.069 H 
ATOM      3  N   LIG d   1       4.638  -1.155  -4.606  0.00  0.00    -0.325 N 
ATOM      4  C   LIG d   1       5.758  -0.334  -4.499  0.00  0.00     0.057 A 
ATOM      5  C   LIG d   1       6.866  -0.604  -5.301  0.00  0.00    -0.019 A 
ATOM      6  C   LIG d   1       7.999   0.181  -5.206  0.00  0.00     0.069 A 
ATOM      7  C   LIG d   1       8.043   1.237  -4.313  0.00  0.00     0.125 A 
ATOM      8  C   LIG d   1       6.944   1.513  -3.519  0.00  0.00    -0.006 A 
ATOM      9  C   LIG d   1       5.809   0.737  -3.618  0.00  0.00     0.128 A 
ATOM     10  S   LIG d   1       4.394   1.119  -2.629  0.00  0.00     0.062 S 
ATOM     11  O   LIG d   1       4.819   1.105  -1.273  0.00  0.00    -0.153 OA
ATOM     12  O   LIG d   1       3.761   2.243  -3.225  0.00  0.00    -0.153 OA
ATOM     13  N   LIG d   1       3.366  -0.184  -2.832  0.00  0.00    -0.169 N 
ATOM     14 CL   LIG d   1       9.372  -0.160  -6.211  0.00  0.00    -0.082 Cl
ATOM     15  H   LIG d   1       4.753  -2.046  -4.970  0.00  0.00     0.148 HD
ATOM     16  H   LIG d   1       6.839  -1.428  -5.998  0.00  0.00     0.065 H 
ATOM     17  H   LIG d   1       6.977   2.336  -2.820  0.00  0.00     0.066 H 
ATOM     18  H   LIG d   1       2.849  -0.554  -2.099  0.00  0.00     0.150 HD
ENDROOT
BRANCH   1  19
ATOM     19  C   LIG d   1       2.777   0.330  -5.161  0.00  0.00     0.027 C 
ATOM     20  H   LIG d   1       3.221   1.292  -4.911  0.00  0.00     0.041 H 
ATOM     21  H   LIG d   1       1.691   0.396  -5.077  0.00  0.00     0.041 H 
BRANCH  19  22
ATOM     22  S   LIG d   1       3.225  -0.119  -6.861  0.00  0.00    -0.153 SA
BRANCH  22  23
ATOM     23  C   LIG d   1       2.867   1.380  -7.819  0.00  0.00     0.012 C 
ATOM     24  H   LIG d   1       3.254   2.251  -7.289  0.00  0.00     0.042 H 
ATOM     25  H   LIG d   1       1.789   1.482  -7.944  0.00  0.00     0.042 H 
BRANCH  23  26
ATOM     26  C   LIG d   1       3.523   1.280  -9.171  0.00  0.00    -0.081 C 
ATOM     27  C   LIG d   1       3.659   2.351  -9.915  0.00  0.00    -0.102 C 
ATOM     28  H   LIG d   1       4.129   2.278 -10.883  0.00  0.00     0.053 H 
ATOM     29  H   LIG d   1       3.294   3.303  -9.561  0.00  0.00     0.053 H 
ATOM     30  H   LIG d   1       3.885   0.327  -9.528  0.00  0.00     0.057 H 
ENDBRANCH  23  26
ENDBRANCH  22  23
ENDBRANCH  19  22
ENDBRANCH   1  19
BRANCH   7  31
ATOM     31  S   LIG d   1       9.493   2.229  -4.189  0.00  0.00     0.057 S 
ATOM     32  O   LIG d   1       9.698   2.812  -5.468  0.00  0.00    -0.153 OA
ATOM     33  O   LIG d   1       9.353   3.009  -3.009  0.00  0.00    -0.153 OA
BRANCH  31  34
ATOM     34  N   LIG d   1      10.767   1.202  -3.928  0.00  0.00    -0.203 N 
ATOM     35  H   LIG d   1      10.984   0.919  -3.025  0.00  0.00     0.144 HD
ATOM     36  H   LIG d   1      11.295   0.884  -4.676  0.00  0.00     0.144 HD
ENDBRANCH  31  34
ENDBRANCH   7  31
TORSDOF 6
ENDMDL
MODEL 3
REMARK VINA RESULT:      -5.5      2.985      3.714
REMARK  6 active torsions:
REMARK  status: ('A' for Active; 'I' for Inactive)
REMARK    1  A    between atoms: C_2  and  C_3 
REMARK    2  A    between atoms: C_3  and  S_4 
REMARK    3  A    between atoms: S_4  and  C_5 
REMARK    4  A    between atoms: C_5  and  C_6 
REMARK    5  A    between atoms: C_12  and  S_19 
REMARK    6  A    between atoms: S_19  and  N_22 
ROOT
ATOM      1  C   LIG d   1       5.506  -0.907  -5.994  0.00  0.00     0.100 C 
ATOM      2  H   LIG d   1       6.449  -0.920  -5.449  0.00  0.00     0.069 H 
ATOM      3  N   LIG d   1       5.402  -2.107  -6.823  0.00  0.00    -0.325 N 
ATOM      4  C   LIG d   1       4.412  -2.288  -7.786  0.00  0.00     0.057 A 
ATOM      5  C   LIG d   1       4.101  -3.585  -8.191  0.00  0.00    -0.019 A 
ATOM      6  C   LIG d   1       3.136  -3.797  -9.157  0.00  0.00     0.069 A 
ATOM      7  C   LIG d   1       2.475  -2.724  -9.730  0.00  0.00     0.125 A 
ATOM      8  C   LIG d   1       2.776  -1.436  -9.327  0.00  0.00    -0.006 A 
ATOM      9  C   LIG d   1       3.733  -1.221  -8.357  0.00  0.00     0.128 A 
ATOM     10  S   LIG d   1       4.084   0.425  -7.817  0.00  0.00     0.062 S 
ATOM     11  O   LIG d   1       4.453   1.169  -8.971  0.00  0.00    -0.153 OA
ATOM     12  O   LIG d   1       3.023   0.816  -6.957  0.00  0.00    -0.153 OA
ATOM     13  N   LIG d   1       5.454   0.281  -6.870  0.00  0.00    -0.169 N 
ATOM     14 CL   LIG d   1       2.753  -5.415  -9.653  0.00  0.00    -0.082 Cl
ATOM     15  H   LIG d   1       6.054  -2.813  -6.694  0.00  0.00     0.148 HD
ATOM     16  H   LIG d   1       4.614  -4.426  -7.749  0.00  0.00     0.065 H 
ATOM     17  H   LIG d   1       2.263  -0.597  -9.774  0.00  0.00     0.066 H 
ATOM     18  H   LIG d   1       6.171   0.934  -6.893  0.00  0.00     0.150 HD
ENDROOT
BRANCH   1  19
ATOM     19  C   LIG d   1       4.340  -0.866  -5.003  0.00  0.00     0.027 C 
ATOM     20  H   LIG d   1       3.402  -1.006  -5.539  0.00  0.00     0.041 H 
ATOM     21  H   LIG d   1       4.330   0.100  -4.496  0.00  0.00     0.041 H 
BRANCH  19  22
ATOM     22  S   LIG d   1       4.541  -2.189  -3.779  0.00  0.00    -0.153 SA
BRANCH  22  23
ATOM     23  C   LIG d   1       3.953  -1.448  -2.231  0.00  0.00     0.012 C 
ATOM     24  H   LIG d   1       4.671  -1.650  -1.436  0.00  0.00     0.042 H 
ATOM     25  H   LIG d   1       2.988  -1.880  -1.966  0.00  0.00     0.042 H 
BRANCH  23  26
ATOM     26  C   LIG d   1       3.805   0.040  -2.411  0.00  0.00    -0.081 C 
ATOM     27  C   LIG d   1       4.539   0.862  -1.701  0.00  0.00    -0.102 C 
ATOM     28  H   LIG d   1       4.433   1.928  -1.830  0.00  0.00     0.053 H 
ATOM     29  H   LIG d   1       5.244   0.472  -0.983  0.00  0.00     0.053 H 
ATOM     30  H   LIG d   1       3.097   0.431  -3.126  0.00  0.00     0.057 H 
ENDBRANCH  23  26
ENDBRANCH  22  23
ENDBRANCH  19  22
ENDBRANCH   1  19
BRANCH   7  31
ATOM     31  S   LIG d   1       1.253  -3.000 -10.969  0.00  0.00     0.057 S 
ATOM     32  O   LIG d   1       1.944  -3.439 -12.130  0.00  0.00    -0.153 OA
ATOM     33  O   LIG d   1       0.223  -3.766 -10.359  0.00  0.00    -0.153 OA
BRANCH  31  34
ATOM     34  N   LIG d   1       0.592  -1.528 -11.340  0.00  0.00    -0.203 N 
ATOM     35  H   LIG d   1       1.056  -0.926 -11.943  0.00  0.00     0.144 HD
ATOM     36  H   LIG d   1      -0.260  -1.268 -10.956  0.00  0.00     0.144 HD
ENDBRANCH  31  34
ENDBRANCH   7  31
TORSDOF 6
ENDMDL
MODEL 4
REMARK VINA RESULT:      -5.2      1.385      1.734
REMARK  6 active torsions:
REMARK  status: ('A' for Active; 'I' for Inactive)
REMARK    1  A    between atoms: C_2  and  C_3 
REMARK    2  A    between atoms: C_3  and  S_4 
REMARK    3  A    between atoms: S_4  and  C_5 
REMARK    4  A    between atoms: C_5  and  C_6 
REMARK    5  A    between atoms: C_12  and  S_19 
REMARK    6  A    between atoms: S_19  and  N_22 
ROOT
ATOM      1  C   LIG d   1       4.231  -2.062  -3.924  0.00  0.00     0.100 C 
ATOM      2  H   LIG d   1       3.764  -2.216  -2.952  0.00  0.00     0.069 H 
ATOM      3  N   LIG d   1       3.470  -1.071  -4.682  0.00  0.00    -0.325 N 
ATOM      4  C   LIG d   1       3.691  -0.804  -6.030  0.00  0.00     0.057 A 
ATOM      5  C   LIG d   1       3.276   0.422  -6.548  0.00  0.00    -0.019 A 
ATOM      6  C   LIG d   1       3.466   0.710  -7.886  0.00  0.00     0.069 A 
ATOM      7  C   LIG d   1       4.067  -0.216  -8.720  0.00  0.00     0.125 A 
ATOM      8  C   LIG d   1       4.486  -1.431  -8.211  0.00  0.00    -0.006 A 
ATOM      9  C   LIG d   1       4.306  -1.719  -6.874  0.00  0.00     0.128 A 
ATOM     10  S   LIG d   1       4.881  -3.257  -6.220  0.00  0.00     0.062 S 
ATOM     11  O   LIG d   1       4.262  -4.287  -6.978  0.00  0.00    -0.153 OA
ATOM     12  O   LIG d   1       6.290  -3.148  -6.078  0.00  0.00    -0.153 OA
ATOM     13  N   LIG d   1       4.239  -3.332  -4.678  0.00  0.00    -0.169 N 
ATOM     14 CL   LIG d   1       2.948   2.240  -8.521  0.00  0.00    -0.082 Cl
ATOM     15  H   LIG d   1       2.777  -0.573  -4.222  0.00  0.00     0.148 HD
ATOM     16  H   LIG d   1       2.805   1.148  -5.903  0.00  0.00     0.065 H 
ATOM     17  H   LIG d   1       4.954  -2.156  -8.861  0.00  0.00     0.066 H 
ATOM     18  H   LIG d   1       3.893  -4.156  -4.301  0.00  0.00     0.150 HD
ENDROOT
BRANCH   1  19
ATOM     19  C   LIG d   1       5.667  -1.570  -3.733  0.00  0.00     0.027 C 
ATOM     20  H   LIG d   1       6.199  -1.620  -4.682  0.00  0.00     0.041 H 
ATOM     21  H   LIG d   1       6.172  -2.200  -2.999  0.00  0.00     0.041 H 
BRANCH  19  22
ATOM     22  S   LIG d   1       5.644   0.145  -3.142  0.00  0.00    -0.153 SA
BRANCH  22  23
ATOM     23  C   LIG d   1       7.088   0.903  -3.937  0.00  0.00     0.012 C 
ATOM     24  H   LIG d   1       7.923   0.915  -3.237  0.00  0.00     0.042 H 
ATOM     25  H   LIG d   1       6.846   1.924  -4.231  0.00  0.00     0.042 H 
BRANCH  23  26
ATOM     26  C   LIG d   1       7.466   0.104  -5.157  0.00  0.00    -0.081 C 
ATOM     27  C   LIG d   1       7.179   0.558  -6.353  0.00  0.00    -0.102 C 
ATOM     28  H   LIG d   1       7.451  -0.014  -7.226  0.00  0.00     0.053 H 
ATOM     29  H   LIG d   1       6.666   1.501  -6.462  0.00  0.00     0.053 H 
ATOM     30  H   LIG d   1       7.977  -0.842  -5.048  0.00  0.00     0.057 H 
ENDBRANCH  23  26
ENDBRANCH  22  23
ENDBRANCH  19  22
ENDBRANCH   1  19
BRANCH   7  31
ATOM     31  S   LIG d   1       4.297   0.153 -10.427  0.00  0.00     0.057 S 
ATOM     32  O   LIG d   1       3.008   0.140 -11.024  0.00  0.00    -0.153 OA
ATOM     33  O   LIG d   1       5.152   1.286 -10.487  0.00  0.00    -0.153 OA
BRANCH  31  34
ATOM     34  N   LIG d   1       5.138  -1.109 -11.092  0.00  0.00    -0.203 N 
ATOM     35  H   LIG d   1       4.940  -2.020 -10.821  0.00  0.00     0.144 HD
ATOM     36  H   LIG d   1       5.828  -0.938 -11.752  0.00  0.00     0.144 HD
ENDBRANCH  31  34
ENDBRANCH   7  31
TORSDOF 6
ENDMDL
MODEL 5
REMARK VINA RESULT:      -5.2      4.227      6.948
REMARK  6 active torsions:
REMARK  status: ('A' for Active; 'I' for Inactive)
REMARK    1  A    between atoms: C_2  and  C_3 
REMARK    2  A    between atoms: C_3  and  S_4 
REMARK    3  A    between atoms: S_4  and  C_5 
REMARK    4  A    between atoms: C_5  and  C_6 
REMARK    5  A    between atoms: C_12  and  S_19 
REMARK    6  A    between atoms: S_19  and  N_22 
ROOT
ATOM      1  C   LIG d   1       4.014  -0.616  -5.806  0.00  0.00     0.100 C 
ATOM      2  H   LIG d   1       2.945  -0.437  -5.911  0.00  0.00     0.069 H 
ATOM      3  N   LIG d   1       4.255  -2.042  -5.591  0.00  0.00    -0.325 N 
ATOM      4  C   LIG d   1       5.493  -2.562  -5.223  0.00  0.00     0.057 A 
ATOM      5  C   LIG d   1       5.760  -3.905  -5.481  0.00  0.00    -0.019 A 
ATOM      6  C   LIG d   1       6.972  -4.455  -5.113  0.00  0.00     0.069 A 
ATOM      7  C   LIG d   1       7.928  -3.677  -4.484  0.00  0.00     0.125 A 
ATOM      8  C   LIG d   1       7.672  -2.342  -4.231  0.00  0.00    -0.006 A 
ATOM      9  C   LIG d   1       6.465  -1.788  -4.605  0.00  0.00     0.128 A 
ATOM     10  S   LIG d   1       6.159  -0.071  -4.315  0.00  0.00     0.062 S 
ATOM     11  O   LIG d   1       6.332   0.152  -2.922  0.00  0.00    -0.153 OA
ATOM     12  O   LIG d   1       6.877   0.652  -5.305  0.00  0.00    -0.153 OA
ATOM     13  N   LIG d   1       4.533   0.134  -4.645  0.00  0.00    -0.169 N 
ATOM     14 CL   LIG d   1       7.296  -6.128  -5.441  0.00  0.00    -0.082 Cl
ATOM     15  H   LIG d   1       3.515  -2.656  -5.712  0.00  0.00     0.148 HD
ATOM     16  H   LIG d   1       5.017  -4.518  -5.970  0.00  0.00     0.065 H 
ATOM     17  H   LIG d   1       8.416  -1.733  -3.738  0.00  0.00     0.066 H 
ATOM     18  H   LIG d   1       3.964   0.708  -4.108  0.00  0.00     0.150 HD
ENDROOT
BRANCH   1  19
ATOM     19  C   LIG d   1       4.737  -0.160  -7.076  0.00  0.00     0.027 C 
ATOM     20  H   LIG d   1       5.746  -0.571  -7.087  0.00  0.00     0.041 H 
ATOM     21  H   LIG d   1       4.787   0.929  -7.093  0.00  0.00     0.041 H 
BRANCH  19  22
ATOM     22  S   LIG d   1       3.829  -0.747  -8.532  0.00  0.00    -0.153 SA
BRANCH  22  23
ATOM     23  C   LIG d   1       2.510   0.479  -8.750  0.00  0.00     0.012 C 
ATOM     24  H   LIG d   1       1.727   0.305  -8.012  0.00  0.00     0.042 H 
ATOM     25  H   LIG d   1       2.090   0.387  -9.752  0.00  0.00     0.042 H 
BRANCH  23  26
ATOM     26  C   LIG d   1       3.076   1.864  -8.568  0.00  0.00    -0.081 C 
ATOM     27  C   LIG d   1       3.700   2.452  -9.558  0.00  0.00    -0.102 C 
ATOM     28  H   LIG d   1       4.105   3.444  -9.427  0.00  0.00     0.053 H 
ATOM     29  H   LIG d   1       3.814   1.942 -10.503  0.00  0.00     0.053 H 
ATOM     30  H   LIG d   1       2.965   2.372  -7.621  0.00  0.00     0.057 H 
ENDBRANCH  23  26
ENDBRANCH  22  23
ENDBRANCH  19  22
ENDBRANCH   1  19
BRANCH   7  31
ATOM     31  S   LIG d   1       9.469  -4.387  -4.007  0.00  0.00     0.057 S 
ATOM     32  O   LIG d   1       9.176  -5.380  -3.035  0.00  0.00    -0.153 OA
ATOM     33  O   LIG d   1      10.170  -4.679  -5.208  0.00  0.00    -0.153 OA
BRANCH  31  34
ATOM     34  N   LIG d   1      10.332  -3.205  -3.231  0.00  0.00    -0.203 N 
ATOM     35  H   LIG d   1      11.299  -3.176  -3.316  0.00  0.00     0.144 HD
ATOM     36  H   LIG d   1       9.873  -2.543  -2.693  0.00  0.00     0.144 HD
ENDBRANCH  31  34
ENDBRANCH   7  31
TORSDOF 6
ENDMDL
MODEL 6
REMARK VINA RESULT:      -5.2      5.888      8.251
REMARK  6 active torsions:
REMARK  status: ('A' for Active; 'I' for Inactive)
REMARK    1  A    between atoms: C_2  and  C_3 
REMARK    2  A    between atoms: C_3  and  S_4 
REMARK    3  A    between atoms: S_4  and  C_5 
REMARK    4  A    between atoms: C_5  and  C_6 
REMARK    5  A    between atoms: C_12  and  S_19 
REMARK    6  A    between atoms: S_19  and  N_22 
ROOT
ATOM      1  C   LIG d   1       6.560  -4.662  -6.593  0.00  0.00     0.100 C 
ATOM      2  H   LIG d   1       7.245  -3.999  -7.120  0.00  0.00     0.069 H 
ATOM      3  N   LIG d   1       7.278  -5.852  -6.142  0.00  0.00    -0.325 N 
ATOM      4  C   LIG d   1       6.644  -6.976  -5.617  0.00  0.00     0.057 A 
ATOM      5  C   LIG d   1       7.377  -7.843  -4.810  0.00  0.00    -0.019 A 
ATOM      6  C   LIG d   1       6.782  -8.975  -4.288  0.00  0.00     0.069 A 
ATOM      7  C   LIG d   1       5.456  -9.256  -4.565  0.00  0.00     0.125 A 
ATOM      8  C   LIG d   1       4.722  -8.396  -5.361  0.00  0.00    -0.006 A 
ATOM      9  C   LIG d   1       5.311  -7.260  -5.876  0.00  0.00     0.128 A 
ATOM     10  S   LIG d   1       4.356  -6.143  -6.859  0.00  0.00     0.062 S 
ATOM     11  O   LIG d   1       3.826  -6.894  -7.943  0.00  0.00    -0.153 OA
ATOM     12  O   LIG d   1       3.540  -5.398  -5.967  0.00  0.00    -0.153 OA
ATOM     13  N   LIG d   1       5.474  -5.078  -7.503  0.00  0.00    -0.169 N 
ATOM     14 CL   LIG d   1       7.702 -10.048  -3.281  0.00  0.00    -0.082 Cl
ATOM     15  H   LIG d   1       8.245  -5.860  -6.211  0.00  0.00     0.148 HD
ATOM     16  H   LIG d   1       8.413  -7.631  -4.592  0.00  0.00     0.065 H 
ATOM     17  H   LIG d   1       3.686  -8.614  -5.580  0.00  0.00     0.066 H 
ATOM     18  H   LIG d   1       5.415  -4.755  -8.415  0.00  0.00     0.150 HD
ENDROOT
BRANCH   1  19
ATOM     19  C   LIG d   1       5.967  -3.933  -5.386  0.00  0.00     0.027 C 
ATOM     20  H   LIG d   1       6.721  -3.851  -4.604  0.00  0.00     0.041 H 
ATOM     21  H   LIG d   1       5.111  -4.493  -5.008  0.00  0.00     0.041 H 
BRANCH  19  22
ATOM     22  S   LIG d   1       5.431  -2.274  -5.885  0.00  0.00    -0.153 SA
BRANCH  22  23
ATOM     23  C   LIG d   1       5.006  -1.460  -4.320  0.00  0.00     0.012 C 
ATOM     24  H   LIG d   1       4.316  -0.638  -4.514  0.00  0.00     0.042 H 
ATOM     25  H   LIG d   1       5.912  -1.070  -3.856  0.00  0.00     0.042 H 
BRANCH  23  26
ATOM     26  C   LIG d   1       4.355  -2.456  -3.397  0.00  0.00    -0.081 C 
ATOM     27  C   LIG d   1       3.851  -2.059  -2.254  0.00  0.00    -0.102 C 
ATOM     28  H   LIG d   1       3.385  -2.773  -1.593  0.00  0.00     0.053 H 
ATOM     29  H   LIG d   1       3.909  -1.018  -1.972  0.00  0.00     0.053 H 
ATOM     30  H   LIG d   1       4.301  -3.498  -3.677  0.00  0.00     0.057 H 
ENDBRANCH  23  26
ENDBRANCH  22  23
ENDBRANCH  19  22
ENDBRANCH   1  19
BRANCH   7  31
ATOM     31  S   LIG d   1       4.704 -10.706  -3.905  0.00  0.00     0.057 S 
ATOM     32  O   LIG d   1       3.317 -10.613  -4.195  0.00  0.00    -0.153 OA
ATOM     33  O   LIG d   1       5.499 -11.805  -4.329  0.00  0.00    -0.153 OA
BRANCH  31  34
ATOM     34  N   LIG d   1       4.849 -10.627  -2.257  0.00  0.00    -0.203 N 
ATOM     35  H   LIG d   1       5.154  -9.807  -1.837  0.00  0.00     0.144 HD
ATOM     36  H   LIG d   1       4.629 -11.398  -1.713  0.00  0.00     0.144 HD
ENDBRANCH  31  34
ENDBRANCH   7  31
TORSDOF 6
ENDMDL
MODEL 7
REMARK VINA RESULT:      -5.1      4.218      5.579
REMARK  6 active torsions:
REMARK  status: ('A' for Active; 'I' for Inactive)
REMARK    1  A    between atoms: C_2  and  C_3 
REMARK    2  A    between atoms: C_3  and  S_4 
REMARK    3  A    between atoms: S_4  and  C_5 
REMARK    4  A    between atoms: C_5  and  C_6 
REMARK    5  A    between atoms: C_12  and  S_19 
REMARK    6  A    between atoms: S_19  and  N_22 
ROOT
ATOM      1  C   LIG d   1       9.570  -1.061  -5.653  0.00  0.00     0.100 C 
ATOM      2  H   LIG d   1      10.554  -1.458  -5.405  0.00  0.00     0.069 H 
ATOM      3  N   LIG d   1       8.771  -0.933  -4.436  0.00  0.00    -0.325 N 
ATOM      4  C   LIG d   1       7.409  -0.647  -4.441  0.00  0.00     0.057 A 
ATOM      5  C   LIG d   1       6.834  -0.099  -3.295  0.00  0.00    -0.019 A 
ATOM      6  C   LIG d   1       5.482   0.181  -3.263  0.00  0.00     0.069 A 
ATOM      7  C   LIG d   1       4.689  -0.083  -4.366  0.00  0.00     0.125 A 
ATOM      8  C   LIG d   1       5.254  -0.621  -5.507  0.00  0.00    -0.006 A 
ATOM      9  C   LIG d   1       6.606  -0.893  -5.546  0.00  0.00     0.128 A 
ATOM     10  S   LIG d   1       7.330  -1.543  -7.022  0.00  0.00     0.062 S 
ATOM     11  O   LIG d   1       6.632  -2.741  -7.334  0.00  0.00    -0.153 OA
ATOM     12  O   LIG d   1       7.452  -0.463  -7.936  0.00  0.00    -0.153 OA
ATOM     13  N   LIG d   1       8.881  -1.984  -6.578  0.00  0.00    -0.169 N 
ATOM     14 CL   LIG d   1       4.776   0.866  -1.833  0.00  0.00    -0.082 Cl
ATOM     15  H   LIG d   1       9.213  -1.053  -3.581  0.00  0.00     0.148 HD
ATOM     16  H   LIG d   1       7.447   0.108  -2.431  0.00  0.00     0.065 H 
ATOM     17  H   LIG d   1       4.637  -0.830  -6.369  0.00  0.00     0.066 H 
ATOM     18  H   LIG d   1       9.303  -2.794  -6.906  0.00  0.00     0.150 HD
ENDROOT
BRANCH   1  19
ATOM     19  C   LIG d   1       9.721   0.310  -6.314  0.00  0.00     0.027 C 
ATOM     20  H   LIG d   1       8.737   0.695  -6.583  0.00  0.00     0.041 H 
ATOM     21  H   LIG d   1      10.333   0.215  -7.212  0.00  0.00     0.041 H 
BRANCH  19  22
ATOM     22  S   LIG d   1      10.521   1.454  -5.156  0.00  0.00    -0.153 SA
BRANCH  22  23
ATOM     23  C   LIG d   1      10.104   3.098  -5.802  0.00  0.00     0.012 C 
ATOM     24  H   LIG d   1       9.579   2.991  -6.752  0.00  0.00     0.042 H 
ATOM     25  H   LIG d   1      11.018   3.670  -5.955  0.00  0.00     0.042 H 
BRANCH  23  26
ATOM     26  C   LIG d   1       9.219   3.815  -4.816  0.00  0.00    -0.081 C 
ATOM     27  C   LIG d   1       9.530   5.024  -4.416  0.00  0.00    -0.102 C 
ATOM     28  H   LIG d   1       8.896   5.537  -3.710  0.00  0.00     0.053 H 
ATOM     29  H   LIG d   1      10.423   5.503  -4.789  0.00  0.00     0.053 H 
ATOM     30  H   LIG d   1       8.328   3.335  -4.439  0.00  0.00     0.057 H 
ENDBRANCH  23  26
ENDBRANCH  22  23
ENDBRANCH  19  22
ENDBRANCH   1  19
BRANCH   7  31
ATOM     31  S   LIG d   1       2.963   0.266  -4.316  0.00  0.00     0.057 S 
ATOM     32  O   LIG d   1       2.397  -0.617  -3.357  0.00  0.00    -0.153 OA
ATOM     33  O   LIG d   1       2.836   1.678  -4.219  0.00  0.00    -0.153 OA
BRANCH  31  34
ATOM     34  N   LIG d   1       2.333  -0.166  -5.785  0.00  0.00    -0.203 N 
ATOM     35  H   LIG d   1       2.872  -0.079  -6.588  0.00  0.00     0.144 HD
ATOM     36  H   LIG d   1       1.427  -0.506  -5.844  0.00  0.00     0.144 HD
ENDBRANCH  31  34
ENDBRANCH   7  31
TORSDOF 6
ENDMDL
MODEL 8
REMARK VINA RESULT:      -5.1      3.818      6.019
REMARK  6 active torsions:
REMARK  status: ('A' for Active; 'I' for Inactive)
REMARK    1  A    between atoms: C_2  and  C_3 
REMARK    2  A    between atoms: C_3  and  S_4 
REMARK    3  A    between atoms: S_4  and  C_5 
REMARK    4  A    between atoms: C_5  and  C_6 
REMARK    5  A    between atoms: C_12  and  S_19 
REMARK    6  A    between atoms: S_19  and  N_22 
ROOT
ATOM      1  C   LIG d   1       5.935   0.039  -9.404  0.00  0.00     0.100 C 
ATOM      2  H   LIG d   1       6.411  -0.217 -10.350  0.00  0.00     0.069 H 
ATOM      3  N   LIG d   1       6.370  -0.896  -8.368  0.00  0.00    -0.325 N 
ATOM      4  C   LIG d   1       5.790  -0.960  -7.103  0.00  0.00     0.057 A 
ATOM      5  C   LIG d   1       6.523  -1.518  -6.057  0.00  0.00    -0.019 A 
ATOM      6  C   LIG d   1       5.970  -1.611  -4.795  0.00  0.00     0.069 A 
ATOM      7  C   LIG d   1       4.685  -1.154  -4.561  0.00  0.00     0.125 A 
ATOM      8  C   LIG d   1       3.955  -0.595  -5.594  0.00  0.00    -0.006 A 
ATOM      9  C   LIG d   1       4.508  -0.492  -6.854  0.00  0.00     0.128 A 
ATOM     10  S   LIG d   1       3.585   0.262  -8.160  0.00  0.00     0.062 S 
ATOM     11  O   LIG d   1       2.364  -0.456  -8.273  0.00  0.00    -0.153 OA
ATOM     12  O   LIG d   1       3.635   1.666  -7.948  0.00  0.00    -0.153 OA
ATOM     13  N   LIG d   1       4.468  -0.055  -9.544  0.00  0.00    -0.169 N 
ATOM     14 CL   LIG d   1       6.892  -2.305  -3.498  0.00  0.00    -0.082 Cl
ATOM     15  H   LIG d   1       7.099  -1.502  -8.571  0.00  0.00     0.148 HD
ATOM     16  H   LIG d   1       7.526  -1.878  -6.234  0.00  0.00     0.065 H 
ATOM     17  H   LIG d   1       2.951  -0.239  -5.414  0.00  0.00     0.066 H 
ATOM     18  H   LIG d   1       4.045  -0.287 -10.386  0.00  0.00     0.150 HD
ENDROOT
BRANCH   1  19
ATOM     19  C   LIG d   1       6.323   1.464  -9.003  0.00  0.00     0.027 C 
ATOM     20  H   LIG d   1       6.042   1.639  -7.965  0.00  0.00     0.041 H 
ATOM     21  H   LIG d   1       5.803   2.175  -9.647  0.00  0.00     0.041 H 
BRANCH  19  22
ATOM     22  S   LIG d   1       8.114   1.678  -9.189  0.00  0.00    -0.153 SA
BRANCH  22  23
ATOM     23  C   LIG d   1       8.609   2.567  -7.686  0.00  0.00     0.012 C 
ATOM     24  H   LIG d   1       8.104   3.532  -7.653  0.00  0.00     0.042 H 
ATOM     25  H   LIG d   1       9.687   2.722  -7.695  0.00  0.00     0.042 H 
BRANCH  23  26
ATOM     26  C   LIG d   1       8.227   1.756  -6.475  0.00  0.00    -0.081 C 
ATOM     27  C   LIG d   1       8.457   2.225  -5.274  0.00  0.00    -0.102 C 
ATOM     28  H   LIG d   1       8.183   1.645  -4.406  0.00  0.00     0.053 H 
ATOM     29  H   LIG d   1       8.926   3.190  -5.152  0.00  0.00     0.053 H 
ATOM     30  H   LIG d   1       7.761   0.789  -6.597  0.00  0.00     0.057 H 
ENDBRANCH  23  26
ENDBRANCH  22  23
ENDBRANCH  19  22
ENDBRANCH   1  19
BRANCH   7  31
ATOM     31  S   LIG d   1       3.981  -1.286  -2.952  0.00  0.00     0.057 S 
ATOM     32  O   LIG d   1       3.835  -2.673  -2.684  0.00  0.00    -0.153 OA
ATOM     33  O   LIG d   1       4.730  -0.421  -2.109  0.00  0.00    -0.153 OA
BRANCH  31  34
ATOM     34  N   LIG d   1       2.451  -0.656  -3.034  0.00  0.00    -0.203 N 
ATOM     35  H   LIG d   1       1.832  -0.789  -2.298  0.00  0.00     0.144 HD
ATOM     36  H   LIG d   1       2.175  -0.153  -3.816  0.00  0.00     0.144 HD
ENDBRANCH  31  34
ENDBRANCH   7  31
TORSDOF 6
ENDMDL
MODEL 9
REMARK VINA RESULT:      -5.0     11.309     13.498
REMARK  6 active torsions:
REMARK  status: ('A' for Active; 'I' for Inactive)
REMARK    1  A    between atoms: C_2  and  C_3 
REMARK    2  A    between atoms: C_3  and  S_4 
REMARK    3  A    between atoms: S_4  and  C_5 
REMARK    4  A    between atoms: C_5  and  C_6 
REMARK    5  A    between atoms: C_12  and  S_19 
REMARK    6  A    between atoms: S_19  and  N_22 
ROOT
ATOM      1  C   LIG d   1       9.485   9.386  -5.585  0.00  0.00     0.100 C 
ATOM      2  H   LIG d   1       8.856   9.408  -6.475  0.00  0.00     0.069 H 
ATOM      3  N   LIG d   1       9.368   8.083  -4.933  0.00  0.00    -0.325 N 
ATOM      4  C   LIG d   1       9.887   7.809  -3.671  0.00  0.00     0.057 A 
ATOM      5  C   LIG d   1      10.142   6.484  -3.323  0.00  0.00    -0.019 A 
ATOM      6  C   LIG d   1      10.641   6.178  -2.072  0.00  0.00     0.069 A 
ATOM      7  C   LIG d   1      10.888   7.185  -1.155  0.00  0.00     0.125 A 
ATOM      8  C   LIG d   1      10.642   8.502  -1.496  0.00  0.00    -0.006 A 
ATOM      9  C   LIG d   1      10.152   8.812  -2.748  0.00  0.00     0.128 A 
ATOM     10  S   LIG d   1       9.878  10.500  -3.192  0.00  0.00     0.062 S 
ATOM     11  O   LIG d   1       8.990  11.045  -2.226  0.00  0.00    -0.153 OA
ATOM     12  O   LIG d   1      11.150  11.068  -3.474  0.00  0.00    -0.153 OA
ATOM     13  N   LIG d   1       9.043  10.431  -4.639  0.00  0.00    -0.169 N 
ATOM     14 CL   LIG d   1      10.959   4.526  -1.649  0.00  0.00    -0.082 Cl
ATOM     15  H   LIG d   1       8.906   7.372  -5.405  0.00  0.00     0.148 HD
ATOM     16  H   LIG d   1       9.950   5.694  -4.033  0.00  0.00     0.065 H 
ATOM     17  H   LIG d   1      10.832   9.290  -0.781  0.00  0.00     0.066 H 
ATOM     18  H   LIG d   1       8.314  11.037  -4.846  0.00  0.00     0.150 HD
ENDROOT
BRANCH   1  19
ATOM     19  C   LIG d   1      10.942   9.633  -5.979  0.00  0.00     0.027 C 
ATOM     20  H   LIG d   1      11.589   9.439  -5.124  0.00  0.00     0.041 H 
ATOM     21  H   LIG d   1      11.061  10.670  -6.298  0.00  0.00     0.041 H 
BRANCH  19  22
ATOM     22  S   LIG d   1      11.395   8.526  -7.343  0.00  0.00    -0.153 SA
BRANCH  22  23
ATOM     23  C   LIG d   1      10.062   8.752  -8.553  0.00  0.00     0.012 C 
ATOM     24  H   LIG d   1      10.493   8.982  -9.528  0.00  0.00     0.042 H 
ATOM     25  H   LIG d   1       9.421   9.574  -8.237  0.00  0.00     0.042 H 
BRANCH  23  26
ATOM     26  C   LIG d   1       9.250   7.487  -8.647  0.00  0.00    -0.081 C 
ATOM     27  C   LIG d   1       9.718   6.369  -8.149  0.00  0.00    -0.102 C 
ATOM     28  H   LIG d   1       9.136   5.463  -8.216  0.00  0.00     0.053 H 
ATOM     29  H   LIG d   1      10.689   6.353  -7.678  0.00  0.00     0.053 H 
ATOM     30  H   LIG d   1       8.280   7.501  -9.122  0.00  0.00     0.057 H 
ENDBRANCH  23  26
ENDBRANCH  22  23
ENDBRANCH  19  22
ENDBRANCH   1  19
BRANCH   7  31
ATOM     31  S   LIG d   1      11.514   6.789   0.443  0.00  0.00     0.057 S 
ATOM     32  O   LIG d   1      10.534   5.978   1.075  0.00  0.00    -0.153 OA
ATOM     33  O   LIG d   1      12.856   6.358   0.259  0.00  0.00    -0.153 OA
BRANCH  31  34
ATOM     34  N   LIG d   1      11.587   8.201   1.305  0.00  0.00    -0.203 N 
ATOM     35  H   LIG d   1      10.790   8.545   1.740  0.00  0.00     0.144 HD
ATOM     36  H   LIG d   1      12.425   8.684   1.376  0.00  0.00     0.144 HD
ENDBRANCH  31  34
ENDBRANCH   7  31
TORSDOF 6
ENDMDL
MODEL 10
REMARK VINA RESULT:      -4.8     11.730     13.993
REMARK  6 active torsions:
REMARK  status: ('A' for Active; 'I' for Inactive)
REMARK    1  A    between atoms: C_2  and  C_3 
REMARK    2  A    between atoms: C_3  and  S_4 
REMARK    3  A    between atoms: S_4  and  C_5 
REMARK    4  A    between atoms: C_5  and  C_6 
REMARK    5  A    between atoms: C_12  and  S_19 
REMARK    6  A    between atoms: S_19  and  N_22 
ROOT
ATOM      1  C   LIG d   1       9.511   9.354  -5.633  0.00  0.00     0.100 C 
ATOM      2  H   LIG d   1       8.886   9.372  -6.526  0.00  0.00     0.069 H 
ATOM      3  N   LIG d   1       9.386   8.056  -4.973  0.00  0.00    -0.325 N 
ATOM      4  C   LIG d   1       9.898   7.790  -3.706  0.00  0.00     0.057 A 
ATOM      5  C   LIG d   1      10.147   6.466  -3.348  0.00  0.00    -0.019 A 
ATOM      6  C   LIG d   1      10.639   6.167  -2.093  0.00  0.00     0.069 A 
ATOM      7  C   LIG d   1      10.887   7.179  -1.182  0.00  0.00     0.125 A 
ATOM      8  C   LIG d   1      10.648   8.495  -1.534  0.00  0.00    -0.006 A 
ATOM      9  C   LIG d   1      10.165   8.797  -2.790  0.00  0.00     0.128 A 
ATOM     10  S   LIG d   1       9.900  10.484  -3.248  0.00  0.00     0.062 S 
ATOM     11  O   LIG d   1       9.010  11.039  -2.289  0.00  0.00    -0.153 OA
ATOM     12  O   LIG d   1      11.175  11.044  -3.528  0.00  0.00    -0.153 OA
ATOM     13  N   LIG d   1       9.070  10.408  -4.698  0.00  0.00    -0.169 N 
ATOM     14 CL   LIG d   1      10.948   4.516  -1.657  0.00  0.00    -0.082 Cl
ATOM     15  H   LIG d   1       8.923   7.344  -5.441  0.00  0.00     0.148 HD
ATOM     16  H   LIG d   1       9.954   5.672  -4.053  0.00  0.00     0.065 H 
ATOM     17  H   LIG d   1      10.839   9.287  -0.824  0.00  0.00     0.066 H 
ATOM     18  H   LIG d   1       8.345  11.015  -4.911  0.00  0.00     0.150 HD
ENDROOT
BRANCH   1  19
ATOM     19  C   LIG d   1      10.971   9.592  -6.024  0.00  0.00     0.027 C 
ATOM     20  H   LIG d   1      11.476   8.634  -6.145  0.00  0.00     0.041 H 
ATOM     21  H   LIG d   1      11.466  10.168  -5.241  0.00  0.00     0.041 H 
BRANCH  19  22
ATOM     22  S   LIG d   1      11.037  10.512  -7.585  0.00  0.00    -0.153 SA
BRANCH  22  23
ATOM     23  C   LIG d   1      11.753  12.114  -7.122  0.00  0.00     0.012 C 
ATOM     24  H   LIG d   1      12.301  12.525  -7.969  0.00  0.00     0.042 H 
ATOM     25  H   LIG d   1      12.432  11.978  -6.281  0.00  0.00     0.042 H 
BRANCH  23  26
ATOM     26  C   LIG d   1      10.650  13.062  -6.729  0.00  0.00    -0.081 C 
ATOM     27  C   LIG d   1       9.489  13.004  -7.334  0.00  0.00    -0.102 C 
ATOM     28  H   LIG d   1       8.699  13.683  -7.052  0.00  0.00     0.053 H 
ATOM     29  H   LIG d   1       9.326  12.281  -8.119  0.00  0.00     0.053 H 
ATOM     30  H   LIG d   1      10.814  13.788  -5.946  0.00  0.00     0.057 H 
ENDBRANCH  23  26
ENDBRANCH  22  23
ENDBRANCH  19  22
ENDBRANCH   1  19
BRANCH   7  31
ATOM     31  S   LIG d   1      11.505   6.792   0.422  0.00  0.00     0.057 S 
ATOM     32  O   LIG d   1      10.537   5.957   1.040  0.00  0.00    -0.153 OA
ATOM     33  O   LIG d   1      12.859   6.393   0.250  0.00  0.00    -0.153 OA
BRANCH  31  34
ATOM     34  N   LIG d   1      11.535   8.203   1.289  0.00  0.00    -0.203 N 
ATOM     35  H   LIG d   1      10.744   8.494   1.769  0.00  0.00     0.144 HD
ATOM     36  H   LIG d   1      12.344   8.738   1.317  0.00  0.00     0.144 HD
ENDBRANCH  31  34
ENDBRANCH   7  31
TORSDOF 6
ENDMDL
