MODEL 1
REMARK VINA RESULT:      -6.8      0.000      0.000
REMARK  7 active torsions:
REMARK  status: ('A' for Active; 'I' for Inactive)
REMARK    1  A    between atoms: C_1  and  O_2 
REMARK    2  A    between atoms: O_2  and  C_3 
REMARK    3  A    between atoms: C_6  and  C_9 
REMARK    4  A    between atoms: C_19  and  N_20 
REMARK       I    between atoms: N_20  and  C_21 
REMARK    5  A    between atoms: C_21  and  C_23 
REMARK    6  A    between atoms: C_27  and  O_29 
REMARK    7  A    between atoms: O_29  and  C_30 
ROOT
ATOM      1  C   LIG d   1       4.750  -4.316  -7.318  0.00  0.00     0.087 A 
ATOM      2  C   LIG d   1       4.939  -5.461  -8.137  0.00  0.00     0.202 A 
ATOM      3  O   LIG d   1       5.084  -5.361  -9.344  0.00  0.00    -0.286 OA
ATOM      4  C   LIG d   1       4.945  -6.778  -7.470  0.00  0.00     0.065 A 
ATOM      5  C   LIG d   1       5.118  -7.954  -8.198  0.00  0.00    -0.047 A 
ATOM      6  C   LIG d   1       5.120  -9.166  -7.543  0.00  0.00    -0.061 A 
ATOM      7  C   LIG d   1       4.949  -9.217  -6.168  0.00  0.00    -0.058 A 
ATOM      8  C   LIG d   1       4.778  -8.061  -5.436  0.00  0.00    -0.019 A 
ATOM      9  C   LIG d   1       4.774  -6.827  -6.078  0.00  0.00     0.141 A 
ATOM     10  O   LIG d   1       4.606  -5.688  -5.375  0.00  0.00    -0.440 OA
ATOM     11  C   LIG d   1       4.595  -4.480  -5.954  0.00  0.00     0.205 A 
ATOM     12  H   LIG d   1       5.251  -7.915  -9.269  0.00  0.00     0.063 H 
ATOM     13  H   LIG d   1       5.253 -10.080  -8.102  0.00  0.00     0.062 H 
ATOM     14  H   LIG d   1       4.953 -10.172  -5.663  0.00  0.00     0.062 H 
ATOM     15  H   LIG d   1       4.648  -8.112  -4.366  0.00  0.00     0.065 H 
ENDROOT
BRANCH  11  16
ATOM     16  N   LIG d   1       4.418  -3.368  -5.167  0.00  0.00    -0.252 N 
ATOM     17  C   LIG d   1       5.448  -2.884  -4.443  0.00  0.00     0.251 C 
ATOM     18  O   LIG d   1       6.532  -3.430  -4.488  0.00  0.00    -0.270 OA
ATOM     19  H   LIG d   1       3.553  -2.931  -5.131  0.00  0.00     0.158 HD
BRANCH  17  20
ATOM     20  C   LIG d   1       5.258  -1.688  -3.597  0.00  0.00     0.041 A 
ATOM     21  C   LIG d   1       5.971  -0.518  -3.867  0.00  0.00    -0.008 A 
ATOM     22  C   LIG d   1       5.789   0.597  -3.068  0.00  0.00     0.121 A 
ATOM     23  H   LIG d   1       6.663  -0.485  -4.695  0.00  0.00     0.066 H 
ATOM     24  C   LIG d   1       4.903   0.551  -2.000  0.00  0.00    -0.020 A 
ATOM     25  C   LIG d   1       4.192  -0.605  -1.735  0.00  0.00    -0.058 A 
ATOM     26  H   LIG d   1       4.766   1.423  -1.377  0.00  0.00     0.065 H 
ATOM     27  C   LIG d   1       4.365  -1.723  -2.523  0.00  0.00    -0.049 A 
ATOM     28  H   LIG d   1       3.502  -0.634  -0.905  0.00  0.00     0.062 H 
ATOM     29  H   LIG d   1       3.812  -2.626  -2.310  0.00  0.00     0.062 H 
BRANCH  22  30
ATOM     30  O   LIG d   1       6.481   1.738  -3.328  0.00  0.00    -0.495 OA
BRANCH  30  31
ATOM     31  C   LIG d   1       7.782   1.590  -3.902  0.00  0.00     0.079 C 
ATOM     32  H   LIG d   1       7.762   1.926  -4.939  0.00  0.00     0.066 H 
ATOM     33  H   LIG d   1       8.079   0.542  -3.865  0.00  0.00     0.066 H 
ATOM     34  H   LIG d   1       8.498   2.190  -3.339  0.00  0.00     0.066 H 
ENDBRANCH  30  31
ENDBRANCH  22  30
ENDBRANCH  17  20
ENDBRANCH  11  16
BRANCH   1  35
ATOM     35  C   LIG d   1       4.725  -2.961  -7.918  0.00  0.00    -0.009 A 
ATOM     36  C   LIG d   1       5.892  -2.201  -7.978  0.00  0.00    -0.050 A 
ATOM     37  C   LIG d   1       5.865  -0.940  -8.538  0.00  0.00    -0.019 A 
ATOM     38  H   LIG d   1       6.817  -2.599  -7.588  0.00  0.00     0.062 H 
ATOM     39  C   LIG d   1       4.678  -0.428  -9.041  0.00  0.00     0.120 A 
ATOM     40  H   LIG d   1       6.769  -0.351  -8.584  0.00  0.00     0.065 H 
ATOM     41  C   LIG d   1       3.513  -1.182  -8.983  0.00  0.00    -0.019 A 
ATOM     42  C   LIG d   1       3.534  -2.444  -8.430  0.00  0.00    -0.050 A 
ATOM     43  H   LIG d   1       2.591  -0.779  -9.375  0.00  0.00     0.065 H 
ATOM     44  H   LIG d   1       2.628  -3.032  -8.388  0.00  0.00     0.062 H 
BRANCH  39  45
ATOM     45  O   LIG d   1       4.654   0.814  -9.592  0.00  0.00    -0.495 OA
BRANCH  45  46
ATOM     46  C   LIG d   1       3.983   0.956 -10.846  0.00  0.00     0.079 C 
ATOM     47  H   LIG d   1       3.501   1.931 -10.893  0.00  0.00     0.066 H 
ATOM     48  H   LIG d   1       4.706   0.867 -11.657  0.00  0.00     0.066 H 
ATOM     49  H   LIG d   1       3.231   0.174 -10.945  0.00  0.00     0.066 H 
ENDBRANCH  45  46
ENDBRANCH  39  45
ENDBRANCH   1  35
TORSDOF 7
ENDMDL
MODEL 2
REMARK VINA RESULT:      -6.6      1.328      1.743
REMARK  7 active torsions:
REMARK  status: ('A' for Active; 'I' for Inactive)
REMARK    1  A    between atoms: C_1  and  O_2 
REMARK    2  A    between atoms: O_2  and  C_3 
REMARK    3  A    between atoms: C_6  and  C_9 
REMARK    4  A    between atoms: C_19  and  N_20 
REMARK       I    between atoms: N_20  and  C_21 
REMARK    5  A    between atoms: C_21  and  C_23 
REMARK    6  A    between atoms: C_27  and  O_29 
REMARK    7  A    between atoms: O_29  and  C_30 
ROOT
ATOM      1  C   LIG d   1       4.734  -4.766  -7.352  0.00  0.00     0.087 A 
ATOM      2  C   LIG d   1       5.138  -5.930  -8.058  0.00  0.00     0.202 A 
ATOM      3  O   LIG d   1       5.442  -5.883  -9.239  0.00  0.00    -0.286 OA
ATOM      4  C   LIG d   1       5.167  -7.202  -7.309  0.00  0.00     0.065 A 
ATOM      5  C   LIG d   1       5.545  -8.394  -7.925  0.00  0.00    -0.047 A 
ATOM      6  C   LIG d   1       5.561  -9.562  -7.196  0.00  0.00    -0.061 A 
ATOM      7  C   LIG d   1       5.203  -9.554  -5.856  0.00  0.00    -0.058 A 
ATOM      8  C   LIG d   1       4.829  -8.382  -5.234  0.00  0.00    -0.019 A 
ATOM      9  C   LIG d   1       4.805  -7.192  -5.953  0.00  0.00     0.141 A 
ATOM     10  O   LIG d   1       4.439  -6.037  -5.358  0.00  0.00    -0.440 OA
ATOM     11  C   LIG d   1       4.403  -4.870  -6.014  0.00  0.00     0.205 A 
ATOM     12  H   LIG d   1       5.823  -8.401  -8.969  0.00  0.00     0.063 H 
ATOM     13  H   LIG d   1       5.852 -10.488  -7.669  0.00  0.00     0.062 H 
ATOM     14  H   LIG d   1       5.220 -10.475  -5.292  0.00  0.00     0.062 H 
ATOM     15  H   LIG d   1       4.553  -8.387  -4.190  0.00  0.00     0.065 H 
ENDROOT
BRANCH  11  16
ATOM     16  N   LIG d   1       4.019  -3.739  -5.335  0.00  0.00    -0.252 N 
ATOM     17  C   LIG d   1       4.905  -3.089  -4.552  0.00  0.00     0.251 C 
ATOM     18  O   LIG d   1       6.042  -3.503  -4.449  0.00  0.00    -0.270 OA
ATOM     19  H   LIG d   1       3.112  -3.408  -5.417  0.00  0.00     0.158 HD
BRANCH  17  20
ATOM     20  C   LIG d   1       4.492  -1.872  -3.822  0.00  0.00     0.041 A 
ATOM     21  C   LIG d   1       3.853  -0.832  -4.499  0.00  0.00    -0.008 A 
ATOM     22  C   LIG d   1       3.471   0.305  -3.808  0.00  0.00     0.121 A 
ATOM     23  H   LIG d   1       3.658  -0.914  -5.558  0.00  0.00     0.066 H 
ATOM     24  C   LIG d   1       3.727   0.411  -2.448  0.00  0.00    -0.020 A 
ATOM     25  C   LIG d   1       4.355  -0.621  -1.775  0.00  0.00    -0.058 A 
ATOM     26  H   LIG d   1       3.431   1.302  -1.913  0.00  0.00     0.065 H 
ATOM     27  C   LIG d   1       4.741  -1.758  -2.453  0.00  0.00    -0.049 A 
ATOM     28  H   LIG d   1       4.549  -0.533  -0.716  0.00  0.00     0.062 H 
ATOM     29  H   LIG d   1       5.236  -2.560  -1.925  0.00  0.00     0.062 H 
BRANCH  22  30
ATOM     30  O   LIG d   1       2.848   1.320  -4.464  0.00  0.00    -0.495 OA
BRANCH  30  31
ATOM     31  C   LIG d   1       2.404   1.056  -5.797  0.00  0.00     0.079 C 
ATOM     32  H   LIG d   1       2.659   0.031  -6.068  0.00  0.00     0.066 H 
ATOM     33  H   LIG d   1       2.892   1.745  -6.486  0.00  0.00     0.066 H 
ATOM     34  H   LIG d   1       1.324   1.189  -5.853  0.00  0.00     0.066 H 
ENDBRANCH  30  31
ENDBRANCH  22  30
ENDBRANCH  17  20
ENDBRANCH  11  16
BRANCH   1  35
ATOM     35  C   LIG d   1       4.674  -3.455  -8.040  0.00  0.00    -0.009 A 
ATOM     36  C   LIG d   1       3.500  -3.052  -8.674  0.00  0.00    -0.050 A 
ATOM     37  C   LIG d   1       3.446  -1.831  -9.314  0.00  0.00    -0.019 A 
ATOM     38  H   LIG d   1       2.631  -3.694  -8.664  0.00  0.00     0.062 H 
ATOM     39  C   LIG d   1       4.561  -1.004  -9.327  0.00  0.00     0.120 A 
ATOM     40  H   LIG d   1       2.537  -1.517  -9.805  0.00  0.00     0.065 H 
ATOM     41  C   LIG d   1       5.733  -1.402  -8.697  0.00  0.00    -0.019 A 
ATOM     42  C   LIG d   1       5.790  -2.619  -8.052  0.00  0.00    -0.050 A 
ATOM     43  H   LIG d   1       6.598  -0.756  -8.710  0.00  0.00     0.065 H 
ATOM     44  H   LIG d   1       6.701  -2.927  -7.559  0.00  0.00     0.062 H 
BRANCH  39  45
ATOM     45  O   LIG d   1       4.506   0.199  -9.958  0.00  0.00    -0.495 OA
BRANCH  45  46
ATOM     46  C   LIG d   1       3.753   0.262 -11.171  0.00  0.00     0.079 C 
ATOM     47  H   LIG d   1       4.416   0.515 -11.998  0.00  0.00     0.066 H 
ATOM     48  H   LIG d   1       3.287  -0.705 -11.360  0.00  0.00     0.066 H 
ATOM     49  H   LIG d   1       2.980   1.025 -11.079  0.00  0.00     0.066 H 
ENDBRANCH  45  46
ENDBRANCH  39  45
ENDBRANCH   1  35
TORSDOF 7
ENDMDL
MODEL 3
REMARK VINA RESULT:      -6.5      1.831      6.750
REMARK  7 active torsions:
REMARK  status: ('A' for Active; 'I' for Inactive)
REMARK    1  A    between atoms: C_1  and  O_2 
REMARK    2  A    between atoms: O_2  and  C_3 
REMARK    3  A    between atoms: C_6  and  C_9 
REMARK    4  A    between atoms: C_19  and  N_20 
REMARK       I    between atoms: N_20  and  C_21 
REMARK    5  A    between atoms: C_21  and  C_23 
REMARK    6  A    between atoms: C_27  and  O_29 
REMARK    7  A    between atoms: O_29  and  C_30 
ROOT
ATOM      1  C   LIG d   1       4.635  -1.962  -6.165  0.00  0.00     0.087 A 
ATOM      2  C   LIG d   1       4.846  -0.647  -5.671  0.00  0.00     0.202 A 
ATOM      3  O   LIG d   1       5.118   0.277  -6.419  0.00  0.00    -0.286 OA
ATOM      4  C   LIG d   1       4.732  -0.444  -4.213  0.00  0.00     0.065 A 
ATOM      5  C   LIG d   1       4.929   0.812  -3.641  0.00  0.00    -0.047 A 
ATOM      6  C   LIG d   1       4.813   0.965  -2.277  0.00  0.00    -0.061 A 
ATOM      7  C   LIG d   1       4.504  -0.124  -1.476  0.00  0.00    -0.058 A 
ATOM      8  C   LIG d   1       4.305  -1.371  -2.029  0.00  0.00    -0.019 A 
ATOM      9  C   LIG d   1       4.417  -1.547  -3.403  0.00  0.00     0.141 A 
ATOM     10  O   LIG d   1       4.227  -2.762  -3.958  0.00  0.00    -0.440 OA
ATOM     11  C   LIG d   1       4.325  -2.975  -5.276  0.00  0.00     0.205 A 
ATOM     12  H   LIG d   1       5.171   1.660  -4.265  0.00  0.00     0.063 H 
ATOM     13  H   LIG d   1       4.966   1.936  -1.830  0.00  0.00     0.062 H 
ATOM     14  H   LIG d   1       4.414   0.007  -0.407  0.00  0.00     0.062 H 
ATOM     15  H   LIG d   1       4.063  -2.211  -1.395  0.00  0.00     0.065 H 
ENDROOT
BRANCH  11  16
ATOM     16  N   LIG d   1       4.117  -4.243  -5.762  0.00  0.00    -0.252 N 
ATOM     17  C   LIG d   1       5.103  -5.160  -5.698  0.00  0.00     0.251 C 
ATOM     18  O   LIG d   1       6.175  -4.866  -5.209  0.00  0.00    -0.270 OA
ATOM     19  H   LIG d   1       3.261  -4.479  -6.152  0.00  0.00     0.158 HD
BRANCH  17  20
ATOM     20  C   LIG d   1       4.879  -6.524  -6.219  0.00  0.00     0.041 A 
ATOM     21  C   LIG d   1       5.045  -7.630  -5.384  0.00  0.00    -0.008 A 
ATOM     22  C   LIG d   1       4.835  -8.905  -5.881  0.00  0.00     0.121 A 
ATOM     23  H   LIG d   1       5.338  -7.491  -4.354  0.00  0.00     0.066 H 
ATOM     24  C   LIG d   1       4.464  -9.082  -7.207  0.00  0.00    -0.020 A 
ATOM     25  C   LIG d   1       4.294  -7.987  -8.034  0.00  0.00    -0.058 A 
ATOM     26  H   LIG d   1       4.305 -10.078  -7.593  0.00  0.00     0.065 H 
ATOM     27  C   LIG d   1       4.501  -6.712  -7.551  0.00  0.00    -0.049 A 
ATOM     28  H   LIG d   1       4.002  -8.131  -9.064  0.00  0.00     0.062 H 
ATOM     29  H   LIG d   1       4.372  -5.859  -8.201  0.00  0.00     0.062 H 
BRANCH  22  30
ATOM     30  O   LIG d   1       4.996  -9.984  -5.071  0.00  0.00    -0.495 OA
BRANCH  30  31
ATOM     31  C   LIG d   1       4.161 -10.056  -3.912  0.00  0.00     0.079 C 
ATOM     32  H   LIG d   1       3.690  -9.088  -3.744  0.00  0.00     0.066 H 
ATOM     33  H   LIG d   1       4.766 -10.321  -3.044  0.00  0.00     0.066 H 
ATOM     34  H   LIG d   1       3.393 -10.813  -4.064  0.00  0.00     0.066 H 
ENDBRANCH  30  31
ENDBRANCH  22  30
ENDBRANCH  17  20
ENDBRANCH  11  16
BRANCH   1  35
ATOM     35  C   LIG d   1       4.741  -2.243  -7.616  0.00  0.00    -0.009 A 
ATOM     36  C   LIG d   1       5.968  -2.599  -8.172  0.00  0.00    -0.050 A 
ATOM     37  C   LIG d   1       6.064  -2.861  -9.523  0.00  0.00    -0.019 A 
ATOM     38  H   LIG d   1       6.845  -2.673  -7.545  0.00  0.00     0.062 H 
ATOM     39  C   LIG d   1       4.938  -2.768 -10.329  0.00  0.00     0.120 A 
ATOM     40  H   LIG d   1       7.014  -3.137  -9.954  0.00  0.00     0.065 H 
ATOM     41  C   LIG d   1       3.713  -2.413  -9.780  0.00  0.00    -0.019 A 
ATOM     42  C   LIG d   1       3.611  -2.156  -8.430  0.00  0.00    -0.050 A 
ATOM     43  H   LIG d   1       2.840  -2.342 -10.411  0.00  0.00     0.065 H 
ATOM     44  H   LIG d   1       2.657  -1.883  -8.001  0.00  0.00     0.062 H 
BRANCH  39  45
ATOM     45  O   LIG d   1       5.034  -3.026 -11.661  0.00  0.00    -0.495 OA
BRANCH  45  46
ATOM     46  C   LIG d   1       3.848  -2.861 -12.441  0.00  0.00     0.079 C 
ATOM     47  H   LIG d   1       4.109  -2.833 -13.498  0.00  0.00     0.066 H 
ATOM     48  H   LIG d   1       3.171  -3.694 -12.255  0.00  0.00     0.066 H 
ATOM     49  H   LIG d   1       3.358  -1.927 -12.164  0.00  0.00     0.066 H 
ENDBRANCH  45  46
ENDBRANCH  39  45
ENDBRANCH   1  35
TORSDOF 7
ENDMDL
MODEL 4
REMARK VINA RESULT:      -6.4      5.172      8.025
REMARK  7 active torsions:
REMARK  status: ('A' for Active; 'I' for Inactive)
REMARK    1  A    between atoms: C_1  and  O_2 
REMARK    2  A    between atoms: O_2  and  C_3 
REMARK    3  A    between atoms: C_6  and  C_9 
REMARK    4  A    between atoms: C_19  and  N_20 
REMARK       I    between atoms: N_20  and  C_21 
REMARK    5  A    between atoms: C_21  and  C_23 
REMARK    6  A    between atoms: C_27  and  O_29 
REMARK    7  A    between atoms: O_29  and  C_30 
ROOT
ATOM      1  C   LIG d   1       8.240   0.584  -4.784  0.00  0.00     0.087 A 
ATOM      2  C   LIG d   1       7.610  -0.629  -4.397  0.00  0.00     0.202 A 
ATOM      3  O   LIG d   1       8.005  -1.708  -4.806  0.00  0.00    -0.286 OA
ATOM      4  C   LIG d   1       6.452  -0.531  -3.487  0.00  0.00     0.065 A 
ATOM      5  C   LIG d   1       5.770  -1.671  -3.061  0.00  0.00    -0.047 A 
ATOM      6  C   LIG d   1       4.694  -1.542  -2.211  0.00  0.00    -0.061 A 
ATOM      7  C   LIG d   1       4.290  -0.287  -1.780  0.00  0.00    -0.058 A 
ATOM      8  C   LIG d   1       4.956   0.847  -2.193  0.00  0.00    -0.019 A 
ATOM      9  C   LIG d   1       6.045   0.739  -3.050  0.00  0.00     0.141 A 
ATOM     10  O   LIG d   1       6.706   1.841  -3.464  0.00  0.00    -0.440 OA
ATOM     11  C   LIG d   1       7.758   1.781  -4.289  0.00  0.00     0.205 A 
ATOM     12  H   LIG d   1       6.084  -2.648  -3.397  0.00  0.00     0.063 H 
ATOM     13  H   LIG d   1       4.162  -2.422  -1.880  0.00  0.00     0.062 H 
ATOM     14  H   LIG d   1       3.445  -0.197  -1.113  0.00  0.00     0.062 H 
ATOM     15  H   LIG d   1       4.633   1.818  -1.850  0.00  0.00     0.065 H 
ENDROOT
BRANCH  11  16
ATOM     16  N   LIG d   1       8.376   2.951  -4.663  0.00  0.00    -0.252 N 
ATOM     17  C   LIG d   1       9.285   3.523  -3.847  0.00  0.00     0.251 C 
ATOM     18  O   LIG d   1       9.558   3.004  -2.783  0.00  0.00    -0.270 OA
ATOM     19  H   LIG d   1       8.159   3.365  -5.512  0.00  0.00     0.158 HD
BRANCH  17  20
ATOM     20  C   LIG d   1       9.950   4.780  -4.248  0.00  0.00     0.041 A 
ATOM     21  C   LIG d   1       9.200   5.830  -4.780  0.00  0.00    -0.008 A 
ATOM     22  C   LIG d   1       9.831   7.004  -5.155  0.00  0.00     0.121 A 
ATOM     23  H   LIG d   1       8.132   5.727  -4.900  0.00  0.00     0.066 H 
ATOM     24  C   LIG d   1      11.205   7.133  -5.006  0.00  0.00    -0.020 A 
ATOM     25  C   LIG d   1      11.948   6.096  -4.475  0.00  0.00    -0.058 A 
ATOM     26  H   LIG d   1      11.695   8.049  -5.304  0.00  0.00     0.065 H 
ATOM     27  C   LIG d   1      11.331   4.921  -4.098  0.00  0.00    -0.049 A 
ATOM     28  H   LIG d   1      13.017   6.204  -4.358  0.00  0.00     0.062 H 
ATOM     29  H   LIG d   1      11.916   4.111  -3.687  0.00  0.00     0.062 H 
BRANCH  22  30
ATOM     30  O   LIG d   1       9.104   8.029  -5.674  0.00  0.00    -0.495 OA
BRANCH  30  31
ATOM     31  C   LIG d   1       9.630   9.347  -5.505  0.00  0.00     0.079 C 
ATOM     32  H   LIG d   1      10.029   9.453  -4.496  0.00  0.00     0.066 H 
ATOM     33  H   LIG d   1       8.836  10.078  -5.659  0.00  0.00     0.066 H 
ATOM     34  H   LIG d   1      10.425   9.517  -6.230  0.00  0.00     0.066 H 
ENDBRANCH  30  31
ENDBRANCH  22  30
ENDBRANCH  17  20
ENDBRANCH  11  16
BRANCH   1  35
ATOM     35  C   LIG d   1       9.404   0.564  -5.701  0.00  0.00    -0.009 A 
ATOM     36  C   LIG d   1       9.213   0.694  -7.075  0.00  0.00    -0.050 A 
ATOM     37  C   LIG d   1      10.298   0.676  -7.927  0.00  0.00    -0.019 A 
ATOM     38  H   LIG d   1       8.216   0.811  -7.474  0.00  0.00     0.062 H 
ATOM     39  C   LIG d   1      11.580   0.528  -7.415  0.00  0.00     0.120 A 
ATOM     40  H   LIG d   1      10.151   0.777  -8.992  0.00  0.00     0.065 H 
ATOM     41  C   LIG d   1      11.775   0.398  -6.047  0.00  0.00    -0.019 A 
ATOM     42  C   LIG d   1      10.694   0.420  -5.191  0.00  0.00    -0.050 A 
ATOM     43  H   LIG d   1      12.773   0.282  -5.653  0.00  0.00     0.065 H 
ATOM     44  H   LIG d   1      10.846   0.322  -4.125  0.00  0.00     0.062 H 
BRANCH  39  45
ATOM     45  O   LIG d   1      12.648   0.511  -8.256  0.00  0.00    -0.495 OA
BRANCH  45  46
ATOM     46  C   LIG d   1      13.932   0.757  -7.679  0.00  0.00     0.079 C 
ATOM     47  H   LIG d   1      14.492   1.441  -8.316  0.00  0.00     0.066 H 
ATOM     48  H   LIG d   1      13.808   1.200  -6.691  0.00  0.00     0.066 H 
ATOM     49  H   LIG d   1      14.477  -0.183  -7.590  0.00  0.00     0.066 H 
ENDBRANCH  45  46
ENDBRANCH  39  45
ENDBRANCH   1  35
TORSDOF 7
ENDMDL
MODEL 5
REMARK VINA RESULT:      -6.4      2.708      7.662
REMARK  7 active torsions:
REMARK  status: ('A' for Active; 'I' for Inactive)
REMARK    1  A    between atoms: C_1  and  O_2 
REMARK    2  A    between atoms: O_2  and  C_3 
REMARK    3  A    between atoms: C_6  and  C_9 
REMARK    4  A    between atoms: C_19  and  N_20 
REMARK       I    between atoms: N_20  and  C_21 
REMARK    5  A    between atoms: C_21  and  C_23 
REMARK    6  A    between atoms: C_27  and  O_29 
REMARK    7  A    between atoms: O_29  and  C_30 
ROOT
ATOM      1  C   LIG d   1       6.493  -2.689  -4.453  0.00  0.00     0.087 A 
ATOM      2  C   LIG d   1       6.650  -1.396  -3.887  0.00  0.00     0.202 A 
ATOM      3  O   LIG d   1       7.743  -0.859  -3.823  0.00  0.00    -0.286 OA
ATOM      4  C   LIG d   1       5.437  -0.730  -3.371  0.00  0.00     0.065 A 
ATOM      5  C   LIG d   1       5.500   0.537  -2.793  0.00  0.00    -0.047 A 
ATOM      6  C   LIG d   1       4.349   1.129  -2.323  0.00  0.00    -0.061 A 
ATOM      7  C   LIG d   1       3.133   0.468  -2.422  0.00  0.00    -0.058 A 
ATOM      8  C   LIG d   1       3.057  -0.785  -2.992  0.00  0.00    -0.019 A 
ATOM      9  C   LIG d   1       4.208  -1.400  -3.473  0.00  0.00     0.141 A 
ATOM     10  O   LIG d   1       4.149  -2.626  -4.032  0.00  0.00    -0.440 OA
ATOM     11  C   LIG d   1       5.232  -3.253  -4.507  0.00  0.00     0.205 A 
ATOM     12  H   LIG d   1       6.446   1.052  -2.715  0.00  0.00     0.063 H 
ATOM     13  H   LIG d   1       4.392   2.110  -1.874  0.00  0.00     0.062 H 
ATOM     14  H   LIG d   1       2.235   0.941  -2.051  0.00  0.00     0.062 H 
ATOM     15  H   LIG d   1       2.106  -1.289  -3.065  0.00  0.00     0.065 H 
ENDROOT
BRANCH  11  16
ATOM     16  N   LIG d   1       5.087  -4.502  -5.062  0.00  0.00    -0.252 N 
ATOM     17  C   LIG d   1       4.603  -4.632  -6.314  0.00  0.00     0.251 C 
ATOM     18  O   LIG d   1       4.296  -3.644  -6.951  0.00  0.00    -0.270 OA
ATOM     19  H   LIG d   1       5.332  -5.291  -4.553  0.00  0.00     0.158 HD
BRANCH  17  20
ATOM     20  C   LIG d   1       4.447  -5.975  -6.910  0.00  0.00     0.041 A 
ATOM     21  C   LIG d   1       4.770  -7.112  -6.169  0.00  0.00    -0.008 A 
ATOM     22  C   LIG d   1       4.622  -8.367  -6.736  0.00  0.00     0.121 A 
ATOM     23  H   LIG d   1       5.134  -7.014  -5.157  0.00  0.00     0.066 H 
ATOM     24  C   LIG d   1       4.159  -8.491  -8.038  0.00  0.00    -0.020 A 
ATOM     25  C   LIG d   1       3.834  -7.365  -8.772  0.00  0.00    -0.058 A 
ATOM     26  H   LIG d   1       4.049  -9.471  -8.479  0.00  0.00     0.065 H 
ATOM     27  C   LIG d   1       3.977  -6.110  -8.219  0.00  0.00    -0.049 A 
ATOM     28  H   LIG d   1       3.471  -7.468  -9.784  0.00  0.00     0.062 H 
ATOM     29  H   LIG d   1       3.727  -5.232  -8.796  0.00  0.00     0.062 H 
BRANCH  22  30
ATOM     30  O   LIG d   1       4.936  -9.477  -6.017  0.00  0.00    -0.495 OA
BRANCH  30  31
ATOM     31  C   LIG d   1       4.642  -9.449  -4.618  0.00  0.00     0.079 C 
ATOM     32  H   LIG d   1       5.572  -9.408  -4.052  0.00  0.00     0.066 H 
ATOM     33  H   LIG d   1       4.089 -10.348  -4.345  0.00  0.00     0.066 H 
ATOM     34  H   LIG d   1       4.040  -8.569  -4.391  0.00  0.00     0.066 H 
ENDBRANCH  30  31
ENDBRANCH  22  30
ENDBRANCH  17  20
ENDBRANCH  11  16
BRANCH   1  35
ATOM     35  C   LIG d   1       7.667  -3.421  -4.985  0.00  0.00    -0.009 A 
ATOM     36  C   LIG d   1       8.044  -3.264  -6.318  0.00  0.00    -0.050 A 
ATOM     37  C   LIG d   1       9.137  -3.946  -6.811  0.00  0.00    -0.019 A 
ATOM     38  H   LIG d   1       7.481  -2.607  -6.965  0.00  0.00     0.062 H 
ATOM     39  C   LIG d   1       9.861  -4.789  -5.980  0.00  0.00     0.120 A 
ATOM     40  H   LIG d   1       9.429  -3.825  -7.843  0.00  0.00     0.065 H 
ATOM     41  C   LIG d   1       9.489  -4.949  -4.652  0.00  0.00    -0.019 A 
ATOM     42  C   LIG d   1       8.401  -4.266  -4.153  0.00  0.00    -0.050 A 
ATOM     43  H   LIG d   1      10.055  -5.606  -4.009  0.00  0.00     0.065 H 
ATOM     44  H   LIG d   1       8.114  -4.387  -3.118  0.00  0.00     0.062 H 
BRANCH  39  45
ATOM     45  O   LIG d   1      10.938  -5.461  -6.467  0.00  0.00    -0.495 OA
BRANCH  45  46
ATOM     46  C   LIG d   1      10.951  -5.738  -7.869  0.00  0.00     0.079 C 
ATOM     47  H   LIG d   1      10.279  -5.050  -8.382  0.00  0.00     0.066 H 
ATOM     48  H   LIG d   1      11.962  -5.614  -8.255  0.00  0.00     0.066 H 
ATOM     49  H   LIG d   1      10.620  -6.762  -8.040  0.00  0.00     0.066 H 
ENDBRANCH  45  46
ENDBRANCH  39  45
ENDBRANCH   1  35
TORSDOF 7
ENDMDL
MODEL 6
REMARK VINA RESULT:      -6.2      2.293      7.452
REMARK  7 active torsions:
REMARK  status: ('A' for Active; 'I' for Inactive)
REMARK    1  A    between atoms: C_1  and  O_2 
REMARK    2  A    between atoms: O_2  and  C_3 
REMARK    3  A    between atoms: C_6  and  C_9 
REMARK    4  A    between atoms: C_19  and  N_20 
REMARK       I    between atoms: N_20  and  C_21 
REMARK    5  A    between atoms: C_21  and  C_23 
REMARK    6  A    between atoms: C_27  and  O_29 
REMARK    7  A    between atoms: O_29  and  C_30 
ROOT
ATOM      1  C   LIG d   1       4.875  -2.099  -5.661  0.00  0.00     0.087 A 
ATOM      2  C   LIG d   1       5.346  -1.885  -4.338  0.00  0.00     0.202 A 
ATOM      3  O   LIG d   1       6.178  -2.621  -3.834  0.00  0.00    -0.286 OA
ATOM      4  C   LIG d   1       4.783  -0.741  -3.595  0.00  0.00     0.065 A 
ATOM      5  C   LIG d   1       5.184  -0.462  -2.289  0.00  0.00    -0.047 A 
ATOM      6  C   LIG d   1       4.638   0.615  -1.625  0.00  0.00    -0.061 A 
ATOM      7  C   LIG d   1       3.694   1.416  -2.250  0.00  0.00    -0.058 A 
ATOM      8  C   LIG d   1       3.290   1.150  -3.541  0.00  0.00    -0.019 A 
ATOM      9  C   LIG d   1       3.828   0.069  -4.229  0.00  0.00     0.141 A 
ATOM     10  O   LIG d   1       3.441  -0.204  -5.492  0.00  0.00    -0.440 OA
ATOM     11  C   LIG d   1       3.935  -1.235  -6.190  0.00  0.00     0.205 A 
ATOM     12  H   LIG d   1       5.919  -1.085  -1.802  0.00  0.00     0.063 H 
ATOM     13  H   LIG d   1       4.945   0.835  -0.613  0.00  0.00     0.062 H 
ATOM     14  H   LIG d   1       3.273   2.258  -1.721  0.00  0.00     0.062 H 
ATOM     15  H   LIG d   1       2.555   1.781  -4.018  0.00  0.00     0.065 H 
ENDROOT
BRANCH  11  16
ATOM     16  N   LIG d   1       3.487  -1.444  -7.472  0.00  0.00    -0.252 N 
ATOM     17  C   LIG d   1       3.897  -0.635  -8.470  0.00  0.00     0.251 C 
ATOM     18  O   LIG d   1       4.663   0.279  -8.235  0.00  0.00    -0.270 OA
ATOM     19  H   LIG d   1       2.876  -2.173  -7.660  0.00  0.00     0.158 HD
BRANCH  17  20
ATOM     20  C   LIG d   1       3.416  -0.860  -9.849  0.00  0.00     0.041 A 
ATOM     21  C   LIG d   1       2.329  -1.702 -10.083  0.00  0.00    -0.008 A 
ATOM     22  C   LIG d   1       1.885  -1.909 -11.377  0.00  0.00     0.121 A 
ATOM     23  H   LIG d   1       1.836  -2.192  -9.256  0.00  0.00     0.066 H 
ATOM     24  C   LIG d   1       2.524  -1.283 -12.440  0.00  0.00    -0.020 A 
ATOM     25  C   LIG d   1       3.598  -0.444 -12.209  0.00  0.00    -0.058 A 
ATOM     26  H   LIG d   1       2.178  -1.450 -13.449  0.00  0.00     0.065 H 
ATOM     27  C   LIG d   1       4.049  -0.230 -10.923  0.00  0.00    -0.049 A 
ATOM     28  H   LIG d   1       4.088   0.044 -13.039  0.00  0.00     0.062 H 
ATOM     29  H   LIG d   1       4.892   0.423 -10.747  0.00  0.00     0.062 H 
BRANCH  22  30
ATOM     30  O   LIG d   1       0.827  -2.730 -11.609  0.00  0.00    -0.495 OA
BRANCH  30  31
ATOM     31  C   LIG d   1       0.620  -3.799 -10.684  0.00  0.00     0.079 C 
ATOM     32  H   LIG d   1       1.505  -4.435 -10.659  0.00  0.00     0.066 H 
ATOM     33  H   LIG d   1      -0.243  -4.389 -10.996  0.00  0.00     0.066 H 
ATOM     34  H   LIG d   1       0.440  -3.389  -9.690  0.00  0.00     0.066 H 
ENDBRANCH  30  31
ENDBRANCH  22  30
ENDBRANCH  17  20
ENDBRANCH  11  16
BRANCH   1  35
ATOM     35  C   LIG d   1       5.389  -3.232  -6.466  0.00  0.00    -0.009 A 
ATOM     36  C   LIG d   1       6.497  -3.056  -7.294  0.00  0.00    -0.050 A 
ATOM     37  C   LIG d   1       6.974  -4.112  -8.041  0.00  0.00    -0.019 A 
ATOM     38  H   LIG d   1       6.983  -2.092  -7.348  0.00  0.00     0.062 H 
ATOM     39  C   LIG d   1       6.352  -5.350  -7.971  0.00  0.00     0.120 A 
ATOM     40  H   LIG d   1       7.833  -3.976  -8.683  0.00  0.00     0.065 H 
ATOM     41  C   LIG d   1       5.248  -5.531  -7.148  0.00  0.00    -0.019 A 
ATOM     42  C   LIG d   1       4.770  -4.480  -6.394  0.00  0.00    -0.050 A 
ATOM     43  H   LIG d   1       4.766  -6.495  -7.097  0.00  0.00     0.065 H 
ATOM     44  H   LIG d   1       3.913  -4.621  -5.752  0.00  0.00     0.062 H 
BRANCH  39  45
ATOM     45  O   LIG d   1       6.824  -6.390  -8.709  0.00  0.00    -0.495 OA
BRANCH  45  46
ATOM     46  C   LIG d   1       7.940  -6.127  -9.561  0.00  0.00     0.079 C 
ATOM     47  H   LIG d   1       8.246  -5.087  -9.449  0.00  0.00     0.066 H 
ATOM     48  H   LIG d   1       8.768  -6.782  -9.289  0.00  0.00     0.066 H 
ATOM     49  H   LIG d   1       7.657  -6.312 -10.597  0.00  0.00     0.066 H 
ENDBRANCH  45  46
ENDBRANCH  39  45
ENDBRANCH   1  35
TORSDOF 7
ENDMDL
MODEL 7
REMARK VINA RESULT:      -6.1      2.730      7.718
REMARK  7 active torsions:
REMARK  status: ('A' for Active; 'I' for Inactive)
REMARK    1  A    between atoms: C_1  and  O_2 
REMARK    2  A    between atoms: O_2  and  C_3 
REMARK    3  A    between atoms: C_6  and  C_9 
REMARK    4  A    between atoms: C_19  and  N_20 
REMARK       I    between atoms: N_20  and  C_21 
REMARK    5  A    between atoms: C_21  and  C_23 
REMARK    6  A    between atoms: C_27  and  O_29 
REMARK    7  A    between atoms: O_29  and  C_30 
ROOT
ATOM      1  C   LIG d   1       6.482  -2.621  -4.458  0.00  0.00     0.087 A 
ATOM      2  C   LIG d   1       6.604  -1.305  -3.938  0.00  0.00     0.202 A 
ATOM      3  O   LIG d   1       7.679  -0.730  -3.911  0.00  0.00    -0.286 OA
ATOM      4  C   LIG d   1       5.378  -0.664  -3.422  0.00  0.00     0.065 A 
ATOM      5  C   LIG d   1       5.408   0.623  -2.887  0.00  0.00    -0.047 A 
ATOM      6  C   LIG d   1       4.245   1.191  -2.416  0.00  0.00    -0.061 A 
ATOM      7  C   LIG d   1       3.051   0.487  -2.471  0.00  0.00    -0.058 A 
ATOM      8  C   LIG d   1       3.009  -0.786  -2.998  0.00  0.00    -0.019 A 
ATOM      9  C   LIG d   1       4.171  -1.377  -3.480  0.00  0.00     0.141 A 
ATOM     10  O   LIG d   1       4.145  -2.623  -3.997  0.00  0.00    -0.440 OA
ATOM     11  C   LIG d   1       5.241  -3.229  -4.471  0.00  0.00     0.205 A 
ATOM     12  H   LIG d   1       6.337   1.172  -2.843  0.00  0.00     0.063 H 
ATOM     13  H   LIG d   1       4.262   2.187  -2.000  0.00  0.00     0.062 H 
ATOM     14  H   LIG d   1       2.144   0.942  -2.100  0.00  0.00     0.062 H 
ATOM     15  H   LIG d   1       2.073  -1.324  -3.037  0.00  0.00     0.065 H 
ENDROOT
BRANCH  11  16
ATOM     16  N   LIG d   1       5.129  -4.500  -4.981  0.00  0.00    -0.252 N 
ATOM     17  C   LIG d   1       4.622  -4.688  -6.216  0.00  0.00     0.251 C 
ATOM     18  O   LIG d   1       4.265  -3.734  -6.878  0.00  0.00    -0.270 OA
ATOM     19  H   LIG d   1       5.414  -5.262  -4.453  0.00  0.00     0.158 HD
BRANCH  17  20
ATOM     20  C   LIG d   1       4.502  -6.055  -6.766  0.00  0.00     0.041 A 
ATOM     21  C   LIG d   1       3.999  -6.251  -8.053  0.00  0.00    -0.008 A 
ATOM     22  C   LIG d   1       3.888  -7.534  -8.559  0.00  0.00     0.121 A 
ATOM     23  H   LIG d   1       3.696  -5.404  -8.650  0.00  0.00     0.066 H 
ATOM     24  C   LIG d   1       4.272  -8.622  -7.788  0.00  0.00    -0.020 A 
ATOM     25  C   LIG d   1       4.775  -8.429  -6.514  0.00  0.00    -0.058 A 
ATOM     26  H   LIG d   1       4.181  -9.623  -8.184  0.00  0.00     0.065 H 
ATOM     27  C   LIG d   1       4.890  -7.155  -5.998  0.00  0.00    -0.049 A 
ATOM     28  H   LIG d   1       5.076  -9.279  -5.920  0.00  0.00     0.062 H 
ATOM     29  H   LIG d   1       5.280  -7.009  -5.001  0.00  0.00     0.062 H 
BRANCH  22  30
ATOM     30  O   LIG d   1       3.398  -7.729  -9.812  0.00  0.00    -0.495 OA
BRANCH  30  31
ATOM     31  C   LIG d   1       3.055  -6.562 -10.563  0.00  0.00     0.079 C 
ATOM     32  H   LIG d   1       2.419  -5.915  -9.959  0.00  0.00     0.066 H 
ATOM     33  H   LIG d   1       2.519  -6.855 -11.467  0.00  0.00     0.066 H 
ATOM     34  H   LIG d   1       3.963  -6.026 -10.837  0.00  0.00     0.066 H 
ENDBRANCH  30  31
ENDBRANCH  22  30
ENDBRANCH  17  20
ENDBRANCH  11  16
BRANCH   1  35
ATOM     35  C   LIG d   1       7.671  -3.331  -4.987  0.00  0.00    -0.009 A 
ATOM     36  C   LIG d   1       8.016  -3.210  -6.332  0.00  0.00    -0.050 A 
ATOM     37  C   LIG d   1       9.124  -3.871  -6.821  0.00  0.00    -0.019 A 
ATOM     38  H   LIG d   1       7.418  -2.597  -6.991  0.00  0.00     0.062 H 
ATOM     39  C   LIG d   1       9.893  -4.657  -5.976  0.00  0.00     0.120 A 
ATOM     40  H   LIG d   1       9.392  -3.778  -7.864  0.00  0.00     0.065 H 
ATOM     41  C   LIG d   1       9.553  -4.781  -4.635  0.00  0.00    -0.019 A 
ATOM     42  C   LIG d   1       8.451  -4.118  -4.139  0.00  0.00    -0.050 A 
ATOM     43  H   LIG d   1      10.154  -5.394  -3.981  0.00  0.00     0.065 H 
ATOM     44  H   LIG d   1       8.187  -4.211  -3.095  0.00  0.00     0.062 H 
BRANCH  39  45
ATOM     45  O   LIG d   1      10.984  -5.308  -6.460  0.00  0.00    -0.495 OA
BRANCH  45  46
ATOM     46  C   LIG d   1      11.359  -6.522  -5.806  0.00  0.00     0.079 C 
ATOM     47  H   LIG d   1      10.475  -6.992  -5.376  0.00  0.00     0.066 H 
ATOM     48  H   LIG d   1      11.816  -7.199  -6.529  0.00  0.00     0.066 H 
ATOM     49  H   LIG d   1      12.075  -6.303  -5.014  0.00  0.00     0.066 H 
ENDBRANCH  45  46
ENDBRANCH  39  45
ENDBRANCH   1  35
TORSDOF 7
ENDMDL
MODEL 8
REMARK VINA RESULT:      -6.0      8.810     14.214
REMARK  7 active torsions:
REMARK  status: ('A' for Active; 'I' for Inactive)
REMARK    1  A    between atoms: C_1  and  O_2 
REMARK    2  A    between atoms: O_2  and  C_3 
REMARK    3  A    between atoms: C_6  and  C_9 
REMARK    4  A    between atoms: C_19  and  N_20 
REMARK       I    between atoms: N_20  and  C_21 
REMARK    5  A    between atoms: C_21  and  C_23 
REMARK    6  A    between atoms: C_27  and  O_29 
REMARK    7  A    between atoms: O_29  and  C_30 
ROOT
ATOM      1  C   LIG d   1       9.775  10.119  -6.591  0.00  0.00     0.087 A 
ATOM      2  C   LIG d   1       9.916  11.467  -7.017  0.00  0.00     0.202 A 
ATOM      3  O   LIG d   1      10.229  11.740  -8.164  0.00  0.00    -0.286 OA
ATOM      4  C   LIG d   1       9.675  12.524  -6.015  0.00  0.00     0.065 A 
ATOM      5  C   LIG d   1       9.797  13.873  -6.346  0.00  0.00    -0.047 A 
ATOM      6  C   LIG d   1       9.565  14.833  -5.386  0.00  0.00    -0.061 A 
ATOM      7  C   LIG d   1       9.213  14.461  -4.097  0.00  0.00    -0.058 A 
ATOM      8  C   LIG d   1       9.089  13.130  -3.757  0.00  0.00    -0.019 A 
ATOM      9  C   LIG d   1       9.318  12.146  -4.711  0.00  0.00     0.141 A 
ATOM     10  O   LIG d   1       9.201  10.840  -4.393  0.00  0.00    -0.440 OA
ATOM     11  C   LIG d   1       9.414   9.861  -5.282  0.00  0.00     0.205 A 
ATOM     12  H   LIG d   1      10.072  14.163  -7.349  0.00  0.00     0.063 H 
ATOM     13  H   LIG d   1       9.659  15.879  -5.637  0.00  0.00     0.062 H 
ATOM     14  H   LIG d   1       9.032  15.221  -3.351  0.00  0.00     0.062 H 
ATOM     15  H   LIG d   1       8.813  12.853  -2.751  0.00  0.00     0.065 H 
ENDROOT
BRANCH  11  16
ATOM     16  N   LIG d   1       9.274   8.555  -4.877  0.00  0.00    -0.252 N 
ATOM     17  C   LIG d   1      10.281   7.939  -4.226  0.00  0.00     0.251 C 
ATOM     18  O   LIG d   1      11.312   8.540  -3.995  0.00  0.00    -0.270 OA
ATOM     19  H   LIG d   1       8.451   8.075  -5.061  0.00  0.00     0.158 HD
BRANCH  17  20
ATOM     20  C   LIG d   1      10.131   6.535  -3.790  0.00  0.00     0.041 A 
ATOM     21  C   LIG d   1       9.556   5.594  -4.646  0.00  0.00    -0.008 A 
ATOM     22  C   LIG d   1       9.418   4.281  -4.230  0.00  0.00     0.121 A 
ATOM     23  H   LIG d   1       9.220   5.890  -5.629  0.00  0.00     0.066 H 
ATOM     24  C   LIG d   1       9.845   3.904  -2.964  0.00  0.00    -0.020 A 
ATOM     25  C   LIG d   1      10.419   4.834  -2.118  0.00  0.00    -0.058 A 
ATOM     26  H   LIG d   1       9.732   2.879  -2.641  0.00  0.00     0.065 H 
ATOM     27  C   LIG d   1      10.562   6.145  -2.520  0.00  0.00    -0.049 A 
ATOM     28  H   LIG d   1      10.753   4.534  -1.135  0.00  0.00     0.062 H 
ATOM     29  H   LIG d   1      11.007   6.870  -1.854  0.00  0.00     0.062 H 
BRANCH  22  30
ATOM     30  O   LIG d   1       8.858   3.362  -5.061  0.00  0.00    -0.495 OA
BRANCH  30  31
ATOM     31  C   LIG d   1       8.220   2.239  -4.449  0.00  0.00     0.079 C 
ATOM     32  H   LIG d   1       8.967   1.627  -3.943  0.00  0.00     0.066 H 
ATOM     33  H   LIG d   1       7.721   1.643  -5.214  0.00  0.00     0.066 H 
ATOM     34  H   LIG d   1       7.485   2.589  -3.725  0.00  0.00     0.066 H 
ENDBRANCH  30  31
ENDBRANCH  22  30
ENDBRANCH  17  20
ENDBRANCH  11  16
BRANCH   1  35
ATOM     35  C   LIG d   1      10.007   9.005  -7.540  0.00  0.00    -0.009 A 
ATOM     36  C   LIG d   1      11.302   8.545  -7.775  0.00  0.00    -0.050 A 
ATOM     37  C   LIG d   1      11.515   7.507  -8.658  0.00  0.00    -0.019 A 
ATOM     38  H   LIG d   1      12.138   9.000  -7.264  0.00  0.00     0.062 H 
ATOM     39  C   LIG d   1      10.441   6.921  -9.313  0.00  0.00     0.120 A 
ATOM     40  H   LIG d   1      12.518   7.150  -8.841  0.00  0.00     0.065 H 
ATOM     41  C   LIG d   1       9.150   7.376  -9.082  0.00  0.00    -0.019 A 
ATOM     42  C   LIG d   1       8.930   8.409  -8.197  0.00  0.00    -0.050 A 
ATOM     43  H   LIG d   1       8.317   6.918  -9.594  0.00  0.00     0.065 H 
ATOM     44  H   LIG d   1       7.925   8.761  -8.014  0.00  0.00     0.062 H 
BRANCH  39  45
ATOM     45  O   LIG d   1      10.653   5.898 -10.183  0.00  0.00    -0.495 OA
BRANCH  45  46
ATOM     46  C   LIG d   1       9.583   5.568 -11.070  0.00  0.00     0.079 C 
ATOM     47  H   LIG d   1       8.632   5.687 -10.553  0.00  0.00     0.066 H 
ATOM     48  H   LIG d   1       9.611   6.229 -11.936  0.00  0.00     0.066 H 
ATOM     49  H   LIG d   1       9.690   4.534 -11.400  0.00  0.00     0.066 H 
ENDBRANCH  45  46
ENDBRANCH  39  45
ENDBRANCH   1  35
TORSDOF 7
ENDMDL
MODEL 9
REMARK VINA RESULT:      -6.0      2.643      5.561
REMARK  7 active torsions:
REMARK  status: ('A' for Active; 'I' for Inactive)
REMARK    1  A    between atoms: C_1  and  O_2 
REMARK    2  A    between atoms: O_2  and  C_3 
REMARK    3  A    between atoms: C_6  and  C_9 
REMARK    4  A    between atoms: C_19  and  N_20 
REMARK       I    between atoms: N_20  and  C_21 
REMARK    5  A    between atoms: C_21  and  C_23 
REMARK    6  A    between atoms: C_27  and  O_29 
REMARK    7  A    between atoms: O_29  and  C_30 
ROOT
ATOM      1  C   LIG d   1       7.418  -3.058  -5.068  0.00  0.00     0.087 A 
ATOM      2  C   LIG d   1       8.281  -3.980  -4.418  0.00  0.00     0.202 A 
ATOM      3  O   LIG d   1       8.583  -3.847  -3.243  0.00  0.00    -0.286 OA
ATOM      4  C   LIG d   1       8.805  -5.101  -5.222  0.00  0.00     0.065 A 
ATOM      5  C   LIG d   1       9.663  -6.049  -4.666  0.00  0.00    -0.047 A 
ATOM      6  C   LIG d   1      10.133  -7.083  -5.446  0.00  0.00    -0.061 A 
ATOM      7  C   LIG d   1       9.755  -7.181  -6.777  0.00  0.00    -0.058 A 
ATOM      8  C   LIG d   1       8.907  -6.251  -7.338  0.00  0.00    -0.019 A 
ATOM      9  C   LIG d   1       8.421  -5.200  -6.569  0.00  0.00     0.141 A 
ATOM     10  O   LIG d   1       7.591  -4.281  -7.105  0.00  0.00    -0.440 OA
ATOM     11  C   LIG d   1       7.102  -3.254  -6.399  0.00  0.00     0.205 A 
ATOM     12  H   LIG d   1       9.958  -5.973  -3.630  0.00  0.00     0.063 H 
ATOM     13  H   LIG d   1      10.798  -7.819  -5.020  0.00  0.00     0.062 H 
ATOM     14  H   LIG d   1      10.128  -7.996  -7.380  0.00  0.00     0.062 H 
ATOM     15  H   LIG d   1       8.619  -6.338  -8.375  0.00  0.00     0.065 H 
ENDROOT
BRANCH  11  16
ATOM     16  N   LIG d   1       6.261  -2.362  -7.021  0.00  0.00    -0.252 N 
ATOM     17  C   LIG d   1       4.973  -2.691  -7.242  0.00  0.00     0.251 C 
ATOM     18  O   LIG d   1       4.555  -3.777  -6.891  0.00  0.00    -0.270 OA
ATOM     19  H   LIG d   1       6.595  -1.495  -7.301  0.00  0.00     0.158 HD
BRANCH  17  20
ATOM     20  C   LIG d   1       4.069  -1.732  -7.910  0.00  0.00     0.041 A 
ATOM     21  C   LIG d   1       4.212  -0.362  -7.685  0.00  0.00    -0.008 A 
ATOM     22  C   LIG d   1       3.360   0.530  -8.313  0.00  0.00     0.121 A 
ATOM     23  H   LIG d   1       4.983   0.000  -7.021  0.00  0.00     0.066 H 
ATOM     24  C   LIG d   1       2.365   0.063  -9.161  0.00  0.00    -0.020 A 
ATOM     25  C   LIG d   1       2.226  -1.294  -9.389  0.00  0.00    -0.058 A 
ATOM     26  H   LIG d   1       1.700   0.761  -9.647  0.00  0.00     0.065 H 
ATOM     27  C   LIG d   1       3.069  -2.192  -8.769  0.00  0.00    -0.049 A 
ATOM     28  H   LIG d   1       1.453  -1.652 -10.053  0.00  0.00     0.062 H 
ATOM     29  H   LIG d   1       2.954  -3.252  -8.946  0.00  0.00     0.062 H 
BRANCH  22  30
ATOM     30  O   LIG d   1       3.495   1.865  -8.095  0.00  0.00    -0.495 OA
BRANCH  30  31
ATOM     31  C   LIG d   1       3.969   2.656  -9.188  0.00  0.00     0.079 C 
ATOM     32  H   LIG d   1       4.058   2.031 -10.077  0.00  0.00     0.066 H 
ATOM     33  H   LIG d   1       4.945   3.073  -8.939  0.00  0.00     0.066 H 
ATOM     34  H   LIG d   1       3.266   3.465  -9.382  0.00  0.00     0.066 H 
ENDBRANCH  30  31
ENDBRANCH  22  30
ENDBRANCH  17  20
ENDBRANCH  11  16
BRANCH   1  35
ATOM     35  C   LIG d   1       6.859  -1.903  -4.326  0.00  0.00    -0.009 A 
ATOM     36  C   LIG d   1       5.680  -2.046  -3.596  0.00  0.00    -0.050 A 
ATOM     37  C   LIG d   1       5.162  -0.970  -2.906  0.00  0.00    -0.019 A 
ATOM     38  H   LIG d   1       5.173  -2.999  -3.569  0.00  0.00     0.062 H 
ATOM     39  C   LIG d   1       5.814   0.255  -2.938  0.00  0.00     0.120 A 
ATOM     40  H   LIG d   1       4.248  -1.079  -2.340  0.00  0.00     0.065 H 
ATOM     41  C   LIG d   1       6.988   0.402  -3.664  0.00  0.00    -0.019 A 
ATOM     42  C   LIG d   1       7.514  -0.672  -4.352  0.00  0.00    -0.050 A 
ATOM     43  H   LIG d   1       7.492   1.356  -3.687  0.00  0.00     0.065 H 
ATOM     44  H   LIG d   1       8.429  -0.559  -4.914  0.00  0.00     0.062 H 
BRANCH  39  45
ATOM     45  O   LIG d   1       5.302   1.315  -2.257  0.00  0.00    -0.495 OA
BRANCH  45  46
ATOM     46  C   LIG d   1       3.879   1.384  -2.140  0.00  0.00     0.079 C 
ATOM     47  H   LIG d   1       3.510   2.245  -2.696  0.00  0.00     0.066 H 
ATOM     48  H   LIG d   1       3.436   0.473  -2.542  0.00  0.00     0.066 H 
ATOM     49  H   LIG d   1       3.606   1.486  -1.090  0.00  0.00     0.066 H 
ENDBRANCH  45  46
ENDBRANCH  39  45
ENDBRANCH   1  35
TORSDOF 7
ENDMDL
