MODEL 1
REMARK VINA RESULT:      -5.9      0.000      0.000
REMARK  18 active torsions:
REMARK  status: ('A' for Active; 'I' for Inactive)
REMARK    1  A    between atoms: C_1  and  C_2 
REMARK    2  A    between atoms: C_2  and  O_4 
REMARK    3  A    between atoms: O_4  and  C_5 
REMARK    4  A    between atoms: C_5  and  C_6 
REMARK    5  A    between atoms: C_8  and  O_43 
REMARK    6  A    between atoms: C_10  and  O_39 
REMARK    7  A    between atoms: C_12  and  O_35 
REMARK    8  A    between atoms: C_14  and  N_17 
REMARK    9  A    between atoms: N_20  and  C_25 
REMARK   10  A    between atoms: C_25  and  C_26 
REMARK   11  A    between atoms: C_29  and  O_33 
REMARK   12  A    between atoms: O_33  and  C_34 
REMARK   13  A    between atoms: O_35  and  C_36 
REMARK   14  A    between atoms: C_36  and  C_38 
REMARK   15  A    between atoms: O_39  and  C_40 
REMARK   16  A    between atoms: C_40  and  C_42 
REMARK   17  A    between atoms: O_43  and  C_44 
REMARK   18  A    between atoms: C_44  and  C_46 
ROOT
ATOM      1  C   LIG d   1       5.576  -1.144  -5.315  0.00  0.00     0.136 C 
ATOM      2  H   LIG d   1       4.913  -0.428  -4.830  0.00  0.00     0.067 H 
ATOM      3  C   LIG d   1       5.334  -1.124  -6.826  0.00  0.00     0.172 C 
ATOM      4  H   LIG d   1       5.968  -1.869  -7.306  0.00  0.00     0.080 H 
ATOM      5  C   LIG d   1       5.674   0.266  -7.371  0.00  0.00     0.183 C 
ATOM      6  H   LIG d   1       5.006   1.005  -6.928  0.00  0.00     0.081 H 
ATOM      7  C   LIG d   1       7.124   0.604  -7.011  0.00  0.00     0.190 C 
ATOM      8  H   LIG d   1       7.794  -0.106  -7.495  0.00  0.00     0.082 H 
ATOM      9  C   LIG d   1       7.298   0.517  -5.492  0.00  0.00     0.197 C 
ATOM     10  H   LIG d   1       6.656   1.255  -5.011  0.00  0.00     0.089 H 
ATOM     11  O   LIG d   1       6.935  -0.791  -5.047  0.00  0.00    -0.341 OA
ENDROOT
BRANCH   9  12
ATOM     12  N   LIG d   1       8.695   0.783  -5.145  0.00  0.00    -0.181 N 
ATOM     13  N   LIG d   1       9.717   0.149  -5.861  0.00  0.00    -0.168 NA
ATOM     14  C   LIG d   1      10.964   0.385  -5.560  0.00  0.00     0.113 A 
ATOM     15  C   LIG d   1      11.269   1.307  -4.462  0.00  0.00     0.275 A 
ATOM     16  H   LIG d   1      11.760  -0.095  -6.109  0.00  0.00     0.090 H 
ATOM     17  N   LIG d   1      10.253   1.893  -3.794  0.00  0.00    -0.254 N 
ATOM     18  O   LIG d   1      12.423   1.541  -4.157  0.00  0.00    -0.266 OA
ATOM     19  C   LIG d   1       8.980   1.628  -4.138  0.00  0.00     0.351 A 
ATOM     20  O   LIG d   1       8.072   2.161  -3.529  0.00  0.00    -0.245 OA
BRANCH  17  21
ATOM     21  C   LIG d   1      10.538   2.817  -2.694  0.00  0.00     0.056 C 
ATOM     22  H   LIG d   1       9.872   2.602  -1.857  0.00  0.00     0.054 H 
ATOM     23  H   LIG d   1      11.573   2.696  -2.375  0.00  0.00     0.054 H 
BRANCH  21  24
ATOM     24  C   LIG d   1      10.319   4.234  -3.159  0.00  0.00    -0.026 A 
ATOM     25  C   LIG d   1      10.034   5.227  -2.239  0.00  0.00    -0.039 A 
ATOM     26  C   LIG d   1       9.838   6.527  -2.663  0.00  0.00     0.060 A 
ATOM     27  H   LIG d   1       9.969   4.986  -1.188  0.00  0.00     0.063 H 
ATOM     28  C   LIG d   1       9.918   6.834  -4.015  0.00  0.00     0.134 A 
ATOM     29 BR   LIG d   1       9.457   7.885  -1.405  0.00  0.00    -0.046 Br
ATOM     30  C   LIG d   1      10.198   5.835  -4.935  0.00  0.00    -0.018 A 
ATOM     31  C   LIG d   1      10.398   4.538  -4.506  0.00  0.00    -0.053 A 
ATOM     32  H   LIG d   1      10.260   6.072  -5.987  0.00  0.00     0.065 H 
ATOM     33  H   LIG d   1      10.616   3.760  -5.222  0.00  0.00     0.062 H 
BRANCH  28  34
ATOM     34  O   LIG d   1       9.721   8.112  -4.435  0.00  0.00    -0.494 OA
BRANCH  34  35
ATOM     35  C   LIG d   1       9.426   8.300  -5.821  0.00  0.00     0.079 C 
ATOM     36  H   LIG d   1       8.485   8.841  -5.921  0.00  0.00     0.066 H 
ATOM     37  H   LIG d   1      10.226   8.873  -6.288  0.00  0.00     0.066 H 
ATOM     38  H   LIG d   1       9.340   7.329  -6.310  0.00  0.00     0.066 H 
ENDBRANCH  34  35
ENDBRANCH  28  34
ENDBRANCH  21  24
ENDBRANCH  17  21
ENDBRANCH   9  12
BRANCH   7  39
ATOM     39  O   LIG d   1       7.430   1.927  -7.454  0.00  0.00    -0.453 OA
BRANCH  39  40
ATOM     40  C   LIG d   1       8.054   2.045  -8.637  0.00  0.00     0.304 C 
ATOM     41  O   LIG d   1       7.860   3.016  -9.329  0.00  0.00    -0.251 OA
BRANCH  40  42
ATOM     42  C   LIG d   1       8.997   0.965  -9.100  0.00  0.00     0.033 C 
ATOM     43  H   LIG d   1       8.598  -0.011  -8.822  0.00  0.00     0.034 H 
ATOM     44  H   LIG d   1       9.105   1.017 -10.184  0.00  0.00     0.034 H 
ATOM     45  H   LIG d   1       9.970   1.107  -8.632  0.00  0.00     0.034 H 
ENDBRANCH  40  42
ENDBRANCH  39  40
ENDBRANCH   7  39
BRANCH   5  46
ATOM     46  O   LIG d   1       5.518   0.273  -8.792  0.00  0.00    -0.454 OA
BRANCH  46  47
ATOM     47  C   LIG d   1       4.642   1.151  -9.305  0.00  0.00     0.304 C 
ATOM     48  O   LIG d   1       4.239   2.068  -8.628  0.00  0.00    -0.251 OA
BRANCH  47  49
ATOM     49  C   LIG d   1       4.162   0.996 -10.724  0.00  0.00     0.033 C 
ATOM     50  H   LIG d   1       4.910   1.398 -11.408  0.00  0.00     0.034 H 
ATOM     51  H   LIG d   1       4.005  -0.061 -10.941  0.00  0.00     0.034 H 
ATOM     52  H   LIG d   1       3.224   1.537 -10.854  0.00  0.00     0.034 H 
ENDBRANCH  47  49
ENDBRANCH  46  47
ENDBRANCH   5  46
BRANCH   1  53
ATOM     53  C   LIG d   1       5.296  -2.546  -4.771  0.00  0.00     0.122 C 
ATOM     54  H   LIG d   1       6.013  -2.781  -3.984  0.00  0.00     0.072 H 
ATOM     55  H   LIG d   1       5.391  -3.274  -5.577  0.00  0.00     0.072 H 
BRANCH  53  56
ATOM     56  O   LIG d   1       3.971  -2.595  -4.238  0.00  0.00    -0.462 OA
BRANCH  56  57
ATOM     57  C   LIG d   1       3.657  -1.686  -3.302  0.00  0.00     0.304 C 
ATOM     58  O   LIG d   1       2.733  -0.929  -3.482  0.00  0.00    -0.251 OA
BRANCH  57  59
ATOM     59  C   LIG d   1       4.457  -1.609  -2.027  0.00  0.00     0.033 C 
ATOM     60  H   LIG d   1       3.926  -0.994  -1.301  0.00  0.00     0.034 H 
ATOM     61  H   LIG d   1       4.593  -2.612  -1.623  0.00  0.00     0.034 H 
ATOM     62  H   LIG d   1       5.431  -1.166  -2.236  0.00  0.00     0.034 H 
ENDBRANCH  57  59
ENDBRANCH  56  57
ENDBRANCH  53  56
ENDBRANCH   1  53
BRANCH   3  63
ATOM     63  O   LIG d   1       3.962  -1.421  -7.093  0.00  0.00    -0.455 OA
BRANCH  63  64
ATOM     64  C   LIG d   1       3.707  -2.259  -8.110  0.00  0.00     0.304 C 
ATOM     65  O   LIG d   1       2.865  -1.978  -8.929  0.00  0.00    -0.251 OA
BRANCH  64  66
ATOM     66  C   LIG d   1       4.474  -3.551  -8.231  0.00  0.00     0.033 C 
ATOM     67  H   LIG d   1       4.334  -3.966  -9.228  0.00  0.00     0.034 H 
ATOM     68  H   LIG d   1       5.535  -3.361  -8.062  0.00  0.00     0.034 H 
ATOM     69  H   LIG d   1       4.110  -4.261  -7.487  0.00  0.00     0.034 H 
ENDBRANCH  64  66
ENDBRANCH  63  64
ENDBRANCH   3  63
TORSDOF 18
ENDMDL
MODEL 2
REMARK VINA RESULT:      -5.8      5.986     10.388
REMARK  18 active torsions:
REMARK  status: ('A' for Active; 'I' for Inactive)
REMARK    1  A    between atoms: C_1  and  C_2 
REMARK    2  A    between atoms: C_2  and  O_4 
REMARK    3  A    between atoms: O_4  and  C_5 
REMARK    4  A    between atoms: C_5  and  C_6 
REMARK    5  A    between atoms: C_8  and  O_43 
REMARK    6  A    between atoms: C_10  and  O_39 
REMARK    7  A    between atoms: C_12  and  O_35 
REMARK    8  A    between atoms: C_14  and  N_17 
REMARK    9  A    between atoms: N_20  and  C_25 
REMARK   10  A    between atoms: C_25  and  C_26 
REMARK   11  A    between atoms: C_29  and  O_33 
REMARK   12  A    between atoms: O_33  and  C_34 
REMARK   13  A    between atoms: O_35  and  C_36 
REMARK   14  A    between atoms: C_36  and  C_38 
REMARK   15  A    between atoms: O_39  and  C_40 
REMARK   16  A    between atoms: C_40  and  C_42 
REMARK   17  A    between atoms: O_43  and  C_44 
REMARK   18  A    between atoms: C_44  and  C_46 
ROOT
ATOM      1  C   LIG d   1       4.208  -1.835  -8.458  0.00  0.00     0.136 C 
ATOM      2  H   LIG d   1       3.152  -2.102  -8.488  0.00  0.00     0.067 H 
ATOM      3  C   LIG d   1       4.400  -0.605  -7.568  0.00  0.00     0.172 C 
ATOM      4  H   LIG d   1       5.450  -0.313  -7.571  0.00  0.00     0.080 H 
ATOM      5  C   LIG d   1       3.968  -0.947  -6.139  0.00  0.00     0.183 C 
ATOM      6  H   LIG d   1       2.905  -1.190  -6.127  0.00  0.00     0.081 H 
ATOM      7  C   LIG d   1       4.776  -2.152  -5.646  0.00  0.00     0.190 C 
ATOM      8  H   LIG d   1       5.834  -1.891  -5.611  0.00  0.00     0.082 H 
ATOM      9  C   LIG d   1       4.570  -3.322  -6.612  0.00  0.00     0.197 C 
ATOM     10  H   LIG d   1       3.518  -3.608  -6.617  0.00  0.00     0.089 H 
ATOM     11  O   LIG d   1       4.961  -2.927  -7.928  0.00  0.00    -0.341 OA
ENDROOT
BRANCH   9  12
ATOM     12  N   LIG d   1       5.384  -4.460  -6.180  0.00  0.00    -0.181 N 
ATOM     13  N   LIG d   1       6.771  -4.313  -6.065  0.00  0.00    -0.168 NA
ATOM     14  C   LIG d   1       7.502  -5.321  -5.676  0.00  0.00     0.113 A 
ATOM     15  C   LIG d   1       6.849  -6.599  -5.377  0.00  0.00     0.275 A 
ATOM     16  H   LIG d   1       8.572  -5.217  -5.580  0.00  0.00     0.090 H 
ATOM     17  N   LIG d   1       5.509  -6.700  -5.506  0.00  0.00    -0.254 N 
ATOM     18  O   LIG d   1       7.507  -7.558  -5.017  0.00  0.00    -0.266 OA
ATOM     19  C   LIG d   1       4.789  -5.635  -5.905  0.00  0.00     0.351 A 
ATOM     20  O   LIG d   1       3.583  -5.737  -6.018  0.00  0.00    -0.245 OA
BRANCH  17  21
ATOM     21  C   LIG d   1       4.839  -7.969  -5.211  0.00  0.00     0.056 C 
ATOM     22  H   LIG d   1       5.315  -8.440  -4.351  0.00  0.00     0.054 H 
ATOM     23  H   LIG d   1       3.789  -7.781  -4.988  0.00  0.00     0.054 H 
BRANCH  21  24
ATOM     24  C   LIG d   1       4.943  -8.881  -6.406  0.00  0.00    -0.026 A 
ATOM     25  C   LIG d   1       4.341  -8.527  -7.600  0.00  0.00    -0.039 A 
ATOM     26  C   LIG d   1       4.440  -9.360  -8.698  0.00  0.00     0.060 A 
ATOM     27  H   LIG d   1       3.797  -7.598  -7.675  0.00  0.00     0.063 H 
ATOM     28  C   LIG d   1       5.137 -10.557  -8.599  0.00  0.00     0.134 A 
ATOM     29 BR   LIG d   1       3.624  -8.873 -10.332  0.00  0.00    -0.046 Br
ATOM     30  C   LIG d   1       5.735 -10.912  -7.398  0.00  0.00    -0.018 A 
ATOM     31  C   LIG d   1       5.637 -10.074  -6.305  0.00  0.00    -0.053 A 
ATOM     32  H   LIG d   1       6.277 -11.842  -7.320  0.00  0.00     0.065 H 
ATOM     33  H   LIG d   1       6.102 -10.349  -5.371  0.00  0.00     0.062 H 
BRANCH  28  34
ATOM     34  O   LIG d   1       5.232 -11.381  -9.676  0.00  0.00    -0.494 OA
BRANCH  34  35
ATOM     35  C   LIG d   1       6.533 -11.571 -10.235  0.00  0.00     0.079 C 
ATOM     36  H   LIG d   1       6.493 -11.411 -11.312  0.00  0.00     0.066 H 
ATOM     37  H   LIG d   1       7.228 -10.860  -9.788  0.00  0.00     0.066 H 
ATOM     38  H   LIG d   1       6.872 -12.587 -10.031  0.00  0.00     0.066 H 
ENDBRANCH  34  35
ENDBRANCH  28  34
ENDBRANCH  21  24
ENDBRANCH  17  21
ENDBRANCH   9  12
BRANCH   7  39
ATOM     39  O   LIG d   1       4.332  -2.523  -4.341  0.00  0.00    -0.453 OA
BRANCH  39  40
ATOM     40  C   LIG d   1       5.084  -2.121  -3.304  0.00  0.00     0.304 C 
ATOM     41  O   LIG d   1       6.289  -2.140  -3.389  0.00  0.00    -0.251 OA
BRANCH  40  42
ATOM     42  C   LIG d   1       4.425  -1.645  -2.036  0.00  0.00     0.033 C 
ATOM     43  H   LIG d   1       4.878  -0.705  -1.720  0.00  0.00     0.034 H 
ATOM     44  H   LIG d   1       3.360  -1.493  -2.215  0.00  0.00     0.034 H 
ATOM     45  H   LIG d   1       4.557  -2.393  -1.255  0.00  0.00     0.034 H 
ENDBRANCH  40  42
ENDBRANCH  39  40
ENDBRANCH   7  39
BRANCH   5  46
ATOM     46  O   LIG d   1       4.210   0.174  -5.285  0.00  0.00    -0.454 OA
BRANCH  46  47
ATOM     47  C   LIG d   1       3.152   0.687  -4.637  0.00  0.00     0.304 C 
ATOM     48  O   LIG d   1       3.247   1.753  -4.075  0.00  0.00    -0.251 OA
BRANCH  47  49
ATOM     49  C   LIG d   1       1.847  -0.064  -4.612  0.00  0.00     0.033 C 
ATOM     50  H   LIG d   1       1.989  -1.023  -4.113  0.00  0.00     0.034 H 
ATOM     51  H   LIG d   1       1.103   0.519  -4.070  0.00  0.00     0.034 H 
ATOM     52  H   LIG d   1       1.504  -0.234  -5.633  0.00  0.00     0.034 H 
ENDBRANCH  47  49
ENDBRANCH  46  47
ENDBRANCH   5  46
BRANCH   1  53
ATOM     53  C   LIG d   1       4.694  -1.520  -9.875  0.00  0.00     0.122 C 
ATOM     54  H   LIG d   1       5.608  -2.078 -10.078  0.00  0.00     0.072 H 
ATOM     55  H   LIG d   1       4.893  -0.452  -9.962  0.00  0.00     0.072 H 
BRANCH  53  56
ATOM     56  O   LIG d   1       3.687  -1.894 -10.818  0.00  0.00    -0.462 OA
BRANCH  56  57
ATOM     57  C   LIG d   1       2.858  -0.928 -11.241  0.00  0.00     0.304 C 
ATOM     58  O   LIG d   1       3.241  -0.116 -12.050  0.00  0.00    -0.251 OA
BRANCH  57  59
ATOM     59  C   LIG d   1       1.451  -0.854 -10.708  0.00  0.00     0.033 C 
ATOM     60  H   LIG d   1       0.777  -1.376 -11.388  0.00  0.00     0.034 H 
ATOM     61  H   LIG d   1       1.409  -1.322  -9.725  0.00  0.00     0.034 H 
ATOM     62  H   LIG d   1       1.148   0.190 -10.627  0.00  0.00     0.034 H 
ENDBRANCH  57  59
ENDBRANCH  56  57
ENDBRANCH  53  56
ENDBRANCH   1  53
BRANCH   3  63
ATOM     63  O   LIG d   1       3.603   0.473  -8.064  0.00  0.00    -0.455 OA
BRANCH  63  64
ATOM     64  C   LIG d   1       4.255   1.500  -8.631  0.00  0.00     0.304 C 
ATOM     65  O   LIG d   1       5.418   1.698  -8.370  0.00  0.00    -0.251 OA
BRANCH  64  66
ATOM     66  C   LIG d   1       3.534   2.408  -9.595  0.00  0.00     0.033 C 
ATOM     67  H   LIG d   1       3.368   1.883 -10.535  0.00  0.00     0.034 H 
ATOM     68  H   LIG d   1       2.574   2.702  -9.169  0.00  0.00     0.034 H 
ATOM     69  H   LIG d   1       4.138   3.298  -9.777  0.00  0.00     0.034 H 
ENDBRANCH  64  66
ENDBRANCH  63  64
ENDBRANCH   3  63
TORSDOF 18
ENDMDL
MODEL 3
REMARK VINA RESULT:      -5.7      5.055      9.746
REMARK  18 active torsions:
REMARK  status: ('A' for Active; 'I' for Inactive)
REMARK    1  A    between atoms: C_1  and  C_2 
REMARK    2  A    between atoms: C_2  and  O_4 
REMARK    3  A    between atoms: O_4  and  C_5 
REMARK    4  A    between atoms: C_5  and  C_6 
REMARK    5  A    between atoms: C_8  and  O_43 
REMARK    6  A    between atoms: C_10  and  O_39 
REMARK    7  A    between atoms: C_12  and  O_35 
REMARK    8  A    between atoms: C_14  and  N_17 
REMARK    9  A    between atoms: N_20  and  C_25 
REMARK   10  A    between atoms: C_25  and  C_26 
REMARK   11  A    between atoms: C_29  and  O_33 
REMARK   12  A    between atoms: O_33  and  C_34 
REMARK   13  A    between atoms: O_35  and  C_36 
REMARK   14  A    between atoms: C_36  and  C_38 
REMARK   15  A    between atoms: O_39  and  C_40 
REMARK   16  A    between atoms: C_40  and  C_42 
REMARK   17  A    between atoms: O_43  and  C_44 
REMARK   18  A    between atoms: C_44  and  C_46 
ROOT
ATOM      1  C   LIG d   1       3.706  -0.714  -5.554  0.00  0.00     0.136 C 
ATOM      2  H   LIG d   1       3.025  -1.093  -4.793  0.00  0.00     0.067 H 
ATOM      3  C   LIG d   1       4.923  -0.075  -4.878  0.00  0.00     0.172 C 
ATOM      4  H   LIG d   1       5.584   0.341  -5.637  0.00  0.00     0.080 H 
ATOM      5  C   LIG d   1       5.671  -1.145  -4.077  0.00  0.00     0.183 C 
ATOM      6  H   LIG d   1       5.025  -1.527  -3.285  0.00  0.00     0.081 H 
ATOM      7  C   LIG d   1       6.063  -2.291  -5.016  0.00  0.00     0.190 C 
ATOM      8  H   LIG d   1       6.747  -1.919  -5.778  0.00  0.00     0.082 H 
ATOM      9  C   LIG d   1       4.802  -2.843  -5.687  0.00  0.00     0.197 C 
ATOM     10  H   LIG d   1       4.135  -3.250  -4.927  0.00  0.00     0.089 H 
ATOM     11  O   LIG d   1       4.137  -1.791  -6.388  0.00  0.00    -0.341 OA
ENDROOT
BRANCH   9  12
ATOM     12  N   LIG d   1       5.174  -3.901  -6.629  0.00  0.00    -0.181 N 
ATOM     13  N   LIG d   1       5.981  -3.592  -7.730  0.00  0.00    -0.168 NA
ATOM     14  C   LIG d   1       6.321  -4.530  -8.570  0.00  0.00     0.113 A 
ATOM     15  C   LIG d   1       5.835  -5.894  -8.347  0.00  0.00     0.275 A 
ATOM     16  H   LIG d   1       6.946  -4.304  -9.420  0.00  0.00     0.090 H 
ATOM     17  N   LIG d   1       5.054  -6.148  -7.276  0.00  0.00    -0.254 N 
ATOM     18  O   LIG d   1       6.132  -6.788  -9.118  0.00  0.00    -0.266 OA
ATOM     19  C   LIG d   1       4.730  -5.154  -6.428  0.00  0.00     0.351 A 
ATOM     20  O   LIG d   1       4.026  -5.394  -5.466  0.00  0.00    -0.245 OA
BRANCH  17  21
ATOM     21  C   LIG d   1       4.559  -7.506  -7.036  0.00  0.00     0.056 C 
ATOM     22  H   LIG d   1       3.504  -7.465  -6.765  0.00  0.00     0.054 H 
ATOM     23  H   LIG d   1       4.679  -8.102  -7.940  0.00  0.00     0.054 H 
BRANCH  21  24
ATOM     24  C   LIG d   1       5.342  -8.134  -5.913  0.00  0.00    -0.026 A 
ATOM     25  C   LIG d   1       4.737  -9.060  -5.082  0.00  0.00    -0.039 A 
ATOM     26  C   LIG d   1       5.455  -9.641  -4.055  0.00  0.00     0.060 A 
ATOM     27  H   LIG d   1       3.703  -9.332  -5.239  0.00  0.00     0.063 H 
ATOM     28  C   LIG d   1       6.782  -9.288  -3.851  0.00  0.00     0.134 A 
ATOM     29 BR   LIG d   1       4.630 -10.913  -2.925  0.00  0.00    -0.046 Br
ATOM     30  C   LIG d   1       7.385  -8.355  -4.682  0.00  0.00    -0.018 A 
ATOM     31  C   LIG d   1       6.664  -7.781  -5.710  0.00  0.00    -0.053 A 
ATOM     32  H   LIG d   1       8.417  -8.079  -4.525  0.00  0.00     0.065 H 
ATOM     33  H   LIG d   1       7.133  -7.055  -6.358  0.00  0.00     0.062 H 
BRANCH  28  34
ATOM     34  O   LIG d   1       7.490  -9.855  -2.838  0.00  0.00    -0.494 OA
BRANCH  34  35
ATOM     35  C   LIG d   1       8.252  -8.976  -2.008  0.00  0.00     0.079 C 
ATOM     36  H   LIG d   1       9.065  -9.532  -1.541  0.00  0.00     0.066 H 
ATOM     37  H   LIG d   1       8.664  -8.171  -2.615  0.00  0.00     0.066 H 
ATOM     38  H   LIG d   1       7.608  -8.556  -1.235  0.00  0.00     0.066 H 
ENDBRANCH  34  35
ENDBRANCH  28  34
ENDBRANCH  21  24
ENDBRANCH  17  21
ENDBRANCH   9  12
BRANCH   7  39
ATOM     39  O   LIG d   1       6.699  -3.326  -4.265  0.00  0.00    -0.453 OA
BRANCH  39  40
ATOM     40  C   LIG d   1       8.013  -3.509  -4.473  0.00  0.00     0.304 C 
ATOM     41  O   LIG d   1       8.468  -3.413  -5.588  0.00  0.00    -0.251 OA
BRANCH  40  42
ATOM     42  C   LIG d   1       8.920  -3.832  -3.314  0.00  0.00     0.033 C 
ATOM     43  H   LIG d   1       8.320  -4.011  -2.421  0.00  0.00     0.034 H 
ATOM     44  H   LIG d   1       9.500  -4.725  -3.545  0.00  0.00     0.034 H 
ATOM     45  H   LIG d   1       9.596  -2.997  -3.137  0.00  0.00     0.034 H 
ENDBRANCH  40  42
ENDBRANCH  39  40
ENDBRANCH   7  39
BRANCH   5  46
ATOM     46  O   LIG d   1       6.847  -0.574  -3.500  0.00  0.00    -0.454 OA
BRANCH  46  47
ATOM     47  C   LIG d   1       7.562   0.260  -4.273  0.00  0.00     0.304 C 
ATOM     48  O   LIG d   1       8.037  -0.137  -5.311  0.00  0.00    -0.251 OA
BRANCH  47  49
ATOM     49  C   LIG d   1       7.769   1.690  -3.847  0.00  0.00     0.033 C 
ATOM     50  H   LIG d   1       8.472   2.173  -4.527  0.00  0.00     0.034 H 
ATOM     51  H   LIG d   1       6.817   2.219  -3.874  0.00  0.00     0.034 H 
ATOM     52  H   LIG d   1       8.171   1.714  -2.834  0.00  0.00     0.034 H 
ENDBRANCH  47  49
ENDBRANCH  46  47
ENDBRANCH   5  46
BRANCH   1  53
ATOM     53  C   LIG d   1       2.987   0.335  -6.405  0.00  0.00     0.122 C 
ATOM     54  H   LIG d   1       2.675   1.165  -5.771  0.00  0.00     0.072 H 
ATOM     55  H   LIG d   1       2.111  -0.114  -6.872  0.00  0.00     0.072 H 
BRANCH  53  56
ATOM     56  O   LIG d   1       3.873   0.817  -7.417  0.00  0.00    -0.462 OA
BRANCH  56  57
ATOM     57  C   LIG d   1       3.315   1.275  -8.548  0.00  0.00     0.304 C 
ATOM     58  O   LIG d   1       2.416   0.660  -9.070  0.00  0.00    -0.251 OA
BRANCH  57  59
ATOM     59  C   LIG d   1       3.809   2.557  -9.167  0.00  0.00     0.033 C 
ATOM     60  H   LIG d   1       4.827   2.753  -8.834  0.00  0.00     0.034 H 
ATOM     61  H   LIG d   1       3.792   2.467 -10.253  0.00  0.00     0.034 H 
ATOM     62  H   LIG d   1       3.162   3.380  -8.862  0.00  0.00     0.034 H 
ENDBRANCH  57  59
ENDBRANCH  56  57
ENDBRANCH  53  56
ENDBRANCH   1  53
BRANCH   3  63
ATOM     63  O   LIG d   1       4.490   0.965  -3.999  0.00  0.00    -0.455 OA
BRANCH  63  64
ATOM     64  C   LIG d   1       3.910   0.588  -2.849  0.00  0.00     0.304 C 
ATOM     65  O   LIG d   1       2.860  -0.010  -2.869  0.00  0.00    -0.251 OA
BRANCH  64  66
ATOM     66  C   LIG d   1       4.568   0.911  -1.532  0.00  0.00     0.033 C 
ATOM     67  H   LIG d   1       4.947   1.933  -1.556  0.00  0.00     0.034 H 
ATOM     68  H   LIG d   1       3.839   0.813  -0.728  0.00  0.00     0.034 H 
ATOM     69  H   LIG d   1       5.394   0.221  -1.360  0.00  0.00     0.034 H 
ENDBRANCH  64  66
ENDBRANCH  63  64
ENDBRANCH   3  63
TORSDOF 18
ENDMDL
MODEL 4
REMARK VINA RESULT:      -5.4      4.968      8.506
REMARK  18 active torsions:
REMARK  status: ('A' for Active; 'I' for Inactive)
REMARK    1  A    between atoms: C_1  and  C_2 
REMARK    2  A    between atoms: C_2  and  O_4 
REMARK    3  A    between atoms: O_4  and  C_5 
REMARK    4  A    between atoms: C_5  and  C_6 
REMARK    5  A    between atoms: C_8  and  O_43 
REMARK    6  A    between atoms: C_10  and  O_39 
REMARK    7  A    between atoms: C_12  and  O_35 
REMARK    8  A    between atoms: C_14  and  N_17 
REMARK    9  A    between atoms: N_20  and  C_25 
REMARK   10  A    between atoms: C_25  and  C_26 
REMARK   11  A    between atoms: C_29  and  O_33 
REMARK   12  A    between atoms: O_33  and  C_34 
REMARK   13  A    between atoms: O_35  and  C_36 
REMARK   14  A    between atoms: C_36  and  C_38 
REMARK   15  A    between atoms: O_39  and  C_40 
REMARK   16  A    between atoms: C_40  and  C_42 
REMARK   17  A    between atoms: O_43  and  C_44 
REMARK   18  A    between atoms: C_44  and  C_46 
ROOT
ATOM      1  C   LIG d   1       6.585  -2.186  -4.426  0.00  0.00     0.136 C 
ATOM      2  H   LIG d   1       5.776  -2.915  -4.399  0.00  0.00     0.067 H 
ATOM      3  C   LIG d   1       7.871  -2.867  -4.901  0.00  0.00     0.172 C 
ATOM      4  H   LIG d   1       8.690  -2.148  -4.889  0.00  0.00     0.080 H 
ATOM      5  C   LIG d   1       7.667  -3.387  -6.327  0.00  0.00     0.183 C 
ATOM      6  H   LIG d   1       6.882  -4.143  -6.331  0.00  0.00     0.081 H 
ATOM      7  C   LIG d   1       7.260  -2.220  -7.232  0.00  0.00     0.190 C 
ATOM      8  H   LIG d   1       8.066  -1.487  -7.267  0.00  0.00     0.082 H 
ATOM      9  C   LIG d   1       5.997  -1.563  -6.666  0.00  0.00     0.197 C 
ATOM     10  H   LIG d   1       5.180  -2.285  -6.668  0.00  0.00     0.089 H 
ATOM     11  O   LIG d   1       6.246  -1.131  -5.328  0.00  0.00    -0.341 OA
ENDROOT
BRANCH   9  12
ATOM     12  N   LIG d   1       5.633  -0.411  -7.494  0.00  0.00    -0.181 N 
ATOM     13  N   LIG d   1       6.596   0.565  -7.780  0.00  0.00    -0.168 NA
ATOM     14  C   LIG d   1       6.280   1.591  -8.521  0.00  0.00     0.113 A 
ATOM     15  C   LIG d   1       4.911   1.706  -9.030  0.00  0.00     0.275 A 
ATOM     16  H   LIG d   1       7.016   2.347  -8.751  0.00  0.00     0.090 H 
ATOM     17  N   LIG d   1       4.012   0.746  -8.725  0.00  0.00    -0.254 N 
ATOM     18  O   LIG d   1       4.587   2.656  -9.718  0.00  0.00    -0.266 OA
ATOM     19  C   LIG d   1       4.378  -0.301  -7.963  0.00  0.00     0.351 A 
ATOM     20  O   LIG d   1       3.560  -1.160  -7.695  0.00  0.00    -0.245 OA
BRANCH  17  21
ATOM     21  C   LIG d   1       2.639   0.844  -9.226  0.00  0.00     0.056 C 
ATOM     22  H   LIG d   1       1.943   0.566  -8.433  0.00  0.00     0.054 H 
ATOM     23  H   LIG d   1       2.439   1.867  -9.542  0.00  0.00     0.054 H 
BRANCH  21  24
ATOM     24  C   LIG d   1       2.464  -0.087 -10.397  0.00  0.00    -0.026 A 
ATOM     25  C   LIG d   1       3.377  -0.071 -11.435  0.00  0.00    -0.039 A 
ATOM     26  C   LIG d   1       3.221  -0.928 -12.507  0.00  0.00     0.060 A 
ATOM     27  H   LIG d   1       4.216   0.609 -11.405  0.00  0.00     0.063 H 
ATOM     28  C   LIG d   1       2.141  -1.800 -12.546  0.00  0.00     0.134 A 
ATOM     29 BR   LIG d   1       4.475  -0.912 -13.922  0.00  0.00    -0.046 Br
ATOM     30  C   LIG d   1       1.223  -1.809 -11.507  0.00  0.00    -0.018 A 
ATOM     31  C   LIG d   1       1.386  -0.954 -10.435  0.00  0.00    -0.053 A 
ATOM     32  H   LIG d   1       0.382  -2.486 -11.535  0.00  0.00     0.065 H 
ATOM     33  H   LIG d   1       0.672  -0.962  -9.625  0.00  0.00     0.062 H 
BRANCH  28  34
ATOM     34  O   LIG d   1       1.983  -2.640 -13.603  0.00  0.00    -0.494 OA
BRANCH  34  35
ATOM     35  C   LIG d   1       0.791  -2.492 -14.377  0.00  0.00     0.079 C 
ATOM     36  H   LIG d   1       1.050  -2.169 -15.385  0.00  0.00     0.066 H 
ATOM     37  H   LIG d   1       0.268  -3.446 -14.425  0.00  0.00     0.066 H 
ATOM     38  H   LIG d   1       0.145  -1.746 -13.911  0.00  0.00     0.066 H 
ENDBRANCH  34  35
ENDBRANCH  28  34
ENDBRANCH  21  24
ENDBRANCH  17  21
ENDBRANCH   9  12
BRANCH   7  39
ATOM     39  O   LIG d   1       6.998  -2.706  -8.550  0.00  0.00    -0.453 OA
BRANCH  39  40
ATOM     40  C   LIG d   1       7.692  -2.147  -9.553  0.00  0.00     0.304 C 
ATOM     41  O   LIG d   1       8.899  -2.132  -9.519  0.00  0.00    -0.251 OA
BRANCH  40  42
ATOM     42  C   LIG d   1       6.963  -1.538 -10.724  0.00  0.00     0.033 C 
ATOM     43  H   LIG d   1       6.352  -0.704 -10.379  0.00  0.00     0.034 H 
ATOM     44  H   LIG d   1       7.688  -1.179 -11.455  0.00  0.00     0.034 H 
ATOM     45  H   LIG d   1       6.326  -2.291 -11.187  0.00  0.00     0.034 H 
ENDBRANCH  40  42
ENDBRANCH  39  40
ENDBRANCH   7  39
BRANCH   5  46
ATOM     46  O   LIG d   1       8.885  -3.961  -6.805  0.00  0.00    -0.454 OA
BRANCH  46  47
ATOM     47  C   LIG d   1       8.882  -5.282  -7.050  0.00  0.00     0.304 C 
ATOM     48  O   LIG d   1       8.024  -5.764  -7.752  0.00  0.00    -0.251 OA
BRANCH  47  49
ATOM     49  C   LIG d   1       9.948  -6.162  -6.452  0.00  0.00     0.033 C 
ATOM     50  H   LIG d   1       9.495  -6.840  -5.728  0.00  0.00     0.034 H 
ATOM     51  H   LIG d   1      10.426  -6.741  -7.241  0.00  0.00     0.034 H 
ATOM     52  H   LIG d   1      10.693  -5.543  -5.952  0.00  0.00     0.034 H 
ENDBRANCH  47  49
ENDBRANCH  46  47
ENDBRANCH   5  46
BRANCH   1  53
ATOM     53  C   LIG d   1       6.801  -1.611  -3.025  0.00  0.00     0.122 C 
ATOM     54  H   LIG d   1       7.867  -1.458  -2.855  0.00  0.00     0.072 H 
ATOM     55  H   LIG d   1       6.410  -2.307  -2.282  0.00  0.00     0.072 H 
BRANCH  53  56
ATOM     56  O   LIG d   1       6.117  -0.361  -2.912  0.00  0.00    -0.462 OA
BRANCH  56  57
ATOM     57  C   LIG d   1       4.988  -0.348  -2.187  0.00  0.00     0.304 C 
ATOM     58  O   LIG d   1       4.491  -1.387  -1.824  0.00  0.00    -0.251 OA
BRANCH  57  59
ATOM     59  C   LIG d   1       4.340   0.964  -1.825  0.00  0.00     0.033 C 
ATOM     60  H   LIG d   1       3.567   0.794  -1.077  0.00  0.00     0.034 H 
ATOM     61  H   LIG d   1       5.092   1.642  -1.423  0.00  0.00     0.034 H 
ATOM     62  H   LIG d   1       3.892   1.406  -2.716  0.00  0.00     0.034 H 
ENDBRANCH  57  59
ENDBRANCH  56  57
ENDBRANCH  53  56
ENDBRANCH   1  53
BRANCH   3  63
ATOM     63  O   LIG d   1       8.182  -3.959  -4.034  0.00  0.00    -0.455 OA
BRANCH  63  64
ATOM     64  C   LIG d   1       9.379  -3.933  -3.427  0.00  0.00     0.304 C 
ATOM     65  O   LIG d   1      10.319  -3.397  -3.966  0.00  0.00    -0.251 OA
BRANCH  64  66
ATOM     66  C   LIG d   1       9.551  -4.571  -2.072  0.00  0.00     0.033 C 
ATOM     67  H   LIG d   1      10.528  -4.309  -1.668  0.00  0.00     0.034 H 
ATOM     68  H   LIG d   1       8.772  -4.210  -1.399  0.00  0.00     0.034 H 
ATOM     69  H   LIG d   1       9.475  -5.654  -2.168  0.00  0.00     0.034 H 
ENDBRANCH  64  66
ENDBRANCH  63  64
ENDBRANCH   3  63
TORSDOF 18
ENDMDL
MODEL 5
REMARK VINA RESULT:      -5.4      4.471      9.343
REMARK  18 active torsions:
REMARK  status: ('A' for Active; 'I' for Inactive)
REMARK    1  A    between atoms: C_1  and  C_2 
REMARK    2  A    between atoms: C_2  and  O_4 
REMARK    3  A    between atoms: O_4  and  C_5 
REMARK    4  A    between atoms: C_5  and  C_6 
REMARK    5  A    between atoms: C_8  and  O_43 
REMARK    6  A    between atoms: C_10  and  O_39 
REMARK    7  A    between atoms: C_12  and  O_35 
REMARK    8  A    between atoms: C_14  and  N_17 
REMARK    9  A    between atoms: N_20  and  C_25 
REMARK   10  A    between atoms: C_25  and  C_26 
REMARK   11  A    between atoms: C_29  and  O_33 
REMARK   12  A    between atoms: O_33  and  C_34 
REMARK   13  A    between atoms: O_35  and  C_36 
REMARK   14  A    between atoms: C_36  and  C_38 
REMARK   15  A    between atoms: O_39  and  C_40 
REMARK   16  A    between atoms: C_40  and  C_42 
REMARK   17  A    between atoms: O_43  and  C_44 
REMARK   18  A    between atoms: C_44  and  C_46 
ROOT
ATOM      1  C   LIG d   1       5.730  -1.784  -5.767  0.00  0.00     0.136 C 
ATOM      2  H   LIG d   1       6.571  -2.410  -6.063  0.00  0.00     0.067 H 
ATOM      3  C   LIG d   1       6.163  -0.316  -5.758  0.00  0.00     0.172 C 
ATOM      4  H   LIG d   1       5.333   0.307  -5.422  0.00  0.00     0.080 H 
ATOM      5  C   LIG d   1       6.572   0.096  -7.175  0.00  0.00     0.183 C 
ATOM      6  H   LIG d   1       7.434  -0.492  -7.492  0.00  0.00     0.081 H 
ATOM      7  C   LIG d   1       5.400  -0.157  -8.128  0.00  0.00     0.190 C 
ATOM      8  H   LIG d   1       4.555   0.468  -7.840  0.00  0.00     0.082 H 
ATOM      9  C   LIG d   1       4.995  -1.632  -8.045  0.00  0.00     0.197 C 
ATOM     10  H   LIG d   1       5.829  -2.255  -8.371  0.00  0.00     0.089 H 
ATOM     11  O   LIG d   1       4.658  -1.957  -6.696  0.00  0.00    -0.341 OA
ENDROOT
BRANCH   9  12
ATOM     12  N   LIG d   1       3.839  -1.870  -8.911  0.00  0.00    -0.181 N 
ATOM     13  N   LIG d   1       2.657  -1.150  -8.698  0.00  0.00    -0.168 NA
ATOM     14  C   LIG d   1       1.625  -1.354  -9.469  0.00  0.00     0.113 A 
ATOM     15  C   LIG d   1       1.722  -2.349 -10.540  0.00  0.00     0.275 A 
ATOM     16  H   LIG d   1       0.710  -0.800  -9.316  0.00  0.00     0.090 H 
ATOM     17  N   LIG d   1       2.877  -3.026 -10.707  0.00  0.00    -0.254 N 
ATOM     18  O   LIG d   1       0.772  -2.563 -11.270  0.00  0.00    -0.266 OA
ATOM     19  C   LIG d   1       3.923  -2.783  -9.895  0.00  0.00     0.351 A 
ATOM     20  O   LIG d   1       4.960  -3.398 -10.054  0.00  0.00    -0.245 OA
BRANCH  17  21
ATOM     21  C   LIG d   1       2.994  -4.024 -11.773  0.00  0.00     0.056 C 
ATOM     22  H   LIG d   1       3.849  -4.670 -11.573  0.00  0.00     0.054 H 
ATOM     23  H   LIG d   1       2.086  -4.625 -11.808  0.00  0.00     0.054 H 
BRANCH  21  24
ATOM     24  C   LIG d   1       3.188  -3.328 -13.094  0.00  0.00    -0.026 A 
ATOM     25  C   LIG d   1       4.316  -2.558 -13.310  0.00  0.00    -0.039 A 
ATOM     26  C   LIG d   1       4.498  -1.922 -14.523  0.00  0.00     0.060 A 
ATOM     27  H   LIG d   1       5.057  -2.456 -12.531  0.00  0.00     0.063 H 
ATOM     28  C   LIG d   1       3.543  -2.050 -15.523  0.00  0.00     0.134 A 
ATOM     29 BR   LIG d   1       6.045  -0.876 -14.821  0.00  0.00    -0.046 Br
ATOM     30  C   LIG d   1       2.410  -2.818 -15.301  0.00  0.00    -0.018 A 
ATOM     31  C   LIG d   1       2.234  -3.455 -14.089  0.00  0.00    -0.053 A 
ATOM     32  H   LIG d   1       1.666  -2.918 -16.077  0.00  0.00     0.065 H 
ATOM     33  H   LIG d   1       1.353  -4.053 -13.916  0.00  0.00     0.062 H 
BRANCH  28  34
ATOM     34  O   LIG d   1       3.718  -1.421 -16.715  0.00  0.00    -0.494 OA
BRANCH  34  35
ATOM     35  C   LIG d   1       3.854  -2.250 -17.871  0.00  0.00     0.079 C 
ATOM     36  H   LIG d   1       3.171  -3.096 -17.794  0.00  0.00     0.066 H 
ATOM     37  H   LIG d   1       3.617  -1.672 -18.763  0.00  0.00     0.066 H 
ATOM     38  H   LIG d   1       4.879  -2.617 -17.937  0.00  0.00     0.066 H 
ENDBRANCH  34  35
ENDBRANCH  28  34
ENDBRANCH  21  24
ENDBRANCH  17  21
ENDBRANCH   9  12
BRANCH   7  39
ATOM     39  O   LIG d   1       5.794   0.157  -9.464  0.00  0.00    -0.453 OA
BRANCH  39  40
ATOM     40  C   LIG d   1       5.047   1.056 -10.124  0.00  0.00     0.304 C 
ATOM     41  O   LIG d   1       4.985   2.197  -9.730  0.00  0.00    -0.251 OA
BRANCH  40  42
ATOM     42  C   LIG d   1       4.285   0.642 -11.357  0.00  0.00     0.033 C 
ATOM     43  H   LIG d   1       3.457   1.332 -11.521  0.00  0.00     0.034 H 
ATOM     44  H   LIG d   1       4.951   0.664 -12.219  0.00  0.00     0.034 H 
ATOM     45  H   LIG d   1       3.898  -0.367 -11.223  0.00  0.00     0.034 H 
ENDBRANCH  40  42
ENDBRANCH  39  40
ENDBRANCH   7  39
BRANCH   5  46
ATOM     46  O   LIG d   1       6.910   1.485  -7.190  0.00  0.00    -0.454 OA
BRANCH  46  47
ATOM     47  C   LIG d   1       8.118   1.813  -7.677  0.00  0.00     0.304 C 
ATOM     48  O   LIG d   1       9.107   1.252  -7.267  0.00  0.00    -0.251 OA
BRANCH  47  49
ATOM     49  C   LIG d   1       8.239   2.879  -8.734  0.00  0.00     0.033 C 
ATOM     50  H   LIG d   1       8.617   3.797  -8.283  0.00  0.00     0.034 H 
ATOM     51  H   LIG d   1       8.929   2.545  -9.509  0.00  0.00     0.034 H 
ATOM     52  H   LIG d   1       7.261   3.068  -9.176  0.00  0.00     0.034 H 
ENDBRANCH  47  49
ENDBRANCH  46  47
ENDBRANCH   5  46
BRANCH   1  53
ATOM     53  C   LIG d   1       5.263  -2.186  -4.367  0.00  0.00     0.122 C 
ATOM     54  H   LIG d   1       5.775  -1.576  -3.623  0.00  0.00     0.072 H 
ATOM     55  H   LIG d   1       5.493  -3.238  -4.195  0.00  0.00     0.072 H 
BRANCH  53  56
ATOM     56  O   LIG d   1       3.852  -1.984  -4.258  0.00  0.00    -0.462 OA
BRANCH  56  57
ATOM     57  C   LIG d   1       3.412  -1.326  -3.174  0.00  0.00     0.304 C 
ATOM     58  O   LIG d   1       2.334  -0.782  -3.194  0.00  0.00    -0.251 OA
BRANCH  57  59
ATOM     59  C   LIG d   1       4.263  -1.266  -1.932  0.00  0.00     0.033 C 
ATOM     60  H   LIG d   1       3.849  -1.932  -1.175  0.00  0.00     0.034 H 
ATOM     61  H   LIG d   1       5.280  -1.577  -2.172  0.00  0.00     0.034 H 
ATOM     62  H   LIG d   1       4.276  -0.245  -1.550  0.00  0.00     0.034 H 
ENDBRANCH  57  59
ENDBRANCH  56  57
ENDBRANCH  53  56
ENDBRANCH   1  53
BRANCH   3  63
ATOM     63  O   LIG d   1       7.272  -0.150  -4.872  0.00  0.00    -0.455 OA
BRANCH  63  64
ATOM     64  C   LIG d   1       7.251   0.921  -4.064  0.00  0.00     0.304 C 
ATOM     65  O   LIG d   1       6.220   1.257  -3.532  0.00  0.00    -0.251 OA
BRANCH  64  66
ATOM     66  C   LIG d   1       8.515   1.705  -3.819  0.00  0.00     0.033 C 
ATOM     67  H   LIG d   1       9.223   1.090  -3.263  0.00  0.00     0.034 H 
ATOM     68  H   LIG d   1       8.956   1.990  -4.775  0.00  0.00     0.034 H 
ATOM     69  H   LIG d   1       8.282   2.601  -3.245  0.00  0.00     0.034 H 
ENDBRANCH  64  66
ENDBRANCH  63  64
ENDBRANCH   3  63
TORSDOF 18
ENDMDL
MODEL 6
REMARK VINA RESULT:      -5.4      2.038      2.704
REMARK  18 active torsions:
REMARK  status: ('A' for Active; 'I' for Inactive)
REMARK    1  A    between atoms: C_1  and  C_2 
REMARK    2  A    between atoms: C_2  and  O_4 
REMARK    3  A    between atoms: O_4  and  C_5 
REMARK    4  A    between atoms: C_5  and  C_6 
REMARK    5  A    between atoms: C_8  and  O_43 
REMARK    6  A    between atoms: C_10  and  O_39 
REMARK    7  A    between atoms: C_12  and  O_35 
REMARK    8  A    between atoms: C_14  and  N_17 
REMARK    9  A    between atoms: N_20  and  C_25 
REMARK   10  A    between atoms: C_25  and  C_26 
REMARK   11  A    between atoms: C_29  and  O_33 
REMARK   12  A    between atoms: O_33  and  C_34 
REMARK   13  A    between atoms: O_35  and  C_36 
REMARK   14  A    between atoms: C_36  and  C_38 
REMARK   15  A    between atoms: O_39  and  C_40 
REMARK   16  A    between atoms: C_40  and  C_42 
REMARK   17  A    between atoms: O_43  and  C_44 
REMARK   18  A    between atoms: C_44  and  C_46 
ROOT
ATOM      1  C   LIG d   1       6.691   0.366  -4.795  0.00  0.00     0.136 C 
ATOM      2  H   LIG d   1       6.041   1.229  -4.654  0.00  0.00     0.067 H 
ATOM      3  C   LIG d   1       6.516  -0.180  -6.214  0.00  0.00     0.172 C 
ATOM      4  H   LIG d   1       7.135  -1.068  -6.342  0.00  0.00     0.080 H 
ATOM      5  C   LIG d   1       6.944   0.892  -7.221  0.00  0.00     0.183 C 
ATOM      6  H   LIG d   1       6.292   1.761  -7.127  0.00  0.00     0.081 H 
ATOM      7  C   LIG d   1       8.391   1.302  -6.930  0.00  0.00     0.190 C 
ATOM      8  H   LIG d   1       9.048   0.444  -7.072  0.00  0.00     0.082 H 
ATOM      9  C   LIG d   1       8.493   1.790  -5.482  0.00  0.00     0.197 C 
ATOM     10  H   LIG d   1       7.866   2.672  -5.351  0.00  0.00     0.089 H 
ATOM     11  O   LIG d   1       8.051   0.757  -4.600  0.00  0.00    -0.341 OA
ENDROOT
BRANCH   9  12
ATOM     12  N   LIG d   1       9.885   2.131  -5.180  0.00  0.00    -0.181 N 
ATOM     13  N   LIG d   1      10.846   1.114  -5.111  0.00  0.00    -0.168 NA
ATOM     14  C   LIG d   1      12.088   1.411  -4.846  0.00  0.00     0.113 A 
ATOM     15  C   LIG d   1      12.450   2.811  -4.613  0.00  0.00     0.275 A 
ATOM     16  H   LIG d   1      12.837   0.635  -4.795  0.00  0.00     0.090 H 
ATOM     17  N   LIG d   1      11.493   3.760  -4.683  0.00  0.00    -0.254 N 
ATOM     18  O   LIG d   1      13.601   3.116  -4.359  0.00  0.00    -0.266 OA
ATOM     19  C   LIG d   1      10.223   3.415  -4.965  0.00  0.00     0.351 A 
ATOM     20  O   LIG d   1       9.368   4.277  -5.026  0.00  0.00    -0.245 OA
BRANCH  17  21
ATOM     21  C   LIG d   1      11.836   5.166  -4.454  0.00  0.00     0.056 C 
ATOM     22  H   LIG d   1      12.905   5.309  -4.614  0.00  0.00     0.054 H 
ATOM     23  H   LIG d   1      11.278   5.794  -5.148  0.00  0.00     0.054 H 
BRANCH  21  24
ATOM     24  C   LIG d   1      11.485   5.544  -3.039  0.00  0.00    -0.026 A 
ATOM     25  C   LIG d   1      10.626   6.601  -2.800  0.00  0.00    -0.039 A 
ATOM     26  C   LIG d   1      10.299   6.947  -1.502  0.00  0.00     0.060 A 
ATOM     27  H   LIG d   1      10.209   7.155  -3.627  0.00  0.00     0.063 H 
ATOM     28  C   LIG d   1      10.840   6.236  -0.439  0.00  0.00     0.134 A 
ATOM     29 BR   LIG d   1       9.119   8.387  -1.175  0.00  0.00    -0.046 Br
ATOM     30  C   LIG d   1      11.705   5.180  -0.682  0.00  0.00    -0.018 A 
ATOM     31  C   LIG d   1      12.026   4.836  -1.980  0.00  0.00    -0.053 A 
ATOM     32  H   LIG d   1      12.127   4.627   0.143  0.00  0.00     0.065 H 
ATOM     33  H   LIG d   1      12.699   4.014  -2.170  0.00  0.00     0.062 H 
BRANCH  28  34
ATOM     34  O   LIG d   1      10.523   6.577   0.838  0.00  0.00    -0.494 OA
BRANCH  34  35
ATOM     35  C   LIG d   1      10.937   5.680   1.871  0.00  0.00     0.079 C 
ATOM     36  H   LIG d   1      10.222   4.861   1.949  0.00  0.00     0.066 H 
ATOM     37  H   LIG d   1      11.922   5.280   1.631  0.00  0.00     0.066 H 
ATOM     38  H   LIG d   1      10.982   6.214   2.820  0.00  0.00     0.066 H 
ENDBRANCH  34  35
ENDBRANCH  28  34
ENDBRANCH  21  24
ENDBRANCH  17  21
ENDBRANCH   9  12
BRANCH   7  39
ATOM     39  O   LIG d   1       8.777   2.352  -7.819  0.00  0.00    -0.453 OA
BRANCH  39  40
ATOM     40  C   LIG d   1       9.696   2.054  -8.750  0.00  0.00     0.304 C 
ATOM     41  O   LIG d   1      10.717   1.491  -8.434  0.00  0.00    -0.251 OA
BRANCH  40  42
ATOM     42  C   LIG d   1       9.454   2.421 -10.192  0.00  0.00     0.033 C 
ATOM     43  H   LIG d   1      10.397   2.395 -10.738  0.00  0.00     0.034 H 
ATOM     44  H   LIG d   1       8.757   1.710 -10.635  0.00  0.00     0.034 H 
ATOM     45  H   LIG d   1       9.030   3.424 -10.245  0.00  0.00     0.034 H 
ENDBRANCH  40  42
ENDBRANCH  39  40
ENDBRANCH   7  39
BRANCH   5  46
ATOM     46  O   LIG d   1       6.851   0.366  -8.546  0.00  0.00    -0.454 OA
BRANCH  46  47
ATOM     47  C   LIG d   1       6.051   1.018  -9.406  0.00  0.00     0.304 C 
ATOM     48  O   LIG d   1       5.868   2.206  -9.279  0.00  0.00    -0.251 OA
BRANCH  47  49
ATOM     49  C   LIG d   1       5.383   0.269 -10.529  0.00  0.00     0.033 C 
ATOM     50  H   LIG d   1       6.078   0.170 -11.364  0.00  0.00     0.034 H 
ATOM     51  H   LIG d   1       5.091  -0.722 -10.182  0.00  0.00     0.034 H 
ATOM     52  H   LIG d   1       4.498   0.815 -10.856  0.00  0.00     0.034 H 
ENDBRANCH  47  49
ENDBRANCH  46  47
ENDBRANCH   5  46
BRANCH   1  53
ATOM     53  C   LIG d   1       6.322  -0.721  -3.782  0.00  0.00     0.122 C 
ATOM     54  H   LIG d   1       7.188  -1.358  -3.602  0.00  0.00     0.072 H 
ATOM     55  H   LIG d   1       5.503  -1.322  -4.175  0.00  0.00     0.072 H 
BRANCH  53  56
ATOM     56  O   LIG d   1       5.918  -0.110  -2.554  0.00  0.00    -0.462 OA
BRANCH  56  57
ATOM     57  C   LIG d   1       4.622  -0.212  -2.221  0.00  0.00     0.304 C 
ATOM     58  O   LIG d   1       4.155  -1.290  -1.938  0.00  0.00    -0.251 OA
BRANCH  57  59
ATOM     59  C   LIG d   1       3.750   1.017  -2.198  0.00  0.00     0.033 C 
ATOM     60  H   LIG d   1       2.763   0.755  -1.819  0.00  0.00     0.034 H 
ATOM     61  H   LIG d   1       4.200   1.770  -1.552  0.00  0.00     0.034 H 
ATOM     62  H   LIG d   1       3.657   1.414  -3.210  0.00  0.00     0.034 H 
ENDBRANCH  57  59
ENDBRANCH  56  57
ENDBRANCH  53  56
ENDBRANCH   1  53
BRANCH   3  63
ATOM     63  O   LIG d   1       5.145  -0.520  -6.430  0.00  0.00    -0.455 OA
BRANCH  63  64
ATOM     64  C   LIG d   1       4.892  -1.728  -6.957  0.00  0.00     0.304 C 
ATOM     65  O   LIG d   1       5.530  -2.689  -6.599  0.00  0.00    -0.251 OA
BRANCH  64  66
ATOM     66  C   LIG d   1       3.813  -1.885  -7.997  0.00  0.00     0.033 C 
ATOM     67  H   LIG d   1       4.114  -1.378  -8.913  0.00  0.00     0.034 H 
ATOM     68  H   LIG d   1       3.658  -2.945  -8.202  0.00  0.00     0.034 H 
ATOM     69  H   LIG d   1       2.885  -1.448  -7.627  0.00  0.00     0.034 H 
ENDBRANCH  64  66
ENDBRANCH  63  64
ENDBRANCH   3  63
TORSDOF 18
ENDMDL
MODEL 7
REMARK VINA RESULT:      -5.4      3.531      5.722
REMARK  18 active torsions:
REMARK  status: ('A' for Active; 'I' for Inactive)
REMARK    1  A    between atoms: C_1  and  C_2 
REMARK    2  A    between atoms: C_2  and  O_4 
REMARK    3  A    between atoms: O_4  and  C_5 
REMARK    4  A    between atoms: C_5  and  C_6 
REMARK    5  A    between atoms: C_8  and  O_43 
REMARK    6  A    between atoms: C_10  and  O_39 
REMARK    7  A    between atoms: C_12  and  O_35 
REMARK    8  A    between atoms: C_14  and  N_17 
REMARK    9  A    between atoms: N_20  and  C_25 
REMARK   10  A    between atoms: C_25  and  C_26 
REMARK   11  A    between atoms: C_29  and  O_33 
REMARK   12  A    between atoms: O_33  and  C_34 
REMARK   13  A    between atoms: O_35  and  C_36 
REMARK   14  A    between atoms: C_36  and  C_38 
REMARK   15  A    between atoms: O_39  and  C_40 
REMARK   16  A    between atoms: C_40  and  C_42 
REMARK   17  A    between atoms: O_43  and  C_44 
REMARK   18  A    between atoms: C_44  and  C_46 
ROOT
ATOM      1  C   LIG d   1       8.288   2.771  -4.224  0.00  0.00     0.136 C 
ATOM      2  H   LIG d   1       7.469   3.436  -4.499  0.00  0.00     0.067 H 
ATOM      3  C   LIG d   1       9.172   2.517  -5.447  0.00  0.00     0.172 C 
ATOM      4  H   LIG d   1       9.967   1.820  -5.184  0.00  0.00     0.080 H 
ATOM      5  C   LIG d   1       9.786   3.843  -5.907  0.00  0.00     0.183 C 
ATOM      6  H   LIG d   1       8.994   4.524  -6.219  0.00  0.00     0.081 H 
ATOM      7  C   LIG d   1      10.568   4.463  -4.744  0.00  0.00     0.190 C 
ATOM      8  H   LIG d   1      11.390   3.804  -4.466  0.00  0.00     0.082 H 
ATOM      9  C   LIG d   1       9.629   4.641  -3.548  0.00  0.00     0.197 C 
ATOM     10  H   LIG d   1       8.828   5.331  -3.814  0.00  0.00     0.089 H 
ATOM     11  O   LIG d   1       9.068   3.376  -3.191  0.00  0.00    -0.341 OA
ENDROOT
BRANCH   9  12
ATOM     12  N   LIG d   1      10.381   5.180  -2.413  0.00  0.00    -0.181 N 
ATOM     13  N   LIG d   1      11.482   4.473  -1.916  0.00  0.00    -0.168 NA
ATOM     14  C   LIG d   1      12.160   4.950  -0.909  0.00  0.00     0.113 A 
ATOM     15  C   LIG d   1      11.743   6.220  -0.308  0.00  0.00     0.275 A 
ATOM     16  H   LIG d   1      13.013   4.415  -0.520  0.00  0.00     0.090 H 
ATOM     17  N   LIG d   1      10.672   6.867  -0.814  0.00  0.00    -0.254 N 
ATOM     18  O   LIG d   1      12.354   6.685   0.636  0.00  0.00    -0.266 OA
ATOM     19  C   LIG d   1      10.002   6.345  -1.858  0.00  0.00     0.351 A 
ATOM     20  O   LIG d   1       9.038   6.936  -2.307  0.00  0.00    -0.245 OA
BRANCH  17  21
ATOM     21  C   LIG d   1      10.240   8.138  -0.228  0.00  0.00     0.056 C 
ATOM     22  H   LIG d   1       9.156   8.133  -0.111  0.00  0.00     0.054 H 
ATOM     23  H   LIG d   1      10.710   8.267   0.747  0.00  0.00     0.054 H 
BRANCH  21  24
ATOM     24  C   LIG d   1      10.642   9.272  -1.134  0.00  0.00    -0.026 A 
ATOM     25  C   LIG d   1       9.674  10.073  -1.710  0.00  0.00    -0.039 A 
ATOM     26  C   LIG d   1      10.042  11.117  -2.538  0.00  0.00     0.060 A 
ATOM     27  H   LIG d   1       8.629   9.885  -1.511  0.00  0.00     0.063 H 
ATOM     28  C   LIG d   1      11.384  11.355  -2.797  0.00  0.00     0.134 A 
ATOM     29 BR   LIG d   1       8.717  12.216  -3.320  0.00  0.00    -0.046 Br
ATOM     30  C   LIG d   1      12.353  10.546  -2.222  0.00  0.00    -0.018 A 
ATOM     31  C   LIG d   1      11.981   9.507  -1.392  0.00  0.00    -0.053 A 
ATOM     32  H   LIG d   1      13.398  10.730  -2.422  0.00  0.00     0.065 H 
ATOM     33  H   LIG d   1      12.735   8.878  -0.944  0.00  0.00     0.062 H 
BRANCH  28  34
ATOM     34  O   LIG d   1      11.749  12.378  -3.615  0.00  0.00    -0.494 OA
BRANCH  34  35
ATOM     35  C   LIG d   1      12.262  12.029  -4.902  0.00  0.00     0.079 C 
ATOM     36  H   LIG d   1      11.826  12.684  -5.656  0.00  0.00     0.066 H 
ATOM     37  H   LIG d   1      13.346  12.143  -4.904  0.00  0.00     0.066 H 
ATOM     38  H   LIG d   1      12.005  10.993  -5.127  0.00  0.00     0.066 H 
ENDBRANCH  34  35
ENDBRANCH  28  34
ENDBRANCH  21  24
ENDBRANCH  17  21
ENDBRANCH   9  12
BRANCH   7  39
ATOM     39  O   LIG d   1      11.086   5.733  -5.141  0.00  0.00    -0.453 OA
BRANCH  39  40
ATOM     40  C   LIG d   1      12.404   5.930  -4.981  0.00  0.00     0.304 C 
ATOM     41  O   LIG d   1      13.194   5.147  -5.452  0.00  0.00    -0.251 OA
BRANCH  40  42
ATOM     42  C   LIG d   1      12.898   7.129  -4.214  0.00  0.00     0.033 C 
ATOM     43  H   LIG d   1      12.819   6.935  -3.144  0.00  0.00     0.034 H 
ATOM     44  H   LIG d   1      13.940   7.321  -4.471  0.00  0.00     0.034 H 
ATOM     45  H   LIG d   1      12.295   8.000  -4.471  0.00  0.00     0.034 H 
ENDBRANCH  40  42
ENDBRANCH  39  40
ENDBRANCH   7  39
BRANCH   5  46
ATOM     46  O   LIG d   1      10.670   3.605  -7.005  0.00  0.00    -0.454 OA
BRANCH  46  47
ATOM     47  C   LIG d   1      10.350   4.172  -8.180  0.00  0.00     0.304 C 
ATOM     48  O   LIG d   1       9.520   5.050  -8.220  0.00  0.00    -0.251 OA
BRANCH  47  49
ATOM     49  C   LIG d   1      11.025   3.714  -9.446  0.00  0.00     0.033 C 
ATOM     50  H   LIG d   1      10.279   3.300 -10.126  0.00  0.00     0.034 H 
ATOM     51  H   LIG d   1      11.517   4.562  -9.922  0.00  0.00     0.034 H 
ATOM     52  H   LIG d   1      11.765   2.950  -9.209  0.00  0.00     0.034 H 
ENDBRANCH  47  49
ENDBRANCH  46  47
ENDBRANCH   5  46
BRANCH   1  53
ATOM     53  C   LIG d   1       7.718   1.443  -3.722  0.00  0.00     0.122 C 
ATOM     54  H   LIG d   1       8.301   1.097  -2.868  0.00  0.00     0.072 H 
ATOM     55  H   LIG d   1       7.767   0.702  -4.520  0.00  0.00     0.072 H 
BRANCH  53  56
ATOM     56  O   LIG d   1       6.357   1.627  -3.326  0.00  0.00    -0.462 OA
BRANCH  56  57
ATOM     57  C   LIG d   1       5.748   0.588  -2.734  0.00  0.00     0.304 C 
ATOM     58  O   LIG d   1       6.122  -0.539  -2.959  0.00  0.00    -0.251 OA
BRANCH  57  59
ATOM     59  C   LIG d   1       4.599   0.826  -1.789  0.00  0.00     0.033 C 
ATOM     60  H   LIG d   1       4.771   0.279  -0.862  0.00  0.00     0.034 H 
ATOM     61  H   LIG d   1       4.520   1.891  -1.574  0.00  0.00     0.034 H 
ATOM     62  H   LIG d   1       3.673   0.478  -2.249  0.00  0.00     0.034 H 
ENDBRANCH  57  59
ENDBRANCH  56  57
ENDBRANCH  53  56
ENDBRANCH   1  53
BRANCH   3  63
ATOM     63  O   LIG d   1       8.382   1.964  -6.502  0.00  0.00    -0.455 OA
BRANCH  63  64
ATOM     64  C   LIG d   1       8.872   0.883  -7.127  0.00  0.00     0.304 C 
ATOM     65  O   LIG d   1       8.454   0.572  -8.217  0.00  0.00    -0.251 OA
BRANCH  64  66
ATOM     66  C   LIG d   1       9.946   0.055  -6.469  0.00  0.00     0.033 C 
ATOM     67  H   LIG d   1      10.231  -0.764  -7.129  0.00  0.00     0.034 H 
ATOM     68  H   LIG d   1      10.817   0.680  -6.270  0.00  0.00     0.034 H 
ATOM     69  H   LIG d   1       9.568  -0.350  -5.530  0.00  0.00     0.034 H 
ENDBRANCH  64  66
ENDBRANCH  63  64
ENDBRANCH   3  63
TORSDOF 18
ENDMDL
MODEL 8
REMARK VINA RESULT:      -5.3      5.080      9.439
REMARK  18 active torsions:
REMARK  status: ('A' for Active; 'I' for Inactive)
REMARK    1  A    between atoms: C_1  and  C_2 
REMARK    2  A    between atoms: C_2  and  O_4 
REMARK    3  A    between atoms: O_4  and  C_5 
REMARK    4  A    between atoms: C_5  and  C_6 
REMARK    5  A    between atoms: C_8  and  O_43 
REMARK    6  A    between atoms: C_10  and  O_39 
REMARK    7  A    between atoms: C_12  and  O_35 
REMARK    8  A    between atoms: C_14  and  N_17 
REMARK    9  A    between atoms: N_20  and  C_25 
REMARK   10  A    between atoms: C_25  and  C_26 
REMARK   11  A    between atoms: C_29  and  O_33 
REMARK   12  A    between atoms: O_33  and  C_34 
REMARK   13  A    between atoms: O_35  and  C_36 
REMARK   14  A    between atoms: C_36  and  C_38 
REMARK   15  A    between atoms: O_39  and  C_40 
REMARK   16  A    between atoms: C_40  and  C_42 
REMARK   17  A    between atoms: O_43  and  C_44 
REMARK   18  A    between atoms: C_44  and  C_46 
ROOT
ATOM      1  C   LIG d   1       4.998  -2.291  -6.066  0.00  0.00     0.136 C 
ATOM      2  H   LIG d   1       5.820  -2.930  -6.389  0.00  0.00     0.067 H 
ATOM      3  C   LIG d   1       5.531  -0.890  -5.757  0.00  0.00     0.172 C 
ATOM      4  H   LIG d   1       4.717  -0.263  -5.395  0.00  0.00     0.080 H 
ATOM      5  C   LIG d   1       6.118  -0.282  -7.034  0.00  0.00     0.183 C 
ATOM      6  H   LIG d   1       6.964  -0.882  -7.369  0.00  0.00     0.081 H 
ATOM      7  C   LIG d   1       5.039  -0.266  -8.122  0.00  0.00     0.190 C 
ATOM      8  H   LIG d   1       4.214   0.373  -7.808  0.00  0.00     0.082 H 
ATOM      9  C   LIG d   1       4.524  -1.692  -8.339  0.00  0.00     0.197 C 
ATOM     10  H   LIG d   1       5.341  -2.323  -8.692  0.00  0.00     0.089 H 
ATOM     11  O   LIG d   1       4.022  -2.210  -7.106  0.00  0.00    -0.341 OA
ENDROOT
BRANCH   9  12
ATOM     12  N   LIG d   1       3.453  -1.677  -9.337  0.00  0.00    -0.181 N 
ATOM     13  N   LIG d   1       2.277  -0.964  -9.077  0.00  0.00    -0.168 NA
ATOM     14  C   LIG d   1       1.320  -0.942  -9.964  0.00  0.00     0.113 A 
ATOM     15  C   LIG d   1       1.495  -1.682 -11.217  0.00  0.00     0.275 A 
ATOM     16  H   LIG d   1       0.411  -0.392  -9.775  0.00  0.00     0.090 H 
ATOM     17  N   LIG d   1       2.642  -2.362 -11.425  0.00  0.00    -0.254 N 
ATOM     18  O   LIG d   1       0.616  -1.684 -12.059  0.00  0.00    -0.266 OA
ATOM     19  C   LIG d   1       3.608  -2.355 -10.489  0.00  0.00     0.351 A 
ATOM     20  O   LIG d   1       4.638  -2.971 -10.687  0.00  0.00    -0.245 OA
BRANCH  17  21
ATOM     21  C   LIG d   1       2.835  -3.107 -12.672  0.00  0.00     0.056 C 
ATOM     22  H   LIG d   1       3.643  -3.827 -12.543  0.00  0.00     0.054 H 
ATOM     23  H   LIG d   1       1.916  -3.634 -12.926  0.00  0.00     0.054 H 
BRANCH  21  24
ATOM     24  C   LIG d   1       3.188  -2.149 -13.779  0.00  0.00    -0.026 A 
ATOM     25  C   LIG d   1       2.485  -2.179 -14.970  0.00  0.00    -0.039 A 
ATOM     26  C   LIG d   1       2.804  -1.298 -15.985  0.00  0.00     0.060 A 
ATOM     27  H   LIG d   1       1.682  -2.890 -15.104  0.00  0.00     0.063 H 
ATOM     28  C   LIG d   1       3.838  -0.387 -15.812  0.00  0.00     0.134 A 
ATOM     29 BR   LIG d   1       1.836  -1.334 -17.609  0.00  0.00    -0.046 Br
ATOM     30  C   LIG d   1       4.546  -0.364 -14.620  0.00  0.00    -0.018 A 
ATOM     31  C   LIG d   1       4.220  -1.243 -13.607  0.00  0.00    -0.053 A 
ATOM     32  H   LIG d   1       5.350   0.343 -14.484  0.00  0.00     0.065 H 
ATOM     33  H   LIG d   1       4.770  -1.225 -12.678  0.00  0.00     0.062 H 
BRANCH  28  34
ATOM     34  O   LIG d   1       4.157   0.477 -16.811  0.00  0.00    -0.494 OA
BRANCH  34  35
ATOM     35  C   LIG d   1       5.534   0.837 -16.943  0.00  0.00     0.079 C 
ATOM     36  H   LIG d   1       5.885   0.569 -17.939  0.00  0.00     0.066 H 
ATOM     37  H   LIG d   1       5.645   1.910 -16.794  0.00  0.00     0.066 H 
ATOM     38  H   LIG d   1       6.122   0.303 -16.196  0.00  0.00     0.066 H 
ENDBRANCH  34  35
ENDBRANCH  28  34
ENDBRANCH  21  24
ENDBRANCH  17  21
ENDBRANCH   9  12
BRANCH   7  39
ATOM     39  O   LIG d   1       5.595   0.234  -9.339  0.00  0.00    -0.453 OA
BRANCH  39  40
ATOM     40  C   LIG d   1       5.092   1.385  -9.810  0.00  0.00     0.304 C 
ATOM     41  O   LIG d   1       5.499   2.441  -9.387  0.00  0.00    -0.251 OA
BRANCH  40  42
ATOM     42  C   LIG d   1       4.019   1.361 -10.868  0.00  0.00     0.033 C 
ATOM     43  H   LIG d   1       4.480   1.397 -11.855  0.00  0.00     0.034 H 
ATOM     44  H   LIG d   1       3.436   0.444 -10.773  0.00  0.00     0.034 H 
ATOM     45  H   LIG d   1       3.363   2.221 -10.741  0.00  0.00     0.034 H 
ENDBRANCH  40  42
ENDBRANCH  39  40
ENDBRANCH   7  39
BRANCH   5  46
ATOM     46  O   LIG d   1       6.553   1.053  -6.771  0.00  0.00    -0.454 OA
BRANCH  46  47
ATOM     47  C   LIG d   1       7.864   1.306  -6.913  0.00  0.00     0.304 C 
ATOM     48  O   LIG d   1       8.372   2.220  -6.306  0.00  0.00    -0.251 OA
BRANCH  47  49
ATOM     49  C   LIG d   1       8.702   0.451  -7.827  0.00  0.00     0.033 C 
ATOM     50  H   LIG d   1       8.435   0.658  -8.865  0.00  0.00     0.034 H 
ATOM     51  H   LIG d   1       9.757   0.679  -7.673  0.00  0.00     0.034 H 
ATOM     52  H   LIG d   1       8.522  -0.601  -7.609  0.00  0.00     0.034 H 
ENDBRANCH  47  49
ENDBRANCH  46  47
ENDBRANCH   5  46
BRANCH   1  53
ATOM     53  C   LIG d   1       4.357  -2.882  -4.809  0.00  0.00     0.122 C 
ATOM     54  H   LIG d   1       3.278  -2.948  -4.949  0.00  0.00     0.072 H 
ATOM     55  H   LIG d   1       4.575  -2.242  -3.954  0.00  0.00     0.072 H 
BRANCH  53  56
ATOM     56  O   LIG d   1       4.887  -4.188  -4.572  0.00  0.00    -0.462 OA
BRANCH  56  57
ATOM     57  C   LIG d   1       4.608  -5.133  -5.484  0.00  0.00     0.304 C 
ATOM     58  O   LIG d   1       3.466  -5.319  -5.831  0.00  0.00    -0.251 OA
BRANCH  57  59
ATOM     59  C   LIG d   1       5.719  -5.963  -6.074  0.00  0.00     0.033 C 
ATOM     60  H   LIG d   1       6.378  -6.308  -5.277  0.00  0.00     0.034 H 
ATOM     61  H   LIG d   1       5.295  -6.823  -6.592  0.00  0.00     0.034 H 
ATOM     62  H   LIG d   1       6.288  -5.358  -6.780  0.00  0.00     0.034 H 
ENDBRANCH  57  59
ENDBRANCH  56  57
ENDBRANCH  53  56
ENDBRANCH   1  53
BRANCH   3  63
ATOM     63  O   LIG d   1       6.549  -0.976  -4.757  0.00  0.00    -0.455 OA
BRANCH  63  64
ATOM     64  C   LIG d   1       6.471  -0.110  -3.734  0.00  0.00     0.304 C 
ATOM     65  O   LIG d   1       7.370   0.672  -3.534  0.00  0.00    -0.251 OA
BRANCH  64  66
ATOM     66  C   LIG d   1       5.262  -0.114  -2.834  0.00  0.00     0.033 C 
ATOM     67  H   LIG d   1       5.542  -0.489  -1.850  0.00  0.00     0.034 H 
ATOM     68  H   LIG d   1       4.877   0.902  -2.739  0.00  0.00     0.034 H 
ATOM     69  H   LIG d   1       4.492  -0.756  -3.262  0.00  0.00     0.034 H 
ENDBRANCH  64  66
ENDBRANCH  63  64
ENDBRANCH   3  63
TORSDOF 18
ENDMDL
MODEL 9
REMARK VINA RESULT:      -5.2      1.810      2.268
REMARK  18 active torsions:
REMARK  status: ('A' for Active; 'I' for Inactive)
REMARK    1  A    between atoms: C_1  and  C_2 
REMARK    2  A    between atoms: C_2  and  O_4 
REMARK    3  A    between atoms: O_4  and  C_5 
REMARK    4  A    between atoms: C_5  and  C_6 
REMARK    5  A    between atoms: C_8  and  O_43 
REMARK    6  A    between atoms: C_10  and  O_39 
REMARK    7  A    between atoms: C_12  and  O_35 
REMARK    8  A    between atoms: C_14  and  N_17 
REMARK    9  A    between atoms: N_20  and  C_25 
REMARK   10  A    between atoms: C_25  and  C_26 
REMARK   11  A    between atoms: C_29  and  O_33 
REMARK   12  A    between atoms: O_33  and  C_34 
REMARK   13  A    between atoms: O_35  and  C_36 
REMARK   14  A    between atoms: C_36  and  C_38 
REMARK   15  A    between atoms: O_39  and  C_40 
REMARK   16  A    between atoms: C_40  and  C_42 
REMARK   17  A    between atoms: O_43  and  C_44 
REMARK   18  A    between atoms: C_44  and  C_46 
ROOT
ATOM      1  C   LIG d   1       4.978  -1.320  -5.793  0.00  0.00     0.136 C 
ATOM      2  H   LIG d   1       4.306  -0.585  -5.351  0.00  0.00     0.067 H 
ATOM      3  C   LIG d   1       4.845  -1.284  -7.317  0.00  0.00     0.172 C 
ATOM      4  H   LIG d   1       5.486  -2.048  -7.757  0.00  0.00     0.080 H 
ATOM      5  C   LIG d   1       5.270   0.097  -7.826  0.00  0.00     0.183 C 
ATOM      6  H   LIG d   1       4.598   0.856  -7.425  0.00  0.00     0.081 H 
ATOM      7  C   LIG d   1       6.702   0.382  -7.360  0.00  0.00     0.190 C 
ATOM      8  H   LIG d   1       7.380  -0.348  -7.801  0.00  0.00     0.082 H 
ATOM      9  C   LIG d   1       6.763   0.280  -5.834  0.00  0.00     0.197 C 
ATOM     10  H   LIG d   1       6.114   1.038  -5.393  0.00  0.00     0.089 H 
ATOM     11  O   LIG d   1       6.325  -1.016  -5.426  0.00  0.00    -0.341 OA
ENDROOT
BRANCH   9  12
ATOM     12  N   LIG d   1       8.140   0.497  -5.385  0.00  0.00    -0.181 N 
ATOM     13  N   LIG d   1       9.127  -0.442  -5.708  0.00  0.00    -0.168 NA
ATOM     14  C   LIG d   1      10.357  -0.254  -5.316  0.00  0.00     0.113 A 
ATOM     15  C   LIG d   1      10.677   0.940  -4.530  0.00  0.00     0.275 A 
ATOM     16  H   LIG d   1      11.126  -0.970  -5.563  0.00  0.00     0.090 H 
ATOM     17  N   LIG d   1       9.695   1.818  -4.235  0.00  0.00    -0.254 N 
ATOM     18  O   LIG d   1      11.815   1.138  -4.146  0.00  0.00    -0.266 OA
ATOM     19  C   LIG d   1       8.440   1.591  -4.663  0.00  0.00     0.351 A 
ATOM     20  O   LIG d   1       7.562   2.388  -4.392  0.00  0.00    -0.245 OA
BRANCH  17  21
ATOM     21  C   LIG d   1       9.997   3.018  -3.451  0.00  0.00     0.056 C 
ATOM     22  H   LIG d   1       9.245   3.139  -2.670  0.00  0.00     0.054 H 
ATOM     23  H   LIG d   1      10.981   2.916  -2.994  0.00  0.00     0.054 H 
BRANCH  21  24
ATOM     24  C   LIG d   1       9.983   4.224  -4.353  0.00  0.00    -0.026 A 
ATOM     25  C   LIG d   1      10.710   4.214  -5.530  0.00  0.00    -0.039 A 
ATOM     26  C   LIG d   1      10.695   5.317  -6.361  0.00  0.00     0.060 A 
ATOM     27  H   LIG d   1      11.286   3.341  -5.801  0.00  0.00     0.063 H 
ATOM     28  C   LIG d   1       9.957   6.440  -6.010  0.00  0.00     0.134 A 
ATOM     29 BR   LIG d   1      11.681   5.300  -7.974  0.00  0.00    -0.046 Br
ATOM     30  C   LIG d   1       9.235   6.449  -4.826  0.00  0.00    -0.018 A 
ATOM     31  C   LIG d   1       9.249   5.342  -4.001  0.00  0.00    -0.053 A 
ATOM     32  H   LIG d   1       8.661   7.321  -4.551  0.00  0.00     0.065 H 
ATOM     33  H   LIG d   1       8.686   5.348  -3.079  0.00  0.00     0.062 H 
BRANCH  28  34
ATOM     34  O   LIG d   1       9.945   7.528  -6.824  0.00  0.00    -0.494 OA
BRANCH  34  35
ATOM     35  C   LIG d   1       9.470   8.753  -6.261  0.00  0.00     0.079 C 
ATOM     36  H   LIG d   1       8.507   8.584  -5.781  0.00  0.00     0.066 H 
ATOM     37  H   LIG d   1      10.185   9.115  -5.523  0.00  0.00     0.066 H 
ATOM     38  H   LIG d   1       9.357   9.496  -7.051  0.00  0.00     0.066 H 
ENDBRANCH  34  35
ENDBRANCH  28  34
ENDBRANCH  21  24
ENDBRANCH  17  21
ENDBRANCH   9  12
BRANCH   7  39
ATOM     39  O   LIG d   1       7.083   1.697  -7.769  0.00  0.00    -0.453 OA
BRANCH  39  40
ATOM     40  C   LIG d   1       8.134   1.795  -8.599  0.00  0.00     0.304 C 
ATOM     41  O   LIG d   1       8.665   0.797  -9.024  0.00  0.00    -0.251 OA
BRANCH  40  42
ATOM     42  C   LIG d   1       8.650   3.153  -9.001  0.00  0.00     0.033 C 
ATOM     43  H   LIG d   1       9.614   3.332  -8.524  0.00  0.00     0.034 H 
ATOM     44  H   LIG d   1       8.770   3.189 -10.084  0.00  0.00     0.034 H 
ATOM     45  H   LIG d   1       7.941   3.919  -8.689  0.00  0.00     0.034 H 
ENDBRANCH  40  42
ENDBRANCH  39  40
ENDBRANCH   7  39
BRANCH   5  46
ATOM     46  O   LIG d   1       5.217   0.117  -9.254  0.00  0.00    -0.454 OA
BRANCH  46  47
ATOM     47  C   LIG d   1       4.455   1.065  -9.822  0.00  0.00     0.304 C 
ATOM     48  O   LIG d   1       4.188   2.072  -9.209  0.00  0.00    -0.251 OA
BRANCH  47  49
ATOM     49  C   LIG d   1       3.936   0.875 -11.223  0.00  0.00     0.033 C 
ATOM     50  H   LIG d   1       4.370  -0.028 -11.652  0.00  0.00     0.034 H 
ATOM     51  H   LIG d   1       2.850   0.779 -11.198  0.00  0.00     0.034 H 
ATOM     52  H   LIG d   1       4.211   1.735 -11.834  0.00  0.00     0.034 H 
ENDBRANCH  47  49
ENDBRANCH  46  47
ENDBRANCH   5  46
BRANCH   1  53
ATOM     53  C   LIG d   1       4.612  -2.716  -5.282  0.00  0.00     0.122 C 
ATOM     54  H   LIG d   1       3.551  -2.898  -5.451  0.00  0.00     0.072 H 
ATOM     55  H   LIG d   1       4.827  -2.780  -4.215  0.00  0.00     0.072 H 
BRANCH  53  56
ATOM     56  O   LIG d   1       5.381  -3.696  -5.982  0.00  0.00    -0.462 OA
BRANCH  56  57
ATOM     57  C   LIG d   1       4.971  -4.971  -5.892  0.00  0.00     0.304 C 
ATOM     58  O   LIG d   1       3.790  -5.224  -5.871  0.00  0.00    -0.251 OA
BRANCH  57  59
ATOM     59  C   LIG d   1       5.982  -6.085  -5.819  0.00  0.00     0.033 C 
ATOM     60  H   LIG d   1       5.628  -6.853  -5.131  0.00  0.00     0.034 H 
ATOM     61  H   LIG d   1       6.118  -6.519  -6.809  0.00  0.00     0.034 H 
ATOM     62  H   LIG d   1       6.933  -5.689  -5.463  0.00  0.00     0.034 H 
ENDBRANCH  57  59
ENDBRANCH  56  57
ENDBRANCH  53  56
ENDBRANCH   1  53
BRANCH   3  63
ATOM     63  O   LIG d   1       3.486  -1.532  -7.684  0.00  0.00    -0.455 OA
BRANCH  63  64
ATOM     64  C   LIG d   1       3.279  -2.274  -8.783  0.00  0.00     0.304 C 
ATOM     65  O   LIG d   1       2.288  -2.099  -9.453  0.00  0.00    -0.251 OA
BRANCH  64  66
ATOM     66  C   LIG d   1       4.281  -3.326  -9.182  0.00  0.00     0.033 C 
ATOM     67  H   LIG d   1       3.892  -3.899 -10.023  0.00  0.00     0.034 H 
ATOM     68  H   LIG d   1       5.216  -2.846  -9.472  0.00  0.00     0.034 H 
ATOM     69  H   LIG d   1       4.462  -3.994  -8.339  0.00  0.00     0.034 H 
ENDBRANCH  64  66
ENDBRANCH  63  64
ENDBRANCH   3  63
TORSDOF 18
ENDMDL
MODEL 10
REMARK VINA RESULT:      -5.1      5.416      9.639
REMARK  18 active torsions:
REMARK  status: ('A' for Active; 'I' for Inactive)
REMARK    1  A    between atoms: C_1  and  C_2 
REMARK    2  A    between atoms: C_2  and  O_4 
REMARK    3  A    between atoms: O_4  and  C_5 
REMARK    4  A    between atoms: C_5  and  C_6 
REMARK    5  A    between atoms: C_8  and  O_43 
REMARK    6  A    between atoms: C_10  and  O_39 
REMARK    7  A    between atoms: C_12  and  O_35 
REMARK    8  A    between atoms: C_14  and  N_17 
REMARK    9  A    between atoms: N_20  and  C_25 
REMARK   10  A    between atoms: C_25  and  C_26 
REMARK   11  A    between atoms: C_29  and  O_33 
REMARK   12  A    between atoms: O_33  and  C_34 
REMARK   13  A    between atoms: O_35  and  C_36 
REMARK   14  A    between atoms: C_36  and  C_38 
REMARK   15  A    between atoms: O_39  and  C_40 
REMARK   16  A    between atoms: C_40  and  C_42 
REMARK   17  A    between atoms: O_43  and  C_44 
REMARK   18  A    between atoms: C_44  and  C_46 
ROOT
ATOM      1  C   LIG d   1       4.911  -2.125  -4.979  0.00  0.00     0.136 C 
ATOM      2  H   LIG d   1       5.942  -1.797  -5.114  0.00  0.00     0.067 H 
ATOM      3  C   LIG d   1       3.962  -1.104  -5.612  0.00  0.00     0.172 C 
ATOM      4  H   LIG d   1       2.931  -1.412  -5.441  0.00  0.00     0.080 H 
ATOM      5  C   LIG d   1       4.233  -1.034  -7.118  0.00  0.00     0.183 C 
ATOM      6  H   LIG d   1       5.249  -0.679  -7.290  0.00  0.00     0.081 H 
ATOM      7  C   LIG d   1       4.069  -2.432  -7.722  0.00  0.00     0.190 C 
ATOM      8  H   LIG d   1       3.039  -2.766  -7.593  0.00  0.00     0.082 H 
ATOM      9  C   LIG d   1       5.013  -3.402  -7.006  0.00  0.00     0.197 C 
ATOM     10  H   LIG d   1       6.045  -3.089  -7.169  0.00  0.00     0.089 H 
ATOM     11  O   LIG d   1       4.730  -3.396  -5.606  0.00  0.00    -0.341 OA
ENDROOT
BRANCH   9  12
ATOM     12  N   LIG d   1       4.822  -4.752  -7.539  0.00  0.00    -0.181 N 
ATOM     13  N   LIG d   1       3.619  -5.079  -8.175  0.00  0.00    -0.168 NA
ATOM     14  C   LIG d   1       3.443  -6.278  -8.657  0.00  0.00     0.113 A 
ATOM     15  C   LIG d   1       4.514  -7.268  -8.509  0.00  0.00     0.275 A 
ATOM     16  H   LIG d   1       2.520  -6.539  -9.153  0.00  0.00     0.090 H 
ATOM     17  N   LIG d   1       5.656  -6.914  -7.884  0.00  0.00    -0.254 N 
ATOM     18  O   LIG d   1       4.374  -8.396  -8.944  0.00  0.00    -0.266 OA
ATOM     19  C   LIG d   1       5.802  -5.664  -7.406  0.00  0.00     0.351 A 
ATOM     20  O   LIG d   1       6.835  -5.355  -6.844  0.00  0.00    -0.245 OA
BRANCH  17  21
ATOM     21  C   LIG d   1       6.738  -7.889  -7.727  0.00  0.00     0.056 C 
ATOM     22  H   LIG d   1       6.572  -8.727  -8.404  0.00  0.00     0.054 H 
ATOM     23  H   LIG d   1       7.691  -7.415  -7.961  0.00  0.00     0.054 H 
BRANCH  21  24
ATOM     24  C   LIG d   1       6.761  -8.388  -6.306  0.00  0.00    -0.026 A 
ATOM     25  C   LIG d   1       5.609  -8.899  -5.734  0.00  0.00    -0.039 A 
ATOM     26  C   LIG d   1       5.630  -9.362  -4.432  0.00  0.00     0.060 A 
ATOM     27  H   LIG d   1       4.694  -8.938  -6.307  0.00  0.00     0.063 H 
ATOM     28  C   LIG d   1       6.805  -9.307  -3.696  0.00  0.00     0.134 A 
ATOM     29 BR   LIG d   1       4.058 -10.067  -3.654  0.00  0.00    -0.046 Br
ATOM     30  C   LIG d   1       7.957  -8.789  -4.270  0.00  0.00    -0.018 A 
ATOM     31  C   LIG d   1       7.932  -8.331  -5.572  0.00  0.00    -0.053 A 
ATOM     32  H   LIG d   1       8.872  -8.745  -3.698  0.00  0.00     0.065 H 
ATOM     33  H   LIG d   1       8.829  -7.929  -6.020  0.00  0.00     0.062 H 
BRANCH  28  34
ATOM     34  O   LIG d   1       6.827  -9.757  -2.414  0.00  0.00    -0.494 OA
BRANCH  34  35
ATOM     35  C   LIG d   1       7.546 -10.966  -2.163  0.00  0.00     0.079 C 
ATOM     36  H   LIG d   1       8.333 -11.082  -2.908  0.00  0.00     0.066 H 
ATOM     37  H   LIG d   1       7.990 -10.926  -1.169  0.00  0.00     0.066 H 
ATOM     38  H   LIG d   1       6.863 -11.815  -2.222  0.00  0.00     0.066 H 
ENDBRANCH  34  35
ENDBRANCH  28  34
ENDBRANCH  21  24
ENDBRANCH  17  21
ENDBRANCH   9  12
BRANCH   7  39
ATOM     39  O   LIG d   1       4.387  -2.391  -9.114  0.00  0.00    -0.453 OA
BRANCH  39  40
ATOM     40  C   LIG d   1       3.377  -2.146  -9.962  0.00  0.00     0.304 C 
ATOM     41  O   LIG d   1       2.275  -2.587  -9.734  0.00  0.00    -0.251 OA
BRANCH  40  42
ATOM     42  C   LIG d   1       3.617  -1.320 -11.200  0.00  0.00     0.033 C 
ATOM     43  H   LIG d   1       3.425  -0.270 -10.979  0.00  0.00     0.034 H 
ATOM     44  H   LIG d   1       4.652  -1.440 -11.521  0.00  0.00     0.034 H 
ATOM     45  H   LIG d   1       2.950  -1.654 -11.994  0.00  0.00     0.034 H 
ENDBRANCH  40  42
ENDBRANCH  39  40
ENDBRANCH   7  39
BRANCH   5  46
ATOM     46  O   LIG d   1       3.303  -0.136  -7.728  0.00  0.00    -0.454 OA
BRANCH  46  47
ATOM     47  C   LIG d   1       3.798   1.010  -8.225  0.00  0.00     0.304 C 
ATOM     48  O   LIG d   1       4.990   1.211  -8.205  0.00  0.00    -0.251 OA
BRANCH  47  49
ATOM     49  C   LIG d   1       2.869   2.042  -8.807  0.00  0.00     0.033 C 
ATOM     50  H   LIG d   1       2.370   2.579  -8.000  0.00  0.00     0.034 H 
ATOM     51  H   LIG d   1       3.442   2.746  -9.411  0.00  0.00     0.034 H 
ATOM     52  H   LIG d   1       2.123   1.550  -9.431  0.00  0.00     0.034 H 
ENDBRANCH  47  49
ENDBRANCH  46  47
ENDBRANCH   5  46
BRANCH   1  53
ATOM     53  C   LIG d   1       4.607  -2.245  -3.484  0.00  0.00     0.122 C 
ATOM     54  H   LIG d   1       4.633  -3.295  -3.191  0.00  0.00     0.072 H 
ATOM     55  H   LIG d   1       3.618  -1.836  -3.280  0.00  0.00     0.072 H 
BRANCH  53  56
ATOM     56  O   LIG d   1       5.587  -1.519  -2.738  0.00  0.00    -0.462 OA
BRANCH  56  57
ATOM     57  C   LIG d   1       6.819  -1.442  -3.264  0.00  0.00     0.304 C 
ATOM     58  O   LIG d   1       7.504  -2.433  -3.346  0.00  0.00    -0.251 OA
BRANCH  57  59
ATOM     59  C   LIG d   1       7.348  -0.118  -3.753  0.00  0.00     0.033 C 
ATOM     60  H   LIG d   1       8.285   0.109  -3.245  0.00  0.00     0.034 H 
ATOM     61  H   LIG d   1       7.521  -0.170  -4.828  0.00  0.00     0.034 H 
ATOM     62  H   LIG d   1       6.620   0.665  -3.540  0.00  0.00     0.034 H 
ENDBRANCH  57  59
ENDBRANCH  56  57
ENDBRANCH  53  56
ENDBRANCH   1  53
BRANCH   3  63
ATOM     63  O   LIG d   1       4.182   0.180  -5.025  0.00  0.00    -0.455 OA
BRANCH  63  64
ATOM     64  C   LIG d   1       3.186   0.688  -4.283  0.00  0.00     0.304 C 
ATOM     65  O   LIG d   1       2.044   0.619  -4.674  0.00  0.00    -0.251 OA
BRANCH  64  66
ATOM     66  C   LIG d   1       3.491   1.346  -2.962  0.00  0.00     0.033 C 
ATOM     67  H   LIG d   1       4.059   2.260  -3.133  0.00  0.00     0.034 H 
ATOM     68  H   LIG d   1       2.558   1.588  -2.452  0.00  0.00     0.034 H 
ATOM     69  H   LIG d   1       4.076   0.665  -2.343  0.00  0.00     0.034 H 
ENDBRANCH  64  66
ENDBRANCH  63  64
ENDBRANCH   3  63
TORSDOF 18
ENDMDL
