MODEL 1
REMARK VINA RESULT:      -5.8      0.000      0.000
REMARK  8 active torsions:
REMARK  status: ('A' for Active; 'I' for Inactive)
REMARK    1  A    between atoms: C_1  and  C_2 
REMARK    2  A    between atoms: C_3  and  O_25 
REMARK    3  A    between atoms: C_4  and  C_22 
REMARK    4  A    between atoms: C_7  and  O_8 
REMARK    5  A    between atoms: C_9  and  C_21 
REMARK    6  A    between atoms: C_14  and  C_17 
REMARK    7  A    between atoms: C_17  and  C_19 
REMARK    8  A    between atoms: C_22  and  C_24 
ROOT
ATOM      1  C   LIG d   1       6.322  -5.807  -5.390  0.00  0.00     0.034 A 
ATOM      2  C   LIG d   1       7.668  -5.847  -5.078  0.00  0.00     0.137 A 
ATOM      3  C   LIG d   1       8.332  -4.675  -4.676  0.00  0.00     0.101 A 
ATOM      4  C   LIG d   1       7.619  -3.460  -4.579  0.00  0.00     0.150 A 
ATOM      5  C   LIG d   1       6.275  -3.446  -4.920  0.00  0.00     0.054 A 
ATOM      6  C   LIG d   1       5.628  -4.605  -5.312  0.00  0.00     0.131 A 
ATOM      7  C   LIG d   1       5.845  -2.013  -4.780  0.00  0.00     0.070 C 
ATOM      8  C   LIG d   1       7.003  -1.399  -3.999  0.00  0.00     0.123 C 
ATOM      9  C   LIG d   1       6.873  -0.265  -3.290  0.00  0.00     0.025 C 
ATOM     10  C   LIG d   1       5.599   0.272  -3.035  0.00  0.00     0.192 C 
ATOM     11  O   LIG d   1       5.519   1.308  -2.405  0.00  0.00    -0.287 OA
ATOM     12  C   LIG d   1       4.332  -0.387  -3.511  0.00  0.00     0.053 C 
ATOM     13  C   LIG d   1       4.620  -1.822  -3.920  0.00  0.00    -0.100 C 
ATOM     14  O   LIG d   1       3.918  -2.743  -3.581  0.00  0.00    -0.875 OA
ATOM     15  O   LIG d   1       8.026  -2.234  -4.161  0.00  0.00    -0.458 OA
ATOM     16  H   LIG d   1       7.766   0.249  -2.904  0.00  0.00     0.069 H 
ENDROOT
BRANCH   3  17
ATOM     17  C   LIG d   1       9.758  -4.714  -4.359  0.00  0.00     0.167 C 
ATOM     18  O   LIG d   1      10.574  -4.848  -5.247  0.00  0.00    -0.292 OA
BRANCH  17  19
ATOM     19  C   LIG d   1      10.216  -4.586  -2.929  0.00  0.00    -0.001 C 
ATOM     20  H   LIG d   1       9.525  -5.133  -2.272  0.00  0.00     0.031 H 
ATOM     21  H   LIG d   1      10.232  -3.524  -2.643  0.00  0.00     0.031 H 
ATOM     22  H   LIG d   1      11.228  -5.007  -2.829  0.00  0.00     0.031 H 
ENDBRANCH  17  19
ENDBRANCH   3  17
BRANCH   2  23
ATOM     23  O   LIG d   1       8.348  -7.017  -5.160  0.00  0.00    -0.506 OA
ATOM     24  H   LIG d   1       7.838  -7.927  -5.508  0.00  0.00     0.292 HD
ENDBRANCH   2  23
BRANCH   1  25
ATOM     25  C   LIG d   1       5.608  -7.065  -5.815  0.00  0.00    -0.033 C 
ATOM     26  H   LIG d   1       5.329  -6.988  -6.876  0.00  0.00     0.028 H 
ATOM     27  H   LIG d   1       4.702  -7.195  -5.206  0.00  0.00     0.028 H 
ATOM     28  H   LIG d   1       6.273  -7.929  -5.673  0.00  0.00     0.028 H 
ENDBRANCH   1  25
BRANCH   6  29
ATOM     29  O   LIG d   1       4.307  -4.568  -5.622  0.00  0.00    -0.506 OA
ATOM     30  H   LIG d   1       3.582  -4.172  -4.897  0.00  0.00     0.292 HD
ENDBRANCH   6  29
BRANCH   7  31
ATOM     31  C   LIG d   1       5.684  -1.349  -6.149  0.00  0.00    -0.045 C 
ATOM     32  H   LIG d   1       6.639  -0.894  -6.450  0.00  0.00     0.025 H 
ATOM     33  H   LIG d   1       4.909  -0.571  -6.089  0.00  0.00     0.025 H 
ATOM     34  H   LIG d   1       5.388  -2.105  -6.891  0.00  0.00     0.025 H 
ENDBRANCH   7  31
BRANCH  12  35
ATOM     35  C   LIG d   1       2.868  -0.091  -3.716  0.00  0.00     0.163 C 
ATOM     36  O   LIG d   1       2.057  -0.460  -2.902  0.00  0.00    -0.292 OA
BRANCH  35  37
ATOM     37  C   LIG d   1       2.418   0.665  -4.940  0.00  0.00    -0.001 C 
ATOM     38  H   LIG d   1       2.233  -0.043  -5.761  0.00  0.00     0.031 H 
ATOM     39  H   LIG d   1       3.201   1.377  -5.240  0.00  0.00     0.031 H 
ATOM     40  H   LIG d   1       1.491   1.212  -4.712  0.00  0.00     0.031 H 
ENDBRANCH  35  37
ENDBRANCH  12  35
TORSDOF 8
ENDMDL
MODEL 2
REMARK VINA RESULT:      -5.8      3.436      5.549
REMARK  8 active torsions:
REMARK  status: ('A' for Active; 'I' for Inactive)
REMARK    1  A    between atoms: C_1  and  C_2 
REMARK    2  A    between atoms: C_3  and  O_25 
REMARK    3  A    between atoms: C_4  and  C_22 
REMARK    4  A    between atoms: C_7  and  O_8 
REMARK    5  A    between atoms: C_9  and  C_21 
REMARK    6  A    between atoms: C_14  and  C_17 
REMARK    7  A    between atoms: C_17  and  C_19 
REMARK    8  A    between atoms: C_22  and  C_24 
ROOT
ATOM      1  C   LIG d   1       4.134  -0.122  -9.770  0.00  0.00     0.034 A 
ATOM      2  C   LIG d   1       4.159  -1.433 -10.209  0.00  0.00     0.137 A 
ATOM      3  C   LIG d   1       4.395  -2.477  -9.298  0.00  0.00     0.101 A 
ATOM      4  C   LIG d   1       4.592  -2.185  -7.930  0.00  0.00     0.150 A 
ATOM      5  C   LIG d   1       4.583  -0.860  -7.522  0.00  0.00     0.054 A 
ATOM      6  C   LIG d   1       4.347   0.162  -8.426  0.00  0.00     0.131 A 
ATOM      7  C   LIG d   1       4.890  -0.895  -6.052  0.00  0.00     0.070 C 
ATOM      8  C   LIG d   1       4.696  -2.370  -5.712  0.00  0.00     0.123 C 
ATOM      9  C   LIG d   1       4.452  -2.796  -4.461  0.00  0.00     0.025 C 
ATOM     10  C   LIG d   1       4.121  -1.878  -3.450  0.00  0.00     0.192 C 
ATOM     11  O   LIG d   1       3.924  -2.295  -2.326  0.00  0.00    -0.287 OA
ATOM     12  C   LIG d   1       4.000  -0.399  -3.705  0.00  0.00     0.053 C 
ATOM     13  C   LIG d   1       3.899  -0.142  -5.200  0.00  0.00    -0.100 C 
ATOM     14  O   LIG d   1       3.083   0.613  -5.672  0.00  0.00    -0.875 OA
ATOM     15  O   LIG d   1       4.773  -3.017  -6.873  0.00  0.00    -0.458 OA
ATOM     16  H   LIG d   1       4.511  -3.868  -4.223  0.00  0.00     0.069 H 
ENDROOT
BRANCH   3  17
ATOM     17  C   LIG d   1       4.437  -3.861  -9.764  0.00  0.00     0.167 C 
ATOM     18  O   LIG d   1       5.392  -4.260 -10.397  0.00  0.00    -0.292 OA
BRANCH  17  19
ATOM     19  C   LIG d   1       3.293  -4.793  -9.459  0.00  0.00    -0.001 C 
ATOM     20  H   LIG d   1       2.891  -5.202 -10.397  0.00  0.00     0.031 H 
ATOM     21  H   LIG d   1       2.501  -4.241  -8.931  0.00  0.00     0.031 H 
ATOM     22  H   LIG d   1       3.651  -5.617  -8.824  0.00  0.00     0.031 H 
ENDBRANCH  17  19
ENDBRANCH   3  17
BRANCH   2  23
ATOM     23  O   LIG d   1       3.958  -1.712 -11.521  0.00  0.00    -0.506 OA
ATOM     24  H   LIG d   1       2.974  -2.064 -11.864  0.00  0.00     0.292 HD
ENDBRANCH   2  23
BRANCH   1  25
ATOM     25  C   LIG d   1       3.874   0.996 -10.746  0.00  0.00    -0.033 C 
ATOM     26  H   LIG d   1       2.911   0.827 -11.251  0.00  0.00     0.028 H 
ATOM     27  H   LIG d   1       4.680   1.025 -11.493  0.00  0.00     0.028 H 
ATOM     28  H   LIG d   1       3.841   1.954 -10.206  0.00  0.00     0.028 H 
ENDBRANCH   1  25
BRANCH   6  29
ATOM     29  O   LIG d   1       4.325   1.449  -7.998  0.00  0.00    -0.506 OA
ATOM     30  H   LIG d   1       4.159   1.672  -6.934  0.00  0.00     0.292 HD
ENDBRANCH   6  29
BRANCH   7  31
ATOM     31  C   LIG d   1       6.328  -0.447  -5.778  0.00  0.00    -0.045 C 
ATOM     32  H   LIG d   1       6.623  -0.762  -4.767  0.00  0.00     0.025 H 
ATOM     33  H   LIG d   1       6.390   0.649  -5.854  0.00  0.00     0.025 H 
ATOM     34  H   LIG d   1       7.002  -0.905  -6.516  0.00  0.00     0.025 H 
ENDBRANCH   7  31
BRANCH  12  35
ATOM     35  C   LIG d   1       3.946   0.913  -2.966  0.00  0.00     0.163 C 
ATOM     36  O   LIG d   1       3.417   1.872  -3.475  0.00  0.00    -0.292 OA
BRANCH  35  37
ATOM     37  C   LIG d   1       4.554   1.028  -1.591  0.00  0.00    -0.001 C 
ATOM     38  H   LIG d   1       5.390   1.742  -1.619  0.00  0.00     0.031 H 
ATOM     39  H   LIG d   1       4.923   0.043  -1.270  0.00  0.00     0.031 H 
ATOM     40  H   LIG d   1       3.792   1.384  -0.882  0.00  0.00     0.031 H 
ENDBRANCH  35  37
ENDBRANCH  12  35
TORSDOF 8
ENDMDL
MODEL 3
REMARK VINA RESULT:      -5.7      3.661      6.041
REMARK  8 active torsions:
REMARK  status: ('A' for Active; 'I' for Inactive)
REMARK    1  A    between atoms: C_1  and  C_2 
REMARK    2  A    between atoms: C_3  and  O_25 
REMARK    3  A    between atoms: C_4  and  C_22 
REMARK    4  A    between atoms: C_7  and  O_8 
REMARK    5  A    between atoms: C_9  and  C_21 
REMARK    6  A    between atoms: C_14  and  C_17 
REMARK    7  A    between atoms: C_17  and  C_19 
REMARK    8  A    between atoms: C_22  and  C_24 
ROOT
ATOM      1  C   LIG d   1       5.136  -1.501  -5.821  0.00  0.00     0.034 A 
ATOM      2  C   LIG d   1       4.607  -1.377  -4.549  0.00  0.00     0.137 A 
ATOM      3  C   LIG d   1       5.223  -0.534  -3.609  0.00  0.00     0.101 A 
ATOM      4  C   LIG d   1       6.377   0.197  -3.969  0.00  0.00     0.150 A 
ATOM      5  C   LIG d   1       6.898   0.036  -5.244  0.00  0.00     0.054 A 
ATOM      6  C   LIG d   1       6.282  -0.795  -6.165  0.00  0.00     0.131 A 
ATOM      7  C   LIG d   1       8.140   0.880  -5.275  0.00  0.00     0.070 C 
ATOM      8  C   LIG d   1       7.981   1.742  -4.026  0.00  0.00     0.123 C 
ATOM      9  C   LIG d   1       8.621   2.914  -3.872  0.00  0.00     0.025 C 
ATOM     10  C   LIG d   1       9.274   3.515  -4.962  0.00  0.00     0.192 C 
ATOM     11  O   LIG d   1       9.858   4.566  -4.783  0.00  0.00    -0.287 OA
ATOM     12  C   LIG d   1       9.277   2.910  -6.339  0.00  0.00     0.053 C 
ATOM     13  C   LIG d   1       8.199   1.843  -6.435  0.00  0.00    -0.100 C 
ATOM     14  O   LIG d   1       7.444   1.770  -7.374  0.00  0.00    -0.875 OA
ATOM     15  O   LIG d   1       7.097   1.105  -3.262  0.00  0.00    -0.458 OA
ATOM     16  H   LIG d   1       8.636   3.408  -2.889  0.00  0.00     0.069 H 
ENDROOT
BRANCH   3  17
ATOM     17  C   LIG d   1       4.672  -0.414  -2.261  0.00  0.00     0.167 C 
ATOM     18  O   LIG d   1       4.471  -1.409  -1.597  0.00  0.00    -0.292 OA
BRANCH  17  19
ATOM     19  C   LIG d   1       4.356   0.946  -1.695  0.00  0.00    -0.001 C 
ATOM     20  H   LIG d   1       4.878   1.718  -2.278  0.00  0.00     0.031 H 
ATOM     21  H   LIG d   1       4.687   0.993  -0.646  0.00  0.00     0.031 H 
ATOM     22  H   LIG d   1       3.271   1.121  -1.744  0.00  0.00     0.031 H 
ENDBRANCH  17  19
ENDBRANCH   3  17
BRANCH   2  23
ATOM     23  O   LIG d   1       3.492  -2.070  -4.209  0.00  0.00    -0.506 OA
ATOM     24  H   LIG d   1       2.829  -2.466  -4.993  0.00  0.00     0.292 HD
ENDBRANCH   2  23
BRANCH   1  25
ATOM     25  C   LIG d   1       4.471  -2.400  -6.831  0.00  0.00    -0.033 C 
ATOM     26  H   LIG d   1       3.383  -2.393  -6.668  0.00  0.00     0.028 H 
ATOM     27  H   LIG d   1       4.853  -3.424  -6.717  0.00  0.00     0.028 H 
ATOM     28  H   LIG d   1       4.691  -2.037  -7.845  0.00  0.00     0.028 H 
ENDBRANCH   1  25
BRANCH   6  29
ATOM     29  O   LIG d   1       6.802  -0.920  -7.412  0.00  0.00    -0.506 OA
ATOM     30  H   LIG d   1       6.135  -0.951  -8.286  0.00  0.00     0.292 HD
ENDBRANCH   6  29
BRANCH   7  31
ATOM     31  C   LIG d   1       9.399   0.013  -5.194  0.00  0.00    -0.045 C 
ATOM     32  H   LIG d   1      10.007   0.166  -6.097  0.00  0.00     0.025 H 
ATOM     33  H   LIG d   1       9.109  -1.046  -5.121  0.00  0.00     0.025 H 
ATOM     34  H   LIG d   1       9.982   0.296  -4.306  0.00  0.00     0.025 H 
ENDBRANCH   7  31
BRANCH  12  35
ATOM     35  C   LIG d   1      10.000   3.012  -7.659  0.00  0.00     0.163 C 
ATOM     36  O   LIG d   1      10.768   2.144  -7.996  0.00  0.00    -0.292 OA
BRANCH  35  37
ATOM     37  C   LIG d   1       9.763   4.200  -8.556  0.00  0.00    -0.001 C 
ATOM     38  H   LIG d   1      10.421   5.026  -8.251  0.00  0.00     0.031 H 
ATOM     39  H   LIG d   1       8.713   4.517  -8.475  0.00  0.00     0.031 H 
ATOM     40  H   LIG d   1       9.984   3.921  -9.598  0.00  0.00     0.031 H 
ENDBRANCH  35  37
ENDBRANCH  12  35
TORSDOF 8
ENDMDL
MODEL 4
REMARK VINA RESULT:      -5.6      3.068      5.583
REMARK  8 active torsions:
REMARK  status: ('A' for Active; 'I' for Inactive)
REMARK    1  A    between atoms: C_1  and  C_2 
REMARK    2  A    between atoms: C_3  and  O_25 
REMARK    3  A    between atoms: C_4  and  C_22 
REMARK    4  A    between atoms: C_7  and  O_8 
REMARK    5  A    between atoms: C_9  and  C_21 
REMARK    6  A    between atoms: C_14  and  C_17 
REMARK    7  A    between atoms: C_17  and  C_19 
REMARK    8  A    between atoms: C_22  and  C_24 
ROOT
ATOM      1  C   LIG d   1       7.021  -2.644  -4.693  0.00  0.00     0.034 A 
ATOM      2  C   LIG d   1       6.748  -1.614  -3.812  0.00  0.00     0.137 A 
ATOM      3  C   LIG d   1       5.881  -0.574  -4.190  0.00  0.00     0.101 A 
ATOM      4  C   LIG d   1       5.277  -0.592  -5.467  0.00  0.00     0.150 A 
ATOM      5  C   LIG d   1       5.586  -1.626  -6.338  0.00  0.00     0.054 A 
ATOM      6  C   LIG d   1       6.440  -2.647  -5.955  0.00  0.00     0.131 A 
ATOM      7  C   LIG d   1       4.849  -1.309  -7.607  0.00  0.00     0.070 C 
ATOM      8  C   LIG d   1       3.875  -0.224  -7.159  0.00  0.00     0.123 C 
ATOM      9  C   LIG d   1       2.750   0.060  -7.837  0.00  0.00     0.025 C 
ATOM     10  C   LIG d   1       2.296  -0.799  -8.852  0.00  0.00     0.192 C 
ATOM     11  O   LIG d   1       1.285  -0.504  -9.456  0.00  0.00    -0.287 OA
ATOM     12  C   LIG d   1       3.014  -2.070  -9.220  0.00  0.00     0.053 C 
ATOM     13  C   LIG d   1       3.996  -2.443  -8.121  0.00  0.00    -0.100 C 
ATOM     14  O   LIG d   1       4.087  -3.567  -7.690  0.00  0.00    -0.875 OA
ATOM     15  O   LIG d   1       4.374   0.256  -6.022  0.00  0.00    -0.458 OA
ATOM     16  H   LIG d   1       2.177   0.968  -7.597  0.00  0.00     0.069 H 
ENDROOT
BRANCH   3  17
ATOM     17  C   LIG d   1       5.604   0.522  -3.265  0.00  0.00     0.167 C 
ATOM     18  O   LIG d   1       6.414   1.413  -3.120  0.00  0.00    -0.292 OA
BRANCH  17  19
ATOM     19  C   LIG d   1       4.312   0.546  -2.490  0.00  0.00    -0.001 C 
ATOM     20  H   LIG d   1       3.574  -0.100  -2.987  0.00  0.00     0.031 H 
ATOM     21  H   LIG d   1       3.928   1.577  -2.450  0.00  0.00     0.031 H 
ATOM     22  H   LIG d   1       4.490   0.181  -1.468  0.00  0.00     0.031 H 
ENDBRANCH  17  19
ENDBRANCH   3  17
BRANCH   2  23
ATOM     23  O   LIG d   1       7.319  -1.605  -2.582  0.00  0.00    -0.506 OA
ATOM     24  H   LIG d   1       7.946  -0.756  -2.272  0.00  0.00     0.292 HD
ENDBRANCH   2  23
BRANCH   1  25
ATOM     25  C   LIG d   1       7.945  -3.762  -4.284  0.00  0.00    -0.033 C 
ATOM     26  H   LIG d   1       8.896  -3.339  -3.925  0.00  0.00     0.028 H 
ATOM     27  H   LIG d   1       8.137  -4.413  -5.149  0.00  0.00     0.028 H 
ATOM     28  H   LIG d   1       7.479  -4.348  -3.479  0.00  0.00     0.028 H 
ENDBRANCH   1  25
BRANCH   6  29
ATOM     29  O   LIG d   1       6.711  -3.658  -6.819  0.00  0.00    -0.506 OA
ATOM     30  H   LIG d   1       5.943  -3.995  -7.530  0.00  0.00     0.292 HD
ENDBRANCH   6  29
BRANCH   7  31
ATOM     31  C   LIG d   1       5.804  -0.788  -8.684  0.00  0.00    -0.045 C 
ATOM     32  H   LIG d   1       5.255  -0.133  -9.375  0.00  0.00     0.025 H 
ATOM     33  H   LIG d   1       6.227  -1.638  -9.241  0.00  0.00     0.025 H 
ATOM     34  H   LIG d   1       6.618  -0.220  -8.209  0.00  0.00     0.025 H 
ENDBRANCH   7  31
BRANCH  12  35
ATOM     35  C   LIG d   1       3.081  -3.098 -10.321  0.00  0.00     0.163 C 
ATOM     36  O   LIG d   1       2.166  -3.868 -10.484  0.00  0.00    -0.292 OA
BRANCH  35  37
ATOM     37  C   LIG d   1       4.292  -3.163 -11.217  0.00  0.00    -0.001 C 
ATOM     38  H   LIG d   1       3.973  -3.373 -12.248  0.00  0.00     0.031 H 
ATOM     39  H   LIG d   1       4.962  -3.963 -10.869  0.00  0.00     0.031 H 
ATOM     40  H   LIG d   1       4.822  -2.199 -11.186  0.00  0.00     0.031 H 
ENDBRANCH  35  37
ENDBRANCH  12  35
TORSDOF 8
ENDMDL
MODEL 5
REMARK VINA RESULT:      -5.3      1.912      3.476
REMARK  8 active torsions:
REMARK  status: ('A' for Active; 'I' for Inactive)
REMARK    1  A    between atoms: C_1  and  C_2 
REMARK    2  A    between atoms: C_3  and  O_25 
REMARK    3  A    between atoms: C_4  and  C_22 
REMARK    4  A    between atoms: C_7  and  O_8 
REMARK    5  A    between atoms: C_9  and  C_21 
REMARK    6  A    between atoms: C_14  and  C_17 
REMARK    7  A    between atoms: C_17  and  C_19 
REMARK    8  A    between atoms: C_22  and  C_24 
ROOT
ATOM      1  C   LIG d   1       9.113  -3.878  -4.354  0.00  0.00     0.034 A 
ATOM      2  C   LIG d   1       9.100  -4.480  -5.599  0.00  0.00     0.137 A 
ATOM      3  C   LIG d   1       8.001  -4.298  -6.457  0.00  0.00     0.101 A 
ATOM      4  C   LIG d   1       6.918  -3.488  -6.050  0.00  0.00     0.150 A 
ATOM      5  C   LIG d   1       6.949  -2.916  -4.787  0.00  0.00     0.054 A 
ATOM      6  C   LIG d   1       8.036  -3.098  -3.950  0.00  0.00     0.131 A 
ATOM      7  C   LIG d   1       5.639  -2.195  -4.646  0.00  0.00     0.070 C 
ATOM      8  C   LIG d   1       5.123  -2.168  -6.082  0.00  0.00     0.123 C 
ATOM      9  C   LIG d   1       4.209  -1.277  -6.504  0.00  0.00     0.025 C 
ATOM     10  C   LIG d   1       3.872  -0.172  -5.703  0.00  0.00     0.192 C 
ATOM     11  O   LIG d   1       3.030   0.604  -6.107  0.00  0.00    -0.287 OA
ATOM     12  C   LIG d   1       4.514   0.086  -4.366  0.00  0.00     0.053 C 
ATOM     13  C   LIG d   1       5.775  -0.751  -4.231  0.00  0.00    -0.100 C 
ATOM     14  O   LIG d   1       6.813  -0.292  -3.818  0.00  0.00    -0.875 OA
ATOM     15  O   LIG d   1       5.795  -3.123  -6.720  0.00  0.00    -0.458 OA
ATOM     16  H   LIG d   1       3.722  -1.410  -7.481  0.00  0.00     0.069 H 
ENDROOT
BRANCH   3  17
ATOM     17  C   LIG d   1       7.980  -4.944  -7.767  0.00  0.00     0.167 C 
ATOM     18  O   LIG d   1       7.785  -6.139  -7.851  0.00  0.00    -0.292 OA
BRANCH  17  19
ATOM     19  C   LIG d   1       8.200  -4.128  -9.014  0.00  0.00    -0.001 C 
ATOM     20  H   LIG d   1       8.643  -4.762  -9.795  0.00  0.00     0.031 H 
ATOM     21  H   LIG d   1       8.881  -3.293  -8.790  0.00  0.00     0.031 H 
ATOM     22  H   LIG d   1       7.237  -3.730  -9.367  0.00  0.00     0.031 H 
ENDBRANCH  17  19
ENDBRANCH   3  17
BRANCH   2  23
ATOM     23  O   LIG d   1      10.146  -5.246  -5.992  0.00  0.00    -0.506 OA
ATOM     24  H   LIG d   1      10.893  -5.578  -5.256  0.00  0.00     0.292 HD
ENDBRANCH   2  23
BRANCH   1  25
ATOM     25  C   LIG d   1      10.294  -4.068  -3.437  0.00  0.00    -0.033 C 
ATOM     26  H   LIG d   1      11.191  -4.287  -4.035  0.00  0.00     0.028 H 
ATOM     27  H   LIG d   1      10.096  -4.906  -2.753  0.00  0.00     0.028 H 
ATOM     28  H   LIG d   1      10.457  -3.150  -2.854  0.00  0.00     0.028 H 
ENDBRANCH   1  25
BRANCH   6  29
ATOM     29  O   LIG d   1       8.050  -2.512  -2.726  0.00  0.00    -0.506 OA
ATOM     30  H   LIG d   1       7.187  -1.919  -2.390  0.00  0.00     0.292 HD
ENDBRANCH   6  29
BRANCH   7  31
ATOM     31  C   LIG d   1       4.684  -2.960  -3.727  0.00  0.00    -0.045 C 
ATOM     32  H   LIG d   1       3.646  -2.757  -4.027  0.00  0.00     0.025 H 
ATOM     33  H   LIG d   1       4.837  -2.634  -2.687  0.00  0.00     0.025 H 
ATOM     34  H   LIG d   1       4.884  -4.039  -3.806  0.00  0.00     0.025 H 
ENDBRANCH   7  31
BRANCH  12  35
ATOM     35  C   LIG d   1       4.316   0.902  -3.114  0.00  0.00     0.163 C 
ATOM     36  O   LIG d   1       4.067   2.081  -3.195  0.00  0.00    -0.292 OA
BRANCH  35  37
ATOM     37  C   LIG d   1       4.432   0.247  -1.762  0.00  0.00    -0.001 C 
ATOM     38  H   LIG d   1       5.422  -0.220  -1.665  0.00  0.00     0.031 H 
ATOM     39  H   LIG d   1       3.652  -0.522  -1.660  0.00  0.00     0.031 H 
ATOM     40  H   LIG d   1       4.305   1.005  -0.975  0.00  0.00     0.031 H 
ENDBRANCH  35  37
ENDBRANCH  12  35
TORSDOF 8
ENDMDL
MODEL 6
REMARK VINA RESULT:      -5.2     11.855     14.721
REMARK  8 active torsions:
REMARK  status: ('A' for Active; 'I' for Inactive)
REMARK    1  A    between atoms: C_1  and  C_2 
REMARK    2  A    between atoms: C_3  and  O_25 
REMARK    3  A    between atoms: C_4  and  C_22 
REMARK    4  A    between atoms: C_7  and  O_8 
REMARK    5  A    between atoms: C_9  and  C_21 
REMARK    6  A    between atoms: C_14  and  C_17 
REMARK    7  A    between atoms: C_17  and  C_19 
REMARK    8  A    between atoms: C_22  and  C_24 
ROOT
ATOM      1  C   LIG d   1       9.630   9.990  -5.160  0.00  0.00     0.034 A 
ATOM      2  C   LIG d   1       9.480  11.363  -5.092  0.00  0.00     0.137 A 
ATOM      3  C   LIG d   1       9.567  12.021  -3.853  0.00  0.00     0.101 A 
ATOM      4  C   LIG d   1       9.823  11.278  -2.679  0.00  0.00     0.150 A 
ATOM      5  C   LIG d   1       9.948   9.900  -2.774  0.00  0.00     0.054 A 
ATOM      6  C   LIG d   1       9.863   9.261  -3.999  0.00  0.00     0.131 A 
ATOM      7  C   LIG d   1      10.136   9.421  -1.363  0.00  0.00     0.070 C 
ATOM      8  C   LIG d   1      10.450  10.714  -0.617  0.00  0.00     0.123 C 
ATOM      9  C   LIG d   1      11.093  10.728   0.563  0.00  0.00     0.025 C 
ATOM     10  C   LIG d   1      11.724   9.568   1.042  0.00  0.00     0.192 C 
ATOM     11  O   LIG d   1      12.282   9.610   2.121  0.00  0.00    -0.287 OA
ATOM     12  C   LIG d   1      11.736   8.275   0.271  0.00  0.00     0.053 C 
ATOM     13  C   LIG d   1      11.342   8.533  -1.173  0.00  0.00    -0.100 C 
ATOM     14  O   LIG d   1      11.949   8.061  -2.103  0.00  0.00    -0.875 OA
ATOM     15  O   LIG d   1      10.007  11.695  -1.400  0.00  0.00    -0.458 OA
ATOM     16  H   LIG d   1      11.128  11.652   1.160  0.00  0.00     0.069 H 
ENDROOT
BRANCH   3  17
ATOM     17  C   LIG d   1       9.394  13.469  -3.780  0.00  0.00     0.167 C 
ATOM     18  O   LIG d   1      10.224  14.206  -4.270  0.00  0.00    -0.292 OA
BRANCH  17  19
ATOM     19  C   LIG d   1       8.182  14.050  -3.097  0.00  0.00    -0.001 C 
ATOM     20  H   LIG d   1       8.502  14.683  -2.257  0.00  0.00     0.031 H 
ATOM     21  H   LIG d   1       7.548  13.233  -2.719  0.00  0.00     0.031 H 
ATOM     22  H   LIG d   1       7.610  14.655  -3.816  0.00  0.00     0.031 H 
ENDBRANCH  17  19
ENDBRANCH   3  17
BRANCH   2  23
ATOM     23  O   LIG d   1       9.246  12.075  -6.222  0.00  0.00    -0.506 OA
ATOM     24  H   LIG d   1      10.036  12.179  -6.980  0.00  0.00     0.292 HD
ENDBRANCH   2  23
BRANCH   1  25
ATOM     25  C   LIG d   1       9.543   9.285  -6.489  0.00  0.00    -0.033 C 
ATOM     26  H   LIG d   1       9.196   8.252  -6.335  0.00  0.00     0.028 H 
ATOM     27  H   LIG d   1      10.535   9.273  -6.963  0.00  0.00     0.028 H 
ATOM     28  H   LIG d   1       8.833   9.816  -7.139  0.00  0.00     0.028 H 
ENDBRANCH   1  25
BRANCH   6  29
ATOM     29  O   LIG d   1      10.007   7.913  -4.067  0.00  0.00    -0.506 OA
ATOM     30  H   LIG d   1       9.286   7.256  -3.560  0.00  0.00     0.292 HD
ENDBRANCH   6  29
BRANCH   7  31
ATOM     31  C   LIG d   1       8.861   8.766  -0.828  0.00  0.00    -0.045 C 
ATOM     32  H   LIG d   1       8.482   8.045  -1.566  0.00  0.00     0.025 H 
ATOM     33  H   LIG d   1       8.100   9.540  -0.647  0.00  0.00     0.025 H 
ATOM     34  H   LIG d   1       9.085   8.244   0.114  0.00  0.00     0.025 H 
ENDBRANCH   7  31
BRANCH  12  35
ATOM     35  C   LIG d   1      12.011   6.805   0.461  0.00  0.00     0.163 C 
ATOM     36  O   LIG d   1      13.083   6.345   0.147  0.00  0.00    -0.292 OA
BRANCH  35  37
ATOM     37  C   LIG d   1      10.947   5.908   1.040  0.00  0.00    -0.001 C 
ATOM     38  H   LIG d   1      11.408   4.979   1.405  0.00  0.00     0.031 H 
ATOM     39  H   LIG d   1      10.206   5.669   0.262  0.00  0.00     0.031 H 
ATOM     40  H   LIG d   1      10.449   6.423   1.875  0.00  0.00     0.031 H 
ENDBRANCH  35  37
ENDBRANCH  12  35
TORSDOF 8
ENDMDL
MODEL 7
REMARK VINA RESULT:      -5.2      8.846     11.817
REMARK  8 active torsions:
REMARK  status: ('A' for Active; 'I' for Inactive)
REMARK    1  A    between atoms: C_1  and  C_2 
REMARK    2  A    between atoms: C_3  and  O_25 
REMARK    3  A    between atoms: C_4  and  C_22 
REMARK    4  A    between atoms: C_7  and  O_8 
REMARK    5  A    between atoms: C_9  and  C_21 
REMARK    6  A    between atoms: C_14  and  C_17 
REMARK    7  A    between atoms: C_17  and  C_19 
REMARK    8  A    between atoms: C_22  and  C_24 
ROOT
ATOM      1  C   LIG d   1       9.831   6.801  -4.765  0.00  0.00     0.034 A 
ATOM      2  C   LIG d   1       9.667   5.437  -4.605  0.00  0.00     0.137 A 
ATOM      3  C   LIG d   1      10.067   4.816  -3.409  0.00  0.00     0.101 A 
ATOM      4  C   LIG d   1      10.624   5.588  -2.367  0.00  0.00     0.150 A 
ATOM      5  C   LIG d   1      10.797   6.950  -2.564  0.00  0.00     0.054 A 
ATOM      6  C   LIG d   1      10.397   7.555  -3.743  0.00  0.00     0.131 A 
ATOM      7  C   LIG d   1      11.467   7.450  -1.316  0.00  0.00     0.070 C 
ATOM      8  C   LIG d   1      11.281   6.281  -0.353  0.00  0.00     0.123 C 
ATOM      9  C   LIG d   1      11.342   6.429   0.981  0.00  0.00     0.025 C 
ATOM     10  C   LIG d   1      11.334   7.711   1.555  0.00  0.00     0.192 C 
ATOM     11  O   LIG d   1      11.407   7.809   2.764  0.00  0.00    -0.287 OA
ATOM     12  C   LIG d   1      11.238   8.967   0.731  0.00  0.00     0.053 C 
ATOM     13  C   LIG d   1      10.773   8.626  -0.675  0.00  0.00    -0.100 C 
ATOM     14  O   LIG d   1       9.909   9.252  -1.240  0.00  0.00    -0.875 OA
ATOM     15  O   LIG d   1      11.021   5.224  -1.120  0.00  0.00    -0.458 OA
ATOM     16  H   LIG d   1      11.397   5.543   1.631  0.00  0.00     0.069 H 
ENDROOT
BRANCH   3  17
ATOM     17  C   LIG d   1       9.907   3.373  -3.246  0.00  0.00     0.167 C 
ATOM     18  O   LIG d   1       8.796   2.889  -3.180  0.00  0.00    -0.292 OA
BRANCH  17  19
ATOM     19  C   LIG d   1      11.121   2.484  -3.161  0.00  0.00    -0.001 C 
ATOM     20  H   LIG d   1      11.371   2.304  -2.105  0.00  0.00     0.031 H 
ATOM     21  H   LIG d   1      11.970   2.976  -3.660  0.00  0.00     0.031 H 
ATOM     22  H   LIG d   1      10.910   1.525  -3.656  0.00  0.00     0.031 H 
ENDBRANCH  17  19
ENDBRANCH   3  17
BRANCH   2  23
ATOM     23  O   LIG d   1       9.121   4.699  -5.602  0.00  0.00    -0.506 OA
ATOM     24  H   LIG d   1       8.762   3.679  -5.400  0.00  0.00     0.292 HD
ENDBRANCH   2  23
BRANCH   1  25
ATOM     25  C   LIG d   1       9.396   7.469  -6.044  0.00  0.00    -0.033 C 
ATOM     26  H   LIG d   1      10.251   7.533  -6.734  0.00  0.00     0.028 H 
ATOM     27  H   LIG d   1       9.027   8.480  -5.822  0.00  0.00     0.028 H 
ATOM     28  H   LIG d   1       8.593   6.880  -6.510  0.00  0.00     0.028 H 
ENDBRANCH   1  25
BRANCH   6  29
ATOM     29  O   LIG d   1      10.560   8.893  -3.904  0.00  0.00    -0.506 OA
ATOM     30  H   LIG d   1      10.747   9.308  -4.904  0.00  0.00     0.292 HD
ENDBRANCH   6  29
BRANCH   7  31
ATOM     31  C   LIG d   1      12.951   7.734  -1.563  0.00  0.00    -0.045 C 
ATOM     32  H   LIG d   1      13.393   8.180  -0.660  0.00  0.00     0.025 H 
ATOM     33  H   LIG d   1      13.053   8.434  -2.406  0.00  0.00     0.025 H 
ATOM     34  H   LIG d   1      13.470   6.795  -1.801  0.00  0.00     0.025 H 
ENDBRANCH   7  31
BRANCH  12  35
ATOM     35  C   LIG d   1      11.451  10.456   0.841  0.00  0.00     0.163 C 
ATOM     36  O   LIG d   1      10.706  11.125   1.515  0.00  0.00    -0.292 OA
BRANCH  35  37
ATOM     37  C   LIG d   1      12.595  11.108   0.107  0.00  0.00    -0.001 C 
ATOM     38  H   LIG d   1      13.540  10.875   0.620  0.00  0.00     0.031 H 
ATOM     39  H   LIG d   1      12.445  12.198   0.089  0.00  0.00     0.031 H 
ATOM     40  H   LIG d   1      12.634  10.726  -0.924  0.00  0.00     0.031 H 
ENDBRANCH  35  37
ENDBRANCH  12  35
TORSDOF 8
ENDMDL
MODEL 8
REMARK VINA RESULT:      -5.1      6.035      7.909
REMARK  8 active torsions:
REMARK  status: ('A' for Active; 'I' for Inactive)
REMARK    1  A    between atoms: C_1  and  C_2 
REMARK    2  A    between atoms: C_3  and  O_25 
REMARK    3  A    between atoms: C_4  and  C_22 
REMARK    4  A    between atoms: C_7  and  O_8 
REMARK    5  A    between atoms: C_9  and  C_21 
REMARK    6  A    between atoms: C_14  and  C_17 
REMARK    7  A    between atoms: C_17  and  C_19 
REMARK    8  A    between atoms: C_22  and  C_24 
ROOT
ATOM      1  C   LIG d   1       1.627  -1.835 -12.307  0.00  0.00     0.034 A 
ATOM      2  C   LIG d   1       2.508  -1.597 -13.346  0.00  0.00     0.137 A 
ATOM      3  C   LIG d   1       3.673  -0.844 -13.123  0.00  0.00     0.101 A 
ATOM      4  C   LIG d   1       3.951  -0.343 -11.833  0.00  0.00     0.150 A 
ATOM      5  C   LIG d   1       3.039  -0.578 -10.814  0.00  0.00     0.054 A 
ATOM      6  C   LIG d   1       1.895  -1.323 -11.042  0.00  0.00     0.131 A 
ATOM      7  C   LIG d   1       3.589   0.140  -9.615  0.00  0.00     0.070 C 
ATOM      8  C   LIG d   1       5.022   0.444 -10.044  0.00  0.00     0.123 C 
ATOM      9  C   LIG d   1       6.002   0.693  -9.159  0.00  0.00     0.025 C 
ATOM     10  C   LIG d   1       5.805   0.441  -7.791  0.00  0.00     0.192 C 
ATOM     11  O   LIG d   1       6.705   0.695  -7.016  0.00  0.00    -0.287 OA
ATOM     12  C   LIG d   1       4.522  -0.129  -7.248  0.00  0.00     0.053 C 
ATOM     13  C   LIG d   1       3.702  -0.722  -8.383  0.00  0.00    -0.100 C 
ATOM     14  O   LIG d   1       3.178  -1.806  -8.302  0.00  0.00    -0.875 OA
ATOM     15  O   LIG d   1       5.026   0.347 -11.372  0.00  0.00    -0.458 OA
ATOM     16  H   LIG d   1       6.966   1.096  -9.504  0.00  0.00     0.069 H 
ENDROOT
BRANCH   3  17
ATOM     17  C   LIG d   1       4.596  -0.581 -14.225  0.00  0.00     0.167 C 
ATOM     18  O   LIG d   1       4.232   0.075 -15.179  0.00  0.00    -0.292 OA
BRANCH  17  19
ATOM     19  C   LIG d   1       6.002  -1.122 -14.176  0.00  0.00    -0.001 C 
ATOM     20  H   LIG d   1       6.029  -2.018 -13.539  0.00  0.00     0.031 H 
ATOM     21  H   LIG d   1       6.675  -0.357 -13.761  0.00  0.00     0.031 H 
ATOM     22  H   LIG d   1       6.329  -1.385 -15.193  0.00  0.00     0.031 H 
ENDBRANCH  17  19
ENDBRANCH   3  17
BRANCH   2  23
ATOM     23  O   LIG d   1       2.245  -2.090 -14.582  0.00  0.00    -0.506 OA
ATOM     24  H   LIG d   1       3.036  -2.107 -15.346  0.00  0.00     0.292 HD
ENDBRANCH   2  23
BRANCH   1  25
ATOM     25  C   LIG d   1       0.381  -2.648 -12.544  0.00  0.00    -0.033 C 
ATOM     26  H   LIG d   1       0.660  -3.674 -12.825  0.00  0.00     0.028 H 
ATOM     27  H   LIG d   1      -0.205  -2.192 -13.355  0.00  0.00     0.028 H 
ATOM     28  H   LIG d   1      -0.222  -2.672 -11.624  0.00  0.00     0.028 H 
ENDBRANCH   1  25
BRANCH   6  29
ATOM     29  O   LIG d   1       1.028  -1.555 -10.024  0.00  0.00    -0.506 OA
ATOM     30  H   LIG d   1       0.193  -0.863  -9.845  0.00  0.00     0.292 HD
ENDBRANCH   6  29
BRANCH   7  31
ATOM     31  C   LIG d   1       2.809   1.427  -9.337  0.00  0.00    -0.045 C 
ATOM     32  H   LIG d   1       3.241   2.251  -9.921  0.00  0.00     0.025 H 
ATOM     33  H   LIG d   1       2.869   1.666  -8.264  0.00  0.00     0.025 H 
ATOM     34  H   LIG d   1       1.756   1.286  -9.623  0.00  0.00     0.025 H 
ENDBRANCH   7  31
BRANCH  12  35
ATOM     35  C   LIG d   1       3.780  -0.306  -5.948  0.00  0.00     0.163 C 
ATOM     36  O   LIG d   1       4.179  -1.097  -5.127  0.00  0.00    -0.292 OA
BRANCH  35  37
ATOM     37  C   LIG d   1       2.538   0.503  -5.673  0.00  0.00    -0.001 C 
ATOM     38  H   LIG d   1       1.731   0.176  -6.346  0.00  0.00     0.031 H 
ATOM     39  H   LIG d   1       2.750   1.569  -5.845  0.00  0.00     0.031 H 
ATOM     40  H   LIG d   1       2.227   0.354  -4.629  0.00  0.00     0.031 H 
ENDBRANCH  35  37
ENDBRANCH  12  35
TORSDOF 8
ENDMDL
MODEL 9
REMARK VINA RESULT:      -5.1      8.219     11.323
REMARK  8 active torsions:
REMARK  status: ('A' for Active; 'I' for Inactive)
REMARK    1  A    between atoms: C_1  and  C_2 
REMARK    2  A    between atoms: C_3  and  O_25 
REMARK    3  A    between atoms: C_4  and  C_22 
REMARK    4  A    between atoms: C_7  and  O_8 
REMARK    5  A    between atoms: C_9  and  C_21 
REMARK    6  A    between atoms: C_14  and  C_17 
REMARK    7  A    between atoms: C_17  and  C_19 
REMARK    8  A    between atoms: C_22  and  C_24 
ROOT
ATOM      1  C   LIG d   1      10.118   8.729  -7.627  0.00  0.00     0.034 A 
ATOM      2  C   LIG d   1       9.632   8.004  -8.700  0.00  0.00     0.137 A 
ATOM      3  C   LIG d   1       9.496   6.609  -8.603  0.00  0.00     0.101 A 
ATOM      4  C   LIG d   1       9.843   5.950  -7.403  0.00  0.00     0.150 A 
ATOM      5  C   LIG d   1      10.349   6.699  -6.351  0.00  0.00     0.054 A 
ATOM      6  C   LIG d   1      10.477   8.074  -6.455  0.00  0.00     0.131 A 
ATOM      7  C   LIG d   1      10.680   5.703  -5.278  0.00  0.00     0.070 C 
ATOM      8  C   LIG d   1       9.961   4.447  -5.762  0.00  0.00     0.123 C 
ATOM      9  C   LIG d   1       9.627   3.443  -4.934  0.00  0.00     0.025 C 
ATOM     10  C   LIG d   1       9.705   3.614  -3.541  0.00  0.00     0.192 C 
ATOM     11  O   LIG d   1       9.413   2.680  -2.822  0.00  0.00    -0.287 OA
ATOM     12  C   LIG d   1      10.138   4.909  -2.907  0.00  0.00     0.053 C 
ATOM     13  C   LIG d   1      10.080   6.029  -3.932  0.00  0.00    -0.100 C 
ATOM     14  O   LIG d   1       9.589   7.104  -3.687  0.00  0.00    -0.875 OA
ATOM     15  O   LIG d   1       9.742   4.640  -7.061  0.00  0.00    -0.458 OA
ATOM     16  H   LIG d   1       9.288   2.480  -5.345  0.00  0.00     0.069 H 
ENDROOT
BRANCH   3  17
ATOM     17  C   LIG d   1       8.996   5.842  -9.741  0.00  0.00     0.167 C 
ATOM     18  O   LIG d   1       7.807   5.822  -9.985  0.00  0.00    -0.292 OA
BRANCH  17  19
ATOM     19  C   LIG d   1       9.956   5.076 -10.615  0.00  0.00    -0.001 C 
ATOM     20  H   LIG d   1      10.560   5.782 -11.202  0.00  0.00     0.031 H 
ATOM     21  H   LIG d   1       9.390   4.422 -11.295  0.00  0.00     0.031 H 
ATOM     22  H   LIG d   1      10.617   4.463  -9.984  0.00  0.00     0.031 H 
ENDBRANCH  17  19
ENDBRANCH   3  17
BRANCH   2  23
ATOM     23  O   LIG d   1       9.288   8.641  -9.846  0.00  0.00    -0.506 OA
ATOM     24  H   LIG d   1       8.686   8.120 -10.605  0.00  0.00     0.292 HD
ENDBRANCH   2  23
BRANCH   1  25
ATOM     25  C   LIG d   1      10.258  10.226  -7.728  0.00  0.00    -0.033 C 
ATOM     26  H   LIG d   1       9.938  10.689  -6.783  0.00  0.00     0.028 H 
ATOM     27  H   LIG d   1       9.630  10.598  -8.550  0.00  0.00     0.028 H 
ATOM     28  H   LIG d   1      11.309  10.483  -7.924  0.00  0.00     0.028 H 
ENDBRANCH   1  25
BRANCH   6  29
ATOM     29  O   LIG d   1      10.957   8.786  -5.404  0.00  0.00    -0.506 OA
ATOM     30  H   LIG d   1      11.881   8.468  -4.900  0.00  0.00     0.292 HD
ENDBRANCH   6  29
BRANCH   7  31
ATOM     31  C   LIG d   1      12.191   5.475  -5.183  0.00  0.00    -0.045 C 
ATOM     32  H   LIG d   1      12.695   6.024  -5.991  0.00  0.00     0.025 H 
ATOM     33  H   LIG d   1      12.406   4.400  -5.279  0.00  0.00     0.025 H 
ATOM     34  H   LIG d   1      12.556   5.837  -4.211  0.00  0.00     0.025 H 
ENDBRANCH   7  31
BRANCH  12  35
ATOM     35  C   LIG d   1      10.611   5.462  -1.586  0.00  0.00     0.163 C 
ATOM     36  O   LIG d   1       9.833   6.023  -0.854  0.00  0.00    -0.292 OA
BRANCH  35  37
ATOM     37  C   LIG d   1      12.056   5.314  -1.183  0.00  0.00    -0.001 C 
ATOM     38  H   LIG d   1      12.231   5.859  -0.244  0.00  0.00     0.031 H 
ATOM     39  H   LIG d   1      12.701   5.726  -1.973  0.00  0.00     0.031 H 
ATOM     40  H   LIG d   1      12.288   4.248  -1.038  0.00  0.00     0.031 H 
ENDBRANCH  35  37
ENDBRANCH  12  35
TORSDOF 8
ENDMDL
MODEL 10
REMARK VINA RESULT:      -5.0      9.135     11.919
REMARK  8 active torsions:
REMARK  status: ('A' for Active; 'I' for Inactive)
REMARK    1  A    between atoms: C_1  and  C_2 
REMARK    2  A    between atoms: C_3  and  O_25 
REMARK    3  A    between atoms: C_4  and  C_22 
REMARK    4  A    between atoms: C_7  and  O_8 
REMARK    5  A    between atoms: C_9  and  C_21 
REMARK    6  A    between atoms: C_14  and  C_17 
REMARK    7  A    between atoms: C_17  and  C_19 
REMARK    8  A    between atoms: C_22  and  C_24 
ROOT
ATOM      1  C   LIG d   1      14.372   4.785  -1.885  0.00  0.00     0.034 A 
ATOM      2  C   LIG d   1      13.637   4.059  -2.805  0.00  0.00     0.137 A 
ATOM      3  C   LIG d   1      12.251   4.263  -2.917  0.00  0.00     0.101 A 
ATOM      4  C   LIG d   1      11.612   5.220  -2.099  0.00  0.00     0.150 A 
ATOM      5  C   LIG d   1      12.369   5.917  -1.170  0.00  0.00     0.054 A 
ATOM      6  C   LIG d   1      13.735   5.712  -1.068  0.00  0.00     0.131 A 
ATOM      7  C   LIG d   1      11.391   6.782  -0.428  0.00  0.00     0.070 C 
ATOM      8  C   LIG d   1      10.151   6.709  -1.315  0.00  0.00     0.123 C 
ATOM      9  C   LIG d   1       9.183   7.641  -1.279  0.00  0.00     0.025 C 
ATOM     10  C   LIG d   1       9.389   8.853  -0.600  0.00  0.00     0.192 C 
ATOM     11  O   LIG d   1       8.486   9.666  -0.573  0.00  0.00    -0.287 OA
ATOM     12  C   LIG d   1      10.683   9.184   0.094  0.00  0.00     0.053 C 
ATOM     13  C   LIG d   1      11.776   8.240  -0.378  0.00  0.00    -0.100 C 
ATOM     14  O   LIG d   1      12.876   8.629  -0.689  0.00  0.00    -0.875 OA
ATOM     15  O   LIG d   1      10.316   5.626  -2.071  0.00  0.00    -0.458 OA
ATOM     16  H   LIG d   1       8.223   7.456  -1.784  0.00  0.00     0.069 H 
ENDROOT
BRANCH   3  17
ATOM     17  C   LIG d   1      11.473   3.486  -3.879  0.00  0.00     0.167 C 
ATOM     18  O   LIG d   1      11.599   3.690  -5.068  0.00  0.00    -0.292 OA
BRANCH  17  19
ATOM     19  C   LIG d   1      10.514   2.429  -3.395  0.00  0.00    -0.001 C 
ATOM     20  H   LIG d   1      10.005   1.972  -4.256  0.00  0.00     0.031 H 
ATOM     21  H   LIG d   1       9.768   2.888  -2.729  0.00  0.00     0.031 H 
ATOM     22  H   LIG d   1      11.069   1.655  -2.844  0.00  0.00     0.031 H 
ENDBRANCH  17  19
ENDBRANCH   3  17
BRANCH   2  23
ATOM     23  O   LIG d   1      14.255   3.150  -3.598  0.00  0.00    -0.506 OA
ATOM     24  H   LIG d   1      15.289   3.323  -3.932  0.00  0.00     0.292 HD
ENDBRANCH   2  23
BRANCH   1  25
ATOM     25  C   LIG d   1      15.859   4.572  -1.769  0.00  0.00    -0.033 C 
ATOM     26  H   LIG d   1      16.062   3.818  -0.993  0.00  0.00     0.028 H 
ATOM     27  H   LIG d   1      16.344   5.519  -1.496  0.00  0.00     0.028 H 
ATOM     28  H   LIG d   1      16.255   4.220  -2.733  0.00  0.00     0.028 H 
ENDBRANCH   1  25
BRANCH   6  29
ATOM     29  O   LIG d   1      14.457   6.421  -0.164  0.00  0.00    -0.506 OA
ATOM     30  H   LIG d   1      13.947   7.082   0.551  0.00  0.00     0.292 HD
ENDBRANCH   6  29
BRANCH   7  31
ATOM     31  C   LIG d   1      11.108   6.223   0.968  0.00  0.00    -0.045 C 
ATOM     32  H   LIG d   1      11.893   5.501   1.239  0.00  0.00     0.025 H 
ATOM     33  H   LIG d   1      10.130   5.719   0.969  0.00  0.00     0.025 H 
ATOM     34  H   LIG d   1      11.098   7.045   1.698  0.00  0.00     0.025 H 
ENDBRANCH   7  31
BRANCH  12  35
ATOM     35  C   LIG d   1      11.253  10.146   1.106  0.00  0.00     0.163 C 
ATOM     36  O   LIG d   1      11.111  11.335   0.955  0.00  0.00    -0.292 OA
BRANCH  35  37
ATOM     37  C   LIG d   1      12.002   9.621   2.304  0.00  0.00    -0.001 C 
ATOM     38  H   LIG d   1      12.983   9.239   1.985  0.00  0.00     0.031 H 
ATOM     39  H   LIG d   1      11.425   8.808   2.769  0.00  0.00     0.031 H 
ATOM     40  H   LIG d   1      12.143  10.433   3.032  0.00  0.00     0.031 H 
ENDBRANCH  35  37
ENDBRANCH  12  35
TORSDOF 8
ENDMDL
