MODEL 1
REMARK VINA RESULT:      -7.0      0.000      0.000
REMARK  7 active torsions:
REMARK  status: ('A' for Active; 'I' for Inactive)
REMARK    1  A    between atoms: C_1  and  C_2 
REMARK    2  A    between atoms: C_2  and  O_3 
REMARK    3  A    between atoms: O_3  and  C_4 
REMARK    4  A    between atoms: C_4  and  C_6 
REMARK    5  A    between atoms: C_11  and  C_12 
REMARK    6  A    between atoms: C_11  and  N_63 
REMARK    7  A    between atoms: C_24  and  C_31 
ROOT
ATOM      1  C   LIG d   1       7.122  -1.799  -6.240  0.00  0.00     0.102 C 
ATOM      2  H   LIG d   1       7.665  -1.298  -7.053  0.00  0.00     0.047 H 
ATOM      3  C   LIG d   1       6.893  -0.826  -5.080  0.00  0.00     0.015 C 
ATOM      4  H   LIG d   1       7.713  -0.070  -5.138  0.00  0.00     0.035 H 
ATOM      5  C   LIG d   1       5.612  -0.056  -5.111  0.00  0.00    -0.039 C 
ATOM      6  C   LIG d   1       4.402  -0.707  -4.458  0.00  0.00    -0.014 C 
ATOM      7  H   LIG d   1       3.983  -1.496  -5.089  0.00  0.00     0.035 H 
ATOM      8  C   LIG d   1       3.355   0.370  -4.226  0.00  0.00    -0.073 C 
ATOM      9  C   LIG d   1       2.205   0.342  -4.851  0.00  0.00    -0.099 C 
ATOM     10  C   LIG d   1       3.693   1.481  -3.258  0.00  0.00    -0.032 C 
ATOM     11  C   LIG d   1       4.153   0.873  -1.932  0.00  0.00    -0.049 C 
ATOM     12  C   LIG d   1       5.257  -0.154  -2.168  0.00  0.00    -0.047 C 
ATOM     13  C   LIG d   1       4.789  -1.273  -3.089  0.00  0.00    -0.022 C 
ATOM     14  C   LIG d   1       5.890  -2.310  -3.282  0.00  0.00    -0.009 C 
ATOM     15  C   LIG d   1       7.163  -1.668  -3.830  0.00  0.00     0.107 C 
ATOM     16  H   LIG d   1       7.663  -1.071  -3.046  0.00  0.00     0.074 H 
ATOM     17  O   LIG d   1       8.020  -2.764  -4.299  0.00  0.00    -0.461 OA
ATOM     18  C   LIG d   1       8.006  -2.875  -5.632  0.00  0.00     0.316 C 
ATOM     19  O   LIG d   1       8.609  -3.714  -6.270  0.00  0.00    -0.250 OA
ATOM     20  H   LIG d   1       5.791   0.911  -4.617  0.00  0.00     0.028 H 
ATOM     21  H   LIG d   1       5.363   0.190  -6.152  0.00  0.00     0.028 H 
ATOM     22  H   LIG d   1       1.987  -0.456  -5.545  0.00  0.00     0.053 H 
ATOM     23  H   LIG d   1       1.473   1.117  -4.673  0.00  0.00     0.053 H 
ATOM     24  H   LIG d   1       2.806   2.096  -3.090  0.00  0.00     0.031 H 
ATOM     25  H   LIG d   1       4.484   2.104  -3.674  0.00  0.00     0.031 H 
ATOM     26  H   LIG d   1       3.307   0.430  -1.412  0.00  0.00     0.027 H 
ATOM     27  H   LIG d   1       4.553   1.677  -1.300  0.00  0.00     0.027 H 
ATOM     28  H   LIG d   1       5.560  -0.585  -1.209  0.00  0.00     0.027 H 
ATOM     29  H   LIG d   1       6.128   0.339  -2.607  0.00  0.00     0.027 H 
ATOM     30  H   LIG d   1       6.109  -2.767  -2.317  0.00  0.00     0.031 H 
ATOM     31  H   LIG d   1       5.545  -3.081  -3.968  0.00  0.00     0.031 H 
ENDROOT
BRANCH   1  32
ATOM     32  C   LIG d   1       5.832  -2.409  -6.780  0.00  0.00    -0.018 C 
ATOM     33  H   LIG d   1       5.798  -2.285  -7.863  0.00  0.00     0.082 H 
ATOM     34  H   LIG d   1       4.976  -1.906  -6.331  0.00  0.00     0.082 H 
BRANCH  32  35
ATOM     35  N   LIG d   1       5.817  -3.850  -6.457  0.00  0.00     0.236 N 
ATOM     36  C   LIG d   1       5.858  -4.647  -7.702  0.00  0.00    -0.031 C 
ATOM     37  C   LIG d   1       5.962  -6.130  -7.339  0.00  0.00     0.001 C 
ATOM     38  H   LIG d   1       4.958  -4.481  -8.293  0.00  0.00     0.082 H 
ATOM     39  H   LIG d   1       6.733  -4.354  -8.282  0.00  0.00     0.082 H 
ATOM     40  C   LIG d   1       4.741  -6.534  -6.508  0.00  0.00     0.066 C 
ATOM     41  H   LIG d   1       5.995  -6.727  -8.250  0.00  0.00     0.033 H 
ATOM     42  H   LIG d   1       6.870  -6.300  -6.760  0.00  0.00     0.033 H 
ATOM     43  C   LIG d   1       4.670  -5.651  -5.259  0.00  0.00     0.001 C 
ATOM     44  H   LIG d   1       3.836  -6.402  -7.100  0.00  0.00     0.042 H 
ATOM     45  C   LIG d   1       4.604  -4.182  -5.683  0.00  0.00    -0.031 C 
ATOM     46  H   LIG d   1       5.558  -5.813  -4.647  0.00  0.00     0.033 H 
ATOM     47  H   LIG d   1       3.780  -5.904  -4.683  0.00  0.00     0.033 H 
ATOM     48  H   LIG d   1       4.566  -3.550  -4.795  0.00  0.00     0.082 H 
ATOM     49  H   LIG d   1       3.709  -4.017  -6.282  0.00  0.00     0.082 H 
ATOM     50  H   LIG d   1       6.646  -4.074  -5.892  0.00  0.00     0.203 HD
BRANCH  40  51
ATOM     51  C   LIG d   1       4.868  -7.978  -6.097  0.00  0.00     0.311 C 
ATOM     52  O   LIG d   1       5.502  -8.747  -6.780  0.00  0.00    -0.251 OA
BRANCH  51  53
ATOM     53  O   LIG d   1       4.278  -8.410  -4.971  0.00  0.00    -0.465 OA
BRANCH  53  54
ATOM     54  C   LIG d   1       4.643  -9.735  -4.502  0.00  0.00     0.090 C 
ATOM     55  H   LIG d   1       4.547 -10.450  -5.319  0.00  0.00     0.069 H 
ATOM     56  H   LIG d   1       5.674  -9.724  -4.148  0.00  0.00     0.069 H 
BRANCH  54  57
ATOM     57  C   LIG d   1       3.716 -10.143  -3.355  0.00  0.00    -0.031 C 
ATOM     58  H   LIG d   1       2.694 -10.223  -3.725  0.00  0.00     0.026 H 
ATOM     59  H   LIG d   1       4.033 -11.105  -2.956  0.00  0.00     0.026 H 
ATOM     60  H   LIG d   1       3.758  -9.390  -2.568  0.00  0.00     0.026 H 
ENDBRANCH  54  57
ENDBRANCH  53  54
ENDBRANCH  51  53
ENDBRANCH  40  51
ENDBRANCH  32  35
ENDBRANCH   1  32
BRANCH  13  61
ATOM     61  C   LIG d   1       3.580  -1.981  -2.468  0.00  0.00    -0.059 C 
ATOM     62  H   LIG d   1       3.505  -2.992  -2.869  0.00  0.00     0.024 H 
ATOM     63  H   LIG d   1       3.700  -2.026  -1.386  0.00  0.00     0.024 H 
ATOM     64  H   LIG d   1       2.672  -1.427  -2.709  0.00  0.00     0.024 H 
ENDBRANCH  13  61
TORSDOF 7
ENDMDL
MODEL 2
REMARK VINA RESULT:      -6.9      4.991      8.876
REMARK  7 active torsions:
REMARK  status: ('A' for Active; 'I' for Inactive)
REMARK    1  A    between atoms: C_1  and  C_2 
REMARK    2  A    between atoms: C_2  and  O_3 
REMARK    3  A    between atoms: O_3  and  C_4 
REMARK    4  A    between atoms: C_4  and  C_6 
REMARK    5  A    between atoms: C_11  and  C_12 
REMARK    6  A    between atoms: C_11  and  N_63 
REMARK    7  A    between atoms: C_24  and  C_31 
ROOT
ATOM      1  C   LIG d   1       8.623   0.461  -5.112  0.00  0.00     0.102 C 
ATOM      2  H   LIG d   1       9.616   0.524  -4.645  0.00  0.00     0.047 H 
ATOM      3  C   LIG d   1       7.817  -0.679  -4.484  0.00  0.00     0.015 C 
ATOM      4  H   LIG d   1       8.562  -1.419  -4.102  0.00  0.00     0.035 H 
ATOM      5  C   LIG d   1       6.957  -0.312  -3.317  0.00  0.00    -0.039 C 
ATOM      6  C   LIG d   1       5.546   0.165  -3.627  0.00  0.00    -0.014 C 
ATOM      7  H   LIG d   1       5.544   1.195  -3.996  0.00  0.00     0.035 H 
ATOM      8  C   LIG d   1       4.730   0.082  -2.346  0.00  0.00    -0.073 C 
ATOM      9  C   LIG d   1       4.259   1.160  -1.773  0.00  0.00    -0.099 C 
ATOM     10  C   LIG d   1       4.492  -1.288  -1.754  0.00  0.00    -0.032 C 
ATOM     11  C   LIG d   1       3.915  -2.211  -2.829  0.00  0.00    -0.049 C 
ATOM     12  C   LIG d   1       4.783  -2.177  -4.085  0.00  0.00    -0.047 C 
ATOM     13  C   LIG d   1       4.892  -0.767  -4.650  0.00  0.00    -0.022 C 
ATOM     14  C   LIG d   1       5.729  -0.759  -5.924  0.00  0.00    -0.009 C 
ATOM     15  C   LIG d   1       7.119  -1.341  -5.675  0.00  0.00     0.107 C 
ATOM     16  H   LIG d   1       7.061  -2.437  -5.548  0.00  0.00     0.074 H 
ATOM     17  O   LIG d   1       7.941  -0.977  -6.836  0.00  0.00    -0.461 OA
ATOM     18  C   LIG d   1       8.777   0.032  -6.562  0.00  0.00     0.316 C 
ATOM     19  O   LIG d   1       9.545   0.537  -7.354  0.00  0.00    -0.250 OA
ATOM     20  H   LIG d   1       6.886  -1.194  -2.662  0.00  0.00     0.028 H 
ATOM     21  H   LIG d   1       7.467   0.455  -2.721  0.00  0.00     0.028 H 
ATOM     22  H   LIG d   1       4.449   2.131  -2.208  0.00  0.00     0.053 H 
ATOM     23  H   LIG d   1       3.681   1.081  -0.863  0.00  0.00     0.053 H 
ATOM     24  H   LIG d   1       3.783  -1.206  -0.926  0.00  0.00     0.031 H 
ATOM     25  H   LIG d   1       5.430  -1.696  -1.380  0.00  0.00     0.031 H 
ATOM     26  H   LIG d   1       2.890  -1.927  -3.052  0.00  0.00     0.027 H 
ATOM     27  H   LIG d   1       3.904  -3.237  -2.439  0.00  0.00     0.027 H 
ATOM     28  H   LIG d   1       4.345  -2.832  -4.844  0.00  0.00     0.027 H 
ATOM     29  H   LIG d   1       5.781  -2.554  -3.849  0.00  0.00     0.027 H 
ATOM     30  H   LIG d   1       5.220  -1.361  -6.677  0.00  0.00     0.031 H 
ATOM     31  H   LIG d   1       5.819   0.262  -6.290  0.00  0.00     0.031 H 
ENDROOT
BRANCH   1  32
ATOM     32  C   LIG d   1       7.925   1.814  -5.025  0.00  0.00    -0.018 C 
ATOM     33  H   LIG d   1       6.929   1.682  -4.602  0.00  0.00     0.082 H 
ATOM     34  H   LIG d   1       7.841   2.244  -6.024  0.00  0.00     0.082 H 
BRANCH  32  35
ATOM     35  N   LIG d   1       8.713   2.699  -4.144  0.00  0.00     0.236 N 
ATOM     36  C   LIG d   1       9.042   3.954  -4.852  0.00  0.00    -0.031 C 
ATOM     37  C   LIG d   1       9.754   4.900  -3.882  0.00  0.00     0.001 C 
ATOM     38  H   LIG d   1       9.691   3.754  -5.705  0.00  0.00     0.082 H 
ATOM     39  H   LIG d   1       8.119   4.418  -5.200  0.00  0.00     0.082 H 
ATOM     40  C   LIG d   1      11.040   4.238  -3.382  0.00  0.00     0.066 C 
ATOM     41  H   LIG d   1       9.999   5.830  -4.395  0.00  0.00     0.033 H 
ATOM     42  H   LIG d   1       9.100   5.113  -3.036  0.00  0.00     0.033 H 
ATOM     43  C   LIG d   1      10.692   2.904  -2.716  0.00  0.00     0.001 C 
ATOM     44  H   LIG d   1      11.711   4.062  -4.222  0.00  0.00     0.042 H 
ATOM     45  C   LIG d   1       9.953   2.017  -3.720  0.00  0.00    -0.031 C 
ATOM     46  H   LIG d   1      10.052   3.085  -1.851  0.00  0.00     0.033 H 
ATOM     47  H   LIG d   1      11.607   2.407  -2.394  0.00  0.00     0.033 H 
ATOM     48  H   LIG d   1       9.692   1.071  -3.244  0.00  0.00     0.082 H 
ATOM     49  H   LIG d   1      10.597   1.824  -4.578  0.00  0.00     0.082 H 
ATOM     50  H   LIG d   1       8.155   2.924  -3.311  0.00  0.00     0.203 HD
BRANCH  40  51
ATOM     51  C   LIG d   1      11.714   5.140  -2.380  0.00  0.00     0.311 C 
ATOM     52  O   LIG d   1      12.798   5.612  -2.627  0.00  0.00    -0.251 OA
BRANCH  51  53
ATOM     53  O   LIG d   1      11.108   5.421  -1.216  0.00  0.00    -0.465 OA
BRANCH  53  54
ATOM     54  C   LIG d   1      11.956   5.537  -0.043  0.00  0.00     0.090 C 
ATOM     55  H   LIG d   1      12.459   4.586   0.137  0.00  0.00     0.069 H 
ATOM     56  H   LIG d   1      12.700   6.317  -0.208  0.00  0.00     0.069 H 
BRANCH  54  57
ATOM     57  C   LIG d   1      11.100   5.899   1.172  0.00  0.00    -0.031 C 
ATOM     58  H   LIG d   1      11.696   6.476   1.878  0.00  0.00     0.026 H 
ATOM     59  H   LIG d   1      10.244   6.491   0.850  0.00  0.00     0.026 H 
ATOM     60  H   LIG d   1      10.749   4.986   1.654  0.00  0.00     0.026 H 
ENDBRANCH  54  57
ENDBRANCH  53  54
ENDBRANCH  51  53
ENDBRANCH  40  51
ENDBRANCH  32  35
ENDBRANCH   1  32
BRANCH  13  61
ATOM     61  C   LIG d   1       3.496  -0.242  -4.999  0.00  0.00    -0.059 C 
ATOM     62  H   LIG d   1       3.181   0.484  -4.249  0.00  0.00     0.024 H 
ATOM     63  H   LIG d   1       3.521   0.236  -5.979  0.00  0.00     0.024 H 
ATOM     64  H   LIG d   1       2.789  -1.072  -5.019  0.00  0.00     0.024 H 
ENDBRANCH  13  61
TORSDOF 7
ENDMDL
MODEL 3
REMARK VINA RESULT:      -6.3      4.926      8.794
REMARK  7 active torsions:
REMARK  status: ('A' for Active; 'I' for Inactive)
REMARK    1  A    between atoms: C_1  and  C_2 
REMARK    2  A    between atoms: C_2  and  O_3 
REMARK    3  A    between atoms: O_3  and  C_4 
REMARK    4  A    between atoms: C_4  and  C_6 
REMARK    5  A    between atoms: C_11  and  C_12 
REMARK    6  A    between atoms: C_11  and  N_63 
REMARK    7  A    between atoms: C_24  and  C_31 
ROOT
ATOM      1  C   LIG d   1       8.544   0.014  -5.324  0.00  0.00     0.102 C 
ATOM      2  H   LIG d   1       9.568  -0.028  -4.929  0.00  0.00     0.047 H 
ATOM      3  C   LIG d   1       7.672  -1.044  -4.643  0.00  0.00     0.015 C 
ATOM      4  H   LIG d   1       8.363  -1.858  -4.316  0.00  0.00     0.035 H 
ATOM      5  C   LIG d   1       6.938  -0.601  -3.418  0.00  0.00    -0.039 C 
ATOM      6  C   LIG d   1       5.565   0.019  -3.626  0.00  0.00    -0.014 C 
ATOM      7  H   LIG d   1       5.641   1.047  -3.993  0.00  0.00     0.035 H 
ATOM      8  C   LIG d   1       4.836   0.008  -2.291  0.00  0.00    -0.073 C 
ATOM      9  C   LIG d   1       4.519   1.124  -1.684  0.00  0.00    -0.099 C 
ATOM     10  C   LIG d   1       4.502  -1.336  -1.685  0.00  0.00    -0.032 C 
ATOM     11  C   LIG d   1       3.760  -2.186  -2.719  0.00  0.00    -0.049 C 
ATOM     12  C   LIG d   1       4.537  -2.229  -4.032  0.00  0.00    -0.047 C 
ATOM     13  C   LIG d   1       4.749  -0.833  -4.601  0.00  0.00    -0.022 C 
ATOM     14  C   LIG d   1       5.490  -0.898  -5.932  0.00  0.00    -0.009 C 
ATOM     15  C   LIG d   1       6.828  -1.620  -5.783  0.00  0.00     0.107 C 
ATOM     16  H   LIG d   1       6.668  -2.706  -5.653  0.00  0.00     0.074 H 
ATOM     17  O   LIG d   1       7.600  -1.332  -6.998  0.00  0.00    -0.461 OA
ATOM     18  C   LIG d   1       8.551  -0.416  -6.782  0.00  0.00     0.316 C 
ATOM     19  O   LIG d   1       9.309   0.016  -7.626  0.00  0.00    -0.250 OA
ATOM     20  H   LIG d   1       6.824  -1.477  -2.761  0.00  0.00     0.028 H 
ATOM     21  H   LIG d   1       7.564   0.105  -2.857  0.00  0.00     0.028 H 
ATOM     22  H   LIG d   1       4.776   2.073  -2.130  0.00  0.00     0.053 H 
ATOM     23  H   LIG d   1       4.002   1.095  -0.736  0.00  0.00     0.053 H 
ATOM     24  H   LIG d   1       3.866  -1.189  -0.809  0.00  0.00     0.031 H 
ATOM     25  H   LIG d   1       5.418  -1.840  -1.379  0.00  0.00     0.031 H 
ATOM     26  H   LIG d   1       2.756  -1.798  -2.868  0.00  0.00     0.027 H 
ATOM     27  H   LIG d   1       3.672  -3.209  -2.330  0.00  0.00     0.027 H 
ATOM     28  H   LIG d   1       3.982  -2.830  -4.759  0.00  0.00     0.027 H 
ATOM     29  H   LIG d   1       5.505  -2.707  -3.868  0.00  0.00     0.027 H 
ATOM     30  H   LIG d   1       4.871  -1.440  -6.648  0.00  0.00     0.031 H 
ATOM     31  H   LIG d   1       5.659   0.111  -6.301  0.00  0.00     0.031 H 
ENDROOT
BRANCH   1  32
ATOM     32  C   LIG d   1       7.995   1.430  -5.187  0.00  0.00    -0.018 C 
ATOM     33  H   LIG d   1       7.231   1.449  -4.409  0.00  0.00     0.082 H 
ATOM     34  H   LIG d   1       7.556   1.743  -6.134  0.00  0.00     0.082 H 
BRANCH  32  35
ATOM     35  N   LIG d   1       9.100   2.332  -4.803  0.00  0.00     0.236 N 
ATOM     36  C   LIG d   1       9.355   2.229  -3.351  0.00  0.00    -0.031 C 
ATOM     37  C   LIG d   1      10.578   3.079  -2.999  0.00  0.00     0.001 C 
ATOM     38  H   LIG d   1       8.494   2.581  -2.785  0.00  0.00     0.082 H 
ATOM     39  H   LIG d   1       9.554   1.186  -3.099  0.00  0.00     0.082 H 
ATOM     40  C   LIG d   1      10.302   4.538  -3.372  0.00  0.00     0.066 C 
ATOM     41  H   LIG d   1      10.776   3.008  -1.930  0.00  0.00     0.033 H 
ATOM     42  H   LIG d   1      11.444   2.719  -3.555  0.00  0.00     0.033 H 
ATOM     43  C   LIG d   1       9.967   4.622  -4.864  0.00  0.00     0.001 C 
ATOM     44  H   LIG d   1       9.462   4.912  -2.788  0.00  0.00     0.042 H 
ATOM     45  C   LIG d   1       8.763   3.726  -5.160  0.00  0.00    -0.031 C 
ATOM     46  H   LIG d   1      10.824   4.285  -5.449  0.00  0.00     0.033 H 
ATOM     47  H   LIG d   1       9.729   5.652  -5.128  0.00  0.00     0.033 H 
ATOM     48  H   LIG d   1       8.530   3.772  -6.225  0.00  0.00     0.082 H 
ATOM     49  H   LIG d   1       7.903   4.071  -4.587  0.00  0.00     0.082 H 
ATOM     50  H   LIG d   1       9.949   2.054  -5.311  0.00  0.00     0.203 HD
BRANCH  40  51
ATOM     51  C   LIG d   1      11.525   5.371  -3.084  0.00  0.00     0.311 C 
ATOM     52  O   LIG d   1      11.786   6.323  -3.781  0.00  0.00    -0.251 OA
BRANCH  51  53
ATOM     53  O   LIG d   1      12.324   5.056  -2.052  0.00  0.00    -0.465 OA
BRANCH  53  54
ATOM     54  C   LIG d   1      13.752   5.235  -2.244  0.00  0.00     0.090 C 
ATOM     55  H   LIG d   1      13.929   6.126  -2.847  0.00  0.00     0.069 H 
ATOM     56  H   LIG d   1      14.237   5.350  -1.275  0.00  0.00     0.069 H 
BRANCH  54  57
ATOM     57  C   LIG d   1      14.328   4.012  -2.960  0.00  0.00    -0.031 C 
ATOM     58  H   LIG d   1      14.715   4.310  -3.935  0.00  0.00     0.026 H 
ATOM     59  H   LIG d   1      15.134   3.588  -2.364  0.00  0.00     0.026 H 
ATOM     60  H   LIG d   1      13.543   3.267  -3.094  0.00  0.00     0.026 H 
ENDBRANCH  54  57
ENDBRANCH  53  54
ENDBRANCH  51  53
ENDBRANCH  40  51
ENDBRANCH  32  35
ENDBRANCH   1  32
BRANCH  13  61
ATOM     61  C   LIG d   1       3.392  -0.166  -4.850  0.00  0.00    -0.059 C 
ATOM     62  H   LIG d   1       3.487   0.561  -5.658  0.00  0.00     0.024 H 
ATOM     63  H   LIG d   1       2.659  -0.924  -5.128  0.00  0.00     0.024 H 
ATOM     64  H   LIG d   1       3.064   0.341  -3.943  0.00  0.00     0.024 H 
ENDBRANCH  13  61
TORSDOF 7
ENDMDL
MODEL 4
REMARK VINA RESULT:      -6.0      4.927      8.922
REMARK  7 active torsions:
REMARK  status: ('A' for Active; 'I' for Inactive)
REMARK    1  A    between atoms: C_1  and  C_2 
REMARK    2  A    between atoms: C_2  and  O_3 
REMARK    3  A    between atoms: O_3  and  C_4 
REMARK    4  A    between atoms: C_4  and  C_6 
REMARK    5  A    between atoms: C_11  and  C_12 
REMARK    6  A    between atoms: C_11  and  N_63 
REMARK    7  A    between atoms: C_24  and  C_31 
ROOT
ATOM      1  C   LIG d   1       8.511  -0.186  -5.350  0.00  0.00     0.102 C 
ATOM      2  H   LIG d   1       9.526  -0.094  -4.939  0.00  0.00     0.047 H 
ATOM      3  C   LIG d   1       7.694  -1.178  -4.518  0.00  0.00     0.015 C 
ATOM      4  H   LIG d   1       8.428  -1.881  -4.055  0.00  0.00     0.035 H 
ATOM      5  C   LIG d   1       6.903  -0.596  -3.390  0.00  0.00    -0.039 C 
ATOM      6  C   LIG d   1       5.497  -0.112  -3.714  0.00  0.00    -0.014 C 
ATOM      7  H   LIG d   1       5.516   0.847  -4.240  0.00  0.00     0.035 H 
ATOM      8  C   LIG d   1       4.739   0.041  -2.404  0.00  0.00    -0.073 C 
ATOM      9  C   LIG d   1       4.336   1.215  -1.989  0.00  0.00    -0.099 C 
ATOM     10  C   LIG d   1       4.479  -1.208  -1.594  0.00  0.00    -0.032 C 
ATOM     11  C   LIG d   1       3.819  -2.261  -2.487  0.00  0.00    -0.049 C 
ATOM     12  C   LIG d   1       4.628  -2.461  -3.766  0.00  0.00    -0.047 C 
ATOM     13  C   LIG d   1       4.763  -1.163  -4.550  0.00  0.00    -0.022 C 
ATOM     14  C   LIG d   1       5.538  -1.389  -5.842  0.00  0.00    -0.009 C 
ATOM     15  C   LIG d   1       6.916  -1.986  -5.561  0.00  0.00     0.107 C 
ATOM     16  H   LIG d   1       6.825  -3.045  -5.260  0.00  0.00     0.074 H 
ATOM     17  O   LIG d   1       7.697  -1.844  -6.796  0.00  0.00    -0.461 OA
ATOM     18  C   LIG d   1       8.581  -0.842  -6.719  0.00  0.00     0.316 C 
ATOM     19  O   LIG d   1       9.329  -0.500  -7.611  0.00  0.00    -0.250 OA
ATOM     20  H   LIG d   1       6.830  -1.361  -2.602  0.00  0.00     0.028 H 
ATOM     21  H   LIG d   1       7.469   0.231  -2.943  0.00  0.00     0.028 H 
ATOM     22  H   LIG d   1       4.541   2.096  -2.579  0.00  0.00     0.053 H 
ATOM     23  H   LIG d   1       3.799   1.303  -1.056  0.00  0.00     0.053 H 
ATOM     24  H   LIG d   1       3.814  -0.967  -0.762  0.00  0.00     0.031 H 
ATOM     25  H   LIG d   1       5.418  -1.594  -1.199  0.00  0.00     0.031 H 
ATOM     26  H   LIG d   1       2.795  -1.972  -2.710  0.00  0.00     0.027 H 
ATOM     27  H   LIG d   1       3.789  -3.212  -1.939  0.00  0.00     0.027 H 
ATOM     28  H   LIG d   1       4.131  -3.207  -4.394  0.00  0.00     0.027 H 
ATOM     29  H   LIG d   1       5.622  -2.840  -3.514  0.00  0.00     0.027 H 
ATOM     30  H   LIG d   1       4.973  -2.079  -6.470  0.00  0.00     0.031 H 
ATOM     31  H   LIG d   1       5.650  -0.443  -6.368  0.00  0.00     0.031 H 
ENDROOT
BRANCH   1  32
ATOM     32  C   LIG d   1       7.868   1.193  -5.449  0.00  0.00    -0.018 C 
ATOM     33  H   LIG d   1       7.324   1.407  -4.529  0.00  0.00     0.082 H 
ATOM     34  H   LIG d   1       7.177   1.212  -6.292  0.00  0.00     0.082 H 
BRANCH  32  35
ATOM     35  N   LIG d   1       8.933   2.201  -5.628  0.00  0.00     0.236 N 
ATOM     36  C   LIG d   1       8.815   3.249  -4.592  0.00  0.00    -0.031 C 
ATOM     37  C   LIG d   1       9.996   4.213  -4.725  0.00  0.00     0.001 C 
ATOM     38  H   LIG d   1       7.882   3.799  -4.708  0.00  0.00     0.082 H 
ATOM     39  H   LIG d   1       8.840   2.779  -3.608  0.00  0.00     0.082 H 
ATOM     40  C   LIG d   1       9.969   4.857  -6.114  0.00  0.00     0.066 C 
ATOM     41  H   LIG d   1       9.920   4.989  -3.963  0.00  0.00     0.033 H 
ATOM     42  H   LIG d   1      10.929   3.666  -4.594  0.00  0.00     0.033 H 
ATOM     43  C   LIG d   1      10.017   3.757  -7.178  0.00  0.00     0.001 C 
ATOM     44  H   LIG d   1       9.055   5.437  -6.230  0.00  0.00     0.042 H 
ATOM     45  C   LIG d   1       8.836   2.806  -6.973  0.00  0.00    -0.031 C 
ATOM     46  H   LIG d   1      10.951   3.201  -7.085  0.00  0.00     0.033 H 
ATOM     47  H   LIG d   1       9.956   4.205  -8.169  0.00  0.00     0.033 H 
ATOM     48  H   LIG d   1       8.875   2.013  -7.721  0.00  0.00     0.082 H 
ATOM     49  H   LIG d   1       7.902   3.358  -7.079  0.00  0.00     0.082 H 
ATOM     50  H   LIG d   1       9.846   1.741  -5.534  0.00  0.00     0.203 HD
BRANCH  40  51
ATOM     51  C   LIG d   1      11.164   5.762  -6.271  0.00  0.00     0.311 C 
ATOM     52  O   LIG d   1      12.270   5.288  -6.387  0.00  0.00    -0.251 OA
BRANCH  51  53
ATOM     53  O   LIG d   1      10.999   7.094  -6.286  0.00  0.00    -0.465 OA
BRANCH  53  54
ATOM     54  C   LIG d   1       9.652   7.590  -6.505  0.00  0.00     0.090 C 
ATOM     55  H   LIG d   1       9.405   7.515  -7.564  0.00  0.00     0.069 H 
ATOM     56  H   LIG d   1       8.947   6.995  -5.924  0.00  0.00     0.069 H 
BRANCH  54  57
ATOM     57  C   LIG d   1       9.569   9.052  -6.064  0.00  0.00    -0.031 C 
ATOM     58  H   LIG d   1      10.574   9.444  -5.912  0.00  0.00     0.026 H 
ATOM     59  H   LIG d   1       9.064   9.636  -6.833  0.00  0.00     0.026 H 
ATOM     60  H   LIG d   1       9.009   9.119  -5.131  0.00  0.00     0.026 H 
ENDBRANCH  54  57
ENDBRANCH  53  54
ENDBRANCH  51  53
ENDBRANCH  40  51
ENDBRANCH  32  35
ENDBRANCH   1  32
BRANCH  13  61
ATOM     61  C   LIG d   1       3.372  -0.638  -4.921  0.00  0.00    -0.059 C 
ATOM     62  H   LIG d   1       3.017  -1.149  -5.817  0.00  0.00     0.024 H 
ATOM     63  H   LIG d   1       2.680  -0.825  -4.099  0.00  0.00     0.024 H 
ATOM     64  H   LIG d   1       3.426   0.434  -5.112  0.00  0.00     0.024 H 
ENDBRANCH  13  61
TORSDOF 7
ENDMDL
MODEL 5
REMARK VINA RESULT:      -6.0      3.966      5.368
REMARK  7 active torsions:
REMARK  status: ('A' for Active; 'I' for Inactive)
REMARK    1  A    between atoms: C_1  and  C_2 
REMARK    2  A    between atoms: C_2  and  O_3 
REMARK    3  A    between atoms: O_3  and  C_4 
REMARK    4  A    between atoms: C_4  and  C_6 
REMARK    5  A    between atoms: C_11  and  C_12 
REMARK    6  A    between atoms: C_11  and  N_63 
REMARK    7  A    between atoms: C_24  and  C_31 
ROOT
ATOM      1  C   LIG d   1       6.188  -1.971  -6.889  0.00  0.00     0.102 C 
ATOM      2  H   LIG d   1       6.431  -1.487  -7.846  0.00  0.00     0.047 H 
ATOM      3  C   LIG d   1       6.242  -0.948  -5.752  0.00  0.00     0.015 C 
ATOM      4  H   LIG d   1       6.954  -0.151  -6.079  0.00  0.00     0.035 H 
ATOM      5  C   LIG d   1       4.957  -0.253  -5.430  0.00  0.00    -0.039 C 
ATOM      6  C   LIG d   1       4.042  -0.934  -4.423  0.00  0.00    -0.014 C 
ATOM      7  H   LIG d   1       3.513  -1.780  -4.871  0.00  0.00     0.035 H 
ATOM      8  C   LIG d   1       3.036   0.095  -3.931  0.00  0.00    -0.073 C 
ATOM      9  C   LIG d   1       1.758  -0.034  -4.185  0.00  0.00    -0.099 C 
ATOM     10  C   LIG d   1       3.564   1.276  -3.151  0.00  0.00    -0.032 C 
ATOM     11  C   LIG d   1       4.436   0.773  -1.999  0.00  0.00    -0.049 C 
ATOM     12  C   LIG d   1       5.491  -0.203  -2.513  0.00  0.00    -0.047 C 
ATOM     13  C   LIG d   1       4.854  -1.398  -3.210  0.00  0.00    -0.022 C 
ATOM     14  C   LIG d   1       5.920  -2.380  -3.682  0.00  0.00    -0.009 C 
ATOM     15  C   LIG d   1       6.927  -1.699  -4.607  0.00  0.00     0.107 C 
ATOM     16  H   LIG d   1       7.591  -1.031  -4.031  0.00  0.00     0.074 H 
ATOM     17  O   LIG d   1       7.683  -2.770  -5.268  0.00  0.00    -0.461 OA
ATOM     18  C   LIG d   1       7.286  -2.959  -6.532  0.00  0.00     0.316 C 
ATOM     19  O   LIG d   1       7.733  -3.798  -7.286  0.00  0.00    -0.250 OA
ATOM     20  H   LIG d   1       5.204   0.749  -5.049  0.00  0.00     0.028 H 
ATOM     21  H   LIG d   1       4.397  -0.083  -6.359  0.00  0.00     0.028 H 
ATOM     22  H   LIG d   1       1.403  -0.882  -4.753  0.00  0.00     0.053 H 
ATOM     23  H   LIG d   1       1.058   0.707  -3.828  0.00  0.00     0.053 H 
ATOM     24  H   LIG d   1       2.724   1.849  -2.750  0.00  0.00     0.031 H 
ATOM     25  H   LIG d   1       4.152   1.918  -3.807  0.00  0.00     0.031 H 
ATOM     26  H   LIG d   1       3.814   0.313  -1.235  0.00  0.00     0.027 H 
ATOM     27  H   LIG d   1       4.945   1.633  -1.546  0.00  0.00     0.027 H 
ATOM     28  H   LIG d   1       6.092  -0.560  -1.672  0.00  0.00     0.027 H 
ATOM     29  H   LIG d   1       6.157   0.313  -3.209  0.00  0.00     0.027 H 
ATOM     30  H   LIG d   1       6.445  -2.768  -2.808  0.00  0.00     0.031 H 
ATOM     31  H   LIG d   1       5.443  -3.207  -4.205  0.00  0.00     0.031 H 
ENDROOT
BRANCH   1  32
ATOM     32  C   LIG d   1       4.843  -2.683  -6.999  0.00  0.00    -0.018 C 
ATOM     33  H   LIG d   1       4.167  -2.300  -6.234  0.00  0.00     0.082 H 
ATOM     34  H   LIG d   1       4.986  -3.753  -6.853  0.00  0.00     0.082 H 
BRANCH  32  35
ATOM     35  N   LIG d   1       4.270  -2.411  -8.332  0.00  0.00     0.236 N 
ATOM     36  C   LIG d   1       3.353  -1.253  -8.262  0.00  0.00    -0.031 C 
ATOM     37  C   LIG d   1       2.866  -0.919  -9.674  0.00  0.00     0.001 C 
ATOM     38  H   LIG d   1       2.498  -1.481  -7.627  0.00  0.00     0.082 H 
ATOM     39  H   LIG d   1       3.892  -0.399  -7.852  0.00  0.00     0.082 H 
ATOM     40  C   LIG d   1       2.127  -2.128 -10.253  0.00  0.00     0.066 C 
ATOM     41  H   LIG d   1       2.191  -0.065  -9.633  0.00  0.00     0.033 H 
ATOM     42  H   LIG d   1       3.721  -0.677 -10.306  0.00  0.00     0.033 H 
ATOM     43  C   LIG d   1       3.064  -3.338 -10.252  0.00  0.00     0.001 C 
ATOM     44  H   LIG d   1       1.249  -2.346  -9.644  0.00  0.00     0.042 H 
ATOM     45  C   LIG d   1       3.546  -3.602  -8.823  0.00  0.00    -0.031 C 
ATOM     46  H   LIG d   1       3.923  -3.134 -10.893  0.00  0.00     0.033 H 
ATOM     47  H   LIG d   1       2.532  -4.213 -10.624  0.00  0.00     0.033 H 
ATOM     48  H   LIG d   1       4.225  -4.455  -8.821  0.00  0.00     0.082 H 
ATOM     49  H   LIG d   1       2.689  -3.819  -8.186  0.00  0.00     0.082 H 
ATOM     50  H   LIG d   1       5.033  -2.192  -8.985  0.00  0.00     0.203 HD
BRANCH  40  51
ATOM     51  C   LIG d   1       1.697  -1.825 -11.665  0.00  0.00     0.311 C 
ATOM     52  O   LIG d   1       0.760  -1.089 -11.867  0.00  0.00    -0.251 OA
BRANCH  51  53
ATOM     53  O   LIG d   1       2.356  -2.372 -12.699  0.00  0.00    -0.465 OA
BRANCH  53  54
ATOM     54  C   LIG d   1       3.163  -1.480 -13.512  0.00  0.00     0.090 C 
ATOM     55  H   LIG d   1       2.889  -0.446 -13.300  0.00  0.00     0.069 H 
ATOM     56  H   LIG d   1       4.218  -1.631 -13.280  0.00  0.00     0.069 H 
BRANCH  54  57
ATOM     57  C   LIG d   1       2.921  -1.779 -14.992  0.00  0.00    -0.031 C 
ATOM     58  H   LIG d   1       3.854  -1.666 -15.544  0.00  0.00     0.026 H 
ATOM     59  H   LIG d   1       2.555  -2.799 -15.102  0.00  0.00     0.026 H 
ATOM     60  H   LIG d   1       2.180  -1.083 -15.387  0.00  0.00     0.026 H 
ENDBRANCH  54  57
ENDBRANCH  53  54
ENDBRANCH  51  53
ENDBRANCH  40  51
ENDBRANCH  32  35
ENDBRANCH   1  32
BRANCH  13  61
ATOM     61  C   LIG d   1       3.934  -2.135  -2.232  0.00  0.00    -0.059 C 
ATOM     62  H   LIG d   1       4.239  -3.179  -2.162  0.00  0.00     0.024 H 
ATOM     63  H   LIG d   1       4.001  -1.670  -1.248  0.00  0.00     0.024 H 
ATOM     64  H   LIG d   1       2.905  -2.081  -2.589  0.00  0.00     0.024 H 
ENDBRANCH  13  61
TORSDOF 7
ENDMDL
MODEL 6
REMARK VINA RESULT:      -5.8      4.634      7.502
REMARK  7 active torsions:
REMARK  status: ('A' for Active; 'I' for Inactive)
REMARK    1  A    between atoms: C_1  and  C_2 
REMARK    2  A    between atoms: C_2  and  O_3 
REMARK    3  A    between atoms: O_3  and  C_4 
REMARK    4  A    between atoms: C_4  and  C_6 
REMARK    5  A    between atoms: C_11  and  C_12 
REMARK    6  A    between atoms: C_11  and  N_63 
REMARK    7  A    between atoms: C_24  and  C_31 
ROOT
ATOM      1  C   LIG d   1       3.993   1.373  -8.826  0.00  0.00     0.102 C 
ATOM      2  H   LIG d   1       4.109   2.462  -8.736  0.00  0.00     0.047 H 
ATOM      3  C   LIG d   1       3.312   1.023 -10.150  0.00  0.00     0.015 C 
ATOM      4  H   LIG d   1       2.696   1.911 -10.433  0.00  0.00     0.035 H 
ATOM      5  C   LIG d   1       4.220   0.759 -11.309  0.00  0.00    -0.039 C 
ATOM      6  C   LIG d   1       4.712  -0.670 -11.485  0.00  0.00    -0.014 C 
ATOM      7  H   LIG d   1       5.500  -0.913 -10.767  0.00  0.00     0.035 H 
ATOM      8  C   LIG d   1       5.251  -0.811 -12.900  0.00  0.00    -0.073 C 
ATOM      9  C   LIG d   1       6.520  -1.048 -13.121  0.00  0.00    -0.099 C 
ATOM     10  C   LIG d   1       4.273  -0.655 -14.042  0.00  0.00    -0.032 C 
ATOM     11  C   LIG d   1       3.081  -1.587 -13.817  0.00  0.00    -0.049 C 
ATOM     12  C   LIG d   1       2.501  -1.386 -12.420  0.00  0.00    -0.047 C 
ATOM     13  C   LIG d   1       3.542  -1.646 -11.340  0.00  0.00    -0.022 C 
ATOM     14  C   LIG d   1       2.935  -1.480  -9.952  0.00  0.00    -0.009 C 
ATOM     15  C   LIG d   1       2.326  -0.089  -9.779  0.00  0.00     0.107 C 
ATOM     16  H   LIG d   1       1.389  -0.003 -10.358  0.00  0.00     0.074 H 
ATOM     17  O   LIG d   1       2.089   0.091  -8.342  0.00  0.00    -0.461 OA
ATOM     18  C   LIG d   1       3.007   0.885  -7.778  0.00  0.00     0.316 C 
ATOM     19  O   LIG d   1       3.052   1.173  -6.600  0.00  0.00    -0.250 OA
ATOM     20  H   LIG d   1       3.689   1.056 -12.226  0.00  0.00     0.028 H 
ATOM     21  H   LIG d   1       5.089   1.427 -11.244  0.00  0.00     0.028 H 
ATOM     22  H   LIG d   1       7.203  -1.146 -12.290  0.00  0.00     0.053 H 
ATOM     23  H   LIG d   1       6.883  -1.144 -14.133  0.00  0.00     0.053 H 
ATOM     24  H   LIG d   1       4.769  -0.917 -14.980  0.00  0.00     0.031 H 
ATOM     25  H   LIG d   1       3.931   0.378 -14.096  0.00  0.00     0.031 H 
ATOM     26  H   LIG d   1       3.382  -2.621 -13.973  0.00  0.00     0.027 H 
ATOM     27  H   LIG d   1       2.306  -1.347 -14.556  0.00  0.00     0.027 H 
ATOM     28  H   LIG d   1       1.660  -2.072 -12.276  0.00  0.00     0.027 H 
ATOM     29  H   LIG d   1       2.124  -0.365 -12.324  0.00  0.00     0.027 H 
ATOM     30  H   LIG d   1       2.153  -2.229  -9.822  0.00  0.00     0.031 H 
ATOM     31  H   LIG d   1       3.705  -1.638  -9.199  0.00  0.00     0.031 H 
ENDROOT
BRANCH   1  32
ATOM     32  C   LIG d   1       5.347   0.694  -8.644  0.00  0.00    -0.018 C 
ATOM     33  H   LIG d   1       6.139   1.441  -8.703  0.00  0.00     0.082 H 
ATOM     34  H   LIG d   1       5.489  -0.048  -9.429  0.00  0.00     0.082 H 
BRANCH  32  35
ATOM     35  N   LIG d   1       5.382   0.055  -7.313  0.00  0.00     0.236 N 
ATOM     36  C   LIG d   1       6.588   0.489  -6.576  0.00  0.00    -0.031 C 
ATOM     37  C   LIG d   1       6.540  -0.090  -5.160  0.00  0.00     0.001 C 
ATOM     38  H   LIG d   1       7.490   0.143  -7.079  0.00  0.00     0.082 H 
ATOM     39  H   LIG d   1       6.598   1.578  -6.522  0.00  0.00     0.082 H 
ATOM     40  C   LIG d   1       6.508  -1.619  -5.240  0.00  0.00     0.066 C 
ATOM     41  H   LIG d   1       7.425   0.226  -4.607  0.00  0.00     0.033 H 
ATOM     42  H   LIG d   1       5.646   0.267  -4.650  0.00  0.00     0.033 H 
ATOM     43  C   LIG d   1       5.295  -2.053  -6.068  0.00  0.00     0.001 C 
ATOM     44  H   LIG d   1       7.420  -1.980  -5.714  0.00  0.00     0.042 H 
ATOM     45  C   LIG d   1       5.379  -1.416  -7.457  0.00  0.00    -0.031 C 
ATOM     46  H   LIG d   1       4.380  -1.725  -5.573  0.00  0.00     0.033 H 
ATOM     47  H   LIG d   1       5.288  -3.138  -6.165  0.00  0.00     0.033 H 
ATOM     48  H   LIG d   1       4.509  -1.712  -8.045  0.00  0.00     0.082 H 
ATOM     49  H   LIG d   1       6.286  -1.754  -7.958  0.00  0.00     0.082 H 
ATOM     50  H   LIG d   1       4.549   0.340  -6.784  0.00  0.00     0.203 HD
BRANCH  40  51
ATOM     51  C   LIG d   1       6.400  -2.193  -3.851  0.00  0.00     0.311 C 
ATOM     52  O   LIG d   1       7.393  -2.326  -3.174  0.00  0.00    -0.251 OA
BRANCH  51  53
ATOM     53  O   LIG d   1       5.203  -2.556  -3.366  0.00  0.00    -0.465 OA
BRANCH  53  54
ATOM     54  C   LIG d   1       4.599  -1.680  -2.377  0.00  0.00     0.090 C 
ATOM     55  H   LIG d   1       4.538  -2.200  -1.420  0.00  0.00     0.069 H 
ATOM     56  H   LIG d   1       5.209  -0.783  -2.265  0.00  0.00     0.069 H 
BRANCH  54  57
ATOM     57  C   LIG d   1       3.194  -1.287  -2.834  0.00  0.00    -0.031 C 
ATOM     58  H   LIG d   1       2.767  -0.576  -2.127  0.00  0.00     0.026 H 
ATOM     59  H   LIG d   1       3.247  -0.829  -3.821  0.00  0.00     0.026 H 
ATOM     60  H   LIG d   1       2.564  -2.176  -2.879  0.00  0.00     0.026 H 
ENDBRANCH  54  57
ENDBRANCH  53  54
ENDBRANCH  51  53
ENDBRANCH  40  51
ENDBRANCH  32  35
ENDBRANCH   1  32
BRANCH  13  61
ATOM     61  C   LIG d   1       4.059  -3.084 -11.458  0.00  0.00    -0.059 C 
ATOM     62  H   LIG d   1       3.581  -3.574 -12.307  0.00  0.00     0.024 H 
ATOM     63  H   LIG d   1       5.139  -3.071 -11.607  0.00  0.00     0.024 H 
ATOM     64  H   LIG d   1       3.826  -3.631 -10.544  0.00  0.00     0.024 H 
ENDBRANCH  13  61
TORSDOF 7
ENDMDL
MODEL 7
REMARK VINA RESULT:      -5.5      4.623      6.596
REMARK  7 active torsions:
REMARK  status: ('A' for Active; 'I' for Inactive)
REMARK    1  A    between atoms: C_1  and  C_2 
REMARK    2  A    between atoms: C_2  and  O_3 
REMARK    3  A    between atoms: O_3  and  C_4 
REMARK    4  A    between atoms: C_4  and  C_6 
REMARK    5  A    between atoms: C_11  and  C_12 
REMARK    6  A    between atoms: C_11  and  N_63 
REMARK    7  A    between atoms: C_24  and  C_31 
ROOT
ATOM      1  C   LIG d   1       3.304  -0.488  -5.405  0.00  0.00     0.102 C 
ATOM      2  H   LIG d   1       2.305  -0.936  -5.494  0.00  0.00     0.047 H 
ATOM      3  C   LIG d   1       4.192  -1.350  -4.504  0.00  0.00     0.015 C 
ATOM      4  H   LIG d   1       3.504  -1.895  -3.813  0.00  0.00     0.035 H 
ATOM      5  C   LIG d   1       5.009  -2.397  -5.192  0.00  0.00    -0.039 C 
ATOM      6  C   LIG d   1       6.381  -1.976  -5.697  0.00  0.00    -0.014 C 
ATOM      7  H   LIG d   1       6.305  -1.384  -6.613  0.00  0.00     0.035 H 
ATOM      8  C   LIG d   1       7.188  -3.236  -5.969  0.00  0.00    -0.073 C 
ATOM      9  C   LIG d   1       7.567  -3.547  -7.183  0.00  0.00    -0.099 C 
ATOM     10  C   LIG d   1       7.527  -4.120  -4.792  0.00  0.00    -0.032 C 
ATOM     11  C   LIG d   1       8.186  -3.276  -3.698  0.00  0.00    -0.049 C 
ATOM     12  C   LIG d   1       7.331  -2.052  -3.380  0.00  0.00    -0.047 C 
ATOM     13  C   LIG d   1       7.116  -1.185  -4.613  0.00  0.00    -0.022 C 
ATOM     14  C   LIG d   1       6.294   0.052  -4.267  0.00  0.00    -0.009 C 
ATOM     15  C   LIG d   1       4.952  -0.333  -3.648  0.00  0.00     0.107 C 
ATOM     16  H   LIG d   1       5.094  -0.704  -2.617  0.00  0.00     0.074 H 
ATOM     17  O   LIG d   1       4.115   0.873  -3.674  0.00  0.00    -0.461 OA
ATOM     18  C   LIG d   1       3.200   0.827  -4.650  0.00  0.00     0.316 C 
ATOM     19  O   LIG d   1       2.402   1.706  -4.901  0.00  0.00    -0.250 OA
ATOM     20  H   LIG d   1       5.142  -3.233  -4.489  0.00  0.00     0.028 H 
ATOM     21  H   LIG d   1       4.433  -2.809  -6.031  0.00  0.00     0.028 H 
ATOM     22  H   LIG d   1       7.305  -2.906  -8.012  0.00  0.00     0.053 H 
ATOM     23  H   LIG d   1       8.139  -4.446  -7.357  0.00  0.00     0.053 H 
ATOM     24  H   LIG d   1       8.219  -4.902  -5.115  0.00  0.00     0.031 H 
ATOM     25  H   LIG d   1       6.620  -4.584  -4.406  0.00  0.00     0.031 H 
ATOM     26  H   LIG d   1       9.188  -2.986  -4.005  0.00  0.00     0.027 H 
ATOM     27  H   LIG d   1       8.274  -3.888  -2.792  0.00  0.00     0.027 H 
ATOM     28  H   LIG d   1       7.827  -1.457  -2.607  0.00  0.00     0.027 H 
ATOM     29  H   LIG d   1       6.363  -2.375  -2.988  0.00  0.00     0.027 H 
ATOM     30  H   LIG d   1       6.857   0.654  -3.552  0.00  0.00     0.031 H 
ATOM     31  H   LIG d   1       6.127   0.638  -5.169  0.00  0.00     0.031 H 
ENDROOT
BRANCH   1  32
ATOM     32  C   LIG d   1       3.893  -0.261  -6.794  0.00  0.00    -0.018 C 
ATOM     33  H   LIG d   1       4.874  -0.733  -6.854  0.00  0.00     0.082 H 
ATOM     34  H   LIG d   1       3.994   0.809  -6.975  0.00  0.00     0.082 H 
BRANCH  32  35
ATOM     35  N   LIG d   1       2.997  -0.875  -7.795  0.00  0.00     0.236 N 
ATOM     36  C   LIG d   1       3.714  -1.940  -8.528  0.00  0.00    -0.031 C 
ATOM     37  C   LIG d   1       2.733  -2.639  -9.472  0.00  0.00     0.001 C 
ATOM     38  H   LIG d   1       4.537  -1.521  -9.105  0.00  0.00     0.082 H 
ATOM     39  H   LIG d   1       4.104  -2.663  -7.810  0.00  0.00     0.082 H 
ATOM     40  C   LIG d   1       2.173  -1.618 -10.465  0.00  0.00     0.066 C 
ATOM     41  H   LIG d   1       3.251  -3.429 -10.016  0.00  0.00     0.033 H 
ATOM     42  H   LIG d   1       1.916  -3.071  -8.894  0.00  0.00     0.033 H 
ATOM     43  C   LIG d   1       1.498  -0.482  -9.691  0.00  0.00     0.001 C 
ATOM     44  H   LIG d   1       2.984  -1.214 -11.071  0.00  0.00     0.042 H 
ATOM     45  C   LIG d   1       2.514   0.153  -8.740  0.00  0.00    -0.031 C 
ATOM     46  H   LIG d   1       0.661  -0.881  -9.116  0.00  0.00     0.033 H 
ATOM     47  H   LIG d   1       1.133   0.270 -10.390  0.00  0.00     0.033 H 
ATOM     48  H   LIG d   1       2.033   0.954  -8.177  0.00  0.00     0.082 H 
ATOM     49  H   LIG d   1       3.343   0.564  -9.316  0.00  0.00     0.082 H 
ATOM     50  H   LIG d   1       2.190  -1.289  -7.311  0.00  0.00     0.203 HD
BRANCH  40  51
ATOM     51  C   LIG d   1       1.162  -2.288 -11.360  0.00  0.00     0.311 C 
ATOM     52  O   LIG d   1       0.856  -3.441 -11.168  0.00  0.00    -0.251 OA
BRANCH  51  53
ATOM     53  O   LIG d   1       0.599  -1.604 -12.368  0.00  0.00    -0.465 OA
BRANCH  53  54
ATOM     54  C   LIG d   1      -0.483  -2.254 -13.084  0.00  0.00     0.090 C 
ATOM     55  H   LIG d   1      -0.657  -3.244 -12.660  0.00  0.00     0.069 H 
ATOM     56  H   LIG d   1      -1.390  -1.656 -12.993  0.00  0.00     0.069 H 
BRANCH  54  57
ATOM     57  C   LIG d   1      -0.110  -2.390 -14.561  0.00  0.00    -0.031 C 
ATOM     58  H   LIG d   1      -0.442  -3.359 -14.933  0.00  0.00     0.026 H 
ATOM     59  H   LIG d   1      -0.591  -1.597 -15.132  0.00  0.00     0.026 H 
ATOM     60  H   LIG d   1       0.972  -2.312 -14.671  0.00  0.00     0.026 H 
ENDBRANCH  54  57
ENDBRANCH  53  54
ENDBRANCH  51  53
ENDBRANCH  40  51
ENDBRANCH  32  35
ENDBRANCH   1  32
BRANCH  13  61
ATOM     61  C   LIG d   1       8.470  -0.714  -5.154  0.00  0.00    -0.059 C 
ATOM     62  H   LIG d   1       9.185  -1.537  -5.111  0.00  0.00     0.024 H 
ATOM     63  H   LIG d   1       8.355  -0.386  -6.187  0.00  0.00     0.024 H 
ATOM     64  H   LIG d   1       8.836   0.116  -4.548  0.00  0.00     0.024 H 
ENDBRANCH  13  61
TORSDOF 7
ENDMDL
MODEL 8
REMARK VINA RESULT:      -5.5      3.983      7.118
REMARK  7 active torsions:
REMARK  status: ('A' for Active; 'I' for Inactive)
REMARK    1  A    between atoms: C_1  and  C_2 
REMARK    2  A    between atoms: C_2  and  O_3 
REMARK    3  A    between atoms: O_3  and  C_4 
REMARK    4  A    between atoms: C_4  and  C_6 
REMARK    5  A    between atoms: C_11  and  C_12 
REMARK    6  A    between atoms: C_11  and  N_63 
REMARK    7  A    between atoms: C_24  and  C_31 
ROOT
ATOM      1  C   LIG d   1       8.486  -3.072  -5.225  0.00  0.00     0.102 C 
ATOM      2  H   LIG d   1       9.414  -3.394  -4.733  0.00  0.00     0.047 H 
ATOM      3  C   LIG d   1       7.304  -3.205  -4.261  0.00  0.00     0.015 C 
ATOM      4  H   LIG d   1       7.579  -4.008  -3.535  0.00  0.00     0.035 H 
ATOM      5  C   LIG d   1       6.984  -1.994  -3.443  0.00  0.00    -0.039 C 
ATOM      6  C   LIG d   1       6.030  -0.981  -4.059  0.00  0.00    -0.014 C 
ATOM      7  H   LIG d   1       6.527  -0.376  -4.822  0.00  0.00     0.035 H 
ATOM      8  C   LIG d   1       5.519  -0.079  -2.946  0.00  0.00    -0.073 C 
ATOM      9  C   LIG d   1       5.809   1.197  -2.923  0.00  0.00    -0.099 C 
ATOM     10  C   LIG d   1       4.675  -0.710  -1.862  0.00  0.00    -0.032 C 
ATOM     11  C   LIG d   1       3.525  -1.488  -2.505  0.00  0.00    -0.049 C 
ATOM     12  C   LIG d   1       4.056  -2.445  -3.570  0.00  0.00    -0.047 C 
ATOM     13  C   LIG d   1       4.819  -1.702  -4.658  0.00  0.00    -0.022 C 
ATOM     14  C   LIG d   1       5.307  -2.668  -5.732  0.00  0.00    -0.009 C 
ATOM     15  C   LIG d   1       6.177  -3.769  -5.129  0.00  0.00     0.107 C 
ATOM     16  H   LIG d   1       5.555  -4.486  -4.562  0.00  0.00     0.074 H 
ATOM     17  O   LIG d   1       6.864  -4.423  -6.249  0.00  0.00    -0.461 OA
ATOM     18  C   LIG d   1       8.145  -4.045  -6.341  0.00  0.00     0.316 C 
ATOM     19  O   LIG d   1       8.924  -4.419  -7.193  0.00  0.00    -0.250 OA
ATOM     20  H   LIG d   1       6.553  -2.338  -2.490  0.00  0.00     0.028 H 
ATOM     21  H   LIG d   1       7.917  -1.483  -3.174  0.00  0.00     0.028 H 
ATOM     22  H   LIG d   1       6.422   1.626  -3.703  0.00  0.00     0.053 H 
ATOM     23  H   LIG d   1       5.437   1.822  -2.124  0.00  0.00     0.053 H 
ATOM     24  H   LIG d   1       4.271   0.073  -1.217  0.00  0.00     0.031 H 
ATOM     25  H   LIG d   1       5.288  -1.383  -1.263  0.00  0.00     0.031 H 
ATOM     26  H   LIG d   1       2.798  -0.797  -2.925  0.00  0.00     0.027 H 
ATOM     27  H   LIG d   1       3.023  -2.074  -1.726  0.00  0.00     0.027 H 
ATOM     28  H   LIG d   1       3.216  -2.979  -4.025  0.00  0.00     0.027 H 
ATOM     29  H   LIG d   1       4.712  -3.183  -3.103  0.00  0.00     0.027 H 
ATOM     30  H   LIG d   1       4.438  -3.122  -6.210  0.00  0.00     0.031 H 
ATOM     31  H   LIG d   1       5.876  -2.119  -6.479  0.00  0.00     0.031 H 
ENDROOT
BRANCH   1  32
ATOM     32  C   LIG d   1       8.659  -1.662  -5.779  0.00  0.00    -0.018 C 
ATOM     33  H   LIG d   1       8.033  -0.971  -5.214  0.00  0.00     0.082 H 
ATOM     34  H   LIG d   1       8.363  -1.645  -6.828  0.00  0.00     0.082 H 
BRANCH  32  35
ATOM     35  N   LIG d   1      10.074  -1.264  -5.632  0.00  0.00     0.236 N 
ATOM     36  C   LIG d   1      10.768  -2.198  -4.720  0.00  0.00    -0.031 C 
ATOM     37  C   LIG d   1      12.255  -1.838  -4.677  0.00  0.00     0.001 C 
ATOM     38  H   LIG d   1      10.351  -2.134  -3.716  0.00  0.00     0.082 H 
ATOM     39  H   LIG d   1      10.652  -3.215  -5.097  0.00  0.00     0.082 H 
ATOM     40  C   LIG d   1      12.413  -0.404  -4.165  0.00  0.00     0.066 C 
ATOM     41  H   LIG d   1      12.777  -2.522  -4.009  0.00  0.00     0.033 H 
ATOM     42  H   LIG d   1      12.677  -1.915  -5.679  0.00  0.00     0.033 H 
ATOM     43  C   LIG d   1      11.629   0.544  -5.076  0.00  0.00     0.001 C 
ATOM     44  H   LIG d   1      12.027  -0.334  -3.148  0.00  0.00     0.042 H 
ATOM     45  C   LIG d   1      10.160   0.114  -5.107  0.00  0.00    -0.031 C 
ATOM     46  H   LIG d   1      12.041   0.504  -6.085  0.00  0.00     0.033 H 
ATOM     47  H   LIG d   1      11.702   1.562  -4.694  0.00  0.00     0.033 H 
ATOM     48  H   LIG d   1       9.601   0.779  -5.766  0.00  0.00     0.082 H 
ATOM     49  H   LIG d   1       9.744   0.168  -4.101  0.00  0.00     0.082 H 
ATOM     50  H   LIG d   1      10.528  -1.300  -6.553  0.00  0.00     0.203 HD
BRANCH  40  51
ATOM     51  C   LIG d   1      13.871  -0.023  -4.178  0.00  0.00     0.311 C 
ATOM     52  O   LIG d   1      14.462   0.066  -5.228  0.00  0.00    -0.251 OA
BRANCH  51  53
ATOM     53  O   LIG d   1      14.512   0.218  -3.024  0.00  0.00    -0.465 OA
BRANCH  53  54
ATOM     54  C   LIG d   1      15.594  -0.683  -2.669  0.00  0.00     0.090 C 
ATOM     55  H   LIG d   1      15.372  -1.682  -3.043  0.00  0.00     0.069 H 
ATOM     56  H   LIG d   1      16.524  -0.326  -3.114  0.00  0.00     0.069 H 
BRANCH  54  57
ATOM     57  C   LIG d   1      15.742  -0.728  -1.148  0.00  0.00    -0.031 C 
ATOM     58  H   LIG d   1      15.103  -1.514  -0.744  0.00  0.00     0.026 H 
ATOM     59  H   LIG d   1      16.779  -0.936  -0.889  0.00  0.00     0.026 H 
ATOM     60  H   LIG d   1      15.447   0.232  -0.725  0.00  0.00     0.026 H 
ENDBRANCH  54  57
ENDBRANCH  53  54
ENDBRANCH  51  53
ENDBRANCH  40  51
ENDBRANCH  32  35
ENDBRANCH   1  32
BRANCH  13  61
ATOM     61  C   LIG d   1       3.897  -0.678  -5.328  0.00  0.00    -0.059 C 
ATOM     62  H   LIG d   1       3.017  -1.186  -5.725  0.00  0.00     0.024 H 
ATOM     63  H   LIG d   1       3.586   0.067  -4.596  0.00  0.00     0.024 H 
ATOM     64  H   LIG d   1       4.430  -0.187  -6.143  0.00  0.00     0.024 H 
ENDBRANCH  13  61
TORSDOF 7
ENDMDL
MODEL 9
REMARK VINA RESULT:      -5.5      4.156      7.888
REMARK  7 active torsions:
REMARK  status: ('A' for Active; 'I' for Inactive)
REMARK    1  A    between atoms: C_1  and  C_2 
REMARK    2  A    between atoms: C_2  and  O_3 
REMARK    3  A    between atoms: O_3  and  C_4 
REMARK    4  A    between atoms: C_4  and  C_6 
REMARK    5  A    between atoms: C_11  and  C_12 
REMARK    6  A    between atoms: C_11  and  N_63 
REMARK    7  A    between atoms: C_24  and  C_31 
ROOT
ATOM      1  C   LIG d   1       8.715  -1.791  -5.321  0.00  0.00     0.102 C 
ATOM      2  H   LIG d   1       9.718  -1.874  -4.880  0.00  0.00     0.047 H 
ATOM      3  C   LIG d   1       7.665  -2.330  -4.347  0.00  0.00     0.015 C 
ATOM      4  H   LIG d   1       8.188  -3.077  -3.702  0.00  0.00     0.035 H 
ATOM      5  C   LIG d   1       7.055  -1.330  -3.417  0.00  0.00    -0.039 C 
ATOM      6  C   LIG d   1       5.827  -0.585  -3.918  0.00  0.00    -0.014 C 
ATOM      7  H   LIG d   1       6.097   0.195  -4.635  0.00  0.00     0.035 H 
ATOM      8  C   LIG d   1       5.135   0.042  -2.718  0.00  0.00    -0.073 C 
ATOM      9  C   LIG d   1       5.055   1.343  -2.587  0.00  0.00    -0.099 C 
ATOM     10  C   LIG d   1       4.554  -0.887  -1.677  0.00  0.00    -0.032 C 
ATOM     11  C   LIG d   1       3.641  -1.906  -2.361  0.00  0.00    -0.049 C 
ATOM     12  C   LIG d   1       4.369  -2.584  -3.519  0.00  0.00    -0.047 C 
ATOM     13  C   LIG d   1       4.841  -1.571  -4.552  0.00  0.00    -0.022 C 
ATOM     14  C   LIG d   1       5.531  -2.269  -5.719  0.00  0.00    -0.009 C 
ATOM     15  C   LIG d   1       6.703  -3.121  -5.237  0.00  0.00     0.107 C 
ATOM     16  H   LIG d   1       6.335  -4.028  -4.723  0.00  0.00     0.074 H 
ATOM     17  O   LIG d   1       7.494  -3.461  -6.426  0.00  0.00    -0.461 OA
ATOM     18  C   LIG d   1       8.610  -2.728  -6.512  0.00  0.00     0.316 C 
ATOM     19  O   LIG d   1       9.422  -2.796  -7.411  0.00  0.00    -0.250 OA
ATOM     20  H   LIG d   1       6.783  -1.857  -2.489  0.00  0.00     0.028 H 
ATOM     21  H   LIG d   1       7.818  -0.598  -3.124  0.00  0.00     0.028 H 
ATOM     22  H   LIG d   1       5.484   1.989  -3.339  0.00  0.00     0.053 H 
ATOM     23  H   LIG d   1       4.559   1.770  -1.728  0.00  0.00     0.053 H 
ATOM     24  H   LIG d   1       3.976  -0.305  -0.955  0.00  0.00     0.031 H 
ATOM     25  H   LIG d   1       5.359  -1.403  -1.154  0.00  0.00     0.031 H 
ATOM     26  H   LIG d   1       2.730  -1.420  -2.701  0.00  0.00     0.027 H 
ATOM     27  H   LIG d   1       3.361  -2.671  -1.627  0.00  0.00     0.027 H 
ATOM     28  H   LIG d   1       3.694  -3.297  -4.001  0.00  0.00     0.027 H 
ATOM     29  H   LIG d   1       5.228  -3.140  -3.134  0.00  0.00     0.027 H 
ATOM     30  H   LIG d   1       4.804  -2.912  -6.217  0.00  0.00     0.031 H 
ATOM     31  H   LIG d   1       5.887  -1.523  -6.427  0.00  0.00     0.031 H 
ENDROOT
BRANCH   1  32
ATOM     32  C   LIG d   1       8.458  -0.350  -5.750  0.00  0.00    -0.018 C 
ATOM     33  H   LIG d   1       7.628   0.058  -5.172  0.00  0.00     0.082 H 
ATOM     34  H   LIG d   1       8.207  -0.326  -6.811  0.00  0.00     0.082 H 
BRANCH  32  35
ATOM     35  N   LIG d   1       9.672   0.448  -5.485  0.00  0.00     0.236 N 
ATOM     36  C   LIG d   1      10.798  -0.446  -5.141  0.00  0.00    -0.031 C 
ATOM     37  C   LIG d   1      12.069   0.393  -4.988  0.00  0.00     0.001 C 
ATOM     38  H   LIG d   1      10.598  -0.973  -4.209  0.00  0.00     0.082 H 
ATOM     39  H   LIG d   1      10.936  -1.169  -5.946  0.00  0.00     0.082 H 
ATOM     40  C   LIG d   1      11.866   1.420  -3.871  0.00  0.00     0.066 C 
ATOM     41  H   LIG d   1      12.906  -0.257  -4.736  0.00  0.00     0.033 H 
ATOM     42  H   LIG d   1      12.279   0.911  -5.924  0.00  0.00     0.033 H 
ATOM     43  C   LIG d   1      10.651   2.291  -4.204  0.00  0.00     0.001 C 
ATOM     44  H   LIG d   1      11.695   0.904  -2.926  0.00  0.00     0.042 H 
ATOM     45  C   LIG d   1       9.422   1.397  -4.380  0.00  0.00    -0.031 C 
ATOM     46  H   LIG d   1      10.839   2.838  -5.129  0.00  0.00     0.033 H 
ATOM     47  H   LIG d   1      10.475   2.997  -3.393  0.00  0.00     0.033 H 
ATOM     48  H   LIG d   1       8.558   2.013  -4.631  0.00  0.00     0.082 H 
ATOM     49  H   LIG d   1       9.227   0.861  -3.452  0.00  0.00     0.082 H 
ATOM     50  H   LIG d   1       9.914   0.978  -6.331  0.00  0.00     0.203 HD
BRANCH  40  51
ATOM     51  C   LIG d   1      13.092   2.288  -3.756  0.00  0.00     0.311 C 
ATOM     52  O   LIG d   1      14.186   1.781  -3.673  0.00  0.00    -0.251 OA
BRANCH  51  53
ATOM     53  O   LIG d   1      12.970   3.625  -3.748  0.00  0.00    -0.465 OA
BRANCH  53  54
ATOM     54  C   LIG d   1      13.723   4.363  -4.746  0.00  0.00     0.090 C 
ATOM     55  H   LIG d   1      14.286   5.160  -4.260  0.00  0.00     0.069 H 
ATOM     56  H   LIG d   1      14.413   3.687  -5.253  0.00  0.00     0.069 H 
BRANCH  54  57
ATOM     57  C   LIG d   1      12.760   4.968  -5.768  0.00  0.00    -0.031 C 
ATOM     58  H   LIG d   1      13.311   5.623  -6.443  0.00  0.00     0.026 H 
ATOM     59  H   LIG d   1      12.290   4.170  -6.341  0.00  0.00     0.026 H 
ATOM     60  H   LIG d   1      11.994   5.544  -5.249  0.00  0.00     0.026 H 
ENDBRANCH  54  57
ENDBRANCH  53  54
ENDBRANCH  51  53
ENDBRANCH  40  51
ENDBRANCH  32  35
ENDBRANCH   1  32
BRANCH  13  61
ATOM     61  C   LIG d   1       3.638  -0.802  -5.108  0.00  0.00    -0.059 C 
ATOM     62  H   LIG d   1       3.522  -1.025  -6.169  0.00  0.00     0.024 H 
ATOM     63  H   LIG d   1       2.736  -1.102  -4.574  0.00  0.00     0.024 H 
ATOM     64  H   LIG d   1       3.798   0.269  -4.977  0.00  0.00     0.024 H 
ENDBRANCH  13  61
TORSDOF 7
ENDMDL
