MODEL 1
REMARK VINA RESULT:      -6.1      0.000      0.000
REMARK  3 active torsions:
REMARK  status: ('A' for Active; 'I' for Inactive)
REMARK    1  A    between atoms: C_6  and  N_7 
REMARK    2  A    between atoms: N_7  and  N_8 
REMARK    3  A    between atoms: N_8  and  C_9 
ROOT
ATOM      1  N   LIG d   1       2.937   1.063  -6.878  0.00  0.00    -0.149 NA
ENDROOT
BRANCH   1   2
ATOM      2  C   LIG d   1       3.146   0.266  -5.788  0.00  0.00     0.086 A 
ATOM      3  C   LIG d   1       2.333   0.394  -4.658  0.00  0.00    -0.033 A 
ATOM      4  C   LIG d   1       2.550  -0.413  -3.562  0.00  0.00    -0.041 A 
ATOM      5  H   LIG d   1       1.534   1.121  -4.646  0.00  0.00     0.064 H 
ATOM      6  C   LIG d   1       3.570  -1.350  -3.578  0.00  0.00     0.041 A 
ATOM      7  H   LIG d   1       1.922  -0.315  -2.688  0.00  0.00     0.063 H 
ATOM      8  C   LIG d   1       4.379  -1.482  -4.695  0.00  0.00    -0.041 A 
ATOM      9 CL   LIG d   1       3.836  -2.363  -2.193  0.00  0.00    -0.084 Cl
ATOM     10  C   LIG d   1       4.174  -0.680  -5.798  0.00  0.00    -0.033 A 
ATOM     11  H   LIG d   1       5.173  -2.214  -4.701  0.00  0.00     0.063 H 
ATOM     12  H   LIG d   1       4.807  -0.784  -6.667  0.00  0.00     0.064 H 
ENDBRANCH   1   2
BRANCH   1  13
ATOM     13  N   LIG d   1       3.697   0.951  -7.914  0.00  0.00    -0.149 NA
BRANCH  13  14
ATOM     14  C   LIG d   1       3.221   0.361  -9.051  0.00  0.00     0.086 A 
ATOM     15  C   LIG d   1       2.050  -0.400  -9.011  0.00  0.00    -0.033 A 
ATOM     16  C   LIG d   1       1.572  -0.987 -10.163  0.00  0.00    -0.041 A 
ATOM     17  H   LIG d   1       1.517  -0.524  -8.080  0.00  0.00     0.064 H 
ATOM     18  C   LIG d   1       2.258  -0.834 -11.358  0.00  0.00     0.041 A 
ATOM     19  H   LIG d   1       0.665  -1.571 -10.134  0.00  0.00     0.063 H 
ATOM     20  C   LIG d   1       3.423  -0.086 -11.404  0.00  0.00    -0.041 A 
ATOM     21 CL   LIG d   1       1.654  -1.583 -12.802  0.00  0.00    -0.084 Cl
ATOM     22  C   LIG d   1       3.908   0.513 -10.260  0.00  0.00    -0.033 A 
ATOM     23  H   LIG d   1       3.951   0.030 -12.339  0.00  0.00     0.063 H 
ATOM     24  H   LIG d   1       4.815   1.096 -10.299  0.00  0.00     0.064 H 
ENDBRANCH  13  14
ENDBRANCH   1  13
TORSDOF 3
ENDMDL
MODEL 2
REMARK VINA RESULT:      -6.1      0.081      6.451
REMARK  3 active torsions:
REMARK  status: ('A' for Active; 'I' for Inactive)
REMARK    1  A    between atoms: C_6  and  N_7 
REMARK    2  A    between atoms: N_7  and  N_8 
REMARK    3  A    between atoms: N_8  and  C_9 
ROOT
ATOM      1  N   LIG d   1       3.697   1.032  -7.911  0.00  0.00    -0.149 NA
ENDROOT
BRANCH   1   2
ATOM      2  C   LIG d   1       3.259   0.427  -9.055  0.00  0.00     0.086 A 
ATOM      3  C   LIG d   1       3.972   0.581 -10.248  0.00  0.00    -0.033 A 
ATOM      4  C   LIG d   1       3.525  -0.032 -11.398  0.00  0.00    -0.041 A 
ATOM      5  H   LIG d   1       4.874   1.175 -10.266  0.00  0.00     0.064 H 
ATOM      6  C   LIG d   1       2.372  -0.799 -11.375  0.00  0.00     0.041 A 
ATOM      7  H   LIG d   1       4.075   0.086 -12.320  0.00  0.00     0.063 H 
ATOM      8  C   LIG d   1       1.660  -0.956 -10.197  0.00  0.00    -0.041 A 
ATOM      9 CL   LIG d   1       1.815  -1.568 -12.829  0.00  0.00    -0.084 Cl
ATOM     10  C   LIG d   1       2.096  -0.348  -9.038  0.00  0.00    -0.033 A 
ATOM     11  H   LIG d   1       0.762  -1.555 -10.185  0.00  0.00     0.063 H 
ATOM     12  H   LIG d   1       1.540  -0.470  -8.121  0.00  0.00     0.064 H 
ENDBRANCH   1   2
BRANCH   1  13
ATOM     13  N   LIG d   1       2.920   1.110  -6.884  0.00  0.00    -0.149 NA
BRANCH  13  14
ATOM     14  C   LIG d   1       3.133   0.302  -5.802  0.00  0.00     0.086 A 
ATOM     15  C   LIG d   1       2.315   0.408  -4.674  0.00  0.00    -0.033 A 
ATOM     16  C   LIG d   1       2.532  -0.414  -3.589  0.00  0.00    -0.041 A 
ATOM     17  H   LIG d   1       1.511   1.129  -4.654  0.00  0.00     0.064 H 
ATOM     18  C   LIG d   1       3.567  -1.335  -3.610  0.00  0.00     0.041 A 
ATOM     19  H   LIG d   1       1.898  -0.336  -2.719  0.00  0.00     0.063 H 
ATOM     20  C   LIG d   1       4.386  -1.442  -4.723  0.00  0.00    -0.041 A 
ATOM     21 CL   LIG d   1       3.839  -2.361  -2.236  0.00  0.00    -0.084 Cl
ATOM     22  C   LIG d   1       4.175  -0.631  -5.818  0.00  0.00    -0.033 A 
ATOM     23  H   LIG d   1       5.190  -2.162  -4.733  0.00  0.00     0.063 H 
ATOM     24  H   LIG d   1       4.813  -0.715  -6.684  0.00  0.00     0.064 H 
ENDBRANCH  13  14
ENDBRANCH   1  13
TORSDOF 3
ENDMDL
MODEL 3
REMARK VINA RESULT:      -5.7      6.310      8.509
REMARK  3 active torsions:
REMARK  status: ('A' for Active; 'I' for Inactive)
REMARK    1  A    between atoms: C_6  and  N_7 
REMARK    2  A    between atoms: N_7  and  N_8 
REMARK    3  A    between atoms: N_8  and  C_9 
ROOT
ATOM      1  N   LIG d   1       8.452   1.756  -3.708  0.00  0.00    -0.149 NA
ENDROOT
BRANCH   1   2
ATOM      2  C   LIG d   1       9.311   2.819  -3.709  0.00  0.00     0.086 A 
ATOM      3  C   LIG d   1       9.084   3.905  -4.560  0.00  0.00    -0.033 A 
ATOM      4  C   LIG d   1       9.954   4.973  -4.555  0.00  0.00    -0.041 A 
ATOM      5  H   LIG d   1       8.226   3.907  -5.216  0.00  0.00     0.064 H 
ATOM      6  C   LIG d   1      11.052   4.973  -3.710  0.00  0.00     0.041 A 
ATOM      7  H   LIG d   1       9.780   5.813  -5.212  0.00  0.00     0.063 H 
ATOM      8  C   LIG d   1      11.283   3.900  -2.865  0.00  0.00    -0.041 A 
ATOM      9 CL   LIG d   1      12.144   6.323  -3.711  0.00  0.00    -0.084 Cl
ATOM     10  C   LIG d   1      10.421   2.824  -2.859  0.00  0.00    -0.033 A 
ATOM     11  H   LIG d   1      12.141   3.907  -2.209  0.00  0.00     0.063 H 
ATOM     12  H   LIG d   1      10.603   1.988  -2.200  0.00  0.00     0.064 H 
ENDBRANCH   1   2
BRANCH   1  13
ATOM     13  N   LIG d   1       7.183   1.954  -3.590  0.00  0.00    -0.149 NA
BRANCH  13  14
ATOM     14  C   LIG d   1       6.359   0.920  -3.245  0.00  0.00     0.086 A 
ATOM     15  C   LIG d   1       6.721  -0.397  -3.540  0.00  0.00    -0.033 A 
ATOM     16  C   LIG d   1       5.888  -1.436  -3.184  0.00  0.00    -0.041 A 
ATOM     17  H   LIG d   1       7.656  -0.601  -4.043  0.00  0.00     0.064 H 
ATOM     18  C   LIG d   1       4.687  -1.175  -2.545  0.00  0.00     0.041 A 
ATOM     19  H   LIG d   1       6.170  -2.454  -3.407  0.00  0.00     0.063 H 
ATOM     20  C   LIG d   1       4.317   0.128  -2.254  0.00  0.00    -0.041 A 
ATOM     21 CL   LIG d   1       3.640  -2.489  -2.106  0.00  0.00    -0.084 Cl
ATOM     22  C   LIG d   1       5.145   1.175  -2.599  0.00  0.00    -0.033 A 
ATOM     23  H   LIG d   1       3.380   0.323  -1.755  0.00  0.00     0.063 H 
ATOM     24  H   LIG d   1       4.856   2.190  -2.371  0.00  0.00     0.064 H 
ENDBRANCH  13  14
ENDBRANCH   1  13
TORSDOF 3
ENDMDL
MODEL 4
REMARK VINA RESULT:      -5.6      6.069      8.116
REMARK  3 active torsions:
REMARK  status: ('A' for Active; 'I' for Inactive)
REMARK    1  A    between atoms: C_6  and  N_7 
REMARK    2  A    between atoms: N_7  and  N_8 
REMARK    3  A    between atoms: N_8  and  C_9 
ROOT
ATOM      1  N   LIG d   1       7.746   1.967  -4.460  0.00  0.00    -0.149 NA
ENDROOT
BRANCH   1   2
ATOM      2  C   LIG d   1       9.092   1.850  -4.259  0.00  0.00     0.086 A 
ATOM      3  C   LIG d   1       9.836   0.931  -5.006  0.00  0.00    -0.033 A 
ATOM      4  C   LIG d   1      11.194   0.817  -4.798  0.00  0.00    -0.041 A 
ATOM      5  H   LIG d   1       9.347   0.314  -5.745  0.00  0.00     0.064 H 
ATOM      6  C   LIG d   1      11.822   1.612  -3.854  0.00  0.00     0.041 A 
ATOM      7  H   LIG d   1      11.769   0.108  -5.374  0.00  0.00     0.063 H 
ATOM      8  C   LIG d   1      11.092   2.525  -3.110  0.00  0.00    -0.041 A 
ATOM      9 CL   LIG d   1      13.534   1.463  -3.598  0.00  0.00    -0.084 Cl
ATOM     10  C   LIG d   1       9.732   2.648  -3.307  0.00  0.00    -0.033 A 
ATOM     11  H   LIG d   1      11.588   3.141  -2.375  0.00  0.00     0.063 H 
ATOM     12  H   LIG d   1       9.164   3.359  -2.726  0.00  0.00     0.064 H 
ENDBRANCH   1   2
BRANCH   1  13
ATOM     13  N   LIG d   1       6.948   2.042  -3.449  0.00  0.00    -0.149 NA
BRANCH  13  14
ATOM     14  C   LIG d   1       6.163   0.973  -3.117  0.00  0.00     0.086 A 
ATOM     15  C   LIG d   1       6.536  -0.318  -3.497  0.00  0.00    -0.033 A 
ATOM     16  C   LIG d   1       5.743  -1.392  -3.154  0.00  0.00    -0.041 A 
ATOM     17  H   LIG d   1       7.448  -0.476  -4.056  0.00  0.00     0.064 H 
ATOM     18  C   LIG d   1       4.570  -1.191  -2.444  0.00  0.00     0.041 A 
ATOM     19  H   LIG d   1       6.033  -2.391  -3.443  0.00  0.00     0.063 H 
ATOM     20  C   LIG d   1       4.191   0.087  -2.068  0.00  0.00    -0.041 A 
ATOM     21 CL   LIG d   1       3.573  -2.548  -2.022  0.00  0.00    -0.084 Cl
ATOM     22  C   LIG d   1       4.979   1.169  -2.399  0.00  0.00    -0.033 A 
ATOM     23  H   LIG d   1       3.276   0.236  -1.513  0.00  0.00     0.063 H 
ATOM     24  H   LIG d   1       4.682   2.164  -2.105  0.00  0.00     0.064 H 
ENDBRANCH  13  14
ENDBRANCH   1  13
TORSDOF 3
ENDMDL
MODEL 5
REMARK VINA RESULT:      -5.5      6.095      7.826
REMARK  3 active torsions:
REMARK  status: ('A' for Active; 'I' for Inactive)
REMARK    1  A    between atoms: C_6  and  N_7 
REMARK    2  A    between atoms: N_7  and  N_8 
REMARK    3  A    between atoms: N_8  and  C_9 
ROOT
ATOM      1  N   LIG d   1       7.016   2.012  -3.495  0.00  0.00    -0.149 NA
ENDROOT
BRANCH   1   2
ATOM      2  C   LIG d   1       6.225   0.947  -3.168  0.00  0.00     0.086 A 
ATOM      3  C   LIG d   1       6.617  -0.350  -3.512  0.00  0.00    -0.033 A 
ATOM      4  C   LIG d   1       5.815  -1.420  -3.179  0.00  0.00    -0.041 A 
ATOM      5  H   LIG d   1       7.549  -0.513  -4.033  0.00  0.00     0.064 H 
ATOM      6  C   LIG d   1       4.622  -1.213  -2.505  0.00  0.00     0.041 A 
ATOM      7  H   LIG d   1       6.117  -2.422  -3.444  0.00  0.00     0.063 H 
ATOM      8  C   LIG d   1       4.228   0.070  -2.162  0.00  0.00    -0.041 A 
ATOM      9 CL   LIG d   1       3.617  -2.566  -2.090  0.00  0.00    -0.084 Cl
ATOM     10  C   LIG d   1       5.020   1.150  -2.489  0.00  0.00    -0.033 A 
ATOM     11  H   LIG d   1       3.296   0.225  -1.637  0.00  0.00     0.063 H 
ATOM     12  H   LIG d   1       4.711   2.149  -2.222  0.00  0.00     0.064 H 
ENDBRANCH   1   2
BRANCH   1  13
ATOM     13  N   LIG d   1       8.226   1.817  -3.898  0.00  0.00    -0.149 NA
BRANCH  13  14
ATOM     14  C   LIG d   1       9.014   2.882  -4.234  0.00  0.00     0.086 A 
ATOM     15  C   LIG d   1       9.611   3.657  -3.236  0.00  0.00    -0.033 A 
ATOM     16  C   LIG d   1      10.411   4.726  -3.582  0.00  0.00    -0.041 A 
ATOM     17  H   LIG d   1       9.451   3.416  -2.195  0.00  0.00     0.064 H 
ATOM     18  C   LIG d   1      10.612   5.040  -4.916  0.00  0.00     0.041 A 
ATOM     19  H   LIG d   1      10.876   5.321  -2.812  0.00  0.00     0.063 H 
ATOM     20  C   LIG d   1      10.019   4.280  -5.911  0.00  0.00    -0.041 A 
ATOM     21 CL   LIG d   1      11.614   6.392  -5.343  0.00  0.00    -0.084 Cl
ATOM     22  C   LIG d   1       9.223   3.204  -5.579  0.00  0.00    -0.033 A 
ATOM     23  H   LIG d   1      10.181   4.530  -6.949  0.00  0.00     0.063 H 
ATOM     24  H   LIG d   1       8.762   2.613  -6.355  0.00  0.00     0.064 H 
ENDBRANCH  13  14
ENDBRANCH   1  13
TORSDOF 3
ENDMDL
MODEL 6
REMARK VINA RESULT:      -5.5      4.855      7.299
REMARK  3 active torsions:
REMARK  status: ('A' for Active; 'I' for Inactive)
REMARK    1  A    between atoms: C_6  and  N_7 
REMARK    2  A    between atoms: N_7  and  N_8 
REMARK    3  A    between atoms: N_8  and  C_9 
ROOT
ATOM      1  N   LIG d   1       4.294  -4.005  -5.804  0.00  0.00    -0.149 NA
ENDROOT
BRANCH   1   2
ATOM      2  C   LIG d   1       4.367  -5.281  -6.288  0.00  0.00     0.086 A 
ATOM      3  C   LIG d   1       3.998  -5.552  -7.609  0.00  0.00    -0.033 A 
ATOM      4  C   LIG d   1       4.073  -6.841  -8.092  0.00  0.00    -0.041 A 
ATOM      5  H   LIG d   1       3.658  -4.752  -8.251  0.00  0.00     0.064 H 
ATOM      6  C   LIG d   1       4.514  -7.866  -7.271  0.00  0.00     0.041 A 
ATOM      7  H   LIG d   1       3.788  -7.052  -9.112  0.00  0.00     0.063 H 
ATOM      8  C   LIG d   1       4.881  -7.605  -5.962  0.00  0.00    -0.041 A 
ATOM      9 CL   LIG d   1       4.606  -9.488  -7.887  0.00  0.00    -0.084 Cl
ATOM     10  C   LIG d   1       4.809  -6.320  -5.466  0.00  0.00    -0.033 A 
ATOM     11  H   LIG d   1       5.223  -8.409  -5.327  0.00  0.00     0.063 H 
ATOM     12  H   LIG d   1       5.095  -6.118  -4.444  0.00  0.00     0.064 H 
ENDBRANCH   1   2
BRANCH   1  13
ATOM     13  N   LIG d   1       4.574  -3.769  -4.567  0.00  0.00    -0.149 NA
BRANCH  13  14
ATOM     14  C   LIG d   1       4.357  -2.525  -4.043  0.00  0.00     0.086 A 
ATOM     15  C   LIG d   1       4.131  -2.369  -2.673  0.00  0.00    -0.033 A 
ATOM     16  C   LIG d   1       3.919  -1.111  -2.150  0.00  0.00    -0.041 A 
ATOM     17  H   LIG d   1       4.128  -3.233  -2.023  0.00  0.00     0.064 H 
ATOM     18  C   LIG d   1       3.917  -0.004  -2.983  0.00  0.00     0.041 A 
ATOM     19  H   LIG d   1       3.750  -0.989  -1.091  0.00  0.00     0.063 H 
ATOM     20  C   LIG d   1       4.134  -0.151  -4.343  0.00  0.00    -0.041 A 
ATOM     21 CL   LIG d   1       3.642   1.576  -2.318  0.00  0.00    -0.084 Cl
ATOM     22  C   LIG d   1       4.354  -1.403  -4.878  0.00  0.00    -0.033 A 
ATOM     23  H   LIG d   1       4.132   0.716  -4.986  0.00  0.00     0.063 H 
ATOM     24  H   LIG d   1       4.523  -1.516  -5.937  0.00  0.00     0.064 H 
ENDBRANCH  13  14
ENDBRANCH   1  13
TORSDOF 3
ENDMDL
MODEL 7
REMARK VINA RESULT:      -5.2      6.268      8.181
REMARK  3 active torsions:
REMARK  status: ('A' for Active; 'I' for Inactive)
REMARK    1  A    between atoms: C_6  and  N_7 
REMARK    2  A    between atoms: N_7  and  N_8 
REMARK    3  A    between atoms: N_8  and  C_9 
ROOT
ATOM      1  N   LIG d   1       8.466  -3.027  -3.940  0.00  0.00    -0.149 NA
ENDROOT
BRANCH   1   2
ATOM      2  C   LIG d   1       8.891  -4.247  -3.493  0.00  0.00     0.086 A 
ATOM      3  C   LIG d   1       8.743  -5.380  -4.299  0.00  0.00    -0.033 A 
ATOM      4  C   LIG d   1       9.175  -6.606  -3.842  0.00  0.00    -0.041 A 
ATOM      5  H   LIG d   1       8.296  -5.293  -5.278  0.00  0.00     0.064 H 
ATOM      6  C   LIG d   1       9.754  -6.719  -2.589  0.00  0.00     0.041 A 
ATOM      7  H   LIG d   1       9.061  -7.483  -4.464  0.00  0.00     0.063 H 
ATOM      8  C   LIG d   1       9.903  -5.600  -1.786  0.00  0.00    -0.041 A 
ATOM      9 CL   LIG d   1      10.295  -8.268  -2.021  0.00  0.00    -0.084 Cl
ATOM     10  C   LIG d   1       9.475  -4.366  -2.230  0.00  0.00    -0.033 A 
ATOM     11  H   LIG d   1      10.355  -5.694  -0.809  0.00  0.00     0.063 H 
ATOM     12  H   LIG d   1       9.591  -3.495  -1.602  0.00  0.00     0.064 H 
ENDBRANCH   1   2
BRANCH   1  13
ATOM     13  N   LIG d   1       7.239  -2.867  -4.308  0.00  0.00    -0.149 NA
BRANCH  13  14
ATOM     14  C   LIG d   1       6.477  -1.885  -3.741  0.00  0.00     0.086 A 
ATOM     15  C   LIG d   1       5.227  -2.191  -3.197  0.00  0.00    -0.033 A 
ATOM     16  C   LIG d   1       4.466  -1.196  -2.621  0.00  0.00    -0.041 A 
ATOM     17  H   LIG d   1       4.859  -3.206  -3.224  0.00  0.00     0.064 H 
ATOM     18  C   LIG d   1       4.934   0.108  -2.591  0.00  0.00     0.041 A 
ATOM     19  H   LIG d   1       3.502  -1.432  -2.197  0.00  0.00     0.063 H 
ATOM     20  C   LIG d   1       6.170   0.420  -3.133  0.00  0.00    -0.041 A 
ATOM     21 CL   LIG d   1       3.967   1.356  -1.871  0.00  0.00    -0.084 Cl
ATOM     22  C   LIG d   1       6.944  -0.567  -3.706  0.00  0.00    -0.033 A 
ATOM     23  H   LIG d   1       6.529   1.438  -3.106  0.00  0.00     0.063 H 
ATOM     24  H   LIG d   1       7.907  -0.322  -4.128  0.00  0.00     0.064 H 
ENDBRANCH  13  14
ENDBRANCH   1  13
TORSDOF 3
ENDMDL
MODEL 8
REMARK VINA RESULT:      -5.1      2.721      3.161
REMARK  3 active torsions:
REMARK  status: ('A' for Active; 'I' for Inactive)
REMARK    1  A    between atoms: C_6  and  N_7 
REMARK    2  A    between atoms: N_7  and  N_8 
REMARK    3  A    between atoms: N_8  and  C_9 
ROOT
ATOM      1  N   LIG d   1       5.317  -2.468  -6.076  0.00  0.00    -0.149 NA
ENDROOT
BRANCH   1   2
ATOM      2  C   LIG d   1       5.157  -1.679  -4.973  0.00  0.00     0.086 A 
ATOM      3  C   LIG d   1       5.963  -0.551  -4.794  0.00  0.00    -0.033 A 
ATOM      4  C   LIG d   1       5.796   0.241  -3.678  0.00  0.00    -0.041 A 
ATOM      5  H   LIG d   1       6.711  -0.299  -5.530  0.00  0.00     0.064 H 
ATOM      6  C   LIG d   1       4.832  -0.078  -2.735  0.00  0.00     0.041 A 
ATOM      7  H   LIG d   1       6.418   1.113  -3.538  0.00  0.00     0.063 H 
ATOM      8  C   LIG d   1       4.031  -1.195  -2.906  0.00  0.00    -0.041 A 
ATOM      9 CL   LIG d   1       4.629   0.925  -1.332  0.00  0.00    -0.084 Cl
ATOM     10  C   LIG d   1       4.187  -1.996  -4.018  0.00  0.00    -0.033 A 
ATOM     11  H   LIG d   1       3.281  -1.438  -2.168  0.00  0.00     0.063 H 
ATOM     12  H   LIG d   1       3.561  -2.867  -4.149  0.00  0.00     0.064 H 
ENDBRANCH   1   2
BRANCH   1  13
ATOM     13  N   LIG d   1       4.451  -2.424  -7.032  0.00  0.00    -0.149 NA
BRANCH  13  14
ATOM     14  C   LIG d   1       4.247  -1.258  -7.716  0.00  0.00     0.086 A 
ATOM     15  C   LIG d   1       3.025  -0.589  -7.618  0.00  0.00    -0.033 A 
ATOM     16  C   LIG d   1       2.829   0.589  -8.307  0.00  0.00    -0.041 A 
ATOM     17  H   LIG d   1       2.236  -0.991  -6.999  0.00  0.00     0.064 H 
ATOM     18  C   LIG d   1       3.837   1.103  -9.106  0.00  0.00     0.041 A 
ATOM     19  H   LIG d   1       1.887   1.109  -8.228  0.00  0.00     0.063 H 
ATOM     20  C   LIG d   1       5.050   0.442  -9.214  0.00  0.00    -0.041 A 
ATOM     21 CL   LIG d   1       3.580   2.583  -9.977  0.00  0.00    -0.084 Cl
ATOM     22  C   LIG d   1       5.261  -0.734  -8.525  0.00  0.00    -0.033 A 
ATOM     23  H   LIG d   1       5.832   0.849  -9.838  0.00  0.00     0.063 H 
ATOM     24  H   LIG d   1       6.207  -1.247  -8.609  0.00  0.00     0.064 H 
ENDBRANCH  13  14
ENDBRANCH   1  13
TORSDOF 3
ENDMDL
MODEL 9
REMARK VINA RESULT:      -5.1      1.829      2.105
REMARK  3 active torsions:
REMARK  status: ('A' for Active; 'I' for Inactive)
REMARK    1  A    between atoms: C_6  and  N_7 
REMARK    2  A    between atoms: N_7  and  N_8 
REMARK    3  A    between atoms: N_8  and  C_9 
ROOT
ATOM      1  N   LIG d   1       4.551  -0.889  -6.987  0.00  0.00    -0.149 NA
ENDROOT
BRANCH   1   2
ATOM      2  C   LIG d   1       4.550  -0.447  -5.694  0.00  0.00     0.086 A 
ATOM      3  C   LIG d   1       3.360  -0.014  -5.101  0.00  0.00    -0.033 A 
ATOM      4  C   LIG d   1       3.366   0.430  -3.797  0.00  0.00    -0.041 A 
ATOM      5  H   LIG d   1       2.438  -0.032  -5.664  0.00  0.00     0.064 H 
ATOM      6  C   LIG d   1       4.546   0.448  -3.073  0.00  0.00     0.041 A 
ATOM      7  H   LIG d   1       2.447   0.765  -3.337  0.00  0.00     0.063 H 
ATOM      8  C   LIG d   1       5.729   0.021  -3.654  0.00  0.00    -0.041 A 
ATOM      9 CL   LIG d   1       4.545   1.010  -1.429  0.00  0.00    -0.084 Cl
ATOM     10  C   LIG d   1       5.738  -0.425  -4.959  0.00  0.00    -0.033 A 
ATOM     11  H   LIG d   1       6.646   0.038  -3.084  0.00  0.00     0.063 H 
ATOM     12  H   LIG d   1       6.661  -0.757  -5.411  0.00  0.00     0.064 H 
ENDBRANCH   1   2
BRANCH   1  13
ATOM     13  N   LIG d   1       3.869  -0.261  -7.884  0.00  0.00    -0.149 NA
BRANCH  13  14
ATOM     14  C   LIG d   1       3.075  -0.957  -8.751  0.00  0.00     0.086 A 
ATOM     15  C   LIG d   1       3.244  -2.335  -8.907  0.00  0.00    -0.033 A 
ATOM     16  C   LIG d   1       2.435  -3.033  -9.779  0.00  0.00    -0.041 A 
ATOM     17  H   LIG d   1       4.003  -2.855  -8.340  0.00  0.00     0.064 H 
ATOM     18  C   LIG d   1       1.465  -2.367 -10.511  0.00  0.00     0.041 A 
ATOM     19  H   LIG d   1       2.562  -4.098  -9.896  0.00  0.00     0.063 H 
ATOM     20  C   LIG d   1       1.296  -1.000 -10.367  0.00  0.00    -0.041 A 
ATOM     21 CL   LIG d   1       0.457  -3.251 -11.613  0.00  0.00    -0.084 Cl
ATOM     22  C   LIG d   1       2.093  -0.291  -9.492  0.00  0.00    -0.033 A 
ATOM     23  H   LIG d   1       0.537  -0.487 -10.940  0.00  0.00     0.063 H 
ATOM     24  H   LIG d   1       1.959   0.774  -9.381  0.00  0.00     0.064 H 
ENDBRANCH  13  14
ENDBRANCH   1  13
TORSDOF 3
ENDMDL
