MODEL 1
REMARK VINA RESULT:      -5.5      0.000      0.000
REMARK  5 active torsions:
REMARK  status: ('A' for Active; 'I' for Inactive)
REMARK    1  A    between atoms: C_1  and  C_2 
REMARK    2  A    between atoms: C_3  and  O_18 
REMARK    3  A    between atoms: C_10  and  C_11 
REMARK    4  A    between atoms: O_18  and  S_19 
REMARK    5  A    between atoms: S_19  and  C_22 
ROOT
ATOM      1  C   LIG d   1       3.258  -2.333  -9.285  0.00  0.00     0.037 A 
ATOM      2  C   LIG d   1       3.009  -2.091 -10.626  0.00  0.00     0.163 A 
ATOM      3  C   LIG d   1       2.722  -0.804 -11.071  0.00  0.00    -0.016 A 
ATOM      4  C   LIG d   1       2.674   0.236 -10.185  0.00  0.00    -0.044 A 
ATOM      5  C   LIG d   1       2.924   0.007  -8.832  0.00  0.00     0.068 A 
ATOM      6  C   LIG d   1       3.219  -1.287  -8.373  0.00  0.00     0.146 A 
ATOM      7  O   LIG d   1       3.418  -1.241  -7.038  0.00  0.00    -0.451 OA
ATOM      8  C   LIG d   1       3.274   0.017  -6.560  0.00  0.00     0.179 A 
ATOM      9  C   LIG d   1       3.411   0.394  -5.256  0.00  0.00     0.027 C 
ATOM     10  C   LIG d   1       2.956   0.878  -7.645  0.00  0.00     0.232 A 
ATOM     11  O   LIG d   1       2.755   2.081  -7.602  0.00  0.00    -0.283 OA
ATOM     12  H   LIG d   1       2.533  -0.626 -12.120  0.00  0.00     0.066 H 
ATOM     13  H   LIG d   1       2.447   1.234 -10.532  0.00  0.00     0.063 H 
ATOM     14  H   LIG d   1       3.276   1.428  -4.976  0.00  0.00     0.069 H 
ENDROOT
BRANCH   9  15
ATOM     15  C   LIG d   1       3.731  -0.568  -4.272  0.00  0.00     0.131 A 
ATOM     16  O   LIG d   1       4.891  -1.250  -4.174  0.00  0.00    -0.463 OA
ATOM     17  C   LIG d   1       4.837  -2.074  -3.118  0.00  0.00     0.092 A 
ATOM     18  C   LIG d   1       3.632  -1.942  -2.518  0.00  0.00    -0.023 A 
ATOM     19  H   LIG d   1       5.626  -2.737  -2.799  0.00  0.00     0.103 H 
ATOM     20  C   LIG d   1       2.909  -0.984  -3.242  0.00  0.00    -0.016 A 
ATOM     21  H   LIG d   1       3.290  -2.477  -1.644  0.00  0.00     0.065 H 
ATOM     22  H   LIG d   1       1.907  -0.637  -3.035  0.00  0.00     0.066 H 
ENDBRANCH   9  15
BRANCH   1  23
ATOM     23  C   LIG d   1       3.574  -3.730  -8.817  0.00  0.00    -0.033 C 
ATOM     24  H   LIG d   1       4.424  -4.118  -9.378  0.00  0.00     0.028 H 
ATOM     25  H   LIG d   1       3.817  -3.712  -7.754  0.00  0.00     0.028 H 
ATOM     26  H   LIG d   1       2.708  -4.372  -8.980  0.00  0.00     0.028 H 
ENDBRANCH   1  23
BRANCH   2  27
ATOM     27  O   LIG d   1       3.049  -3.116 -11.515  0.00  0.00    -0.346 OA
BRANCH  27  28
ATOM     28  S   LIG d   1       1.680  -3.559 -12.012  0.00  0.00     0.118 S 
ATOM     29  O   LIG d   1       1.538  -2.937 -13.282  0.00  0.00    -0.137 OA
ATOM     30  O   LIG d   1       0.790  -3.247 -10.949  0.00  0.00    -0.137 OA
BRANCH  28  31
ATOM     31  C   LIG d   1       1.814  -5.357 -12.208  0.00  0.00     0.092 C 
ATOM     32  H   LIG d   1       1.779  -5.611 -13.266  0.00  0.00     0.050 H 
ATOM     33  H   LIG d   1       2.759  -5.699 -11.783  0.00  0.00     0.050 H 
ATOM     34  H   LIG d   1       0.987  -5.841 -11.689  0.00  0.00     0.050 H 
ENDBRANCH  28  31
ENDBRANCH  27  28
ENDBRANCH   2  27
TORSDOF 5
ENDMDL
MODEL 2
REMARK VINA RESULT:      -5.4      2.300      3.636
REMARK  5 active torsions:
REMARK  status: ('A' for Active; 'I' for Inactive)
REMARK    1  A    between atoms: C_1  and  C_2 
REMARK    2  A    between atoms: C_3  and  O_18 
REMARK    3  A    between atoms: C_10  and  C_11 
REMARK    4  A    between atoms: O_18  and  S_19 
REMARK    5  A    between atoms: S_19  and  C_22 
ROOT
ATOM      1  C   LIG d   1       3.563  -0.867  -8.214  0.00  0.00     0.037 A 
ATOM      2  C   LIG d   1       3.360  -1.544  -9.406  0.00  0.00     0.163 A 
ATOM      3  C   LIG d   1       3.617  -2.909  -9.497  0.00  0.00    -0.016 A 
ATOM      4  C   LIG d   1       4.083  -3.595  -8.411  0.00  0.00    -0.044 A 
ATOM      5  C   LIG d   1       4.291  -2.927  -7.205  0.00  0.00     0.068 A 
ATOM      6  C   LIG d   1       4.031  -1.551  -7.100  0.00  0.00     0.146 A 
ATOM      7  O   LIG d   1       4.311  -1.149  -5.842  0.00  0.00    -0.451 OA
ATOM      8  C   LIG d   1       4.750  -2.178  -5.080  0.00  0.00     0.179 A 
ATOM      9  C   LIG d   1       5.114  -2.098  -3.768  0.00  0.00     0.027 C 
ATOM     10  C   LIG d   1       4.768  -3.354  -5.877  0.00  0.00     0.232 A 
ATOM     11  O   LIG d   1       5.105  -4.476  -5.536  0.00  0.00    -0.283 OA
ATOM     12  H   LIG d   1       3.451  -3.427 -10.430  0.00  0.00     0.066 H 
ATOM     13  H   LIG d   1       4.286  -4.654  -8.485  0.00  0.00     0.063 H 
ATOM     14  H   LIG d   1       5.452  -2.982  -3.247  0.00  0.00     0.069 H 
ENDROOT
BRANCH   9  15
ATOM     15  C   LIG d   1       5.048  -0.861  -3.090  0.00  0.00     0.131 A 
ATOM     16  O   LIG d   1       5.729   0.259  -3.410  0.00  0.00    -0.463 OA
ATOM     17  C   LIG d   1       5.414   1.235  -2.548  0.00  0.00     0.092 A 
ATOM     18  C   LIG d   1       4.526   0.758  -1.646  0.00  0.00    -0.023 A 
ATOM     19  H   LIG d   1       5.808   2.240  -2.567  0.00  0.00     0.103 H 
ATOM     20  C   LIG d   1       4.279  -0.583  -1.975  0.00  0.00    -0.016 A 
ATOM     21  H   LIG d   1       4.090   1.307  -0.825  0.00  0.00     0.065 H 
ATOM     22  H   LIG d   1       3.618  -1.264  -1.461  0.00  0.00     0.066 H 
ENDBRANCH   9  15
BRANCH   1  23
ATOM     23  C   LIG d   1       3.274   0.609  -8.126  0.00  0.00    -0.033 C 
ATOM     24  H   LIG d   1       2.230   0.760  -7.851  0.00  0.00     0.028 H 
ATOM     25  H   LIG d   1       3.918   1.061  -7.371  0.00  0.00     0.028 H 
ATOM     26  H   LIG d   1       3.466   1.075  -9.093  0.00  0.00     0.028 H 
ENDBRANCH   1  23
BRANCH   2  27
ATOM     27  O   LIG d   1       2.901  -0.872 -10.492  0.00  0.00    -0.346 OA
BRANCH  27  28
ATOM     28  S   LIG d   1       3.993  -0.448 -11.464  0.00  0.00     0.118 S 
ATOM     29  O   LIG d   1       5.167  -1.096 -10.995  0.00  0.00    -0.137 OA
ATOM     30  O   LIG d   1       3.914   0.970 -11.502  0.00  0.00    -0.137 OA
BRANCH  28  31
ATOM     31  C   LIG d   1       3.491  -1.144 -13.062  0.00  0.00     0.092 C 
ATOM     32  H   LIG d   1       2.673  -1.848 -12.911  0.00  0.00     0.050 H 
ATOM     33  H   LIG d   1       3.163  -0.341 -13.722  0.00  0.00     0.050 H 
ATOM     34  H   LIG d   1       4.338  -1.662 -13.514  0.00  0.00     0.050 H 
ENDBRANCH  28  31
ENDBRANCH  27  28
ENDBRANCH   2  27
TORSDOF 5
ENDMDL
MODEL 3
REMARK VINA RESULT:      -5.4      2.728      3.459
REMARK  5 active torsions:
REMARK  status: ('A' for Active; 'I' for Inactive)
REMARK    1  A    between atoms: C_1  and  C_2 
REMARK    2  A    between atoms: C_3  and  O_18 
REMARK    3  A    between atoms: C_10  and  C_11 
REMARK    4  A    between atoms: O_18  and  S_19 
REMARK    5  A    between atoms: S_19  and  C_22 
ROOT
ATOM      1  C   LIG d   1       4.043   0.164  -8.378  0.00  0.00     0.037 A 
ATOM      2  C   LIG d   1       4.276   0.209  -9.743  0.00  0.00     0.163 A 
ATOM      3  C   LIG d   1       5.575   0.181 -10.241  0.00  0.00    -0.016 A 
ATOM      4  C   LIG d   1       6.639   0.118  -9.384  0.00  0.00    -0.044 A 
ATOM      5  C   LIG d   1       6.419   0.072  -8.008  0.00  0.00     0.068 A 
ATOM      6  C   LIG d   1       5.112   0.095  -7.495  0.00  0.00     0.146 A 
ATOM      7  O   LIG d   1       5.171   0.042  -6.147  0.00  0.00    -0.451 OA
ATOM      8  C   LIG d   1       6.451  -0.016  -5.710  0.00  0.00     0.179 A 
ATOM      9  C   LIG d   1       6.845  -0.079  -4.406  0.00  0.00     0.027 C 
ATOM     10  C   LIG d   1       7.314  -0.000  -6.839  0.00  0.00     0.232 A 
ATOM     11  O   LIG d   1       8.533  -0.040  -6.841  0.00  0.00    -0.283 OA
ATOM     12  H   LIG d   1       5.745   0.212 -11.307  0.00  0.00     0.066 H 
ATOM     13  H   LIG d   1       7.647   0.101  -9.772  0.00  0.00     0.063 H 
ATOM     14  H   LIG d   1       7.896  -0.123  -4.161  0.00  0.00     0.069 H 
ENDROOT
BRANCH   9  15
ATOM     15  C   LIG d   1       5.879  -0.088  -3.375  0.00  0.00     0.131 A 
ATOM     16  O   LIG d   1       5.241  -1.174  -2.892  0.00  0.00    -0.463 OA
ATOM     17  C   LIG d   1       4.398  -0.801  -1.919  0.00  0.00     0.092 A 
ATOM     18  C   LIG d   1       4.471   0.541  -1.763  0.00  0.00    -0.023 A 
ATOM     19  H   LIG d   1       3.760  -1.463  -1.354  0.00  0.00     0.103 H 
ATOM     20  C   LIG d   1       5.413   1.016  -2.686  0.00  0.00    -0.016 A 
ATOM     21  H   LIG d   1       3.907   1.135  -1.059  0.00  0.00     0.065 H 
ATOM     22  H   LIG d   1       5.716   2.042  -2.831  0.00  0.00     0.066 H 
ENDBRANCH   9  15
BRANCH   1  23
ATOM     23  C   LIG d   1       2.631   0.189  -7.853  0.00  0.00    -0.033 C 
ATOM     24  H   LIG d   1       1.994  -0.421  -8.493  0.00  0.00     0.028 H 
ATOM     25  H   LIG d   1       2.613  -0.209  -6.838  0.00  0.00     0.028 H 
ATOM     26  H   LIG d   1       2.263   1.215  -7.847  0.00  0.00     0.028 H 
ENDBRANCH   1  23
BRANCH   2  27
ATOM     27  O   LIG d   1       3.228   0.275 -10.604  0.00  0.00    -0.346 OA
BRANCH  27  28
ATOM     28  S   LIG d   1       3.003  -1.000 -11.405  0.00  0.00     0.118 S 
ATOM     29  O   LIG d   1       3.499  -2.041 -10.575  0.00  0.00    -0.137 OA
ATOM     30  O   LIG d   1       3.592  -0.740 -12.672  0.00  0.00    -0.137 OA
BRANCH  28  31
ATOM     31  C   LIG d   1       1.202  -1.136 -11.569  0.00  0.00     0.092 C 
ATOM     32  H   LIG d   1       0.934  -2.169 -11.789  0.00  0.00     0.050 H 
ATOM     33  H   LIG d   1       0.728  -0.827 -10.637  0.00  0.00     0.050 H 
ATOM     34  H   LIG d   1       0.862  -0.491 -12.380  0.00  0.00     0.050 H 
ENDBRANCH  28  31
ENDBRANCH  27  28
ENDBRANCH   2  27
TORSDOF 5
ENDMDL
MODEL 4
REMARK VINA RESULT:      -5.4     13.942     16.422
REMARK  5 active torsions:
REMARK  status: ('A' for Active; 'I' for Inactive)
REMARK    1  A    between atoms: C_1  and  C_2 
REMARK    2  A    between atoms: C_3  and  O_18 
REMARK    3  A    between atoms: C_10  and  C_11 
REMARK    4  A    between atoms: O_18  and  S_19 
REMARK    5  A    between atoms: S_19  and  C_22 
ROOT
ATOM      1  C   LIG d   1      10.941   7.312   0.951  0.00  0.00     0.037 A 
ATOM      2  C   LIG d   1      10.338   7.535  -0.277  0.00  0.00     0.163 A 
ATOM      3  C   LIG d   1      10.225   8.826  -0.785  0.00  0.00    -0.016 A 
ATOM      4  C   LIG d   1      10.700   9.890  -0.071  0.00  0.00    -0.044 A 
ATOM      5  C   LIG d   1      11.310   9.681   1.165  0.00  0.00     0.068 A 
ATOM      6  C   LIG d   1      11.434   8.382   1.686  0.00  0.00     0.146 A 
ATOM      7  O   LIG d   1      12.053   8.449   2.884  0.00  0.00    -0.451 OA
ATOM      8  C   LIG d   1      12.360   9.727   3.210  0.00  0.00     0.179 A 
ATOM      9  C   LIG d   1      12.987  10.128   4.353  0.00  0.00     0.027 C 
ATOM     10  C   LIG d   1      11.916  10.579   2.163  0.00  0.00     0.232 A 
ATOM     11  O   LIG d   1      12.018  11.793   2.102  0.00  0.00    -0.283 OA
ATOM     12  H   LIG d   1       9.757   8.987  -1.745  0.00  0.00     0.066 H 
ATOM     13  H   LIG d   1      10.607  10.892  -0.466  0.00  0.00     0.063 H 
ATOM     14  H   LIG d   1      13.187  11.176   4.520  0.00  0.00     0.069 H 
ENDROOT
BRANCH   9  15
ATOM     15  C   LIG d   1      13.377   9.172   5.318  0.00  0.00     0.131 A 
ATOM     16  O   LIG d   1      14.520   8.455   5.310  0.00  0.00    -0.463 OA
ATOM     17  C   LIG d   1      14.549   7.651   6.383  0.00  0.00     0.092 A 
ATOM     18  C   LIG d   1      13.417   7.832   7.100  0.00  0.00    -0.023 A 
ATOM     19  H   LIG d   1      15.346   6.968   6.632  0.00  0.00     0.103 H 
ATOM     20  C   LIG d   1      12.653   8.801   6.435  0.00  0.00    -0.016 A 
ATOM     21  H   LIG d   1      13.150   7.323   8.015  0.00  0.00     0.065 H 
ATOM     22  H   LIG d   1      11.689   9.183   6.736  0.00  0.00     0.066 H 
ENDBRANCH   9  15
BRANCH   1  23
ATOM     23  C   LIG d   1      11.064   5.909   1.487  0.00  0.00    -0.033 C 
ATOM     24  H   LIG d   1      11.682   5.315   0.814  0.00  0.00     0.028 H 
ATOM     25  H   LIG d   1      11.524   5.936   2.475  0.00  0.00     0.028 H 
ATOM     26  H   LIG d   1      10.073   5.460   1.560  0.00  0.00     0.028 H 
ENDBRANCH   1  23
BRANCH   2  27
ATOM     27  O   LIG d   1       9.859   6.486  -0.992  0.00  0.00    -0.346 OA
BRANCH  27  28
ATOM     28  S   LIG d   1      10.676   6.159  -2.235  0.00  0.00     0.118 S 
ATOM     29  O   LIG d   1      12.001   6.559  -1.912  0.00  0.00    -0.137 OA
ATOM     30  O   LIG d   1       9.973   6.777  -3.304  0.00  0.00    -0.137 OA
BRANCH  28  31
ATOM     31  C   LIG d   1      10.588   4.354  -2.389  0.00  0.00     0.092 C 
ATOM     32  H   LIG d   1       9.803   4.087  -3.096  0.00  0.00     0.050 H 
ATOM     33  H   LIG d   1      11.544   3.973  -2.748  0.00  0.00     0.050 H 
ATOM     34  H   LIG d   1      10.365   3.917  -1.415  0.00  0.00     0.050 H 
ENDBRANCH  28  31
ENDBRANCH  27  28
ENDBRANCH   2  27
TORSDOF 5
ENDMDL
MODEL 5
REMARK VINA RESULT:      -5.4      3.670      7.181
REMARK  5 active torsions:
REMARK  status: ('A' for Active; 'I' for Inactive)
REMARK    1  A    between atoms: C_1  and  C_2 
REMARK    2  A    between atoms: C_3  and  O_18 
REMARK    3  A    between atoms: C_10  and  C_11 
REMARK    4  A    between atoms: O_18  and  S_19 
REMARK    5  A    between atoms: S_19  and  C_22 
ROOT
ATOM      1  C   LIG d   1       7.028  -1.355  -5.465  0.00  0.00     0.037 A 
ATOM      2  C   LIG d   1       7.505  -1.906  -4.286  0.00  0.00     0.163 A 
ATOM      3  C   LIG d   1       6.682  -2.009  -3.169  0.00  0.00    -0.016 A 
ATOM      4  C   LIG d   1       5.393  -1.558  -3.220  0.00  0.00    -0.044 A 
ATOM      5  C   LIG d   1       4.898  -1.001  -4.400  0.00  0.00     0.068 A 
ATOM      6  C   LIG d   1       5.719  -0.897  -5.535  0.00  0.00     0.146 A 
ATOM      7  O   LIG d   1       5.011  -0.329  -6.535  0.00  0.00    -0.451 OA
ATOM      8  C   LIG d   1       3.748  -0.039  -6.142  0.00  0.00     0.179 A 
ATOM      9  C   LIG d   1       2.787   0.539  -6.918  0.00  0.00     0.027 C 
ATOM     10  C   LIG d   1       3.594  -0.437  -4.787  0.00  0.00     0.232 A 
ATOM     11  O   LIG d   1       2.595  -0.336  -4.094  0.00  0.00    -0.283 OA
ATOM     12  H   LIG d   1       7.064  -2.444  -2.257  0.00  0.00     0.066 H 
ATOM     13  H   LIG d   1       4.757  -1.635  -2.350  0.00  0.00     0.063 H 
ATOM     14  H   LIG d   1       1.805   0.729  -6.510  0.00  0.00     0.069 H 
ENDROOT
BRANCH   9  15
ATOM     15  C   LIG d   1       3.074   0.888  -8.257  0.00  0.00     0.131 A 
ATOM     16  O   LIG d   1       3.221   0.031  -9.288  0.00  0.00    -0.463 OA
ATOM     17  C   LIG d   1       3.485   0.720 -10.407  0.00  0.00     0.092 A 
ATOM     18  C   LIG d   1       3.520   2.040 -10.114  0.00  0.00    -0.023 A 
ATOM     19  H   LIG d   1       3.647   0.290 -11.384  0.00  0.00     0.103 H 
ATOM     20  C   LIG d   1       3.260   2.169  -8.743  0.00  0.00    -0.016 A 
ATOM     21  H   LIG d   1       3.714   2.845 -10.808  0.00  0.00     0.065 H 
ATOM     22  H   LIG d   1       3.213   3.087  -8.177  0.00  0.00     0.066 H 
ENDBRANCH   9  15
BRANCH   1  23
ATOM     23  C   LIG d   1       7.928  -1.255  -6.669  0.00  0.00    -0.033 C 
ATOM     24  H   LIG d   1       8.024  -2.236  -7.134  0.00  0.00     0.028 H 
ATOM     25  H   LIG d   1       7.500  -0.554  -7.386  0.00  0.00     0.028 H 
ATOM     26  H   LIG d   1       8.912  -0.902  -6.359  0.00  0.00     0.028 H 
ENDBRANCH   1  23
BRANCH   2  27
ATOM     27  O   LIG d   1       8.785  -2.354  -4.222  0.00  0.00    -0.346 OA
BRANCH  27  28
ATOM     28  S   LIG d   1       8.907  -3.869  -4.142  0.00  0.00     0.118 S 
ATOM     29  O   LIG d   1       7.698  -4.360  -4.705  0.00  0.00    -0.137 OA
ATOM     30  O   LIG d   1       9.236  -4.136  -2.786  0.00  0.00    -0.137 OA
BRANCH  28  31
ATOM     31  C   LIG d   1      10.309  -4.281  -5.218  0.00  0.00     0.092 C 
ATOM     32  H   LIG d   1      10.347  -3.579  -6.050  0.00  0.00     0.050 H 
ATOM     33  H   LIG d   1      11.235  -4.218  -4.647  0.00  0.00     0.050 H 
ATOM     34  H   LIG d   1      10.187  -5.294  -5.602  0.00  0.00     0.050 H 
ENDBRANCH  28  31
ENDBRANCH  27  28
ENDBRANCH   2  27
TORSDOF 5
ENDMDL
MODEL 6
REMARK VINA RESULT:      -5.3      5.326      7.823
REMARK  5 active torsions:
REMARK  status: ('A' for Active; 'I' for Inactive)
REMARK    1  A    between atoms: C_1  and  C_2 
REMARK    2  A    between atoms: C_3  and  O_18 
REMARK    3  A    between atoms: C_10  and  C_11 
REMARK    4  A    between atoms: O_18  and  S_19 
REMARK    5  A    between atoms: S_19  and  C_22 
ROOT
ATOM      1  C   LIG d   1       8.382  -4.210  -4.330  0.00  0.00     0.037 A 
ATOM      2  C   LIG d   1       8.848  -5.375  -4.918  0.00  0.00     0.163 A 
ATOM      3  C   LIG d   1       8.008  -6.153  -5.711  0.00  0.00    -0.016 A 
ATOM      4  C   LIG d   1       6.709  -5.778  -5.909  0.00  0.00    -0.044 A 
ATOM      5  C   LIG d   1       6.226  -4.608  -5.324  0.00  0.00     0.068 A 
ATOM      6  C   LIG d   1       7.066  -3.814  -4.526  0.00  0.00     0.146 A 
ATOM      7  O   LIG d   1       6.366  -2.748  -4.082  0.00  0.00    -0.451 OA
ATOM      8  C   LIG d   1       5.090  -2.772  -4.534  0.00  0.00     0.179 A 
ATOM      9  C   LIG d   1       4.132  -1.839  -4.263  0.00  0.00     0.027 C 
ATOM     10  C   LIG d   1       4.918  -3.932  -5.336  0.00  0.00     0.232 A 
ATOM     11  O   LIG d   1       3.904  -4.290  -5.913  0.00  0.00    -0.283 OA
ATOM     12  H   LIG d   1       8.384  -7.057  -6.168  0.00  0.00     0.066 H 
ATOM     13  H   LIG d   1       6.057  -6.386  -6.521  0.00  0.00     0.063 H 
ATOM     14  H   LIG d   1       3.140  -1.950  -4.674  0.00  0.00     0.069 H 
ENDROOT
BRANCH   9  15
ATOM     15  C   LIG d   1       4.438  -0.728  -3.446  0.00  0.00     0.131 A 
ATOM     16  O   LIG d   1       4.977   0.438  -3.859  0.00  0.00    -0.463 OA
ATOM     17  C   LIG d   1       5.124   1.258  -2.809  0.00  0.00     0.092 A 
ATOM     18  C   LIG d   1       4.687   0.629  -1.694  0.00  0.00    -0.023 A 
ATOM     19  H   LIG d   1       5.529   2.258  -2.846  0.00  0.00     0.103 H 
ATOM     20  C   LIG d   1       4.244  -0.644  -2.080  0.00  0.00    -0.016 A 
ATOM     21  H   LIG d   1       4.681   1.033  -0.692  0.00  0.00     0.065 H 
ATOM     22  H   LIG d   1       3.832  -1.407  -1.438  0.00  0.00     0.066 H 
ENDBRANCH   9  15
BRANCH   1  23
ATOM     23  C   LIG d   1       9.303  -3.374  -3.480  0.00  0.00    -0.033 C 
ATOM     24  H   LIG d   1       9.664  -2.525  -4.061  0.00  0.00     0.028 H 
ATOM     25  H   LIG d   1       8.763  -3.013  -2.605  0.00  0.00     0.028 H 
ATOM     26  H   LIG d   1      10.151  -3.980  -3.158  0.00  0.00     0.028 H 
ENDBRANCH   1  23
BRANCH   2  27
ATOM     27  O   LIG d   1      10.136  -5.759  -4.725  0.00  0.00    -0.346 OA
BRANCH  27  28
ATOM     28  S   LIG d   1      10.290  -6.982  -3.831  0.00  0.00     0.118 S 
ATOM     29  O   LIG d   1      10.413  -8.075  -4.730  0.00  0.00    -0.137 OA
ATOM     30  O   LIG d   1       9.197  -6.908  -2.925  0.00  0.00    -0.137 OA
BRANCH  28  31
ATOM     31  C   LIG d   1      11.852  -6.719  -2.948  0.00  0.00     0.092 C 
ATOM     32  H   LIG d   1      12.630  -6.442  -3.659  0.00  0.00     0.050 H 
ATOM     33  H   LIG d   1      11.726  -5.920  -2.217  0.00  0.00     0.050 H 
ATOM     34  H   LIG d   1      12.138  -7.638  -2.435  0.00  0.00     0.050 H 
ENDBRANCH  28  31
ENDBRANCH  27  28
ENDBRANCH   2  27
TORSDOF 5
ENDMDL
MODEL 7
REMARK VINA RESULT:      -5.1      3.432      6.914
REMARK  5 active torsions:
REMARK  status: ('A' for Active; 'I' for Inactive)
REMARK    1  A    between atoms: C_1  and  C_2 
REMARK    2  A    between atoms: C_3  and  O_18 
REMARK    3  A    between atoms: C_10  and  C_11 
REMARK    4  A    between atoms: O_18  and  S_19 
REMARK    5  A    between atoms: S_19  and  C_22 
ROOT
ATOM      1  C   LIG d   1       5.874  -2.774  -5.983  0.00  0.00     0.037 A 
ATOM      2  C   LIG d   1       6.417  -3.021  -4.733  0.00  0.00     0.163 A 
ATOM      3  C   LIG d   1       6.033  -2.262  -3.631  0.00  0.00    -0.016 A 
ATOM      4  C   LIG d   1       5.119  -1.255  -3.775  0.00  0.00    -0.044 A 
ATOM      5  C   LIG d   1       4.564  -0.995  -5.028  0.00  0.00     0.068 A 
ATOM      6  C   LIG d   1       4.941  -1.759  -6.145  0.00  0.00     0.146 A 
ATOM      7  O   LIG d   1       4.267  -1.312  -7.227  0.00  0.00    -0.451 OA
ATOM      8  C   LIG d   1       3.448  -0.283  -6.908  0.00  0.00     0.179 A 
ATOM      9  C   LIG d   1       2.635   0.386  -7.775  0.00  0.00     0.027 C 
ATOM     10  C   LIG d   1       3.579  -0.016  -5.518  0.00  0.00     0.232 A 
ATOM     11  O   LIG d   1       2.998   0.839  -4.869  0.00  0.00    -0.283 OA
ATOM     12  H   LIG d   1       6.460  -2.466  -2.660  0.00  0.00     0.066 H 
ATOM     13  H   LIG d   1       4.825  -0.664  -2.920  0.00  0.00     0.063 H 
ATOM     14  H   LIG d   1       2.017   1.197  -7.420  0.00  0.00     0.069 H 
ENDROOT
BRANCH   9  15
ATOM     15  C   LIG d   1       2.601   0.017  -9.138  0.00  0.00     0.131 A 
ATOM     16  O   LIG d   1       3.520   0.338 -10.072  0.00  0.00    -0.463 OA
ATOM     17  C   LIG d   1       3.159  -0.186 -11.252  0.00  0.00     0.092 A 
ATOM     18  C   LIG d   1       1.991  -0.850 -11.101  0.00  0.00    -0.023 A 
ATOM     19  H   LIG d   1       3.710  -0.090 -12.176  0.00  0.00     0.103 H 
ATOM     20  C   LIG d   1       1.616  -0.731  -9.755  0.00  0.00    -0.016 A 
ATOM     21  H   LIG d   1       1.447  -1.373 -11.874  0.00  0.00     0.065 H 
ATOM     22  H   LIG d   1       0.733  -1.144  -9.291  0.00  0.00     0.066 H 
ENDBRANCH   9  15
BRANCH   1  23
ATOM     23  C   LIG d   1       6.294  -3.608  -7.166  0.00  0.00    -0.033 C 
ATOM     24  H   LIG d   1       5.551  -4.386  -7.345  0.00  0.00     0.028 H 
ATOM     25  H   LIG d   1       6.374  -2.973  -8.048  0.00  0.00     0.028 H 
ATOM     26  H   LIG d   1       7.260  -4.069  -6.961  0.00  0.00     0.028 H 
ENDBRANCH   1  23
BRANCH   2  27
ATOM     27  O   LIG d   1       7.328  -4.016  -4.578  0.00  0.00    -0.346 OA
BRANCH  27  28
ATOM     28  S   LIG d   1       8.751  -3.523  -4.354  0.00  0.00     0.118 S 
ATOM     29  O   LIG d   1       9.000  -3.750  -2.974  0.00  0.00    -0.137 OA
ATOM     30  O   LIG d   1       8.766  -2.205  -4.886  0.00  0.00    -0.137 OA
BRANCH  28  31
ATOM     31  C   LIG d   1       9.787  -4.616  -5.365  0.00  0.00     0.092 C 
ATOM     32  H   LIG d   1       9.432  -4.605  -6.394  0.00  0.00     0.050 H 
ATOM     33  H   LIG d   1      10.820  -4.269  -5.332  0.00  0.00     0.050 H 
ATOM     34  H   LIG d   1       9.734  -5.632  -4.972  0.00  0.00     0.050 H 
ENDBRANCH  28  31
ENDBRANCH  27  28
ENDBRANCH   2  27
TORSDOF 5
ENDMDL
MODEL 8
REMARK VINA RESULT:      -5.0      4.537      6.558
REMARK  5 active torsions:
REMARK  status: ('A' for Active; 'I' for Inactive)
REMARK    1  A    between atoms: C_1  and  C_2 
REMARK    2  A    between atoms: C_3  and  O_18 
REMARK    3  A    between atoms: C_10  and  C_11 
REMARK    4  A    between atoms: O_18  and  S_19 
REMARK    5  A    between atoms: S_19  and  C_22 
ROOT
ATOM      1  C   LIG d   1       6.750  -2.543  -4.997  0.00  0.00     0.037 A 
ATOM      2  C   LIG d   1       5.672  -3.360  -4.698  0.00  0.00     0.163 A 
ATOM      3  C   LIG d   1       4.657  -2.913  -3.858  0.00  0.00    -0.016 A 
ATOM      4  C   LIG d   1       4.718  -1.662  -3.310  0.00  0.00    -0.044 A 
ATOM      5  C   LIG d   1       5.797  -0.828  -3.602  0.00  0.00     0.068 A 
ATOM      6  C   LIG d   1       6.825  -1.268  -4.452  0.00  0.00     0.146 A 
ATOM      7  O   LIG d   1       7.742  -0.284  -4.573  0.00  0.00    -0.451 OA
ATOM      8  C   LIG d   1       7.395   0.806  -3.848  0.00  0.00     0.179 A 
ATOM      9  C   LIG d   1       8.110   1.964  -3.761  0.00  0.00     0.027 C 
ATOM     10  C   LIG d   1       6.161   0.540  -3.195  0.00  0.00     0.232 A 
ATOM     11  O   LIG d   1       5.537   1.284  -2.457  0.00  0.00    -0.283 OA
ATOM     12  H   LIG d   1       3.819  -3.558  -3.635  0.00  0.00     0.066 H 
ATOM     13  H   LIG d   1       3.931  -1.319  -2.654  0.00  0.00     0.063 H 
ATOM     14  H   LIG d   1       7.745   2.780  -3.153  0.00  0.00     0.069 H 
ENDROOT
BRANCH   9  15
ATOM     15  C   LIG d   1       9.327   2.099  -4.465  0.00  0.00     0.131 A 
ATOM     16  O   LIG d   1      10.530   1.633  -4.070  0.00  0.00    -0.463 OA
ATOM     17  C   LIG d   1      11.453   1.944  -4.991  0.00  0.00     0.092 A 
ATOM     18  C   LIG d   1      10.860   2.625  -5.997  0.00  0.00    -0.023 A 
ATOM     19  H   LIG d   1      12.502   1.694  -4.936  0.00  0.00     0.103 H 
ATOM     20  C   LIG d   1       9.499   2.736  -5.680  0.00  0.00    -0.016 A 
ATOM     21  H   LIG d   1      11.346   3.014  -6.881  0.00  0.00     0.065 H 
ATOM     22  H   LIG d   1       8.735   3.221  -6.268  0.00  0.00     0.066 H 
ENDBRANCH   9  15
BRANCH   1  23
ATOM     23  C   LIG d   1       7.840  -3.036  -5.913  0.00  0.00    -0.033 C 
ATOM     24  H   LIG d   1       7.944  -2.353  -6.756  0.00  0.00     0.028 H 
ATOM     25  H   LIG d   1       8.782  -3.084  -5.366  0.00  0.00     0.028 H 
ATOM     26  H   LIG d   1       7.584  -4.030  -6.280  0.00  0.00     0.028 H 
ENDBRANCH   1  23
BRANCH   2  27
ATOM     27  O   LIG d   1       5.603  -4.606  -5.233  0.00  0.00    -0.346 OA
BRANCH  27  28
ATOM     28  S   LIG d   1       4.667  -4.714  -6.429  0.00  0.00     0.118 S 
ATOM     29  O   LIG d   1       3.465  -5.257  -5.901  0.00  0.00    -0.137 OA
ATOM     30  O   LIG d   1       5.413  -5.423  -7.409  0.00  0.00    -0.137 OA
BRANCH  28  31
ATOM     31  C   LIG d   1       4.397  -3.002  -6.966  0.00  0.00     0.092 C 
ATOM     32  H   LIG d   1       3.329  -2.788  -6.972  0.00  0.00     0.050 H 
ATOM     33  H   LIG d   1       4.901  -2.322  -6.278  0.00  0.00     0.050 H 
ATOM     34  H   LIG d   1       4.801  -2.869  -7.970  0.00  0.00     0.050 H 
ENDBRANCH  28  31
ENDBRANCH  27  28
ENDBRANCH   2  27
TORSDOF 5
ENDMDL
MODEL 9
REMARK VINA RESULT:      -5.0     11.740     14.632
REMARK  5 active torsions:
REMARK  status: ('A' for Active; 'I' for Inactive)
REMARK    1  A    between atoms: C_1  and  C_2 
REMARK    2  A    between atoms: C_3  and  O_18 
REMARK    3  A    between atoms: C_10  and  C_11 
REMARK    4  A    between atoms: O_18  and  S_19 
REMARK    5  A    between atoms: S_19  and  C_22 
ROOT
ATOM      1  C   LIG d   1       9.910   7.584  -2.392  0.00  0.00     0.037 A 
ATOM      2  C   LIG d   1       9.951   8.002  -1.071  0.00  0.00     0.163 A 
ATOM      3  C   LIG d   1      10.028   9.356  -0.759  0.00  0.00    -0.016 A 
ATOM      4  C   LIG d   1      10.072  10.290  -1.757  0.00  0.00    -0.044 A 
ATOM      5  C   LIG d   1      10.030   9.884  -3.090  0.00  0.00     0.068 A 
ATOM      6  C   LIG d   1       9.948   8.520  -3.416  0.00  0.00     0.146 A 
ATOM      7  O   LIG d   1       9.923   8.393  -4.760  0.00  0.00    -0.451 OA
ATOM      8  C   LIG d   1       9.983   9.600  -5.371  0.00  0.00     0.179 A 
ATOM      9  C   LIG d   1       9.976   9.811  -6.719  0.00  0.00     0.027 C 
ATOM     10  C   LIG d   1      10.055  10.608  -4.373  0.00  0.00     0.232 A 
ATOM     11  O   LIG d   1      10.121  11.815  -4.541  0.00  0.00    -0.283 OA
ATOM     12  H   LIG d   1      10.055   9.670   0.274  0.00  0.00     0.066 H 
ATOM     13  H   LIG d   1      10.135  11.340  -1.512  0.00  0.00     0.063 H 
ATOM     14  H   LIG d   1      10.028  10.817  -7.108  0.00  0.00     0.069 H 
ENDROOT
BRANCH   9  15
ATOM     15  C   LIG d   1       9.901   8.714  -7.606  0.00  0.00     0.131 A 
ATOM     16  O   LIG d   1      10.916   7.891  -7.941  0.00  0.00    -0.463 OA
ATOM     17  C   LIG d   1      10.474   6.965  -8.803  0.00  0.00     0.092 A 
ATOM     18  C   LIG d   1       9.161   7.179  -9.046  0.00  0.00    -0.023 A 
ATOM     19  H   LIG d   1      11.071   6.176  -9.237  0.00  0.00     0.103 H 
ATOM     20  C   LIG d   1       8.775   8.295  -8.289  0.00  0.00    -0.016 A 
ATOM     21  H   LIG d   1       8.528   6.599  -9.702  0.00  0.00     0.065 H 
ATOM     22  H   LIG d   1       7.792   8.739  -8.248  0.00  0.00     0.066 H 
ENDBRANCH   9  15
BRANCH   1  23
ATOM     23  C   LIG d   1       9.821   6.115  -2.715  0.00  0.00    -0.033 C 
ATOM     24  H   LIG d   1       9.564   5.559  -1.814  0.00  0.00     0.028 H 
ATOM     25  H   LIG d   1       9.052   5.955  -3.472  0.00  0.00     0.028 H 
ATOM     26  H   LIG d   1      10.781   5.768  -3.095  0.00  0.00     0.028 H 
ENDBRANCH   1  23
BRANCH   2  27
ATOM     27  O   LIG d   1       9.912   7.083  -0.072  0.00  0.00    -0.346 OA
BRANCH  27  28
ATOM     28  S   LIG d   1      11.209   6.972   0.718  0.00  0.00     0.118 S 
ATOM     29  O   LIG d   1      11.270   8.167   1.483  0.00  0.00    -0.137 OA
ATOM     30  O   LIG d   1      12.203   6.684  -0.256  0.00  0.00    -0.137 OA
BRANCH  28  31
ATOM     31  C   LIG d   1      10.969   5.542   1.808  0.00  0.00     0.092 C 
ATOM     32  H   LIG d   1      10.932   4.632   1.211  0.00  0.00     0.050 H 
ATOM     33  H   LIG d   1      11.797   5.481   2.514  0.00  0.00     0.050 H 
ATOM     34  H   LIG d   1      10.033   5.657   2.356  0.00  0.00     0.050 H 
ENDBRANCH  28  31
ENDBRANCH  27  28
ENDBRANCH   2  27
TORSDOF 5
ENDMDL
