MODEL 1
REMARK VINA RESULT:      -6.3      0.000      0.000
REMARK  3 active torsions:
REMARK  status: ('A' for Active; 'I' for Inactive)
REMARK    1  A    between atoms: C_1  and  C_2 
REMARK    2  A    between atoms: C_9  and  C_14 
REMARK    3  A    between atoms: N_15  and  C_16 
ROOT
ATOM      1  C   LIG d   1       3.903   0.614  -9.505  0.00  0.00    -0.050 A 
ATOM      2  C   LIG d   1       3.011  -0.448  -9.546  0.00  0.00    -0.057 A 
ATOM      3  C   LIG d   1       3.044  -1.433  -8.582  0.00  0.00    -0.037 A 
ATOM      4  C   LIG d   1       3.982  -1.369  -7.556  0.00  0.00     0.050 A 
ATOM      5  C   LIG d   1       4.887  -0.296  -7.520  0.00  0.00     0.046 A 
ATOM      6  C   LIG d   1       4.844   0.692  -8.501  0.00  0.00    -0.046 A 
ATOM      7  C   LIG d   1       5.883  -0.250  -6.430  0.00  0.00     0.197 C 
ATOM      8  C   LIG d   1       6.043  -1.468  -5.624  0.00  0.00     0.049 C 
ATOM      9  C   LIG d   1       5.085  -2.478  -5.747  0.00  0.00    -0.026 C 
ATOM     10  O   LIG d   1       5.219  -3.607  -5.024  0.00  0.00    -0.861 OA
ATOM     11  N   LIG d   1       4.026  -2.345  -6.580  0.00  0.00    -0.367 N 
ATOM     12  H   LIG d   1       3.276  -2.952  -6.488  0.00  0.00     0.165 HD
ATOM     13  O   LIG d   1       6.540   0.752  -6.209  0.00  0.00    -0.286 OA
ATOM     14  H   LIG d   1       2.281  -0.504 -10.340  0.00  0.00     0.062 H 
ATOM     15  H   LIG d   1       2.343  -2.254  -8.623  0.00  0.00     0.064 H 
ATOM     16  H   LIG d   1       5.541   1.517  -8.474  0.00  0.00     0.063 H 
ENDROOT
BRANCH   8  17
ATOM     17  C   LIG d   1       7.179  -1.620  -4.715  0.00  0.00     0.040 C 
ATOM     18  N   LIG d   1       7.065  -1.267  -3.461  0.00  0.00    -0.255 NA
ATOM     19  H   LIG d   1       8.112  -2.024  -5.080  0.00  0.00     0.084 H 
BRANCH  18  20
ATOM     20  C   LIG d   1       5.944  -0.614  -3.034  0.00  0.00     0.067 A 
ATOM     21  C   LIG d   1       5.887   0.787  -3.018  0.00  0.00    -0.018 A 
ATOM     22  C   LIG d   1       4.734   1.404  -2.584  0.00  0.00     0.030 A 
ATOM     23  H   LIG d   1       6.734   1.373  -3.345  0.00  0.00     0.065 H 
ATOM     24  N   LIG d   1       3.698   0.694  -2.178  0.00  0.00    -0.263 NA
ATOM     25  H   LIG d   1       4.680   2.481  -2.573  0.00  0.00     0.083 H 
ATOM     26  C   LIG d   1       3.710  -0.625  -2.171  0.00  0.00     0.030 A 
ATOM     27  C   LIG d   1       4.820  -1.325  -2.593  0.00  0.00    -0.018 A 
ATOM     28  H   LIG d   1       2.839  -1.165  -1.829  0.00  0.00     0.083 H 
ATOM     29  H   LIG d   1       4.822  -2.405  -2.586  0.00  0.00     0.065 H 
ENDBRANCH  18  20
ENDBRANCH   8  17
BRANCH   1  30
ATOM     30  C   LIG d   1       3.848   1.681 -10.568  0.00  0.00    -0.040 C 
ATOM     31  H   LIG d   1       2.896   2.207 -10.506  0.00  0.00     0.028 H 
ATOM     32  H   LIG d   1       4.664   2.388 -10.415  0.00  0.00     0.028 H 
ATOM     33  H   LIG d   1       3.947   1.219 -11.550  0.00  0.00     0.028 H 
ENDBRANCH   1  30
TORSDOF 3
ENDMDL
MODEL 2
REMARK VINA RESULT:      -6.2      1.672      2.634
REMARK  3 active torsions:
REMARK  status: ('A' for Active; 'I' for Inactive)
REMARK    1  A    between atoms: C_1  and  C_2 
REMARK    2  A    between atoms: C_9  and  C_14 
REMARK    3  A    between atoms: N_15  and  C_16 
ROOT
ATOM      1  C   LIG d   1       3.632   0.973  -8.705  0.00  0.00    -0.050 A 
ATOM      2  C   LIG d   1       4.044  -0.229  -9.261  0.00  0.00    -0.057 A 
ATOM      3  C   LIG d   1       4.200  -1.351  -8.474  0.00  0.00    -0.037 A 
ATOM      4  C   LIG d   1       3.946  -1.282  -7.108  0.00  0.00     0.050 A 
ATOM      5  C   LIG d   1       3.534  -0.062  -6.547  0.00  0.00     0.046 A 
ATOM      6  C   LIG d   1       3.381   1.065  -7.353  0.00  0.00    -0.046 A 
ATOM      7  C   LIG d   1       3.278  -0.004  -5.094  0.00  0.00     0.197 C 
ATOM      8  C   LIG d   1       3.742  -1.145  -4.292  0.00  0.00     0.049 C 
ATOM      9  C   LIG d   1       4.138  -2.309  -4.957  0.00  0.00    -0.026 C 
ATOM     10  O   LIG d   1       4.576  -3.362  -4.240  0.00  0.00    -0.861 OA
ATOM     11  N   LIG d   1       4.092  -2.397  -6.307  0.00  0.00    -0.367 N 
ATOM     12  H   LIG d   1       4.164  -3.270  -6.724  0.00  0.00     0.165 HD
ATOM     13  O   LIG d   1       2.708   0.945  -4.584  0.00  0.00    -0.286 OA
ATOM     14  H   LIG d   1       4.244  -0.289 -10.320  0.00  0.00     0.062 H 
ATOM     15  H   LIG d   1       4.520  -2.282  -8.918  0.00  0.00     0.064 H 
ATOM     16  H   LIG d   1       3.065   2.004  -6.922  0.00  0.00     0.063 H 
ENDROOT
BRANCH   8  17
ATOM     17  C   LIG d   1       3.789  -1.064  -2.832  0.00  0.00     0.040 C 
ATOM     18  N   LIG d   1       4.816  -0.513  -2.241  0.00  0.00    -0.255 NA
ATOM     19  H   LIG d   1       2.974  -1.459  -2.243  0.00  0.00     0.084 H 
BRANCH  18  20
ATOM     20  C   LIG d   1       5.914  -0.155  -2.970  0.00  0.00     0.067 A 
ATOM     21  C   LIG d   1       6.817  -1.121  -3.436  0.00  0.00    -0.018 A 
ATOM     22  C   LIG d   1       7.909  -0.715  -4.173  0.00  0.00     0.030 A 
ATOM     23  H   LIG d   1       6.657  -2.168  -3.223  0.00  0.00     0.065 H 
ATOM     24  N   LIG d   1       8.114   0.563  -4.432  0.00  0.00    -0.263 NA
ATOM     25  H   LIG d   1       8.606  -1.452  -4.540  0.00  0.00     0.083 H 
ATOM     26  C   LIG d   1       7.293   1.506  -4.009  0.00  0.00     0.030 A 
ATOM     27  C   LIG d   1       6.174   1.189  -3.269  0.00  0.00    -0.018 A 
ATOM     28  H   LIG d   1       7.501   2.539  -4.243  0.00  0.00     0.083 H 
ATOM     29  H   LIG d   1       5.506   1.966  -2.927  0.00  0.00     0.065 H 
ENDBRANCH  18  20
ENDBRANCH   8  17
BRANCH   1  30
ATOM     30  C   LIG d   1       3.466   2.187  -9.583  0.00  0.00    -0.040 C 
ATOM     31  H   LIG d   1       2.406   2.410  -9.699  0.00  0.00     0.028 H 
ATOM     32  H   LIG d   1       3.969   3.039  -9.124  0.00  0.00     0.028 H 
ATOM     33  H   LIG d   1       3.906   1.990 -10.561  0.00  0.00     0.028 H 
ENDBRANCH   1  30
TORSDOF 3
ENDMDL
MODEL 3
REMARK VINA RESULT:      -6.1      1.916      5.199
REMARK  3 active torsions:
REMARK  status: ('A' for Active; 'I' for Inactive)
REMARK    1  A    between atoms: C_1  and  C_2 
REMARK    2  A    between atoms: C_9  and  C_14 
REMARK    3  A    between atoms: N_15  and  C_16 
ROOT
ATOM      1  C   LIG d   1       4.685  -0.182  -2.455  0.00  0.00    -0.050 A 
ATOM      2  C   LIG d   1       3.872  -1.266  -2.157  0.00  0.00    -0.057 A 
ATOM      3  C   LIG d   1       3.895  -2.400  -2.942  0.00  0.00    -0.037 A 
ATOM      4  C   LIG d   1       4.740  -2.462  -4.046  0.00  0.00     0.050 A 
ATOM      5  C   LIG d   1       5.558  -1.361  -4.347  0.00  0.00     0.046 A 
ATOM      6  C   LIG d   1       5.523  -0.221  -3.547  0.00  0.00    -0.046 A 
ATOM      7  C   LIG d   1       6.441  -1.441  -5.529  0.00  0.00     0.197 C 
ATOM      8  C   LIG d   1       6.198  -2.546  -6.467  0.00  0.00     0.049 C 
ATOM      9  C   LIG d   1       5.357  -3.587  -6.064  0.00  0.00    -0.026 C 
ATOM     10  O   LIG d   1       5.113  -4.605  -6.913  0.00  0.00    -0.861 OA
ATOM     11  N   LIG d   1       4.780  -3.591  -4.839  0.00  0.00    -0.367 N 
ATOM     12  H   LIG d   1       4.384  -4.413  -4.509  0.00  0.00     0.165 HD
ATOM     13  O   LIG d   1       7.329  -0.628  -5.718  0.00  0.00    -0.286 OA
ATOM     14  H   LIG d   1       3.213  -1.223  -1.303  0.00  0.00     0.062 H 
ATOM     15  H   LIG d   1       3.259  -3.238  -2.700  0.00  0.00     0.064 H 
ATOM     16  H   LIG d   1       6.152   0.627  -3.780  0.00  0.00     0.063 H 
ENDROOT
BRANCH   8  17
ATOM     17  C   LIG d   1       6.821  -2.556  -7.789  0.00  0.00     0.040 C 
ATOM     18  N   LIG d   1       6.279  -1.885  -8.773  0.00  0.00    -0.255 NA
ATOM     19  H   LIG d   1       7.729  -3.117  -7.954  0.00  0.00     0.084 H 
BRANCH  18  20
ATOM     20  C   LIG d   1       5.053  -1.305  -8.611  0.00  0.00     0.067 A 
ATOM     21  C   LIG d   1       3.878  -2.006  -8.915  0.00  0.00    -0.018 A 
ATOM     22  C   LIG d   1       2.662  -1.383  -8.731  0.00  0.00     0.030 A 
ATOM     23  H   LIG d   1       3.924  -3.020  -9.284  0.00  0.00     0.065 H 
ATOM     24  N   LIG d   1       2.597  -0.142  -8.285  0.00  0.00    -0.263 NA
ATOM     25  H   LIG d   1       1.752  -1.916  -8.957  0.00  0.00     0.083 H 
ATOM     26  C   LIG d   1       3.678   0.556  -7.992  0.00  0.00     0.030 A 
ATOM     27  C   LIG d   1       4.935   0.010  -8.141  0.00  0.00    -0.018 A 
ATOM     28  H   LIG d   1       3.577   1.569  -7.632  0.00  0.00     0.083 H 
ATOM     29  H   LIG d   1       5.815   0.587  -7.899  0.00  0.00     0.065 H 
ENDBRANCH  18  20
ENDBRANCH   8  17
BRANCH   1  30
ATOM     30  C   LIG d   1       4.644   1.047  -1.583  0.00  0.00    -0.040 C 
ATOM     31  H   LIG d   1       5.377   1.770  -1.939  0.00  0.00     0.028 H 
ATOM     32  H   LIG d   1       3.648   1.489  -1.625  0.00  0.00     0.028 H 
ATOM     33  H   LIG d   1       4.875   0.769  -0.555  0.00  0.00     0.028 H 
ENDBRANCH   1  30
TORSDOF 3
ENDMDL
MODEL 4
REMARK VINA RESULT:      -6.1      1.798      2.678
REMARK  3 active torsions:
REMARK  status: ('A' for Active; 'I' for Inactive)
REMARK    1  A    between atoms: C_1  and  C_2 
REMARK    2  A    between atoms: C_9  and  C_14 
REMARK    3  A    between atoms: N_15  and  C_16 
ROOT
ATOM      1  C   LIG d   1       5.422   1.121  -8.713  0.00  0.00    -0.050 A 
ATOM      2  C   LIG d   1       6.656   1.594  -8.288  0.00  0.00    -0.057 A 
ATOM      3  C   LIG d   1       7.330   0.973  -7.257  0.00  0.00    -0.037 A 
ATOM      4  C   LIG d   1       6.771  -0.138  -6.632  0.00  0.00     0.050 A 
ATOM      5  C   LIG d   1       5.521  -0.611  -7.062  0.00  0.00     0.046 A 
ATOM      6  C   LIG d   1       4.849   0.027  -8.103  0.00  0.00    -0.046 A 
ATOM      7  C   LIG d   1       4.939  -1.785  -6.380  0.00  0.00     0.197 C 
ATOM      8  C   LIG d   1       5.570  -2.203  -5.121  0.00  0.00     0.049 C 
ATOM      9  C   LIG d   1       6.814  -1.660  -4.788  0.00  0.00    -0.026 C 
ATOM     10  O   LIG d   1       7.406  -2.022  -3.633  0.00  0.00    -0.861 OA
ATOM     11  N   LIG d   1       7.435  -0.774  -5.603  0.00  0.00    -0.367 N 
ATOM     12  H   LIG d   1       8.375  -0.582  -5.458  0.00  0.00     0.165 HD
ATOM     13  O   LIG d   1       3.980  -2.379  -6.841  0.00  0.00    -0.286 OA
ATOM     14  H   LIG d   1       7.093   2.456  -8.768  0.00  0.00     0.062 H 
ATOM     15  H   LIG d   1       8.290   1.349  -6.936  0.00  0.00     0.064 H 
ATOM     16  H   LIG d   1       3.887  -0.336  -8.433  0.00  0.00     0.063 H 
ENDROOT
BRANCH   8  17
ATOM     17  C   LIG d   1       4.912  -3.164  -4.237  0.00  0.00     0.040 C 
ATOM     18  N   LIG d   1       4.086  -2.745  -3.314  0.00  0.00    -0.255 NA
ATOM     19  H   LIG d   1       5.109  -4.221  -4.347  0.00  0.00     0.084 H 
BRANCH  18  20
ATOM     20  C   LIG d   1       3.956  -1.407  -3.070  0.00  0.00     0.067 A 
ATOM     21  C   LIG d   1       4.628  -0.800  -1.999  0.00  0.00    -0.018 A 
ATOM     22  C   LIG d   1       4.472   0.553  -1.793  0.00  0.00     0.030 A 
ATOM     23  H   LIG d   1       5.261  -1.385  -1.347  0.00  0.00     0.065 H 
ATOM     24  N   LIG d   1       3.695   1.273  -2.582  0.00  0.00    -0.263 NA
ATOM     25  H   LIG d   1       4.988   1.030  -0.975  0.00  0.00     0.083 H 
ATOM     26  C   LIG d   1       3.041   0.742  -3.597  0.00  0.00     0.030 A 
ATOM     27  C   LIG d   1       3.143  -0.603  -3.879  0.00  0.00    -0.018 A 
ATOM     28  H   LIG d   1       2.415   1.370  -4.215  0.00  0.00     0.083 H 
ATOM     29  H   LIG d   1       2.605  -1.030  -4.712  0.00  0.00     0.065 H 
ENDBRANCH  18  20
ENDBRANCH   8  17
BRANCH   1  30
ATOM     30  C   LIG d   1       4.703   1.814  -9.842  0.00  0.00    -0.040 C 
ATOM     31  H   LIG d   1       4.718   1.179 -10.727  0.00  0.00     0.028 H 
ATOM     32  H   LIG d   1       3.671   2.006  -9.551  0.00  0.00     0.028 H 
ATOM     33  H   LIG d   1       5.201   2.758 -10.063  0.00  0.00     0.028 H 
ENDBRANCH   1  30
TORSDOF 3
ENDMDL
MODEL 5
REMARK VINA RESULT:      -6.1      1.309      2.313
REMARK  3 active torsions:
REMARK  status: ('A' for Active; 'I' for Inactive)
REMARK    1  A    between atoms: C_1  and  C_2 
REMARK    2  A    between atoms: C_9  and  C_14 
REMARK    3  A    between atoms: N_15  and  C_16 
ROOT
ATOM      1  C   LIG d   1       2.583  -0.285  -9.106  0.00  0.00    -0.050 A 
ATOM      2  C   LIG d   1       3.170   0.959  -9.290  0.00  0.00    -0.057 A 
ATOM      3  C   LIG d   1       4.350   1.281  -8.654  0.00  0.00    -0.037 A 
ATOM      4  C   LIG d   1       4.963   0.354  -7.817  0.00  0.00     0.050 A 
ATOM      5  C   LIG d   1       4.364  -0.902  -7.629  0.00  0.00     0.046 A 
ATOM      6  C   LIG d   1       3.170  -1.215  -8.276  0.00  0.00    -0.046 A 
ATOM      7  C   LIG d   1       5.023  -1.870  -6.729  0.00  0.00     0.197 C 
ATOM      8  C   LIG d   1       6.102  -1.355  -5.874  0.00  0.00     0.049 C 
ATOM      9  C   LIG d   1       6.618  -0.085  -6.147  0.00  0.00    -0.026 C 
ATOM     10  O   LIG d   1       7.601   0.410  -5.370  0.00  0.00    -0.861 OA
ATOM     11  N   LIG d   1       6.147   0.658  -7.177  0.00  0.00    -0.367 N 
ATOM     12  H   LIG d   1       6.659   1.427  -7.473  0.00  0.00     0.165 HD
ATOM     13  O   LIG d   1       4.687  -3.041  -6.696  0.00  0.00    -0.286 OA
ATOM     14  H   LIG d   1       2.698   1.683  -9.937  0.00  0.00     0.062 H 
ATOM     15  H   LIG d   1       4.798   2.252  -8.806  0.00  0.00     0.064 H 
ATOM     16  H   LIG d   1       2.708  -2.181  -8.131  0.00  0.00     0.063 H 
ENDROOT
BRANCH   8  17
ATOM     17  C   LIG d   1       6.623  -2.152  -4.764  0.00  0.00     0.040 C 
ATOM     18  N   LIG d   1       6.065  -2.073  -3.584  0.00  0.00    -0.255 NA
ATOM     19  H   LIG d   1       7.468  -2.806  -4.920  0.00  0.00     0.084 H 
BRANCH  18  20
ATOM     20  C   LIG d   1       5.101  -1.135  -3.345  0.00  0.00     0.067 A 
ATOM     21  C   LIG d   1       5.434   0.131  -2.843  0.00  0.00    -0.018 A 
ATOM     22  C   LIG d   1       4.429   1.047  -2.622  0.00  0.00     0.030 A 
ATOM     23  H   LIG d   1       6.464   0.384  -2.637  0.00  0.00     0.065 H 
ATOM     24  N   LIG d   1       3.168   0.742  -2.866  0.00  0.00    -0.263 NA
ATOM     25  H   LIG d   1       4.677   2.026  -2.241  0.00  0.00     0.083 H 
ATOM     26  C   LIG d   1       2.809  -0.439  -3.334  0.00  0.00     0.030 A 
ATOM     27  C   LIG d   1       3.749  -1.414  -3.588  0.00  0.00    -0.018 A 
ATOM     28  H   LIG d   1       1.765  -0.644  -3.518  0.00  0.00     0.083 H 
ATOM     29  H   LIG d   1       3.448  -2.378  -3.972  0.00  0.00     0.065 H 
ENDBRANCH  18  20
ENDBRANCH   8  17
BRANCH   1  30
ATOM     30  C   LIG d   1       1.293  -0.617  -9.812  0.00  0.00    -0.040 C 
ATOM     31  H   LIG d   1       0.465  -0.119  -9.309  0.00  0.00     0.028 H 
ATOM     32  H   LIG d   1       1.347  -0.277 -10.846  0.00  0.00     0.028 H 
ATOM     33  H   LIG d   1       1.136  -1.695  -9.792  0.00  0.00     0.028 H 
ENDBRANCH   1  30
TORSDOF 3
ENDMDL
MODEL 6
REMARK VINA RESULT:      -6.1      2.682      6.356
REMARK  3 active torsions:
REMARK  status: ('A' for Active; 'I' for Inactive)
REMARK    1  A    between atoms: C_1  and  C_2 
REMARK    2  A    between atoms: C_9  and  C_14 
REMARK    3  A    between atoms: N_15  and  C_16 
ROOT
ATOM      1  C   LIG d   1       3.626  -1.309  -3.518  0.00  0.00    -0.050 A 
ATOM      2  C   LIG d   1       2.726  -0.258  -3.416  0.00  0.00    -0.057 A 
ATOM      3  C   LIG d   1       2.444   0.536  -4.508  0.00  0.00    -0.037 A 
ATOM      4  C   LIG d   1       3.068   0.286  -5.726  0.00  0.00     0.050 A 
ATOM      5  C   LIG d   1       3.982  -0.775  -5.825  0.00  0.00     0.046 A 
ATOM      6  C   LIG d   1       4.259  -1.568  -4.713  0.00  0.00    -0.046 A 
ATOM      7  C   LIG d   1       4.642  -1.019  -7.124  0.00  0.00     0.197 C 
ATOM      8  C   LIG d   1       4.513   0.033  -8.142  0.00  0.00     0.049 C 
ATOM      9  C   LIG d   1       3.575   1.048  -7.935  0.00  0.00    -0.026 C 
ATOM     10  O   LIG d   1       3.448   2.027  -8.852  0.00  0.00    -0.861 OA
ATOM     11  N   LIG d   1       2.793   1.068  -6.831  0.00  0.00    -0.367 N 
ATOM     12  H   LIG d   1       2.016   1.649  -6.815  0.00  0.00     0.165 HD
ATOM     13  O   LIG d   1       5.264  -2.044  -7.340  0.00  0.00    -0.286 OA
ATOM     14  H   LIG d   1       2.240  -0.059  -2.472  0.00  0.00     0.062 H 
ATOM     15  H   LIG d   1       1.740   1.350  -4.416  0.00  0.00     0.064 H 
ATOM     16  H   LIG d   1       4.963  -2.384  -4.789  0.00  0.00     0.063 H 
ENDROOT
BRANCH   8  17
ATOM     17  C   LIG d   1       5.347   0.018  -9.343  0.00  0.00     0.040 C 
ATOM     18  N   LIG d   1       4.886  -0.495 -10.454  0.00  0.00    -0.255 NA
ATOM     19  H   LIG d   1       6.345   0.430  -9.312  0.00  0.00     0.084 H 
BRANCH  18  20
ATOM     20  C   LIG d   1       3.690  -1.156 -10.456  0.00  0.00     0.067 A 
ATOM     21  C   LIG d   1       3.614  -2.511 -10.106  0.00  0.00    -0.018 A 
ATOM     22  C   LIG d   1       2.386  -3.136 -10.117  0.00  0.00     0.030 A 
ATOM     23  H   LIG d   1       4.504  -3.056  -9.828  0.00  0.00     0.065 H 
ATOM     24  N   LIG d   1       1.294  -2.478 -10.462  0.00  0.00    -0.263 NA
ATOM     25  H   LIG d   1       2.316  -4.177  -9.845  0.00  0.00     0.083 H 
ATOM     26  C   LIG d   1       1.321  -1.204 -10.804  0.00  0.00     0.030 A 
ATOM     27  C   LIG d   1       2.505  -0.499 -10.816  0.00  0.00    -0.018 A 
ATOM     28  H   LIG d   1       0.403  -0.706 -11.080  0.00  0.00     0.083 H 
ATOM     29  H   LIG d   1       2.519   0.544 -11.096  0.00  0.00     0.065 H 
ENDBRANCH  18  20
ENDBRANCH   8  17
BRANCH   1  30
ATOM     30  C   LIG d   1       3.918  -2.165  -2.312  0.00  0.00    -0.040 C 
ATOM     31  H   LIG d   1       3.042  -2.766  -2.072  0.00  0.00     0.028 H 
ATOM     32  H   LIG d   1       4.761  -2.822  -2.529  0.00  0.00     0.028 H 
ATOM     33  H   LIG d   1       4.165  -1.525  -1.465  0.00  0.00     0.028 H 
ENDBRANCH   1  30
TORSDOF 3
ENDMDL
MODEL 7
REMARK VINA RESULT:      -5.8      3.792      5.628
REMARK  3 active torsions:
REMARK  status: ('A' for Active; 'I' for Inactive)
REMARK    1  A    between atoms: C_1  and  C_2 
REMARK    2  A    between atoms: C_9  and  C_14 
REMARK    3  A    between atoms: N_15  and  C_16 
ROOT
ATOM      1  C   LIG d   1       4.765  -0.226  -2.364  0.00  0.00    -0.050 A 
ATOM      2  C   LIG d   1       3.787  -1.210  -2.350  0.00  0.00    -0.057 A 
ATOM      3  C   LIG d   1       3.957  -2.382  -3.056  0.00  0.00    -0.037 A 
ATOM      4  C   LIG d   1       5.118  -2.585  -3.795  0.00  0.00     0.050 A 
ATOM      5  C   LIG d   1       6.104  -1.585  -3.812  0.00  0.00     0.046 A 
ATOM      6  C   LIG d   1       5.920  -0.405  -3.095  0.00  0.00    -0.046 A 
ATOM      7  C   LIG d   1       7.326  -1.814  -4.610  0.00  0.00     0.197 C 
ATOM      8  C   LIG d   1       7.303  -2.940  -5.553  0.00  0.00     0.049 C 
ATOM      9  C   LIG d   1       6.267  -3.873  -5.450  0.00  0.00    -0.026 C 
ATOM     10  O   LIG d   1       6.222  -4.907  -6.312  0.00  0.00    -0.861 OA
ATOM     11  N   LIG d   1       5.306  -3.755  -4.504  0.00  0.00    -0.367 N 
ATOM     12  H   LIG d   1       4.734  -4.515  -4.318  0.00  0.00     0.165 HD
ATOM     13  O   LIG d   1       8.308  -1.101  -4.491  0.00  0.00    -0.286 OA
ATOM     14  H   LIG d   1       2.883  -1.057  -1.779  0.00  0.00     0.062 H 
ATOM     15  H   LIG d   1       3.188  -3.141  -3.036  0.00  0.00     0.064 H 
ATOM     16  H   LIG d   1       6.678   0.365  -3.108  0.00  0.00     0.063 H 
ENDROOT
BRANCH   8  17
ATOM     17  C   LIG d   1       8.339  -3.082  -6.575  0.00  0.00     0.040 C 
ATOM     18  N   LIG d   1       9.398  -3.811  -6.336  0.00  0.00    -0.255 NA
ATOM     19  H   LIG d   1       8.230  -2.583  -7.527  0.00  0.00     0.084 H 
BRANCH  18  20
ATOM     20  C   LIG d   1       9.615  -4.313  -5.084  0.00  0.00     0.067 A 
ATOM     21  C   LIG d   1      10.340  -3.585  -4.131  0.00  0.00    -0.018 A 
ATOM     22  C   LIG d   1      10.530  -4.127  -2.878  0.00  0.00     0.030 A 
ATOM     23  H   LIG d   1      10.742  -2.612  -4.374  0.00  0.00     0.065 H 
ATOM     24  N   LIG d   1      10.047  -5.319  -2.576  0.00  0.00    -0.263 NA
ATOM     25  H   LIG d   1      11.083  -3.572  -2.136  0.00  0.00     0.083 H 
ATOM     26  C   LIG d   1       9.363  -6.040  -3.443  0.00  0.00     0.030 A 
ATOM     27  C   LIG d   1       9.122  -5.573  -4.718  0.00  0.00    -0.018 A 
ATOM     28  H   LIG d   1       8.988  -7.010  -3.152  0.00  0.00     0.083 H 
ATOM     29  H   LIG d   1       8.561  -6.168  -5.422  0.00  0.00     0.065 H 
ENDBRANCH  18  20
ENDBRANCH   8  17
BRANCH   1  30
ATOM     30  C   LIG d   1       4.560   1.047  -1.584  0.00  0.00    -0.040 C 
ATOM     31  H   LIG d   1       4.142   0.811  -0.606  0.00  0.00     0.028 H 
ATOM     32  H   LIG d   1       5.517   1.553  -1.456  0.00  0.00     0.028 H 
ATOM     33  H   LIG d   1       3.874   1.698  -2.126  0.00  0.00     0.028 H 
ENDBRANCH   1  30
TORSDOF 3
ENDMDL
MODEL 8
REMARK VINA RESULT:      -5.8      2.782      4.715
REMARK  3 active torsions:
REMARK  status: ('A' for Active; 'I' for Inactive)
REMARK    1  A    between atoms: C_1  and  C_2 
REMARK    2  A    between atoms: C_9  and  C_14 
REMARK    3  A    between atoms: N_15  and  C_16 
ROOT
ATOM      1  C   LIG d   1       9.403   0.719  -6.942  0.00  0.00    -0.050 A 
ATOM      2  C   LIG d   1       9.250   2.044  -6.560  0.00  0.00    -0.057 A 
ATOM      3  C   LIG d   1       8.489   2.376  -5.459  0.00  0.00    -0.037 A 
ATOM      4  C   LIG d   1       7.864   1.376  -4.721  0.00  0.00     0.050 A 
ATOM      5  C   LIG d   1       8.016   0.036  -5.113  0.00  0.00     0.046 A 
ATOM      6  C   LIG d   1       8.787  -0.285  -6.229  0.00  0.00    -0.046 A 
ATOM      7  C   LIG d   1       7.337  -1.011  -4.323  0.00  0.00     0.197 C 
ATOM      8  C   LIG d   1       6.324  -0.563  -3.358  0.00  0.00     0.049 C 
ATOM      9  C   LIG d   1       6.256   0.798  -3.048  0.00  0.00    -0.026 C 
ATOM     10  O   LIG d   1       5.327   1.231  -2.173  0.00  0.00    -0.861 OA
ATOM     11  N   LIG d   1       7.102   1.690  -3.613  0.00  0.00    -0.367 N 
ATOM     12  H   LIG d   1       7.177   2.577  -3.227  0.00  0.00     0.165 HD
ATOM     13  O   LIG d   1       7.604  -2.191  -4.466  0.00  0.00    -0.286 OA
ATOM     14  H   LIG d   1       9.732   2.825  -7.130  0.00  0.00     0.062 H 
ATOM     15  H   LIG d   1       8.379   3.411  -5.171  0.00  0.00     0.064 H 
ATOM     16  H   LIG d   1       8.903  -1.316  -6.531  0.00  0.00     0.063 H 
ENDROOT
BRANCH   8  17
ATOM     17  C   LIG d   1       5.409  -1.519  -2.736  0.00  0.00     0.040 C 
ATOM     18  N   LIG d   1       4.245  -1.761  -3.282  0.00  0.00    -0.255 NA
ATOM     19  H   LIG d   1       5.694  -2.026  -1.825  0.00  0.00     0.084 H 
BRANCH  18  20
ATOM     20  C   LIG d   1       3.818  -1.011  -4.340  0.00  0.00     0.067 A 
ATOM     21  C   LIG d   1       2.862   0.001  -4.169  0.00  0.00    -0.018 A 
ATOM     22  C   LIG d   1       2.464   0.736  -5.264  0.00  0.00     0.030 A 
ATOM     23  H   LIG d   1       2.447   0.202  -3.192  0.00  0.00     0.065 H 
ATOM     24  N   LIG d   1       2.962   0.492  -6.462  0.00  0.00    -0.263 NA
ATOM     25  H   LIG d   1       1.733   1.520  -5.141  0.00  0.00     0.083 H 
ATOM     26  C   LIG d   1       3.859  -0.454  -6.670  0.00  0.00     0.030 A 
ATOM     27  C   LIG d   1       4.318  -1.234  -5.630  0.00  0.00    -0.018 A 
ATOM     28  H   LIG d   1       4.238  -0.619  -7.667  0.00  0.00     0.083 H 
ATOM     29  H   LIG d   1       5.052  -2.006  -5.808  0.00  0.00     0.065 H 
ENDBRANCH  18  20
ENDBRANCH   8  17
BRANCH   1  30
ATOM     30  C   LIG d   1      10.241   0.379  -8.148  0.00  0.00    -0.040 C 
ATOM     31  H   LIG d   1       9.698   0.643  -9.055  0.00  0.00     0.028 H 
ATOM     32  H   LIG d   1      11.176   0.937  -8.109  0.00  0.00     0.028 H 
ATOM     33  H   LIG d   1      10.454  -0.690  -8.151  0.00  0.00     0.028 H 
ENDBRANCH   1  30
TORSDOF 3
ENDMDL
MODEL 9
REMARK VINA RESULT:      -5.8      2.397      5.550
REMARK  3 active torsions:
REMARK  status: ('A' for Active; 'I' for Inactive)
REMARK    1  A    between atoms: C_1  and  C_2 
REMARK    2  A    between atoms: C_9  and  C_14 
REMARK    3  A    between atoms: N_15  and  C_16 
ROOT
ATOM      1  C   LIG d   1       4.493  -0.127  -2.525  0.00  0.00    -0.050 A 
ATOM      2  C   LIG d   1       4.187  -1.394  -2.048  0.00  0.00    -0.057 A 
ATOM      3  C   LIG d   1       4.136  -2.475  -2.903  0.00  0.00    -0.037 A 
ATOM      4  C   LIG d   1       4.390  -2.299  -4.259  0.00  0.00     0.050 A 
ATOM      5  C   LIG d   1       4.695  -1.015  -4.740  0.00  0.00     0.046 A 
ATOM      6  C   LIG d   1       4.742   0.069  -3.866  0.00  0.00    -0.046 A 
ATOM      7  C   LIG d   1       4.952  -0.846  -6.185  0.00  0.00     0.197 C 
ATOM      8  C   LIG d   1       4.596  -1.972  -7.060  0.00  0.00     0.049 C 
ATOM      9  C   LIG d   1       4.302  -3.205  -6.471  0.00  0.00    -0.026 C 
ATOM     10  O   LIG d   1       3.964  -4.247  -7.255  0.00  0.00    -0.861 OA
ATOM     11  N   LIG d   1       4.348  -3.371  -5.128  0.00  0.00    -0.367 N 
ATOM     12  H   LIG d   1       4.353  -4.271  -4.766  0.00  0.00     0.165 HD
ATOM     13  O   LIG d   1       5.437   0.180  -6.630  0.00  0.00    -0.286 OA
ATOM     14  H   LIG d   1       3.987  -1.536  -0.996  0.00  0.00     0.062 H 
ATOM     15  H   LIG d   1       3.898  -3.456  -2.519  0.00  0.00     0.064 H 
ATOM     16  H   LIG d   1       4.975   1.057  -4.236  0.00  0.00     0.063 H 
ENDROOT
BRANCH   8  17
ATOM     17  C   LIG d   1       4.550  -1.806  -8.512  0.00  0.00     0.040 C 
ATOM     18  N   LIG d   1       5.597  -2.100  -9.237  0.00  0.00    -0.255 NA
ATOM     19  H   LIG d   1       3.651  -1.439  -8.985  0.00  0.00     0.084 H 
BRANCH  18  20
ATOM     20  C   LIG d   1       6.782  -2.413  -8.633  0.00  0.00     0.067 A 
ATOM     21  C   LIG d   1       7.711  -1.415  -8.306  0.00  0.00    -0.018 A 
ATOM     22  C   LIG d   1       8.890  -1.776  -7.691  0.00  0.00     0.030 A 
ATOM     23  H   LIG d   1       7.502  -0.379  -8.528  0.00  0.00     0.065 H 
ATOM     24  N   LIG d   1       9.155  -3.041  -7.422  0.00  0.00    -0.263 NA
ATOM     25  H   LIG d   1       9.609  -1.014  -7.431  0.00  0.00     0.083 H 
ATOM     26  C   LIG d   1       8.312  -4.013  -7.717  0.00  0.00     0.030 A 
ATOM     27  C   LIG d   1       7.106  -3.742  -8.328  0.00  0.00    -0.018 A 
ATOM     28  H   LIG d   1       8.570  -5.034  -7.478  0.00  0.00     0.083 H 
ATOM     29  H   LIG d   1       6.421  -4.542  -8.566  0.00  0.00     0.065 H 
ENDBRANCH  18  20
ENDBRANCH   8  17
BRANCH   1  30
ATOM     30  C   LIG d   1       4.545   1.040  -1.573  0.00  0.00    -0.040 C 
ATOM     31  H   LIG d   1       4.412   1.968  -2.128  0.00  0.00     0.028 H 
ATOM     32  H   LIG d   1       3.749   0.942  -0.835  0.00  0.00     0.028 H 
ATOM     33  H   LIG d   1       5.510   1.052  -1.067  0.00  0.00     0.028 H 
ENDBRANCH   1  30
TORSDOF 3
ENDMDL
MODEL 10
REMARK VINA RESULT:      -5.8      3.022      6.130
REMARK  3 active torsions:
REMARK  status: ('A' for Active; 'I' for Inactive)
REMARK    1  A    between atoms: C_1  and  C_2 
REMARK    2  A    between atoms: C_9  and  C_14 
REMARK    3  A    between atoms: N_15  and  C_16 
ROOT
ATOM      1  C   LIG d   1       4.617  -1.217  -2.542  0.00  0.00    -0.050 A 
ATOM      2  C   LIG d   1       4.352   0.083  -2.138  0.00  0.00    -0.057 A 
ATOM      3  C   LIG d   1       5.159   1.125  -2.543  0.00  0.00    -0.037 A 
ATOM      4  C   LIG d   1       6.254   0.876  -3.365  0.00  0.00     0.050 A 
ATOM      5  C   LIG d   1       6.523  -0.442  -3.768  0.00  0.00     0.046 A 
ATOM      6  C   LIG d   1       5.700  -1.486  -3.350  0.00  0.00    -0.046 A 
ATOM      7  C   LIG d   1       7.696  -0.690  -4.632  0.00  0.00     0.197 C 
ATOM      8  C   LIG d   1       8.658   0.411  -4.777  0.00  0.00     0.049 C 
ATOM      9  C   LIG d   1       8.287   1.683  -4.331  0.00  0.00    -0.026 C 
ATOM     10  O   LIG d   1       9.159   2.703  -4.446  0.00  0.00    -0.861 OA
ATOM     11  N   LIG d   1       7.070   1.908  -3.784  0.00  0.00    -0.367 N 
ATOM     12  H   LIG d   1       6.761   2.822  -3.684  0.00  0.00     0.165 HD
ATOM     13  O   LIG d   1       7.857  -1.757  -5.198  0.00  0.00    -0.286 OA
ATOM     14  H   LIG d   1       3.504   0.283  -1.499  0.00  0.00     0.062 H 
ATOM     15  H   LIG d   1       4.941   2.134  -2.223  0.00  0.00     0.064 H 
ATOM     16  H   LIG d   1       5.908  -2.501  -3.660  0.00  0.00     0.063 H 
ENDROOT
BRANCH   8  17
ATOM     17  C   LIG d   1       9.974   0.181  -5.374  0.00  0.00     0.040 C 
ATOM     18  N   LIG d   1      10.156   0.381  -6.653  0.00  0.00    -0.255 NA
ATOM     19  H   LIG d   1      10.795  -0.154  -4.757  0.00  0.00     0.084 H 
BRANCH  18  20
ATOM     20  C   LIG d   1       9.088   0.651  -7.461  0.00  0.00     0.067 A 
ATOM     21  C   LIG d   1       8.362  -0.383  -8.069  0.00  0.00    -0.018 A 
ATOM     22  C   LIG d   1       7.289  -0.064  -8.872  0.00  0.00     0.030 A 
ATOM     23  H   LIG d   1       8.639  -1.415  -7.906  0.00  0.00     0.065 H 
ATOM     24  N   LIG d   1       6.949   1.195  -9.080  0.00  0.00    -0.263 NA
ATOM     25  H   LIG d   1       6.722  -0.853  -9.340  0.00  0.00     0.083 H 
ATOM     26  C   LIG d   1       7.607   2.199  -8.533  0.00  0.00     0.030 A 
ATOM     27  C   LIG d   1       8.691   1.972  -7.712  0.00  0.00    -0.018 A 
ATOM     28  H   LIG d   1       7.294   3.213  -8.732  0.00  0.00     0.083 H 
ATOM     29  H   LIG d   1       9.224   2.799  -7.267  0.00  0.00     0.065 H 
ENDBRANCH  18  20
ENDBRANCH   8  17
BRANCH   1  30
ATOM     30  C   LIG d   1       3.721  -2.341  -2.089  0.00  0.00    -0.040 C 
ATOM     31  H   LIG d   1       3.000  -2.569  -2.872  0.00  0.00     0.028 H 
ATOM     32  H   LIG d   1       4.325  -3.225  -1.882  0.00  0.00     0.028 H 
ATOM     33  H   LIG d   1       3.194  -2.041  -1.184  0.00  0.00     0.028 H 
ENDBRANCH   1  30
TORSDOF 3
ENDMDL
