MODEL 1
REMARK VINA RESULT:      -7.5      0.000      0.000
REMARK  11 active torsions:
REMARK  status: ('A' for Active; 'I' for Inactive)
REMARK    1  A    between atoms: C_4  and  C_7 
REMARK    2  A    between atoms: C_8  and  C_9 
REMARK    3  A    between atoms: C_9  and  C_11 
REMARK    4  A    between atoms: C_14  and  O_18 
REMARK    5  A    between atoms: C_16  and  O_17 
REMARK    6  A    between atoms: O_18  and  C_19 
REMARK    7  A    between atoms: C_21  and  O_34 
REMARK    8  A    between atoms: C_23  and  O_33 
REMARK    9  A    between atoms: C_25  and  O_32 
REMARK   10  A    between atoms: C_27  and  C_30 
REMARK   11  A    between atoms: C_30  and  O_31 
ROOT
ATOM      1  C   LIG d   1       9.533   3.451  -3.876  0.00  0.00     0.063 A 
ATOM      2  C   LIG d   1       9.148   4.610  -4.559  0.00  0.00    -0.044 A 
ATOM      3  C   LIG d   1       9.659   5.822  -4.190  0.00  0.00    -0.019 A 
ATOM      4  C   LIG d   1      10.562   5.914  -3.136  0.00  0.00     0.128 A 
ATOM      5  C   LIG d   1      10.954   4.774  -2.449  0.00  0.00     0.022 A 
ATOM      6  C   LIG d   1      10.440   3.540  -2.809  0.00  0.00     0.131 A 
ATOM      7  H   LIG d   1       8.447   4.546  -5.378  0.00  0.00     0.063 H 
ATOM      8  H   LIG d   1       9.358   6.714  -4.721  0.00  0.00     0.065 H 
ATOM      9  H   LIG d   1      11.655   4.850  -1.631  0.00  0.00     0.069 H 
ENDROOT
BRANCH   4  10
ATOM     10  O   LIG d   1      11.063   7.124  -2.778  0.00  0.00    -0.461 OA
BRANCH  10  11
ATOM     11  C   LIG d   1      10.149   8.223  -2.756  0.00  0.00     0.231 C 
ATOM     12  H   LIG d   1       9.177   7.894  -3.122  0.00  0.00     0.108 H 
ATOM     13  O   LIG d   1      10.644   9.270  -3.593  0.00  0.00    -0.331 OA
ATOM     14  C   LIG d   1       9.789  10.414  -3.664  0.00  0.00     0.114 C 
ATOM     15  C   LIG d   1       9.633  11.019  -2.266  0.00  0.00     0.112 C 
ATOM     16  H   LIG d   1       8.812  10.113  -4.041  0.00  0.00     0.065 H 
ATOM     17  C   LIG d   1       9.074   9.955  -1.316  0.00  0.00     0.115 C 
ATOM     18  H   LIG d   1      10.605  11.356  -1.904  0.00  0.00     0.065 H 
ATOM     19  C   LIG d   1      10.007   8.740  -1.323  0.00  0.00     0.145 C 
ATOM     20  H   LIG d   1       8.081   9.654  -1.650  0.00  0.00     0.065 H 
ATOM     21  H   LIG d   1      10.986   9.032  -0.942  0.00  0.00     0.068 H 
BRANCH  14  22
ATOM     22  C   LIG d   1      10.402  11.452  -4.604  0.00  0.00     0.073 C 
ATOM     23  H   LIG d   1      11.023  12.140  -4.030  0.00  0.00     0.058 H 
ATOM     24  H   LIG d   1      11.014  10.949  -5.353  0.00  0.00     0.058 H 
BRANCH  22  25
ATOM     25  O   LIG d   1       9.358  12.182  -5.253  0.00  0.00    -0.392 OA
ATOM     26  H   LIG d   1       8.772  11.634  -5.792  0.00  0.00     0.209 HD
ENDBRANCH  22  25
ENDBRANCH  14  22
BRANCH  15  27
ATOM     27  O   LIG d   1       8.733  12.128  -2.323  0.00  0.00    -0.387 OA
ATOM     28  H   LIG d   1       8.865  12.778  -1.619  0.00  0.00     0.210 HD
ENDBRANCH  15  27
BRANCH  17  29
ATOM     29  O   LIG d   1       8.993  10.489   0.007  0.00  0.00    -0.386 OA
ATOM     30  H   LIG d   1       8.288  10.101   0.544  0.00  0.00     0.210 HD
ENDBRANCH  17  29
BRANCH  19  31
ATOM     31  O   LIG d   1       9.460   7.711  -0.496  0.00  0.00    -0.383 OA
ATOM     32  H   LIG d   1       9.772   7.734   0.419  0.00  0.00     0.210 HD
ENDBRANCH  19  31
ENDBRANCH  10  11
ENDBRANCH   4  10
BRANCH   6  33
ATOM     33  O   LIG d   1      10.814   2.423  -2.137  0.00  0.00    -0.506 OA
ATOM     34  H   LIG d   1      10.317   1.631  -2.384  0.00  0.00     0.292 HD
ENDBRANCH   6  33
BRANCH   1  35
ATOM     35  C   LIG d   1       8.982   2.142  -4.273  0.00  0.00     0.190 C 
ATOM     36  O   LIG d   1       9.673   1.355  -4.896  0.00  0.00    -0.287 OA
BRANCH  35  37
ATOM     37  C   LIG d   1       7.607   1.789  -3.918  0.00  0.00    -0.014 C 
ATOM     38  C   LIG d   1       7.329   0.559  -3.435  0.00  0.00    -0.051 C 
ATOM     39  H   LIG d   1       8.122  -0.163  -3.310  0.00  0.00     0.062 H 
ATOM     40  H   LIG d   1       6.815   2.511  -4.044  0.00  0.00     0.066 H 
BRANCH  38  41
ATOM     41  C   LIG d   1       5.947   0.204  -3.079  0.00  0.00    -0.025 A 
ATOM     42  C   LIG d   1       5.033   1.202  -2.728  0.00  0.00    -0.055 A 
ATOM     43  C   LIG d   1       3.739   0.861  -2.396  0.00  0.00    -0.061 A 
ATOM     44  H   LIG d   1       5.339   2.238  -2.719  0.00  0.00     0.062 H 
ATOM     45  C   LIG d   1       3.344  -0.465  -2.408  0.00  0.00    -0.062 A 
ATOM     46  H   LIG d   1       3.031   1.631  -2.125  0.00  0.00     0.062 H 
ATOM     47  C   LIG d   1       4.242  -1.459  -2.754  0.00  0.00    -0.061 A 
ATOM     48  H   LIG d   1       2.330  -0.727  -2.143  0.00  0.00     0.062 H 
ATOM     49  C   LIG d   1       5.540  -1.135  -3.089  0.00  0.00    -0.055 A 
ATOM     50  H   LIG d   1       3.926  -2.492  -2.761  0.00  0.00     0.062 H 
ATOM     51  H   LIG d   1       6.240  -1.912  -3.358  0.00  0.00     0.062 H 
ENDBRANCH  38  41
ENDBRANCH  35  37
ENDBRANCH   1  35
TORSDOF 11
ENDMDL
MODEL 2
REMARK VINA RESULT:      -7.4      1.082      1.698
REMARK  11 active torsions:
REMARK  status: ('A' for Active; 'I' for Inactive)
REMARK    1  A    between atoms: C_4  and  C_7 
REMARK    2  A    between atoms: C_8  and  C_9 
REMARK    3  A    between atoms: C_9  and  C_11 
REMARK    4  A    between atoms: C_14  and  O_18 
REMARK    5  A    between atoms: C_16  and  O_17 
REMARK    6  A    between atoms: O_18  and  C_19 
REMARK    7  A    between atoms: C_21  and  O_34 
REMARK    8  A    between atoms: C_23  and  O_33 
REMARK    9  A    between atoms: C_25  and  O_32 
REMARK   10  A    between atoms: C_27  and  C_30 
REMARK   11  A    between atoms: C_30  and  O_31 
ROOT
ATOM      1  C   LIG d   1       9.598   3.404  -3.840  0.00  0.00     0.063 A 
ATOM      2  C   LIG d   1       9.176   4.593  -4.443  0.00  0.00    -0.044 A 
ATOM      3  C   LIG d   1       9.741   5.783  -4.080  0.00  0.00    -0.019 A 
ATOM      4  C   LIG d   1      10.737   5.821  -3.109  0.00  0.00     0.128 A 
ATOM      5  C   LIG d   1      11.167   4.650  -2.501  0.00  0.00     0.022 A 
ATOM      6  C   LIG d   1      10.599   3.438  -2.857  0.00  0.00     0.131 A 
ATOM      7  H   LIG d   1       8.403   4.571  -5.197  0.00  0.00     0.063 H 
ATOM      8  H   LIG d   1       9.412   6.699  -4.548  0.00  0.00     0.065 H 
ATOM      9  H   LIG d   1      11.941   4.684  -1.748  0.00  0.00     0.069 H 
ENDROOT
BRANCH   4  10
ATOM     10  O   LIG d   1      11.291   7.008  -2.755  0.00  0.00    -0.461 OA
BRANCH  10  11
ATOM     11  C   LIG d   1      10.544   7.830  -1.855  0.00  0.00     0.231 C 
ATOM     12  H   LIG d   1       9.653   7.294  -1.529  0.00  0.00     0.108 H 
ATOM     13  O   LIG d   1      10.160   9.036  -2.519  0.00  0.00    -0.331 OA
ATOM     14  C   LIG d   1       9.382   9.923  -1.713  0.00  0.00     0.114 C 
ATOM     15  C   LIG d   1      10.199  10.349  -0.491  0.00  0.00     0.112 C 
ATOM     16  H   LIG d   1       8.476   9.415  -1.384  0.00  0.00     0.065 H 
ATOM     17  C   LIG d   1      10.623   9.102   0.291  0.00  0.00     0.115 C 
ATOM     18  H   LIG d   1      11.087  10.893  -0.817  0.00  0.00     0.065 H 
ATOM     19  C   LIG d   1      11.408   8.172  -0.639  0.00  0.00     0.145 C 
ATOM     20  H   LIG d   1       9.738   8.585   0.660  0.00  0.00     0.065 H 
ATOM     21  H   LIG d   1      12.319   8.672  -0.969  0.00  0.00     0.068 H 
BRANCH  14  22
ATOM     22  C   LIG d   1       9.006  11.159  -2.531  0.00  0.00     0.073 C 
ATOM     23  H   LIG d   1       9.401  12.051  -2.045  0.00  0.00     0.058 H 
ATOM     24  H   LIG d   1       9.428  11.074  -3.533  0.00  0.00     0.058 H 
BRANCH  22  25
ATOM     25  O   LIG d   1       7.582  11.257  -2.620  0.00  0.00    -0.392 OA
ATOM     26  H   LIG d   1       7.138  10.408  -2.749  0.00  0.00     0.209 HD
ENDBRANCH  22  25
ENDBRANCH  14  22
BRANCH  15  27
ATOM     27  O   LIG d   1       9.405  11.190   0.347  0.00  0.00    -0.387 OA
ATOM     28  H   LIG d   1       8.731  11.696  -0.129  0.00  0.00     0.210 HD
ENDBRANCH  15  27
BRANCH  17  29
ATOM     29  O   LIG d   1      11.448   9.484   1.393  0.00  0.00    -0.386 OA
ATOM     30  H   LIG d   1      12.127  10.135   1.170  0.00  0.00     0.210 HD
ENDBRANCH  17  29
BRANCH  19  31
ATOM     31  O   LIG d   1      11.748   6.971   0.058  0.00  0.00    -0.383 OA
ATOM     32  H   LIG d   1      11.511   6.980   0.995  0.00  0.00     0.210 HD
ENDBRANCH  19  31
ENDBRANCH  10  11
ENDBRANCH   4  10
BRANCH   6  33
ATOM     33  O   LIG d   1      11.010   2.291  -2.262  0.00  0.00    -0.506 OA
ATOM     34  H   LIG d   1      11.927   2.314  -1.957  0.00  0.00     0.292 HD
ENDBRANCH   6  33
BRANCH   1  35
ATOM     35  C   LIG d   1       8.988   2.120  -4.232  0.00  0.00     0.190 C 
ATOM     36  O   LIG d   1       9.637   1.307  -4.866  0.00  0.00    -0.287 OA
BRANCH  35  37
ATOM     37  C   LIG d   1       7.605   1.822  -3.859  0.00  0.00    -0.014 C 
ATOM     38  C   LIG d   1       7.270   0.583  -3.441  0.00  0.00    -0.051 C 
ATOM     39  H   LIG d   1       8.024  -0.188  -3.381  0.00  0.00     0.062 H 
ATOM     40  H   LIG d   1       6.852   2.593  -3.918  0.00  0.00     0.066 H 
BRANCH  38  41
ATOM     41  C   LIG d   1       5.880   0.284  -3.066  0.00  0.00    -0.025 A 
ATOM     42  C   LIG d   1       5.432  -1.040  -3.024  0.00  0.00    -0.055 A 
ATOM     43  C   LIG d   1       4.128  -1.313  -2.670  0.00  0.00    -0.061 A 
ATOM     44  H   LIG d   1       6.107  -1.848  -3.266  0.00  0.00     0.062 H 
ATOM     45  C   LIG d   1       3.261  -0.280  -2.358  0.00  0.00    -0.062 A 
ATOM     46  H   LIG d   1       3.781  -2.335  -2.637  0.00  0.00     0.062 H 
ATOM     47  C   LIG d   1       3.696   1.033  -2.397  0.00  0.00    -0.061 A 
ATOM     48  H   LIG d   1       2.239  -0.499  -2.086  0.00  0.00     0.062 H 
ATOM     49  C   LIG d   1       4.998   1.323  -2.749  0.00  0.00    -0.055 A 
ATOM     50  H   LIG d   1       3.014   1.834  -2.152  0.00  0.00     0.062 H 
ATOM     51  H   LIG d   1       5.336   2.348  -2.779  0.00  0.00     0.062 H 
ENDBRANCH  38  41
ENDBRANCH  35  37
ENDBRANCH   1  35
TORSDOF 11
ENDMDL
MODEL 3
REMARK VINA RESULT:      -6.7      8.294     14.781
REMARK  11 active torsions:
REMARK  status: ('A' for Active; 'I' for Inactive)
REMARK    1  A    between atoms: C_4  and  C_7 
REMARK    2  A    between atoms: C_8  and  C_9 
REMARK    3  A    between atoms: C_9  and  C_11 
REMARK    4  A    between atoms: C_14  and  O_18 
REMARK    5  A    between atoms: C_16  and  O_17 
REMARK    6  A    between atoms: O_18  and  C_19 
REMARK    7  A    between atoms: C_21  and  O_34 
REMARK    8  A    between atoms: C_23  and  O_33 
REMARK    9  A    between atoms: C_25  and  O_32 
REMARK   10  A    between atoms: C_27  and  C_30 
REMARK   11  A    between atoms: C_30  and  O_31 
ROOT
ATOM      1  C   LIG d   1       8.034  -4.556  -4.864  0.00  0.00     0.063 A 
ATOM      2  C   LIG d   1       7.051  -5.140  -5.670  0.00  0.00    -0.044 A 
ATOM      3  C   LIG d   1       6.926  -6.499  -5.720  0.00  0.00    -0.019 A 
ATOM      4  C   LIG d   1       7.772  -7.312  -4.972  0.00  0.00     0.128 A 
ATOM      5  C   LIG d   1       8.752  -6.749  -4.167  0.00  0.00     0.022 A 
ATOM      6  C   LIG d   1       8.892  -5.372  -4.112  0.00  0.00     0.131 A 
ATOM      7  H   LIG d   1       6.391  -4.515  -6.254  0.00  0.00     0.063 H 
ATOM      8  H   LIG d   1       6.165  -6.946  -6.345  0.00  0.00     0.065 H 
ATOM      9  H   LIG d   1       9.406  -7.383  -3.588  0.00  0.00     0.069 H 
ENDROOT
BRANCH   4  10
ATOM     10  O   LIG d   1       7.638  -8.661  -5.029  0.00  0.00    -0.461 OA
BRANCH  10  11
ATOM     11  C   LIG d   1       6.339  -9.172  -5.337  0.00  0.00     0.231 C 
ATOM     12  H   LIG d   1       5.791  -8.437  -5.926  0.00  0.00     0.108 H 
ATOM     13  O   LIG d   1       5.631  -9.435  -4.124  0.00  0.00    -0.331 OA
ATOM     14  C   LIG d   1       4.303  -9.927  -4.319  0.00  0.00     0.114 C 
ATOM     15  C   LIG d   1       4.360 -11.255  -5.079  0.00  0.00     0.112 C 
ATOM     16  H   LIG d   1       3.728  -9.203  -4.895  0.00  0.00     0.065 H 
ATOM     17  C   LIG d   1       5.084 -11.042  -6.412  0.00  0.00     0.115 C 
ATOM     18  H   LIG d   1       4.901 -11.993  -4.484  0.00  0.00     0.065 H 
ATOM     19  C   LIG d   1       6.477 -10.469  -6.138  0.00  0.00     0.145 C 
ATOM     20  H   LIG d   1       4.516 -10.343  -7.026  0.00  0.00     0.065 H 
ATOM     21  H   LIG d   1       7.060 -11.190  -5.565  0.00  0.00     0.068 H 
BRANCH  14  22
ATOM     22  C   LIG d   1       3.635 -10.145  -2.960  0.00  0.00     0.073 C 
ATOM     23  H   LIG d   1       3.732 -11.191  -2.671  0.00  0.00     0.058 H 
ATOM     24  H   LIG d   1       4.117  -9.515  -2.213  0.00  0.00     0.058 H 
BRANCH  22  25
ATOM     25  O   LIG d   1       2.250  -9.802  -3.050  0.00  0.00    -0.392 OA
ATOM     26  H   LIG d   1       1.746 -10.362  -3.656  0.00  0.00     0.209 HD
ENDBRANCH  22  25
ENDBRANCH  14  22
BRANCH  15  27
ATOM     27  O   LIG d   1       3.032 -11.722  -5.326  0.00  0.00    -0.387 OA
ATOM     28  H   LIG d   1       2.974 -12.673  -5.492  0.00  0.00     0.210 HD
ENDBRANCH  15  27
BRANCH  17  29
ATOM     29  O   LIG d   1       5.205 -12.290  -7.096  0.00  0.00    -0.386 OA
ATOM     30  H   LIG d   1       4.370 -12.632  -7.443  0.00  0.00     0.210 HD
ENDBRANCH  17  29
BRANCH  19  31
ATOM     31  O   LIG d   1       7.136 -10.198  -7.377  0.00  0.00    -0.383 OA
ATOM     32  H   LIG d   1       7.687 -10.925  -7.696  0.00  0.00     0.210 HD
ENDBRANCH  19  31
ENDBRANCH  10  11
ENDBRANCH   4  10
BRANCH   6  33
ATOM     33  O   LIG d   1       9.853  -4.816  -3.332  0.00  0.00    -0.506 OA
ATOM     34  H   LIG d   1       9.646  -3.919  -3.033  0.00  0.00     0.292 HD
ENDBRANCH   6  33
BRANCH   1  35
ATOM     35  C   LIG d   1       8.171  -3.089  -4.810  0.00  0.00     0.190 C 
ATOM     36  O   LIG d   1       9.256  -2.572  -5.005  0.00  0.00    -0.287 OA
BRANCH  35  37
ATOM     37  C   LIG d   1       7.003  -2.256  -4.523  0.00  0.00    -0.014 C 
ATOM     38  C   LIG d   1       6.706  -1.927  -3.248  0.00  0.00    -0.051 C 
ATOM     39  H   LIG d   1       7.330  -2.278  -2.441  0.00  0.00     0.062 H 
ATOM     40  H   LIG d   1       6.379  -1.904  -5.331  0.00  0.00     0.066 H 
BRANCH  38  41
ATOM     41  C   LIG d   1       5.532  -1.089  -2.959  0.00  0.00    -0.025 A 
ATOM     42  C   LIG d   1       4.255  -1.658  -2.914  0.00  0.00    -0.055 A 
ATOM     43  C   LIG d   1       3.160  -0.866  -2.642  0.00  0.00    -0.061 A 
ATOM     44  H   LIG d   1       4.128  -2.716  -3.091  0.00  0.00     0.062 H 
ATOM     45  C   LIG d   1       3.321   0.490  -2.414  0.00  0.00    -0.062 A 
ATOM     46  H   LIG d   1       2.174  -1.304  -2.607  0.00  0.00     0.062 H 
ATOM     47  C   LIG d   1       4.581   1.061  -2.456  0.00  0.00    -0.061 A 
ATOM     48  H   LIG d   1       2.459   1.106  -2.205  0.00  0.00     0.062 H 
ATOM     49  C   LIG d   1       5.686   0.283  -2.727  0.00  0.00    -0.055 A 
ATOM     50  H   LIG d   1       4.698   2.120  -2.277  0.00  0.00     0.062 H 
ATOM     51  H   LIG d   1       6.669   0.730  -2.760  0.00  0.00     0.062 H 
ENDBRANCH  38  41
ENDBRANCH  35  37
ENDBRANCH   1  35
TORSDOF 11
ENDMDL
MODEL 4
REMARK VINA RESULT:      -6.7      1.622      2.402
REMARK  11 active torsions:
REMARK  status: ('A' for Active; 'I' for Inactive)
REMARK    1  A    between atoms: C_4  and  C_7 
REMARK    2  A    between atoms: C_8  and  C_9 
REMARK    3  A    between atoms: C_9  and  C_11 
REMARK    4  A    between atoms: C_14  and  O_18 
REMARK    5  A    between atoms: C_16  and  O_17 
REMARK    6  A    between atoms: O_18  and  C_19 
REMARK    7  A    between atoms: C_21  and  O_34 
REMARK    8  A    between atoms: C_23  and  O_33 
REMARK    9  A    between atoms: C_25  and  O_32 
REMARK   10  A    between atoms: C_27  and  C_30 
REMARK   11  A    between atoms: C_30  and  O_31 
ROOT
ATOM      1  C   LIG d   1       9.491   1.968  -4.459  0.00  0.00     0.063 A 
ATOM      2  C   LIG d   1       8.884   3.220  -4.319  0.00  0.00    -0.044 A 
ATOM      3  C   LIG d   1       9.586   4.266  -3.792  0.00  0.00    -0.019 A 
ATOM      4  C   LIG d   1      10.908   4.096  -3.392  0.00  0.00     0.128 A 
ATOM      5  C   LIG d   1      11.525   2.860  -3.524  0.00  0.00     0.022 A 
ATOM      6  C   LIG d   1      10.822   1.790  -4.052  0.00  0.00     0.131 A 
ATOM      7  H   LIG d   1       7.858   3.359  -4.628  0.00  0.00     0.063 H 
ATOM      8  H   LIG d   1       9.112   5.231  -3.686  0.00  0.00     0.065 H 
ATOM      9  H   LIG d   1      12.551   2.732  -3.213  0.00  0.00     0.069 H 
ENDROOT
BRANCH   4  10
ATOM     10  O   LIG d   1      11.596   5.142  -2.870  0.00  0.00    -0.461 OA
BRANCH  10  11
ATOM     11  C   LIG d   1      10.870   6.042  -2.030  0.00  0.00     0.231 C 
ATOM     12  H   LIG d   1       9.840   5.700  -1.937  0.00  0.00     0.108 H 
ATOM     13  O   LIG d   1      10.888   7.350  -2.605  0.00  0.00    -0.331 OA
ATOM     14  C   LIG d   1      10.165   8.328  -1.854  0.00  0.00     0.114 C 
ATOM     15  C   LIG d   1      10.787   8.462  -0.462  0.00  0.00     0.112 C 
ATOM     16  H   LIG d   1       9.125   8.016  -1.758  0.00  0.00     0.065 H 
ATOM     17  C   LIG d   1      10.774   7.096   0.230  0.00  0.00     0.115 C 
ATOM     18  H   LIG d   1      11.816   8.814  -0.555  0.00  0.00     0.065 H 
ATOM     19  C   LIG d   1      11.520   6.085  -0.645  0.00  0.00     0.145 C 
ATOM     20  H   LIG d   1       9.744   6.768   0.368  0.00  0.00     0.065 H 
ATOM     21  H   LIG d   1      12.563   6.388  -0.742  0.00  0.00     0.068 H 
BRANCH  14  22
ATOM     22  C   LIG d   1      10.230   9.675  -2.575  0.00  0.00     0.073 C 
ATOM     23  H   LIG d   1      10.408   9.512  -3.637  0.00  0.00     0.058 H 
ATOM     24  H   LIG d   1       9.286  10.204  -2.442  0.00  0.00     0.058 H 
BRANCH  22  25
ATOM     25  O   LIG d   1      11.295  10.457  -2.028  0.00  0.00    -0.392 OA
ATOM     26  H   LIG d   1      11.933   9.945  -1.513  0.00  0.00     0.209 HD
ENDBRANCH  22  25
ENDBRANCH  14  22
BRANCH  15  27
ATOM     27  O   LIG d   1      10.032   9.397   0.311  0.00  0.00    -0.387 OA
ATOM     28  H   LIG d   1      10.540   9.831   1.011  0.00  0.00     0.210 HD
ENDBRANCH  15  27
BRANCH  17  29
ATOM     29  O   LIG d   1      11.418   7.196   1.502  0.00  0.00    -0.386 OA
ATOM     30  H   LIG d   1      11.721   8.088   1.720  0.00  0.00     0.210 HD
ENDBRANCH  17  29
BRANCH  19  31
ATOM     31  O   LIG d   1      11.453   4.790  -0.045  0.00  0.00    -0.383 OA
ATOM     32  H   LIG d   1      12.277   4.507   0.373  0.00  0.00     0.210 HD
ENDBRANCH  19  31
ENDBRANCH  10  11
ENDBRANCH   4  10
BRANCH   6  33
ATOM     33  O   LIG d   1      11.418   0.578  -4.178  0.00  0.00    -0.506 OA
ATOM     34  H   LIG d   1      12.340   0.622  -4.467  0.00  0.00     0.292 HD
ENDBRANCH   6  33
BRANCH   1  35
ATOM     35  C   LIG d   1       8.733   0.838  -5.027  0.00  0.00     0.190 C 
ATOM     36  O   LIG d   1       9.257   0.106  -5.849  0.00  0.00    -0.287 OA
BRANCH  35  37
ATOM     37  C   LIG d   1       7.354   0.596  -4.604  0.00  0.00    -0.014 C 
ATOM     38  C   LIG d   1       7.103  -0.193  -3.537  0.00  0.00    -0.051 C 
ATOM     39  H   LIG d   1       7.921  -0.643  -2.995  0.00  0.00     0.062 H 
ATOM     40  H   LIG d   1       6.536   1.046  -5.146  0.00  0.00     0.066 H 
BRANCH  38  41
ATOM     41  C   LIG d   1       5.716  -0.436  -3.112  0.00  0.00    -0.025 A 
ATOM     42  C   LIG d   1       4.891   0.636  -2.755  0.00  0.00    -0.055 A 
ATOM     43  C   LIG d   1       3.592   0.400  -2.359  0.00  0.00    -0.061 A 
ATOM     44  H   LIG d   1       5.271   1.647  -2.792  0.00  0.00     0.062 H 
ATOM     45  C   LIG d   1       3.103  -0.894  -2.312  0.00  0.00    -0.062 A 
ATOM     46  H   LIG d   1       2.955   1.227  -2.083  0.00  0.00     0.062 H 
ATOM     47  C   LIG d   1       3.912  -1.960  -2.664  0.00  0.00    -0.061 A 
ATOM     48  H   LIG d   1       2.086  -1.073  -1.997  0.00  0.00     0.062 H 
ATOM     49  C   LIG d   1       5.214  -1.741  -3.062  0.00  0.00    -0.055 A 
ATOM     50  H   LIG d   1       3.523  -2.967  -2.625  0.00  0.00     0.062 H 
ATOM     51  H   LIG d   1       5.844  -2.574  -3.336  0.00  0.00     0.062 H 
ENDBRANCH  38  41
ENDBRANCH  35  37
ENDBRANCH   1  35
TORSDOF 11
ENDMDL
MODEL 5
REMARK VINA RESULT:      -6.7      9.354     15.032
REMARK  11 active torsions:
REMARK  status: ('A' for Active; 'I' for Inactive)
REMARK    1  A    between atoms: C_4  and  C_7 
REMARK    2  A    between atoms: C_8  and  C_9 
REMARK    3  A    between atoms: C_9  and  C_11 
REMARK    4  A    between atoms: C_14  and  O_18 
REMARK    5  A    between atoms: C_16  and  O_17 
REMARK    6  A    between atoms: O_18  and  C_19 
REMARK    7  A    between atoms: C_21  and  O_34 
REMARK    8  A    between atoms: C_23  and  O_33 
REMARK    9  A    between atoms: C_25  and  O_32 
REMARK   10  A    between atoms: C_27  and  C_30 
REMARK   11  A    between atoms: C_30  and  O_31 
ROOT
ATOM      1  C   LIG d   1       3.189  -1.376  -8.823  0.00  0.00     0.063 A 
ATOM      2  C   LIG d   1       3.633  -2.702  -8.802  0.00  0.00    -0.044 A 
ATOM      3  C   LIG d   1       2.999  -3.648  -9.559  0.00  0.00    -0.019 A 
ATOM      4  C   LIG d   1       1.911  -3.299 -10.353  0.00  0.00     0.128 A 
ATOM      5  C   LIG d   1       1.459  -1.988 -10.385  0.00  0.00     0.022 A 
ATOM      6  C   LIG d   1       2.089  -1.022  -9.620  0.00  0.00     0.131 A 
ATOM      7  H   LIG d   1       4.476  -2.979  -8.187  0.00  0.00     0.063 H 
ATOM      8  H   LIG d   1       3.345  -4.671  -9.539  0.00  0.00     0.065 H 
ATOM      9  H   LIG d   1       0.615  -1.722 -11.004  0.00  0.00     0.069 H 
ENDROOT
BRANCH   4  10
ATOM     10  O   LIG d   1       1.290  -4.247 -11.100  0.00  0.00    -0.461 OA
BRANCH  10  11
ATOM     11  C   LIG d   1      -0.139  -4.274 -11.055  0.00  0.00     0.231 C 
ATOM     12  H   LIG d   1      -0.508  -3.324 -10.671  0.00  0.00     0.108 H 
ATOM     13  O   LIG d   1      -0.568  -5.334 -10.199  0.00  0.00    -0.331 OA
ATOM     14  C   LIG d   1      -1.987  -5.435 -10.062  0.00  0.00     0.114 C 
ATOM     15  C   LIG d   1      -2.612  -5.711 -11.432  0.00  0.00     0.112 C 
ATOM     16  H   LIG d   1      -2.381  -4.500  -9.665  0.00  0.00     0.065 H 
ATOM     17  C   LIG d   1      -2.217  -4.592 -12.400  0.00  0.00     0.115 C 
ATOM     18  H   LIG d   1      -2.249  -6.667 -11.812  0.00  0.00     0.065 H 
ATOM     19  C   LIG d   1      -0.690  -4.504 -12.465  0.00  0.00     0.145 C 
ATOM     20  H   LIG d   1      -2.623  -3.644 -12.046  0.00  0.00     0.065 H 
ATOM     21  H   LIG d   1      -0.288  -5.435 -12.866  0.00  0.00     0.068 H 
BRANCH  14  22
ATOM     22  C   LIG d   1      -2.328  -6.580  -9.106  0.00  0.00     0.073 C 
ATOM     23  H   LIG d   1      -2.512  -7.489  -9.678  0.00  0.00     0.058 H 
ATOM     24  H   LIG d   1      -1.494  -6.743  -8.423  0.00  0.00     0.058 H 
BRANCH  22  25
ATOM     25  O   LIG d   1      -3.498  -6.242  -8.357  0.00  0.00    -0.392 OA
ATOM     26  H   LIG d   1      -4.188  -5.812  -8.879  0.00  0.00     0.209 HD
ENDBRANCH  22  25
ENDBRANCH  14  22
BRANCH  15  27
ATOM     27  O   LIG d   1      -4.035  -5.756 -11.308  0.00  0.00    -0.387 OA
ATOM     28  H   LIG d   1      -4.500  -5.140 -11.892  0.00  0.00     0.210 HD
ENDBRANCH  15  27
BRANCH  17  29
ATOM     29  O   LIG d   1      -2.736  -4.878 -13.701  0.00  0.00    -0.386 OA
ATOM     30  H   LIG d   1      -3.429  -4.269 -13.990  0.00  0.00     0.210 HD
ENDBRANCH  17  29
BRANCH  19  31
ATOM     31  O   LIG d   1      -0.308  -3.416 -13.310  0.00  0.00    -0.383 OA
ATOM     32  H   LIG d   1       0.574  -3.508 -13.695  0.00  0.00     0.210 HD
ENDBRANCH  19  31
ENDBRANCH  10  11
ENDBRANCH   4  10
BRANCH   6  33
ATOM     33  O   LIG d   1       1.648   0.261  -9.642  0.00  0.00    -0.506 OA
ATOM     34  H   LIG d   1       1.190   0.504 -10.458  0.00  0.00     0.292 HD
ENDBRANCH   6  33
BRANCH   1  35
ATOM     35  C   LIG d   1       3.871  -0.355  -8.007  0.00  0.00     0.190 C 
ATOM     36  O   LIG d   1       4.163   0.721  -8.498  0.00  0.00    -0.287 OA
BRANCH  35  37
ATOM     37  C   LIG d   1       4.199  -0.635  -6.609  0.00  0.00    -0.014 C 
ATOM     38  C   LIG d   1       3.462  -0.086  -5.620  0.00  0.00    -0.051 C 
ATOM     39  H   LIG d   1       2.630   0.559  -5.862  0.00  0.00     0.062 H 
ATOM     40  H   LIG d   1       5.030  -1.280  -6.367  0.00  0.00     0.066 H 
BRANCH  38  41
ATOM     41  C   LIG d   1       3.790  -0.367  -4.214  0.00  0.00    -0.025 A 
ATOM     42  C   LIG d   1       3.958   0.684  -3.307  0.00  0.00    -0.055 A 
ATOM     43  C   LIG d   1       4.265   0.412  -1.991  0.00  0.00    -0.061 A 
ATOM     44  H   LIG d   1       3.845   1.706  -3.637  0.00  0.00     0.062 H 
ATOM     45  C   LIG d   1       4.409  -0.897  -1.566  0.00  0.00    -0.062 A 
ATOM     46  H   LIG d   1       4.394   1.223  -1.289  0.00  0.00     0.062 H 
ATOM     47  C   LIG d   1       4.245  -1.943  -2.457  0.00  0.00    -0.061 A 
ATOM     48  H   LIG d   1       4.654  -1.104  -0.535  0.00  0.00     0.062 H 
ATOM     49  C   LIG d   1       3.937  -1.688  -3.777  0.00  0.00    -0.055 A 
ATOM     50  H   LIG d   1       4.359  -2.962  -2.118  0.00  0.00     0.062 H 
ATOM     51  H   LIG d   1       3.810  -2.506  -4.471  0.00  0.00     0.062 H 
ENDBRANCH  38  41
ENDBRANCH  35  37
ENDBRANCH   1  35
TORSDOF 11
ENDMDL
MODEL 6
REMARK VINA RESULT:      -6.7      8.919     14.511
REMARK  11 active torsions:
REMARK  status: ('A' for Active; 'I' for Inactive)
REMARK    1  A    between atoms: C_4  and  C_7 
REMARK    2  A    between atoms: C_8  and  C_9 
REMARK    3  A    between atoms: C_9  and  C_11 
REMARK    4  A    between atoms: C_14  and  O_18 
REMARK    5  A    between atoms: C_16  and  O_17 
REMARK    6  A    between atoms: O_18  and  C_19 
REMARK    7  A    between atoms: C_21  and  O_34 
REMARK    8  A    between atoms: C_23  and  O_33 
REMARK    9  A    between atoms: C_25  and  O_32 
REMARK   10  A    between atoms: C_27  and  C_30 
REMARK   11  A    between atoms: C_30  and  O_31 
ROOT
ATOM      1  C   LIG d   1       5.484  -4.483  -6.580  0.00  0.00     0.063 A 
ATOM      2  C   LIG d   1       6.804  -4.893  -6.364  0.00  0.00    -0.044 A 
ATOM      3  C   LIG d   1       7.071  -6.189  -6.022  0.00  0.00    -0.019 A 
ATOM      4  C   LIG d   1       6.035  -7.108  -5.885  0.00  0.00     0.128 A 
ATOM      5  C   LIG d   1       4.721  -6.717  -6.095  0.00  0.00     0.022 A 
ATOM      6  C   LIG d   1       4.437  -5.406  -6.438  0.00  0.00     0.131 A 
ATOM      7  H   LIG d   1       7.613  -4.185  -6.468  0.00  0.00     0.063 H 
ATOM      8  H   LIG d   1       8.092  -6.501  -5.856  0.00  0.00     0.065 H 
ATOM      9  H   LIG d   1       3.920  -7.433  -5.989  0.00  0.00     0.069 H 
ENDROOT
BRANCH   4  10
ATOM     10  O   LIG d   1       6.311  -8.392  -5.544  0.00  0.00    -0.461 OA
BRANCH  10  11
ATOM     11  C   LIG d   1       6.168  -8.743  -4.166  0.00  0.00     0.231 C 
ATOM     12  H   LIG d   1       5.797  -7.882  -3.609  0.00  0.00     0.108 H 
ATOM     13  O   LIG d   1       7.436  -9.140  -3.641  0.00  0.00    -0.331 OA
ATOM     14  C   LIG d   1       7.410  -9.489  -2.255  0.00  0.00     0.114 C 
ATOM     15  C   LIG d   1       6.469 -10.678  -2.047  0.00  0.00     0.112 C 
ATOM     16  H   LIG d   1       7.055  -8.639  -1.673  0.00  0.00     0.065 H 
ATOM     17  C   LIG d   1       5.074 -10.311  -2.562  0.00  0.00     0.115 C 
ATOM     18  H   LIG d   1       6.845 -11.541  -2.597  0.00  0.00     0.065 H 
ATOM     19  C   LIG d   1       5.176  -9.901  -4.034  0.00  0.00     0.145 C 
ATOM     20  H   LIG d   1       4.677  -9.480  -1.979  0.00  0.00     0.065 H 
ATOM     21  H   LIG d   1       5.527 -10.749  -4.624  0.00  0.00     0.068 H 
BRANCH  14  22
ATOM     22  C   LIG d   1       8.820  -9.868  -1.798  0.00  0.00     0.073 C 
ATOM     23  H   LIG d   1       8.958 -10.944  -1.902  0.00  0.00     0.058 H 
ATOM     24  H   LIG d   1       9.554  -9.346  -2.412  0.00  0.00     0.058 H 
BRANCH  22  25
ATOM     25  O   LIG d   1       8.993  -9.496  -0.428  0.00  0.00    -0.392 OA
ATOM     26  H   LIG d   1       9.842  -9.765  -0.052  0.00  0.00     0.209 HD
ENDBRANCH  22  25
ENDBRANCH  14  22
BRANCH  15  27
ATOM     27  O   LIG d   1       6.396 -10.993  -0.655  0.00  0.00    -0.387 OA
ATOM     28  H   LIG d   1       7.092 -11.592  -0.350  0.00  0.00     0.210 HD
ENDBRANCH  15  27
BRANCH  17  29
ATOM     29  O   LIG d   1       4.205 -11.439  -2.439  0.00  0.00    -0.386 OA
ATOM     30  H   LIG d   1       3.513 -11.478  -3.113  0.00  0.00     0.210 HD
ENDBRANCH  17  29
BRANCH  19  31
ATOM     31  O   LIG d   1       3.893  -9.488  -4.508  0.00  0.00    -0.383 OA
ATOM     32  H   LIG d   1       3.457  -8.834  -3.944  0.00  0.00     0.210 HD
ENDBRANCH  19  31
ENDBRANCH  10  11
ENDBRANCH   4  10
BRANCH   6  33
ATOM     33  O   LIG d   1       3.153  -5.016  -6.640  0.00  0.00    -0.506 OA
ATOM     34  H   LIG d   1       2.959  -4.124  -6.322  0.00  0.00     0.292 HD
ENDBRANCH   6  33
BRANCH   1  35
ATOM     35  C   LIG d   1       5.196  -3.085  -6.949  0.00  0.00     0.190 C 
ATOM     36  O   LIG d   1       5.402  -2.702  -8.087  0.00  0.00    -0.287 OA
BRANCH  35  37
ATOM     37  C   LIG d   1       4.662  -2.160  -5.949  0.00  0.00    -0.014 C 
ATOM     38  C   LIG d   1       5.473  -1.657  -4.994  0.00  0.00    -0.051 C 
ATOM     39  H   LIG d   1       6.515  -1.938  -4.969  0.00  0.00     0.062 H 
ATOM     40  H   LIG d   1       3.620  -1.879  -5.974  0.00  0.00     0.066 H 
BRANCH  38  41
ATOM     41  C   LIG d   1       4.937  -0.726  -3.989  0.00  0.00    -0.025 A 
ATOM     42  C   LIG d   1       5.781   0.198  -3.365  0.00  0.00    -0.055 A 
ATOM     43  C   LIG d   1       5.272   1.067  -2.425  0.00  0.00    -0.061 A 
ATOM     44  H   LIG d   1       6.831   0.231  -3.621  0.00  0.00     0.062 H 
ATOM     45  C   LIG d   1       3.928   1.027  -2.096  0.00  0.00    -0.062 A 
ATOM     46  H   LIG d   1       5.923   1.782  -1.943  0.00  0.00     0.062 H 
ATOM     47  C   LIG d   1       3.085   0.116  -2.709  0.00  0.00    -0.061 A 
ATOM     48  H   LIG d   1       3.535   1.708  -1.356  0.00  0.00     0.062 H 
ATOM     49  C   LIG d   1       3.580  -0.761  -3.652  0.00  0.00    -0.055 A 
ATOM     50  H   LIG d   1       2.038   0.091  -2.447  0.00  0.00     0.062 H 
ATOM     51  H   LIG d   1       2.921  -1.471  -4.128  0.00  0.00     0.062 H 
ENDBRANCH  38  41
ENDBRANCH  35  37
ENDBRANCH   1  35
TORSDOF 11
ENDMDL
MODEL 7
REMARK VINA RESULT:      -6.6      1.920      2.809
REMARK  11 active torsions:
REMARK  status: ('A' for Active; 'I' for Inactive)
REMARK    1  A    between atoms: C_4  and  C_7 
REMARK    2  A    between atoms: C_8  and  C_9 
REMARK    3  A    between atoms: C_9  and  C_11 
REMARK    4  A    between atoms: C_14  and  O_18 
REMARK    5  A    between atoms: C_16  and  O_17 
REMARK    6  A    between atoms: O_18  and  C_19 
REMARK    7  A    between atoms: C_21  and  O_34 
REMARK    8  A    between atoms: C_23  and  O_33 
REMARK    9  A    between atoms: C_25  and  O_32 
REMARK   10  A    between atoms: C_27  and  C_30 
REMARK   11  A    between atoms: C_30  and  O_31 
ROOT
ATOM      1  C   LIG d   1       9.437   2.648  -4.330  0.00  0.00     0.063 A 
ATOM      2  C   LIG d   1       9.796   2.987  -3.021  0.00  0.00    -0.044 A 
ATOM      3  C   LIG d   1      10.281   4.234  -2.746  0.00  0.00    -0.019 A 
ATOM      4  C   LIG d   1      10.421   5.174  -3.763  0.00  0.00     0.128 A 
ATOM      5  C   LIG d   1      10.070   4.853  -5.066  0.00  0.00     0.022 A 
ATOM      6  C   LIG d   1       9.582   3.591  -5.358  0.00  0.00     0.131 A 
ATOM      7  H   LIG d   1       9.689   2.262  -2.227  0.00  0.00     0.063 H 
ATOM      8  H   LIG d   1      10.557   4.492  -1.734  0.00  0.00     0.065 H 
ATOM      9  H   LIG d   1      10.180   5.586  -5.852  0.00  0.00     0.069 H 
ENDROOT
BRANCH   4  10
ATOM     10  O   LIG d   1      10.905   6.410  -3.478  0.00  0.00    -0.461 OA
BRANCH  10  11
ATOM     11  C   LIG d   1      10.817   6.844  -2.119  0.00  0.00     0.231 C 
ATOM     12  H   LIG d   1      10.430   6.032  -1.504  0.00  0.00     0.108 H 
ATOM     13  O   LIG d   1       9.940   7.968  -2.033  0.00  0.00    -0.331 OA
ATOM     14  C   LIG d   1       9.761   8.468  -0.706  0.00  0.00     0.114 C 
ATOM     15  C   LIG d   1      11.109   8.933  -0.151  0.00  0.00     0.112 C 
ATOM     16  H   LIG d   1       9.360   7.678  -0.072  0.00  0.00     0.065 H 
ATOM     17  C   LIG d   1      12.098   7.763  -0.184  0.00  0.00     0.115 C 
ATOM     18  H   LIG d   1      11.493   9.751  -0.762  0.00  0.00     0.065 H 
ATOM     19  C   LIG d   1      12.208   7.243  -1.620  0.00  0.00     0.145 C 
ATOM     20  H   LIG d   1      11.740   6.965   0.466  0.00  0.00     0.065 H 
ATOM     21  H   LIG d   1      12.613   8.027  -2.261  0.00  0.00     0.068 H 
BRANCH  14  22
ATOM     22  C   LIG d   1       8.786   9.647  -0.732  0.00  0.00     0.073 C 
ATOM     23  H   LIG d   1       8.159   9.581  -1.621  0.00  0.00     0.058 H 
ATOM     24  H   LIG d   1       8.158   9.618   0.159  0.00  0.00     0.058 H 
BRANCH  22  25
ATOM     25  O   LIG d   1       9.522  10.872  -0.757  0.00  0.00    -0.392 OA
ATOM     26  H   LIG d   1      10.203  10.936  -0.074  0.00  0.00     0.209 HD
ENDBRANCH  22  25
ENDBRANCH  14  22
BRANCH  15  27
ATOM     27  O   LIG d   1      10.944   9.380   1.197  0.00  0.00    -0.387 OA
ATOM     28  H   LIG d   1      10.581   8.709   1.792  0.00  0.00     0.210 HD
ENDBRANCH  15  27
BRANCH  17  29
ATOM     29  O   LIG d   1      13.380   8.206   0.265  0.00  0.00    -0.386 OA
ATOM     30  H   LIG d   1      13.344   8.858   0.978  0.00  0.00     0.210 HD
ENDBRANCH  17  29
BRANCH  19  31
ATOM     31  O   LIG d   1      13.073   6.105  -1.653  0.00  0.00    -0.383 OA
ATOM     32  H   LIG d   1      13.795   6.178  -2.292  0.00  0.00     0.210 HD
ENDBRANCH  19  31
ENDBRANCH  10  11
ENDBRANCH   4  10
BRANCH   6  33
ATOM     33  O   LIG d   1       9.242   3.269  -6.631  0.00  0.00    -0.506 OA
ATOM     34  H   LIG d   1       9.922   2.771  -7.105  0.00  0.00     0.292 HD
ENDBRANCH   6  33
BRANCH   1  35
ATOM     35  C   LIG d   1       8.914   1.302  -4.627  0.00  0.00     0.190 C 
ATOM     36  O   LIG d   1       9.504   0.580  -5.411  0.00  0.00    -0.287 OA
BRANCH  35  37
ATOM     37  C   LIG d   1       7.687   0.834  -3.982  0.00  0.00    -0.014 C 
ATOM     38  C   LIG d   1       7.287  -0.446  -4.139  0.00  0.00    -0.051 C 
ATOM     39  H   LIG d   1       7.873  -1.124  -4.740  0.00  0.00     0.062 H 
ATOM     40  H   LIG d   1       7.100   1.513  -3.381  0.00  0.00     0.066 H 
BRANCH  38  41
ATOM     41  C   LIG d   1       6.053  -0.915  -3.490  0.00  0.00    -0.025 A 
ATOM     42  C   LIG d   1       5.389  -0.101  -2.568  0.00  0.00    -0.055 A 
ATOM     43  C   LIG d   1       4.233  -0.548  -1.965  0.00  0.00    -0.061 A 
ATOM     44  H   LIG d   1       5.781   0.878  -2.329  0.00  0.00     0.062 H 
ATOM     45  C   LIG d   1       3.728  -1.800  -2.269  0.00  0.00    -0.062 A 
ATOM     46  H   LIG d   1       3.719   0.081  -1.252  0.00  0.00     0.062 H 
ATOM     47  C   LIG d   1       4.379  -2.613  -3.181  0.00  0.00    -0.061 A 
ATOM     48  H   LIG d   1       2.825  -2.146  -1.790  0.00  0.00     0.062 H 
ATOM     49  C   LIG d   1       5.537  -2.180  -3.793  0.00  0.00    -0.055 A 
ATOM     50  H   LIG d   1       3.979  -3.589  -3.413  0.00  0.00     0.062 H 
ATOM     51  H   LIG d   1       6.044  -2.816  -4.504  0.00  0.00     0.062 H 
ENDBRANCH  38  41
ENDBRANCH  35  37
ENDBRANCH   1  35
TORSDOF 11
ENDMDL
MODEL 8
REMARK VINA RESULT:      -6.5      6.836     10.819
REMARK  11 active torsions:
REMARK  status: ('A' for Active; 'I' for Inactive)
REMARK    1  A    between atoms: C_4  and  C_7 
REMARK    2  A    between atoms: C_8  and  C_9 
REMARK    3  A    between atoms: C_9  and  C_11 
REMARK    4  A    between atoms: C_14  and  O_18 
REMARK    5  A    between atoms: C_16  and  O_17 
REMARK    6  A    between atoms: O_18  and  C_19 
REMARK    7  A    between atoms: C_21  and  O_34 
REMARK    8  A    between atoms: C_23  and  O_33 
REMARK    9  A    between atoms: C_25  and  O_32 
REMARK   10  A    between atoms: C_27  and  C_30 
REMARK   11  A    between atoms: C_30  and  O_31 
ROOT
ATOM      1  C   LIG d   1       9.347  -6.052  -3.865  0.00  0.00     0.063 A 
ATOM      2  C   LIG d   1       8.362  -6.107  -4.857  0.00  0.00    -0.044 A 
ATOM      3  C   LIG d   1       7.681  -4.976  -5.209  0.00  0.00    -0.019 A 
ATOM      4  C   LIG d   1       7.961  -3.764  -4.585  0.00  0.00     0.128 A 
ATOM      5  C   LIG d   1       8.934  -3.692  -3.599  0.00  0.00     0.022 A 
ATOM      6  C   LIG d   1       9.629  -4.833  -3.230  0.00  0.00     0.131 A 
ATOM      7  H   LIG d   1       8.140  -7.044  -5.345  0.00  0.00     0.063 H 
ATOM      8  H   LIG d   1       6.921  -5.024  -5.975  0.00  0.00     0.065 H 
ATOM      9  H   LIG d   1       9.149  -2.750  -3.118  0.00  0.00     0.069 H 
ENDROOT
BRANCH   4  10
ATOM     10  O   LIG d   1       7.278  -2.647  -4.942  0.00  0.00    -0.461 OA
BRANCH  10  11
ATOM     11  C   LIG d   1       6.751  -1.842  -3.884  0.00  0.00     0.231 C 
ATOM     12  H   LIG d   1       7.224  -2.125  -2.944  0.00  0.00     0.108 H 
ATOM     13  O   LIG d   1       5.340  -2.046  -3.789  0.00  0.00    -0.331 OA
ATOM     14  C   LIG d   1       4.713  -1.304  -2.740  0.00  0.00     0.114 C 
ATOM     15  C   LIG d   1       4.915   0.193  -2.985  0.00  0.00     0.112 C 
ATOM     16  H   LIG d   1       5.159  -1.579  -1.785  0.00  0.00     0.065 H 
ATOM     17  C   LIG d   1       6.415   0.493  -3.069  0.00  0.00     0.115 C 
ATOM     18  H   LIG d   1       4.434   0.478  -3.922  0.00  0.00     0.065 H 
ATOM     19  C   LIG d   1       7.035  -0.367  -4.175  0.00  0.00     0.145 C 
ATOM     20  H   LIG d   1       6.887   0.256  -2.116  0.00  0.00     0.065 H 
ATOM     21  H   LIG d   1       6.597  -0.094  -5.136  0.00  0.00     0.068 H 
BRANCH  14  22
ATOM     22  C   LIG d   1       3.217  -1.620  -2.715  0.00  0.00     0.073 C 
ATOM     23  H   LIG d   1       3.066  -2.683  -2.904  0.00  0.00     0.058 H 
ATOM     24  H   LIG d   1       2.807  -1.362  -1.738  0.00  0.00     0.058 H 
BRANCH  22  25
ATOM     25  O   LIG d   1       2.553  -0.858  -3.726  0.00  0.00    -0.392 OA
ATOM     26  H   LIG d   1       3.111  -0.641  -4.485  0.00  0.00     0.209 HD
ENDBRANCH  22  25
ENDBRANCH  14  22
BRANCH  15  27
ATOM     27  O   LIG d   1       4.339   0.937  -1.909  0.00  0.00    -0.387 OA
ATOM     28  H   LIG d   1       4.369   0.481  -1.056  0.00  0.00     0.210 HD
ENDBRANCH  15  27
BRANCH  17  29
ATOM     29  O   LIG d   1       6.612   1.875  -3.370  0.00  0.00    -0.386 OA
ATOM     30  H   LIG d   1       6.534   2.088  -4.310  0.00  0.00     0.210 HD
ENDBRANCH  17  29
BRANCH  19  31
ATOM     31  O   LIG d   1       8.447  -0.150  -4.216  0.00  0.00    -0.383 OA
ATOM     32  H   LIG d   1       8.766   0.491  -3.567  0.00  0.00     0.210 HD
ENDBRANCH  19  31
ENDBRANCH  10  11
ENDBRANCH   4  10
BRANCH   6  33
ATOM     33  O   LIG d   1      10.577  -4.770  -2.263  0.00  0.00    -0.506 OA
ATOM     34  H   LIG d   1      11.265  -4.111  -2.429  0.00  0.00     0.292 HD
ENDBRANCH   6  33
BRANCH   1  35
ATOM     35  C   LIG d   1      10.082  -7.272  -3.485  0.00  0.00     0.190 C 
ATOM     36  O   LIG d   1      11.300  -7.277  -3.499  0.00  0.00    -0.287 OA
BRANCH  35  37
ATOM     37  C   LIG d   1       9.349  -8.475  -3.091  0.00  0.00    -0.014 C 
ATOM     38  C   LIG d   1       8.667  -8.500  -1.926  0.00  0.00    -0.051 C 
ATOM     39  H   LIG d   1       8.663  -7.631  -1.286  0.00  0.00     0.062 H 
ATOM     40  H   LIG d   1       9.353  -9.344  -3.732  0.00  0.00     0.066 H 
BRANCH  38  41
ATOM     41  C   LIG d   1       7.930  -9.710  -1.531  0.00  0.00    -0.025 A 
ATOM     42  C   LIG d   1       6.581  -9.853  -1.870  0.00  0.00    -0.055 A 
ATOM     43  C   LIG d   1       5.897 -10.990  -1.497  0.00  0.00    -0.061 A 
ATOM     44  H   LIG d   1       6.076  -9.075  -2.425  0.00  0.00     0.062 H 
ATOM     45  C   LIG d   1       6.541 -11.989  -0.787  0.00  0.00    -0.062 A 
ATOM     46  H   LIG d   1       4.855 -11.103  -1.758  0.00  0.00     0.062 H 
ATOM     47  C   LIG d   1       7.876 -11.854  -0.447  0.00  0.00    -0.061 A 
ATOM     48  H   LIG d   1       5.999 -12.875  -0.494  0.00  0.00     0.062 H 
ATOM     49  C   LIG d   1       8.574 -10.723  -0.813  0.00  0.00    -0.055 A 
ATOM     50  H   LIG d   1       8.372 -12.638   0.106  0.00  0.00     0.062 H 
ATOM     51  H   LIG d   1       9.616 -10.620  -0.547  0.00  0.00     0.062 H 
ENDBRANCH  38  41
ENDBRANCH  35  37
ENDBRANCH   1  35
TORSDOF 11
ENDMDL
MODEL 9
REMARK VINA RESULT:      -6.4      8.253     13.596
REMARK  11 active torsions:
REMARK  status: ('A' for Active; 'I' for Inactive)
REMARK    1  A    between atoms: C_4  and  C_7 
REMARK    2  A    between atoms: C_8  and  C_9 
REMARK    3  A    between atoms: C_9  and  C_11 
REMARK    4  A    between atoms: C_14  and  O_18 
REMARK    5  A    between atoms: C_16  and  O_17 
REMARK    6  A    between atoms: O_18  and  C_19 
REMARK    7  A    between atoms: C_21  and  O_34 
REMARK    8  A    between atoms: C_23  and  O_33 
REMARK    9  A    between atoms: C_25  and  O_32 
REMARK   10  A    between atoms: C_27  and  C_30 
REMARK   11  A    between atoms: C_30  and  O_31 
ROOT
ATOM      1  C   LIG d   1       8.716  -4.111  -4.334  0.00  0.00     0.063 A 
ATOM      2  C   LIG d   1       8.105  -5.118  -5.089  0.00  0.00    -0.044 A 
ATOM      3  C   LIG d   1       8.314  -6.431  -4.775  0.00  0.00    -0.019 A 
ATOM      4  C   LIG d   1       9.135  -6.777  -3.706  0.00  0.00     0.128 A 
ATOM      5  C   LIG d   1       9.749  -5.790  -2.948  0.00  0.00     0.022 A 
ATOM      6  C   LIG d   1       9.548  -4.456  -3.258  0.00  0.00     0.131 A 
ATOM      7  H   LIG d   1       7.467  -4.857  -5.920  0.00  0.00     0.063 H 
ATOM      8  H   LIG d   1       7.840  -7.205  -5.361  0.00  0.00     0.065 H 
ATOM      9  H   LIG d   1      10.385  -6.062  -2.118  0.00  0.00     0.069 H 
ENDROOT
BRANCH   4  10
ATOM     10  O   LIG d   1       9.336  -8.084  -3.403  0.00  0.00    -0.461 OA
BRANCH  10  11
ATOM     11  C   LIG d   1       9.499  -8.413  -2.022  0.00  0.00     0.231 C 
ATOM     12  H   LIG d   1       8.956  -7.692  -1.411  0.00  0.00     0.108 H 
ATOM     13  O   LIG d   1      10.887  -8.375  -1.683  0.00  0.00    -0.331 OA
ATOM     14  C   LIG d   1      11.161  -8.665  -0.311  0.00  0.00     0.114 C 
ATOM     15  C   LIG d   1      10.678 -10.080   0.016  0.00  0.00     0.112 C 
ATOM     16  H   LIG d   1      10.640  -7.948   0.323  0.00  0.00     0.065 H 
ATOM     17  C   LIG d   1       9.182 -10.187  -0.295  0.00  0.00     0.115 C 
ATOM     18  H   LIG d   1      11.228 -10.802  -0.589  0.00  0.00     0.065 H 
ATOM     19  C   LIG d   1       8.950  -9.818  -1.763  0.00  0.00     0.145 C 
ATOM     20  H   LIG d   1       8.627  -9.501   0.346  0.00  0.00     0.065 H 
ATOM     21  H   LIG d   1       9.465 -10.534  -2.404  0.00  0.00     0.068 H 
BRANCH  14  22
ATOM     22  C   LIG d   1      12.667  -8.568  -0.060  0.00  0.00     0.073 C 
ATOM     23  H   LIG d   1      13.027  -9.509   0.358  0.00  0.00     0.058 H 
ATOM     24  H   LIG d   1      13.180  -8.368  -1.000  0.00  0.00     0.058 H 
BRANCH  22  25
ATOM     25  O   LIG d   1      12.929  -7.507   0.862  0.00  0.00    -0.392 OA
ATOM     26  H   LIG d   1      12.550  -7.647   1.740  0.00  0.00     0.209 HD
ENDBRANCH  22  25
ENDBRANCH  14  22
BRANCH  15  27
ATOM     27  O   LIG d   1      10.899 -10.353   1.402  0.00  0.00    -0.387 OA
ATOM     28  H   LIG d   1      11.553 -11.045   1.567  0.00  0.00     0.210 HD
ENDBRANCH  15  27
BRANCH  17  29
ATOM     29  O   LIG d   1       8.738 -11.525  -0.061  0.00  0.00    -0.386 OA
ATOM     30  H   LIG d   1       8.454 -11.691   0.848  0.00  0.00     0.210 HD
ENDBRANCH  17  29
BRANCH  19  31
ATOM     31  O   LIG d   1       7.549  -9.843  -2.048  0.00  0.00    -0.383 OA
ATOM     32  H   LIG d   1       7.233 -10.690  -2.390  0.00  0.00     0.210 HD
ENDBRANCH  19  31
ENDBRANCH  10  11
ENDBRANCH   4  10
BRANCH   6  33
ATOM     33  O   LIG d   1      10.150  -3.487  -2.525  0.00  0.00    -0.506 OA
ATOM     34  H   LIG d   1      11.106  -3.603  -2.429  0.00  0.00     0.292 HD
ENDBRANCH   6  33
BRANCH   1  35
ATOM     35  C   LIG d   1       8.491  -2.694  -4.672  0.00  0.00     0.190 C 
ATOM     36  O   LIG d   1       9.395  -2.032  -5.150  0.00  0.00    -0.287 OA
BRANCH  35  37
ATOM     37  C   LIG d   1       7.183  -2.083  -4.433  0.00  0.00    -0.014 C 
ATOM     38  C   LIG d   1       6.832  -1.708  -3.185  0.00  0.00    -0.051 C 
ATOM     39  H   LIG d   1       7.516  -1.857  -2.364  0.00  0.00     0.062 H 
ATOM     40  H   LIG d   1       6.498  -1.934  -5.254  0.00  0.00     0.066 H 
BRANCH  38  41
ATOM     41  C   LIG d   1       5.517  -1.094  -2.944  0.00  0.00    -0.025 A 
ATOM     42  C   LIG d   1       4.351  -1.853  -3.079  0.00  0.00    -0.055 A 
ATOM     43  C   LIG d   1       3.122  -1.271  -2.851  0.00  0.00    -0.061 A 
ATOM     44  H   LIG d   1       4.412  -2.895  -3.361  0.00  0.00     0.062 H 
ATOM     45  C   LIG d   1       3.040   0.062  -2.490  0.00  0.00    -0.062 A 
ATOM     46  H   LIG d   1       2.220  -1.857  -2.955  0.00  0.00     0.062 H 
ATOM     47  C   LIG d   1       4.190   0.821  -2.353  0.00  0.00    -0.061 A 
ATOM     48  H   LIG d   1       2.075   0.514  -2.316  0.00  0.00     0.062 H 
ATOM     49  C   LIG d   1       5.426   0.254  -2.578  0.00  0.00    -0.055 A 
ATOM     50  H   LIG d   1       4.117   1.861  -2.070  0.00  0.00     0.062 H 
ATOM     51  H   LIG d   1       6.322   0.847  -2.471  0.00  0.00     0.062 H 
ENDBRANCH  38  41
ENDBRANCH  35  37
ENDBRANCH   1  35
TORSDOF 11
ENDMDL
