MODEL 1
REMARK VINA RESULT:      -6.3      0.000      0.000
REMARK  10 active torsions:
REMARK  status: ('A' for Active; 'I' for Inactive)
REMARK    1  A    between atoms: C_1  and  C_2 
REMARK    2  A    between atoms: C_7  and  C_8 
REMARK    3  A    between atoms: C_8  and  O_9 
REMARK    4  A    between atoms: O_9  and  C_10 
REMARK    5  A    between atoms: C_16  and  C_20 
REMARK    6  A    between atoms: C_17  and  C_19 
REMARK    7  A    between atoms: C_20  and  O_22 
REMARK    8  A    between atoms: O_22  and  C_23 
REMARK    9  A    between atoms: C_23  and  C_24 
REMARK   10  A    between atoms: C_23  and  C_25 
ROOT
ATOM      1  C   LIG d   1       6.207  -2.613  -5.317  0.00  0.00     0.122 A 
ATOM      2  C   LIG d   1       6.160  -3.980  -5.064  0.00  0.00    -0.016 A 
ATOM      3  C   LIG d   1       5.413  -4.816  -5.864  0.00  0.00    -0.015 A 
ATOM      4  C   LIG d   1       4.695  -4.297  -6.934  0.00  0.00     0.136 A 
ATOM      5  C   LIG d   1       4.738  -2.918  -7.186  0.00  0.00     0.038 A 
ATOM      6  C   LIG d   1       5.499  -2.080  -6.379  0.00  0.00    -0.008 A 
ATOM      7  C   LIG d   1       3.877  -2.707  -8.368  0.00  0.00     0.107 A 
ATOM      8  C   LIG d   1       3.405  -3.940  -8.705  0.00  0.00     0.117 A 
ATOM      9  O   LIG d   1       3.896  -4.858  -7.866  0.00  0.00    -0.459 OA
ATOM     10  H   LIG d   1       6.715  -4.389  -4.232  0.00  0.00     0.066 H 
ATOM     11  H   LIG d   1       5.383  -5.875  -5.657  0.00  0.00     0.066 H 
ATOM     12  H   LIG d   1       5.533  -1.019  -6.577  0.00  0.00     0.066 H 
ENDROOT
BRANCH   1  13
ATOM     13  O   LIG d   1       6.948  -1.799  -4.520  0.00  0.00    -0.487 OA
BRANCH  13  14
ATOM     14  C   LIG d   1       6.593  -1.747  -3.136  0.00  0.00     0.115 C 
ATOM     15  H   LIG d   1       6.183  -2.710  -2.830  0.00  0.00     0.075 H 
ATOM     16  H   LIG d   1       7.478  -1.523  -2.542  0.00  0.00     0.075 H 
BRANCH  14  17
ATOM     17  C   LIG d   1       5.560  -0.671  -2.923  0.00  0.00    -0.007 A 
ATOM     18  C   LIG d   1       4.257  -1.015  -2.616  0.00  0.00    -0.044 A 
ATOM     19  C   LIG d   1       3.309  -0.028  -2.419  0.00  0.00    -0.059 A 
ATOM     20  C   LIG d   1       3.664   1.303  -2.530  0.00  0.00    -0.061 A 
ATOM     21  H   LIG d   1       2.291  -0.297  -2.179  0.00  0.00     0.062 H 
ATOM     22  C   LIG d   1       4.968   1.648  -2.837  0.00  0.00    -0.061 A 
ATOM     23  H   LIG d   1       2.924   2.075  -2.377  0.00  0.00     0.062 H 
ATOM     24  C   LIG d   1       5.917   0.661  -3.029  0.00  0.00    -0.055 A 
ATOM     25  H   LIG d   1       5.246   2.688  -2.924  0.00  0.00     0.062 H 
ATOM     26  H   LIG d   1       6.936   0.930  -3.264  0.00  0.00     0.062 H 
BRANCH  18  27
ATOM     27  C   LIG d   1       3.869  -2.466  -2.494  0.00  0.00    -0.039 C 
ATOM     28  H   LIG d   1       2.894  -2.542  -2.014  0.00  0.00     0.028 H 
ATOM     29  H   LIG d   1       3.822  -2.913  -3.487  0.00  0.00     0.028 H 
ATOM     30  H   LIG d   1       4.613  -2.991  -1.895  0.00  0.00     0.028 H 
ENDBRANCH  18  27
ENDBRANCH  14  17
ENDBRANCH  13  14
ENDBRANCH   1  13
BRANCH   7  31
ATOM     31  C   LIG d   1       3.589  -1.433  -9.039  0.00  0.00     0.343 C 
ATOM     32  O   LIG d   1       4.141  -1.158 -10.086  0.00  0.00    -0.245 OA
BRANCH  31  33
ATOM     33  O   LIG d   1       2.711  -0.567  -8.493  0.00  0.00    -0.458 OA
BRANCH  33  34
ATOM     34  C   LIG d   1       3.262   0.533  -7.723  0.00  0.00     0.098 C 
ATOM     35  H   LIG d   1       4.350   0.470  -7.727  0.00  0.00     0.073 H 
BRANCH  34  36
ATOM     36  C   LIG d   1       2.826   1.861  -8.345  0.00  0.00    -0.028 C 
ATOM     37  H   LIG d   1       2.982   1.826  -9.423  0.00  0.00     0.026 H 
ATOM     38  H   LIG d   1       1.770   2.029  -8.137  0.00  0.00     0.026 H 
ATOM     39  H   LIG d   1       3.415   2.673  -7.918  0.00  0.00     0.026 H 
ENDBRANCH  34  36
BRANCH  34  40
ATOM     40  C   LIG d   1       2.753   0.453  -6.282  0.00  0.00    -0.028 C 
ATOM     41  H   LIG d   1       3.084  -0.482  -5.831  0.00  0.00     0.026 H 
ATOM     42  H   LIG d   1       3.148   1.293  -5.710  0.00  0.00     0.026 H 
ATOM     43  H   LIG d   1       1.663   0.493  -6.279  0.00  0.00     0.026 H 
ENDBRANCH  34  40
ENDBRANCH  33  34
ENDBRANCH  31  33
ENDBRANCH   7  31
BRANCH   8  44
ATOM     44  C   LIG d   1       2.478  -4.226  -9.858  0.00  0.00    -0.005 C 
ATOM     45  H   LIG d   1       1.730  -4.955  -9.549  0.00  0.00     0.031 H 
ATOM     46  H   LIG d   1       1.984  -3.305 -10.166  0.00  0.00     0.031 H 
ATOM     47  H   LIG d   1       3.052  -4.627 -10.694  0.00  0.00     0.031 H 
ENDBRANCH   8  44
TORSDOF 10
ENDMDL
MODEL 2
REMARK VINA RESULT:      -6.0      1.216      1.677
REMARK  10 active torsions:
REMARK  status: ('A' for Active; 'I' for Inactive)
REMARK    1  A    between atoms: C_1  and  C_2 
REMARK    2  A    between atoms: C_7  and  C_8 
REMARK    3  A    between atoms: C_8  and  O_9 
REMARK    4  A    between atoms: O_9  and  C_10 
REMARK    5  A    between atoms: C_16  and  C_20 
REMARK    6  A    between atoms: C_17  and  C_19 
REMARK    7  A    between atoms: C_20  and  O_22 
REMARK    8  A    between atoms: O_22  and  C_23 
REMARK    9  A    between atoms: C_23  and  C_24 
REMARK   10  A    between atoms: C_23  and  C_25 
ROOT
ATOM      1  C   LIG d   1       6.329  -2.231  -5.768  0.00  0.00     0.122 A 
ATOM      2  C   LIG d   1       6.563  -3.515  -6.249  0.00  0.00    -0.016 A 
ATOM      3  C   LIG d   1       5.797  -4.031  -7.271  0.00  0.00    -0.015 A 
ATOM      4  C   LIG d   1       4.779  -3.268  -7.831  0.00  0.00     0.136 A 
ATOM      5  C   LIG d   1       4.540  -1.976  -7.342  0.00  0.00     0.038 A 
ATOM      6  C   LIG d   1       5.320  -1.459  -6.314  0.00  0.00    -0.008 A 
ATOM      7  C   LIG d   1       3.409  -1.457  -8.138  0.00  0.00     0.107 A 
ATOM      8  C   LIG d   1       3.078  -2.456  -9.003  0.00  0.00     0.117 A 
ATOM      9  O   LIG d   1       3.889  -3.503  -8.819  0.00  0.00    -0.459 OA
ATOM     10  H   LIG d   1       7.352  -4.113  -5.817  0.00  0.00     0.066 H 
ATOM     11  H   LIG d   1       5.987  -5.029  -7.637  0.00  0.00     0.066 H 
ATOM     12  H   LIG d   1       5.137  -0.462  -5.942  0.00  0.00     0.066 H 
ENDROOT
BRANCH   1  13
ATOM     13  O   LIG d   1       7.092  -1.735  -4.758  0.00  0.00    -0.487 OA
BRANCH  13  14
ATOM     14  C   LIG d   1       6.626  -1.953  -3.424  0.00  0.00     0.115 C 
ATOM     15  H   LIG d   1       6.104  -2.908  -3.374  0.00  0.00     0.075 H 
ATOM     16  H   LIG d   1       7.475  -1.966  -2.741  0.00  0.00     0.075 H 
BRANCH  14  17
ATOM     17  C   LIG d   1       5.684  -0.844  -3.034  0.00  0.00    -0.007 A 
ATOM     18  C   LIG d   1       4.390  -1.140  -2.650  0.00  0.00    -0.044 A 
ATOM     19  C   LIG d   1       3.526  -0.122  -2.291  0.00  0.00    -0.059 A 
ATOM     20  C   LIG d   1       3.955   1.191  -2.316  0.00  0.00    -0.061 A 
ATOM     21  H   LIG d   1       2.514  -0.353  -1.991  0.00  0.00     0.062 H 
ATOM     22  C   LIG d   1       5.250   1.488  -2.700  0.00  0.00    -0.061 A 
ATOM     23  H   LIG d   1       3.280   1.987  -2.035  0.00  0.00     0.062 H 
ATOM     24  C   LIG d   1       6.116   0.470  -3.054  0.00  0.00    -0.055 A 
ATOM     25  H   LIG d   1       5.587   2.514  -2.720  0.00  0.00     0.062 H 
ATOM     26  H   LIG d   1       7.129   0.701  -3.350  0.00  0.00     0.062 H 
BRANCH  18  27
ATOM     27  C   LIG d   1       3.921  -2.571  -2.622  0.00  0.00    -0.039 C 
ATOM     28  H   LIG d   1       3.757  -2.879  -1.589  0.00  0.00     0.028 H 
ATOM     29  H   LIG d   1       2.989  -2.659  -3.180  0.00  0.00     0.028 H 
ATOM     30  H   LIG d   1       4.678  -3.210  -3.077  0.00  0.00     0.028 H 
ENDBRANCH  18  27
ENDBRANCH  14  17
ENDBRANCH  13  14
ENDBRANCH   1  13
BRANCH   7  31
ATOM     31  C   LIG d   1       2.773  -0.139  -8.021  0.00  0.00     0.343 C 
ATOM     32  O   LIG d   1       2.300   0.217  -6.959  0.00  0.00    -0.245 OA
BRANCH  31  33
ATOM     33  O   LIG d   1       2.714   0.679  -9.091  0.00  0.00    -0.458 OA
BRANCH  33  34
ATOM     34  C   LIG d   1       3.975   1.177  -9.611  0.00  0.00     0.098 C 
ATOM     35  H   LIG d   1       4.799   0.650  -9.132  0.00  0.00     0.073 H 
BRANCH  34  36
ATOM     36  C   LIG d   1       4.031   0.946 -11.122  0.00  0.00    -0.028 C 
ATOM     37  H   LIG d   1       4.929   1.412 -11.528  0.00  0.00     0.026 H 
ATOM     38  H   LIG d   1       4.052  -0.124 -11.325  0.00  0.00     0.026 H 
ATOM     39  H   LIG d   1       3.150   1.388 -11.590  0.00  0.00     0.026 H 
ENDBRANCH  34  36
BRANCH  34  40
ATOM     40  C   LIG d   1       4.090   2.676  -9.319  0.00  0.00    -0.028 C 
ATOM     41  H   LIG d   1       5.053   3.041  -9.674  0.00  0.00     0.026 H 
ATOM     42  H   LIG d   1       3.288   3.208  -9.831  0.00  0.00     0.026 H 
ATOM     43  H   LIG d   1       4.010   2.843  -8.245  0.00  0.00     0.026 H 
ENDBRANCH  34  40
ENDBRANCH  33  34
ENDBRANCH  31  33
ENDBRANCH   7  31
BRANCH   8  44
ATOM     44  C   LIG d   1       1.970  -2.387 -10.023  0.00  0.00    -0.005 C 
ATOM     45  H   LIG d   1       1.187  -3.095  -9.755  0.00  0.00     0.031 H 
ATOM     46  H   LIG d   1       1.558  -1.378 -10.044  0.00  0.00     0.031 H 
ATOM     47  H   LIG d   1       2.366  -2.638 -11.006  0.00  0.00     0.031 H 
ENDBRANCH   8  44
TORSDOF 10
ENDMDL
MODEL 3
REMARK VINA RESULT:      -6.0      1.939      4.426
REMARK  10 active torsions:
REMARK  status: ('A' for Active; 'I' for Inactive)
REMARK    1  A    between atoms: C_1  and  C_2 
REMARK    2  A    between atoms: C_7  and  C_8 
REMARK    3  A    between atoms: C_8  and  O_9 
REMARK    4  A    between atoms: O_9  and  C_10 
REMARK    5  A    between atoms: C_16  and  C_20 
REMARK    6  A    between atoms: C_17  and  C_19 
REMARK    7  A    between atoms: C_20  and  O_22 
REMARK    8  A    between atoms: O_22  and  C_23 
REMARK    9  A    between atoms: C_23  and  C_24 
REMARK   10  A    between atoms: C_23  and  C_25 
ROOT
ATOM      1  C   LIG d   1       3.020   0.943  -7.554  0.00  0.00     0.122 A 
ATOM      2  C   LIG d   1       3.260   2.046  -8.367  0.00  0.00    -0.016 A 
ATOM      3  C   LIG d   1       3.343   1.903  -9.735  0.00  0.00    -0.015 A 
ATOM      4  C   LIG d   1       3.188   0.650 -10.315  0.00  0.00     0.136 A 
ATOM      5  C   LIG d   1       2.952  -0.462  -9.494  0.00  0.00     0.038 A 
ATOM      6  C   LIG d   1       2.863  -0.311  -8.115  0.00  0.00    -0.008 A 
ATOM      7  C   LIG d   1       2.845  -1.614 -10.413  0.00  0.00     0.107 A 
ATOM      8  C   LIG d   1       3.026  -1.105 -11.664  0.00  0.00     0.117 A 
ATOM      9  O   LIG d   1       3.217   0.216 -11.593  0.00  0.00    -0.459 OA
ATOM     10  H   LIG d   1       3.382   3.023  -7.922  0.00  0.00     0.066 H 
ATOM     11  H   LIG d   1       3.530   2.766 -10.357  0.00  0.00     0.066 H 
ATOM     12  H   LIG d   1       2.677  -1.169  -7.485  0.00  0.00     0.066 H 
ENDROOT
BRANCH   1  13
ATOM     13  O   LIG d   1       2.941   1.098  -6.206  0.00  0.00    -0.487 OA
BRANCH  13  14
ATOM     14  C   LIG d   1       2.737  -0.083  -5.427  0.00  0.00     0.115 C 
ATOM     15  H   LIG d   1       1.669  -0.250  -5.293  0.00  0.00     0.075 H 
ATOM     16  H   LIG d   1       3.178  -0.937  -5.941  0.00  0.00     0.075 H 
BRANCH  14  17
ATOM     17  C   LIG d   1       3.392   0.084  -4.080  0.00  0.00    -0.007 A 
ATOM     18  C   LIG d   1       4.121  -0.955  -3.532  0.00  0.00    -0.044 A 
ATOM     19  C   LIG d   1       4.722  -0.801  -2.297  0.00  0.00    -0.059 A 
ATOM     20  C   LIG d   1       4.595   0.391  -1.609  0.00  0.00    -0.061 A 
ATOM     21  H   LIG d   1       5.292  -1.613  -1.869  0.00  0.00     0.062 H 
ATOM     22  C   LIG d   1       3.866   1.431  -2.157  0.00  0.00    -0.061 A 
ATOM     23  H   LIG d   1       5.065   0.511  -0.644  0.00  0.00     0.062 H 
ATOM     24  C   LIG d   1       3.269   1.279  -3.395  0.00  0.00    -0.055 A 
ATOM     25  H   LIG d   1       3.767   2.363  -1.620  0.00  0.00     0.062 H 
ATOM     26  H   LIG d   1       2.704   2.092  -3.825  0.00  0.00     0.062 H 
BRANCH  18  27
ATOM     27  C   LIG d   1       4.260  -2.255  -4.282  0.00  0.00    -0.039 C 
ATOM     28  H   LIG d   1       3.458  -2.339  -5.015  0.00  0.00     0.028 H 
ATOM     29  H   LIG d   1       5.223  -2.278  -4.792  0.00  0.00     0.028 H 
ATOM     30  H   LIG d   1       4.200  -3.086  -3.580  0.00  0.00     0.028 H 
ENDBRANCH  18  27
ENDBRANCH  14  17
ENDBRANCH  13  14
ENDBRANCH   1  13
BRANCH   7  31
ATOM     31  C   LIG d   1       2.595  -3.015 -10.053  0.00  0.00     0.343 C 
ATOM     32  O   LIG d   1       1.480  -3.485 -10.171  0.00  0.00    -0.245 OA
BRANCH  31  33
ATOM     33  O   LIG d   1       3.603  -3.783  -9.592  0.00  0.00    -0.458 OA
BRANCH  33  34
ATOM     34  C   LIG d   1       3.829  -3.781  -8.158  0.00  0.00     0.098 C 
ATOM     35  H   LIG d   1       3.079  -3.158  -7.672  0.00  0.00     0.073 H 
BRANCH  34  36
ATOM     36  C   LIG d   1       3.729  -5.211  -7.623  0.00  0.00    -0.028 C 
ATOM     37  H   LIG d   1       4.703  -5.529  -7.251  0.00  0.00     0.026 H 
ATOM     38  H   LIG d   1       3.001  -5.246  -6.814  0.00  0.00     0.026 H 
ATOM     39  H   LIG d   1       3.413  -5.877  -8.427  0.00  0.00     0.026 H 
ENDBRANCH  34  36
BRANCH  34  40
ATOM     40  C   LIG d   1       5.224  -3.222  -7.862  0.00  0.00    -0.028 C 
ATOM     41  H   LIG d   1       5.694  -2.908  -8.793  0.00  0.00     0.026 H 
ATOM     42  H   LIG d   1       5.137  -2.368  -7.191  0.00  0.00     0.026 H 
ATOM     43  H   LIG d   1       5.831  -3.995  -7.390  0.00  0.00     0.026 H 
ENDBRANCH  34  40
ENDBRANCH  33  34
ENDBRANCH  31  33
ENDBRANCH   7  31
BRANCH   8  44
ATOM     44  C   LIG d   1       3.002  -1.910 -12.938  0.00  0.00    -0.005 C 
ATOM     45  H   LIG d   1       3.801  -1.571 -13.596  0.00  0.00     0.031 H 
ATOM     46  H   LIG d   1       3.145  -2.965 -12.704  0.00  0.00     0.031 H 
ATOM     47  H   LIG d   1       2.041  -1.776 -13.434  0.00  0.00     0.031 H 
ENDBRANCH   8  44
TORSDOF 10
ENDMDL
MODEL 4
REMARK VINA RESULT:      -6.0      2.303      4.794
REMARK  10 active torsions:
REMARK  status: ('A' for Active; 'I' for Inactive)
REMARK    1  A    between atoms: C_1  and  C_2 
REMARK    2  A    between atoms: C_7  and  C_8 
REMARK    3  A    between atoms: C_8  and  O_9 
REMARK    4  A    between atoms: O_9  and  C_10 
REMARK    5  A    between atoms: C_16  and  C_20 
REMARK    6  A    between atoms: C_17  and  C_19 
REMARK    7  A    between atoms: C_20  and  O_22 
REMARK    8  A    between atoms: O_22  and  C_23 
REMARK    9  A    between atoms: C_23  and  C_24 
REMARK   10  A    between atoms: C_23  and  C_25 
ROOT
ATOM      1  C   LIG d   1       2.997   0.868  -7.643  0.00  0.00     0.122 A 
ATOM      2  C   LIG d   1       3.457   1.918  -8.431  0.00  0.00    -0.016 A 
ATOM      3  C   LIG d   1       3.550   1.781  -9.798  0.00  0.00    -0.015 A 
ATOM      4  C   LIG d   1       3.185   0.585 -10.404  0.00  0.00     0.136 A 
ATOM      5  C   LIG d   1       2.727  -0.476  -9.609  0.00  0.00     0.038 A 
ATOM      6  C   LIG d   1       2.629  -0.329  -8.230  0.00  0.00    -0.008 A 
ATOM      7  C   LIG d   1       2.437  -1.576 -10.551  0.00  0.00     0.107 A 
ATOM      8  C   LIG d   1       2.742  -1.094 -11.787  0.00  0.00     0.117 A 
ATOM      9  O   LIG d   1       3.170   0.169 -11.688  0.00  0.00    -0.459 OA
ATOM     10  H   LIG d   1       3.744   2.851  -7.965  0.00  0.00     0.066 H 
ATOM     11  H   LIG d   1       3.909   2.603 -10.400  0.00  0.00     0.066 H 
ATOM     12  H   LIG d   1       2.273  -1.146  -7.620  0.00  0.00     0.066 H 
ENDROOT
BRANCH   1  13
ATOM     13  O   LIG d   1       2.911   1.018  -6.295  0.00  0.00    -0.487 OA
BRANCH  13  14
ATOM     14  C   LIG d   1       2.801  -0.175  -5.515  0.00  0.00     0.115 C 
ATOM     15  H   LIG d   1       1.749  -0.439  -5.402  0.00  0.00     0.075 H 
ATOM     16  H   LIG d   1       3.328  -0.987  -6.016  0.00  0.00     0.075 H 
BRANCH  14  17
ATOM     17  C   LIG d   1       3.409   0.055  -4.156  0.00  0.00    -0.007 A 
ATOM     18  C   LIG d   1       4.127  -0.953  -3.540  0.00  0.00    -0.044 A 
ATOM     19  C   LIG d   1       4.685  -0.741  -2.293  0.00  0.00    -0.059 A 
ATOM     20  C   LIG d   1       4.526   0.478  -1.662  0.00  0.00    -0.061 A 
ATOM     21  H   LIG d   1       5.246  -1.529  -1.812  0.00  0.00     0.062 H 
ATOM     22  C   LIG d   1       3.808   1.487  -2.278  0.00  0.00    -0.061 A 
ATOM     23  H   LIG d   1       4.963   0.644  -0.688  0.00  0.00     0.062 H 
ATOM     24  C   LIG d   1       3.254   1.277  -3.527  0.00  0.00    -0.055 A 
ATOM     25  H   LIG d   1       3.684   2.440  -1.785  0.00  0.00     0.062 H 
ATOM     26  H   LIG d   1       2.697   2.066  -4.010  0.00  0.00     0.062 H 
BRANCH  18  27
ATOM     27  C   LIG d   1       4.301  -2.282  -4.228  0.00  0.00    -0.039 C 
ATOM     28  H   LIG d   1       3.330  -2.766  -4.332  0.00  0.00     0.028 H 
ATOM     29  H   LIG d   1       4.737  -2.126  -5.214  0.00  0.00     0.028 H 
ATOM     30  H   LIG d   1       4.961  -2.914  -3.634  0.00  0.00     0.028 H 
ENDBRANCH  18  27
ENDBRANCH  14  17
ENDBRANCH  13  14
ENDBRANCH   1  13
BRANCH   7  31
ATOM     31  C   LIG d   1       1.925  -2.913 -10.222  0.00  0.00     0.343 C 
ATOM     32  O   LIG d   1       2.696  -3.801  -9.913  0.00  0.00    -0.245 OA
BRANCH  31  33
ATOM     33  O   LIG d   1       0.600  -3.157 -10.263  0.00  0.00    -0.458 OA
BRANCH  33  34
ATOM     34  C   LIG d   1       0.169  -4.338 -10.988  0.00  0.00     0.098 C 
ATOM     35  H   LIG d   1       0.998  -5.041 -11.063  0.00  0.00     0.073 H 
BRANCH  34  36
ATOM     36  C   LIG d   1      -0.994  -4.998 -10.245  0.00  0.00    -0.028 C 
ATOM     37  H   LIG d   1      -1.130  -4.511  -9.278  0.00  0.00     0.026 H 
ATOM     38  H   LIG d   1      -1.905  -4.897 -10.833  0.00  0.00     0.026 H 
ATOM     39  H   LIG d   1      -0.774  -6.055 -10.092  0.00  0.00     0.026 H 
ENDBRANCH  34  36
BRANCH  34  40
ATOM     40  C   LIG d   1      -0.287  -3.937 -12.394  0.00  0.00    -0.028 C 
ATOM     41  H   LIG d   1      -1.187  -3.327 -12.323  0.00  0.00     0.026 H 
ATOM     42  H   LIG d   1       0.503  -3.365 -12.881  0.00  0.00     0.026 H 
ATOM     43  H   LIG d   1      -0.499  -4.833 -12.976  0.00  0.00     0.026 H 
ENDBRANCH  34  40
ENDBRANCH  33  34
ENDBRANCH  31  33
ENDBRANCH   7  31
BRANCH   8  44
ATOM     44  C   LIG d   1       2.607  -1.864 -13.075  0.00  0.00    -0.005 C 
ATOM     45  H   LIG d   1       2.068  -1.260 -13.804  0.00  0.00     0.031 H 
ATOM     46  H   LIG d   1       3.598  -2.104 -13.461  0.00  0.00     0.031 H 
ATOM     47  H   LIG d   1       2.057  -2.787 -12.891  0.00  0.00     0.031 H 
ENDBRANCH   8  44
TORSDOF 10
ENDMDL
MODEL 5
REMARK VINA RESULT:      -5.8      6.203      9.757
REMARK  10 active torsions:
REMARK  status: ('A' for Active; 'I' for Inactive)
REMARK    1  A    between atoms: C_1  and  C_2 
REMARK    2  A    between atoms: C_7  and  C_8 
REMARK    3  A    between atoms: C_8  and  O_9 
REMARK    4  A    between atoms: O_9  and  C_10 
REMARK    5  A    between atoms: C_16  and  C_20 
REMARK    6  A    between atoms: C_17  and  C_19 
REMARK    7  A    between atoms: C_20  and  O_22 
REMARK    8  A    between atoms: O_22  and  C_23 
REMARK    9  A    between atoms: C_23  and  C_24 
REMARK   10  A    between atoms: C_23  and  C_25 
ROOT
ATOM      1  C   LIG d   1       9.155   2.432  -3.752  0.00  0.00     0.122 A 
ATOM      2  C   LIG d   1      10.209   1.651  -4.214  0.00  0.00    -0.016 A 
ATOM      3  C   LIG d   1      11.514   2.050  -4.021  0.00  0.00    -0.015 A 
ATOM      4  C   LIG d   1      11.788   3.242  -3.363  0.00  0.00     0.136 A 
ATOM      5  C   LIG d   1      10.725   4.032  -2.902  0.00  0.00     0.038 A 
ATOM      6  C   LIG d   1       9.410   3.622  -3.093  0.00  0.00    -0.008 A 
ATOM      7  C   LIG d   1      11.355   5.207  -2.267  0.00  0.00     0.107 A 
ATOM      8  C   LIG d   1      12.698   5.025  -2.404  0.00  0.00     0.117 A 
ATOM      9  O   LIG d   1      12.936   3.872  -3.038  0.00  0.00    -0.459 OA
ATOM     10  H   LIG d   1      10.003   0.723  -4.727  0.00  0.00     0.066 H 
ATOM     11  H   LIG d   1      12.324   1.435  -4.385  0.00  0.00     0.066 H 
ATOM     12  H   LIG d   1       8.593   4.230  -2.735  0.00  0.00     0.066 H 
ENDROOT
BRANCH   1  13
ATOM     13  O   LIG d   1       7.873   2.027  -3.948  0.00  0.00    -0.487 OA
BRANCH  13  14
ATOM     14  C   LIG d   1       7.651   0.622  -4.093  0.00  0.00     0.115 C 
ATOM     15  H   LIG d   1       7.511   0.384  -5.147  0.00  0.00     0.075 H 
ATOM     16  H   LIG d   1       8.511   0.077  -3.707  0.00  0.00     0.075 H 
BRANCH  14  17
ATOM     17  C   LIG d   1       6.418   0.226  -3.322  0.00  0.00    -0.007 A 
ATOM     18  C   LIG d   1       6.112  -1.110  -3.147  0.00  0.00    -0.044 A 
ATOM     19  C   LIG d   1       4.982  -1.473  -2.439  0.00  0.00    -0.059 A 
ATOM     20  C   LIG d   1       4.158  -0.501  -1.905  0.00  0.00    -0.061 A 
ATOM     21  H   LIG d   1       4.743  -2.518  -2.302  0.00  0.00     0.062 H 
ATOM     22  C   LIG d   1       4.463   0.837  -2.080  0.00  0.00    -0.061 A 
ATOM     23  H   LIG d   1       3.274  -0.784  -1.352  0.00  0.00     0.062 H 
ATOM     24  C   LIG d   1       5.596   1.200  -2.784  0.00  0.00    -0.055 A 
ATOM     25  H   LIG d   1       3.819   1.597  -1.664  0.00  0.00     0.062 H 
ATOM     26  H   LIG d   1       5.838   2.244  -2.917  0.00  0.00     0.062 H 
BRANCH  18  27
ATOM     27  C   LIG d   1       7.011  -2.171  -3.728  0.00  0.00    -0.039 C 
ATOM     28  H   LIG d   1       6.404  -2.994  -4.105  0.00  0.00     0.028 H 
ATOM     29  H   LIG d   1       7.595  -1.746  -4.544  0.00  0.00     0.028 H 
ATOM     30  H   LIG d   1       7.684  -2.540  -2.954  0.00  0.00     0.028 H 
ENDBRANCH  18  27
ENDBRANCH  14  17
ENDBRANCH  13  14
ENDBRANCH   1  13
BRANCH   7  31
ATOM     31  C   LIG d   1      10.675   6.338  -1.623  0.00  0.00     0.343 C 
ATOM     32  O   LIG d   1      10.481   7.366  -2.242  0.00  0.00    -0.245 OA
BRANCH  31  33
ATOM     33  O   LIG d   1      10.264   6.237  -0.342  0.00  0.00    -0.458 OA
BRANCH  33  34
ATOM     34  C   LIG d   1      11.269   6.418   0.689  0.00  0.00     0.098 C 
ATOM     35  H   LIG d   1      12.241   6.107   0.308  0.00  0.00     0.073 H 
BRANCH  34  36
ATOM     36  C   LIG d   1      11.327   7.893   1.091  0.00  0.00    -0.028 C 
ATOM     37  H   LIG d   1      11.361   8.513   0.195  0.00  0.00     0.026 H 
ATOM     38  H   LIG d   1      10.443   8.146   1.674  0.00  0.00     0.026 H 
ATOM     39  H   LIG d   1      12.221   8.071   1.690  0.00  0.00     0.026 H 
ENDBRANCH  34  36
BRANCH  34  40
ATOM     40  C   LIG d   1      10.905   5.571   1.911  0.00  0.00    -0.028 C 
ATOM     41  H   LIG d   1      10.991   6.178   2.812  0.00  0.00     0.026 H 
ATOM     42  H   LIG d   1       9.882   5.210   1.811  0.00  0.00     0.026 H 
ATOM     43  H   LIG d   1      11.585   4.722   1.979  0.00  0.00     0.026 H 
ENDBRANCH  34  40
ENDBRANCH  33  34
ENDBRANCH  31  33
ENDBRANCH   7  31
BRANCH   8  44
ATOM     44  C   LIG d   1      13.756   5.975  -1.906  0.00  0.00    -0.005 C 
ATOM     45  H   LIG d   1      14.486   6.151  -2.695  0.00  0.00     0.031 H 
ATOM     46  H   LIG d   1      13.292   6.920  -1.622  0.00  0.00     0.031 H 
ATOM     47  H   LIG d   1      14.255   5.541  -1.040  0.00  0.00     0.031 H 
ENDBRANCH   8  44
TORSDOF 10
ENDMDL
MODEL 6
REMARK VINA RESULT:      -5.8      5.874      9.322
REMARK  10 active torsions:
REMARK  status: ('A' for Active; 'I' for Inactive)
REMARK    1  A    between atoms: C_1  and  C_2 
REMARK    2  A    between atoms: C_7  and  C_8 
REMARK    3  A    between atoms: C_8  and  O_9 
REMARK    4  A    between atoms: O_9  and  C_10 
REMARK    5  A    between atoms: C_16  and  C_20 
REMARK    6  A    between atoms: C_17  and  C_19 
REMARK    7  A    between atoms: C_20  and  O_22 
REMARK    8  A    between atoms: O_22  and  C_23 
REMARK    9  A    between atoms: C_23  and  C_24 
REMARK   10  A    between atoms: C_23  and  C_25 
ROOT
ATOM      1  C   LIG d   1       8.916   2.284  -4.345  0.00  0.00     0.122 A 
ATOM      2  C   LIG d   1       9.108   2.479  -5.709  0.00  0.00    -0.016 A 
ATOM      3  C   LIG d   1       9.524   3.700  -6.191  0.00  0.00    -0.015 A 
ATOM      4  C   LIG d   1       9.754   4.753  -5.314  0.00  0.00     0.136 A 
ATOM      5  C   LIG d   1       9.555   4.559  -3.940  0.00  0.00     0.038 A 
ATOM      6  C   LIG d   1       9.141   3.322  -3.458  0.00  0.00    -0.008 A 
ATOM      7  C   LIG d   1       9.877   5.854  -3.308  0.00  0.00     0.107 A 
ATOM      8  C   LIG d   1      10.225   6.686  -4.329  0.00  0.00     0.117 A 
ATOM      9  O   LIG d   1      10.157   6.029  -5.492  0.00  0.00    -0.459 OA
ATOM     10  H   LIG d   1       8.929   1.664  -6.396  0.00  0.00     0.066 H 
ATOM     11  H   LIG d   1       9.669   3.840  -7.252  0.00  0.00     0.066 H 
ATOM     12  H   LIG d   1       8.992   3.173  -2.399  0.00  0.00     0.066 H 
ENDROOT
BRANCH   1  13
ATOM     13  O   LIG d   1       8.505   1.074  -3.883  0.00  0.00    -0.487 OA
BRANCH  13  14
ATOM     14  C   LIG d   1       7.402   0.462  -4.556  0.00  0.00     0.115 C 
ATOM     15  H   LIG d   1       7.017   1.143  -5.315  0.00  0.00     0.075 H 
ATOM     16  H   LIG d   1       7.734  -0.461  -5.031  0.00  0.00     0.075 H 
BRANCH  14  17
ATOM     17  C   LIG d   1       6.315   0.152  -3.561  0.00  0.00    -0.007 A 
ATOM     18  C   LIG d   1       5.982  -1.161  -3.287  0.00  0.00    -0.044 A 
ATOM     19  C   LIG d   1       4.985  -1.445  -2.373  0.00  0.00    -0.059 A 
ATOM     20  C   LIG d   1       4.319  -0.416  -1.733  0.00  0.00    -0.061 A 
ATOM     21  H   LIG d   1       4.725  -2.471  -2.158  0.00  0.00     0.062 H 
ATOM     22  C   LIG d   1       4.651   0.898  -2.007  0.00  0.00    -0.061 A 
ATOM     23  H   LIG d   1       3.540  -0.638  -1.019  0.00  0.00     0.062 H 
ATOM     24  C   LIG d   1       5.652   1.182  -2.917  0.00  0.00    -0.055 A 
ATOM     25  H   LIG d   1       4.132   1.702  -1.508  0.00  0.00     0.062 H 
ATOM     26  H   LIG d   1       5.916   2.208  -3.128  0.00  0.00     0.062 H 
BRANCH  18  27
ATOM     27  C   LIG d   1       6.708  -2.283  -3.983  0.00  0.00    -0.039 C 
ATOM     28  H   LIG d   1       6.013  -2.816  -4.632  0.00  0.00     0.028 H 
ATOM     29  H   LIG d   1       7.522  -1.873  -4.580  0.00  0.00     0.028 H 
ATOM     30  H   LIG d   1       7.112  -2.970  -3.240  0.00  0.00     0.028 H 
ENDBRANCH  18  27
ENDBRANCH  14  17
ENDBRANCH  13  14
ENDBRANCH   1  13
BRANCH   7  31
ATOM     31  C   LIG d   1       9.832   6.179  -1.877  0.00  0.00     0.343 C 
ATOM     32  O   LIG d   1       9.083   7.047  -1.473  0.00  0.00    -0.245 OA
BRANCH  31  33
ATOM     33  O   LIG d   1      10.621   5.513  -1.009  0.00  0.00    -0.458 OA
BRANCH  33  34
ATOM     34  C   LIG d   1      11.380   6.311  -0.063  0.00  0.00     0.098 C 
ATOM     35  H   LIG d   1      11.099   7.359  -0.164  0.00  0.00     0.073 H 
BRANCH  34  36
ATOM     36  C   LIG d   1      11.079   5.837   1.361  0.00  0.00    -0.028 C 
ATOM     37  H   LIG d   1      12.014   5.650   1.887  0.00  0.00     0.026 H 
ATOM     38  H   LIG d   1      10.513   6.606   1.887  0.00  0.00     0.026 H 
ATOM     39  H   LIG d   1      10.493   4.918   1.321  0.00  0.00     0.026 H 
ENDBRANCH  34  36
BRANCH  34  40
ATOM     40  C   LIG d   1      12.876   6.154  -0.347  0.00  0.00    -0.028 C 
ATOM     41  H   LIG d   1      13.244   7.045  -0.855  0.00  0.00     0.026 H 
ATOM     42  H   LIG d   1      13.412   6.024   0.593  0.00  0.00     0.026 H 
ATOM     43  H   LIG d   1      13.035   5.281  -0.980  0.00  0.00     0.026 H 
ENDBRANCH  34  40
ENDBRANCH  33  34
ENDBRANCH  31  33
ENDBRANCH   7  31
BRANCH   8  44
ATOM     44  C   LIG d   1      10.637   8.127  -4.171  0.00  0.00    -0.005 C 
ATOM     45  H   LIG d   1      11.362   8.384  -4.943  0.00  0.00     0.031 H 
ATOM     46  H   LIG d   1       9.761   8.768  -4.265  0.00  0.00     0.031 H 
ATOM     47  H   LIG d   1      11.088   8.270  -3.189  0.00  0.00     0.031 H 
ENDBRANCH   8  44
TORSDOF 10
ENDMDL
MODEL 7
REMARK VINA RESULT:      -5.7      5.753      9.019
REMARK  10 active torsions:
REMARK  status: ('A' for Active; 'I' for Inactive)
REMARK    1  A    between atoms: C_1  and  C_2 
REMARK    2  A    between atoms: C_7  and  C_8 
REMARK    3  A    between atoms: C_8  and  O_9 
REMARK    4  A    between atoms: O_9  and  C_10 
REMARK    5  A    between atoms: C_16  and  C_20 
REMARK    6  A    between atoms: C_17  and  C_19 
REMARK    7  A    between atoms: C_20  and  O_22 
REMARK    8  A    between atoms: O_22  and  C_23 
REMARK    9  A    between atoms: C_23  and  C_24 
REMARK   10  A    between atoms: C_23  and  C_25 
ROOT
ATOM      1  C   LIG d   1       8.868   2.199  -4.190  0.00  0.00     0.122 A 
ATOM      2  C   LIG d   1       9.973   1.445  -4.574  0.00  0.00    -0.016 A 
ATOM      3  C   LIG d   1      11.247   1.845  -4.234  0.00  0.00    -0.015 A 
ATOM      4  C   LIG d   1      11.439   3.010  -3.503  0.00  0.00     0.136 A 
ATOM      5  C   LIG d   1      10.326   3.774  -3.122  0.00  0.00     0.038 A 
ATOM      6  C   LIG d   1       9.043   3.362  -3.462  0.00  0.00    -0.008 A 
ATOM      7  C   LIG d   1      10.875   4.926  -2.379  0.00  0.00     0.107 A 
ATOM      8  C   LIG d   1      12.227   4.759  -2.386  0.00  0.00     0.117 A 
ATOM      9  O   LIG d   1      12.542   3.635  -3.038  0.00  0.00    -0.459 OA
ATOM     10  H   LIG d   1       9.829   0.538  -5.143  0.00  0.00     0.066 H 
ATOM     11  H   LIG d   1      12.097   1.251  -4.538  0.00  0.00     0.066 H 
ATOM     12  H   LIG d   1       8.186   3.950  -3.164  0.00  0.00     0.066 H 
ENDROOT
BRANCH   1  13
ATOM     13  O   LIG d   1       7.617   1.793  -4.532  0.00  0.00    -0.487 OA
BRANCH  13  14
ATOM     14  C   LIG d   1       7.362   0.387  -4.511  0.00  0.00     0.115 C 
ATOM     15  H   LIG d   1       7.057   0.059  -5.505  0.00  0.00     0.075 H 
ATOM     16  H   LIG d   1       8.268  -0.142  -4.216  0.00  0.00     0.075 H 
BRANCH  14  17
ATOM     17  C   LIG d   1       6.263   0.090  -3.525  0.00  0.00    -0.007 A 
ATOM     18  C   LIG d   1       5.888  -1.217  -3.281  0.00  0.00    -0.044 A 
ATOM     19  C   LIG d   1       4.880  -1.490  -2.375  0.00  0.00    -0.059 A 
ATOM     20  C   LIG d   1       4.247  -0.455  -1.713  0.00  0.00    -0.061 A 
ATOM     21  H   LIG d   1       4.587  -2.512  -2.184  0.00  0.00     0.062 H 
ATOM     22  C   LIG d   1       4.622   0.854  -1.956  0.00  0.00    -0.061 A 
ATOM     23  H   LIG d   1       3.459  -0.667  -1.005  0.00  0.00     0.062 H 
ATOM     24  C   LIG d   1       5.634   1.126  -2.859  0.00  0.00    -0.055 A 
ATOM     25  H   LIG d   1       4.128   1.663  -1.439  0.00  0.00     0.062 H 
ATOM     26  H   LIG d   1       5.930   2.147  -3.045  0.00  0.00     0.062 H 
BRANCH  18  27
ATOM     27  C   LIG d   1       6.578  -2.346  -4.002  0.00  0.00    -0.039 C 
ATOM     28  H   LIG d   1       7.648  -2.304  -3.802  0.00  0.00     0.028 H 
ATOM     29  H   LIG d   1       6.179  -3.298  -3.652  0.00  0.00     0.028 H 
ATOM     30  H   LIG d   1       6.404  -2.252  -5.074  0.00  0.00     0.028 H 
ENDBRANCH  18  27
ENDBRANCH  14  17
ENDBRANCH  13  14
ENDBRANCH   1  13
BRANCH   7  31
ATOM     31  C   LIG d   1      10.121   6.024  -1.762  0.00  0.00     0.343 C 
ATOM     32  O   LIG d   1      10.110   6.152  -0.553  0.00  0.00    -0.245 OA
BRANCH  31  33
ATOM     33  O   LIG d   1       9.439   6.893  -2.536  0.00  0.00    -0.458 OA
BRANCH  33  34
ATOM     34  C   LIG d   1      10.108   7.377  -3.730  0.00  0.00     0.098 C 
ATOM     35  H   LIG d   1      11.095   6.921  -3.805  0.00  0.00     0.073 H 
BRANCH  34  36
ATOM     36  C   LIG d   1       9.281   7.009  -4.963  0.00  0.00    -0.028 C 
ATOM     37  H   LIG d   1       8.395   6.453  -4.655  0.00  0.00     0.026 H 
ATOM     38  H   LIG d   1       8.977   7.918  -5.481  0.00  0.00     0.026 H 
ATOM     39  H   LIG d   1       9.882   6.393  -5.633  0.00  0.00     0.026 H 
ENDBRANCH  34  36
BRANCH  34  40
ATOM     40  C   LIG d   1      10.255   8.899  -3.651  0.00  0.00    -0.028 C 
ATOM     41  H   LIG d   1       9.580   9.290  -2.890  0.00  0.00     0.026 H 
ATOM     42  H   LIG d   1      11.283   9.150  -3.388  0.00  0.00     0.026 H 
ATOM     43  H   LIG d   1      10.009   9.338  -4.617  0.00  0.00     0.026 H 
ENDBRANCH  34  40
ENDBRANCH  33  34
ENDBRANCH  31  33
ENDBRANCH   7  31
BRANCH   8  44
ATOM     44  C   LIG d   1      13.219   5.695  -1.745  0.00  0.00    -0.005 C 
ATOM     45  H   LIG d   1      12.693   6.385  -1.086  0.00  0.00     0.031 H 
ATOM     46  H   LIG d   1      13.941   5.119  -1.167  0.00  0.00     0.031 H 
ATOM     47  H   LIG d   1      13.740   6.258  -2.519  0.00  0.00     0.031 H 
ENDBRANCH   8  44
TORSDOF 10
ENDMDL
MODEL 8
REMARK VINA RESULT:      -5.6      2.573      4.935
REMARK  10 active torsions:
REMARK  status: ('A' for Active; 'I' for Inactive)
REMARK    1  A    between atoms: C_1  and  C_2 
REMARK    2  A    between atoms: C_7  and  C_8 
REMARK    3  A    between atoms: C_8  and  O_9 
REMARK    4  A    between atoms: O_9  and  C_10 
REMARK    5  A    between atoms: C_16  and  C_20 
REMARK    6  A    between atoms: C_17  and  C_19 
REMARK    7  A    between atoms: C_20  and  O_22 
REMARK    8  A    between atoms: O_22  and  C_23 
REMARK    9  A    between atoms: C_23  and  C_24 
REMARK   10  A    between atoms: C_23  and  C_25 
ROOT
ATOM      1  C   LIG d   1       2.751   0.193  -7.431  0.00  0.00     0.122 A 
ATOM      2  C   LIG d   1       2.967   1.538  -7.715  0.00  0.00    -0.016 A 
ATOM      3  C   LIG d   1       3.349   1.934  -8.978  0.00  0.00    -0.015 A 
ATOM      4  C   LIG d   1       3.524   0.989  -9.981  0.00  0.00     0.136 A 
ATOM      5  C   LIG d   1       3.311  -0.366  -9.693  0.00  0.00     0.038 A 
ATOM      6  C   LIG d   1       2.920  -0.760  -8.419  0.00  0.00    -0.008 A 
ATOM      7  C   LIG d   1       3.584  -1.084 -10.955  0.00  0.00     0.107 A 
ATOM      8  C   LIG d   1       3.930  -0.125 -11.857  0.00  0.00     0.117 A 
ATOM      9  O   LIG d   1       3.884   1.079 -11.279  0.00  0.00    -0.459 OA
ATOM     10  H   LIG d   1       2.834   2.277  -6.939  0.00  0.00     0.066 H 
ATOM     11  H   LIG d   1       3.515   2.981  -9.187  0.00  0.00     0.066 H 
ATOM     12  H   LIG d   1       2.753  -1.805  -8.200  0.00  0.00     0.066 H 
ENDROOT
BRANCH   1  13
ATOM     13  O   LIG d   1       2.375  -0.184  -6.180  0.00  0.00    -0.487 OA
BRANCH  13  14
ATOM     14  C   LIG d   1       2.738   0.683  -5.104  0.00  0.00     0.115 C 
ATOM     15  H   LIG d   1       3.463   1.416  -5.457  0.00  0.00     0.075 H 
ATOM     16  H   LIG d   1       1.850   1.196  -4.736  0.00  0.00     0.075 H 
BRANCH  14  17
ATOM     17  C   LIG d   1       3.347  -0.128  -3.989  0.00  0.00    -0.007 A 
ATOM     18  C   LIG d   1       3.775   0.497  -2.834  0.00  0.00    -0.044 A 
ATOM     19  C   LIG d   1       4.333  -0.247  -1.811  0.00  0.00    -0.059 A 
ATOM     20  C   LIG d   1       4.463  -1.616  -1.943  0.00  0.00    -0.061 A 
ATOM     21  H   LIG d   1       4.668   0.242  -0.908  0.00  0.00     0.062 H 
ATOM     22  C   LIG d   1       4.034  -2.243  -3.099  0.00  0.00    -0.061 A 
ATOM     23  H   LIG d   1       4.899  -2.198  -1.144  0.00  0.00     0.062 H 
ATOM     24  C   LIG d   1       3.472  -1.499  -4.120  0.00  0.00    -0.055 A 
ATOM     25  H   LIG d   1       4.135  -3.313  -3.203  0.00  0.00     0.062 H 
ATOM     26  H   LIG d   1       3.132  -1.989  -5.021  0.00  0.00     0.062 H 
BRANCH  18  27
ATOM     27  C   LIG d   1       3.634   1.991  -2.688  0.00  0.00    -0.039 C 
ATOM     28  H   LIG d   1       4.395   2.487  -3.290  0.00  0.00     0.028 H 
ATOM     29  H   LIG d   1       2.645   2.296  -3.029  0.00  0.00     0.028 H 
ATOM     30  H   LIG d   1       3.760   2.267  -1.642  0.00  0.00     0.028 H 
ENDBRANCH  18  27
ENDBRANCH  14  17
ENDBRANCH  13  14
ENDBRANCH   1  13
BRANCH   7  31
ATOM     31  C   LIG d   1       3.500  -2.532 -11.187  0.00  0.00     0.343 C 
ATOM     32  O   LIG d   1       4.513  -3.204 -11.213  0.00  0.00    -0.245 OA
BRANCH  31  33
ATOM     33  O   LIG d   1       2.299  -3.117 -11.372  0.00  0.00    -0.458 OA
BRANCH  33  34
ATOM     34  C   LIG d   1       1.704  -2.997 -12.690  0.00  0.00     0.098 C 
ATOM     35  H   LIG d   1       2.449  -2.625 -13.393  0.00  0.00     0.073 H 
BRANCH  34  36
ATOM     36  C   LIG d   1       1.207  -4.369 -13.152  0.00  0.00    -0.028 C 
ATOM     37  H   LIG d   1       0.133  -4.442 -12.983  0.00  0.00     0.026 H 
ATOM     38  H   LIG d   1       1.417  -4.492 -14.214  0.00  0.00     0.026 H 
ATOM     39  H   LIG d   1       1.718  -5.149 -12.587  0.00  0.00     0.026 H 
ENDBRANCH  34  36
BRANCH  34  40
ATOM     40  C   LIG d   1       0.526  -2.021 -12.632  0.00  0.00    -0.028 C 
ATOM     41  H   LIG d   1       0.864  -1.069 -12.225  0.00  0.00     0.026 H 
ATOM     42  H   LIG d   1       0.131  -1.868 -13.637  0.00  0.00     0.026 H 
ATOM     43  H   LIG d   1      -0.255  -2.433 -11.993  0.00  0.00     0.026 H 
ENDBRANCH  34  40
ENDBRANCH  33  34
ENDBRANCH  31  33
ENDBRANCH   7  31
BRANCH   8  44
ATOM     44  C   LIG d   1       4.299  -0.382 -13.296  0.00  0.00    -0.005 C 
ATOM     45  H   LIG d   1       3.445  -0.163 -13.934  0.00  0.00     0.031 H 
ATOM     46  H   LIG d   1       5.137   0.256 -13.576  0.00  0.00     0.031 H 
ATOM     47  H   LIG d   1       4.584  -1.428 -13.417  0.00  0.00     0.031 H 
ENDBRANCH   8  44
TORSDOF 10
ENDMDL
MODEL 9
REMARK VINA RESULT:      -5.4      1.802      3.704
REMARK  10 active torsions:
REMARK  status: ('A' for Active; 'I' for Inactive)
REMARK    1  A    between atoms: C_1  and  C_2 
REMARK    2  A    between atoms: C_7  and  C_8 
REMARK    3  A    between atoms: C_8  and  O_9 
REMARK    4  A    between atoms: O_9  and  C_10 
REMARK    5  A    between atoms: C_16  and  C_20 
REMARK    6  A    between atoms: C_17  and  C_19 
REMARK    7  A    between atoms: C_20  and  O_22 
REMARK    8  A    between atoms: O_22  and  C_23 
REMARK    9  A    between atoms: C_23  and  C_24 
REMARK   10  A    between atoms: C_23  and  C_25 
ROOT
ATOM      1  C   LIG d   1       6.877  -1.399  -6.078  0.00  0.00     0.122 A 
ATOM      2  C   LIG d   1       7.971  -0.727  -6.615  0.00  0.00    -0.016 A 
ATOM      3  C   LIG d   1       7.831   0.049  -7.745  0.00  0.00    -0.015 A 
ATOM      4  C   LIG d   1       6.591   0.165  -8.361  0.00  0.00     0.136 A 
ATOM      5  C   LIG d   1       5.490  -0.517  -7.823  0.00  0.00     0.038 A 
ATOM      6  C   LIG d   1       5.636  -1.294  -6.679  0.00  0.00    -0.008 A 
ATOM      7  C   LIG d   1       4.353  -0.189  -8.706  0.00  0.00     0.107 A 
ATOM      8  C   LIG d   1       4.859   0.632  -9.668  0.00  0.00     0.117 A 
ATOM      9  O   LIG d   1       6.163   0.836  -9.451  0.00  0.00    -0.459 OA
ATOM     10  H   LIG d   1       8.938  -0.814  -6.141  0.00  0.00     0.066 H 
ATOM     11  H   LIG d   1       8.687   0.566  -8.153  0.00  0.00     0.066 H 
ATOM     12  H   LIG d   1       4.786  -1.815  -6.264  0.00  0.00     0.066 H 
ENDROOT
BRANCH   1  13
ATOM     13  O   LIG d   1       7.030  -2.161  -4.963  0.00  0.00    -0.487 OA
BRANCH  13  14
ATOM     14  C   LIG d   1       7.409  -1.485  -3.761  0.00  0.00     0.115 C 
ATOM     15  H   LIG d   1       7.804  -2.207  -3.048  0.00  0.00     0.075 H 
ATOM     16  H   LIG d   1       8.172  -0.741  -3.989  0.00  0.00     0.075 H 
BRANCH  14  17
ATOM     17  C   LIG d   1       6.204  -0.801  -3.168  0.00  0.00    -0.007 A 
ATOM     18  C   LIG d   1       6.136   0.578  -3.140  0.00  0.00    -0.044 A 
ATOM     19  C   LIG d   1       5.030   1.205  -2.596  0.00  0.00    -0.059 A 
ATOM     20  C   LIG d   1       3.993   0.452  -2.080  0.00  0.00    -0.061 A 
ATOM     21  H   LIG d   1       4.977   2.284  -2.574  0.00  0.00     0.062 H 
ATOM     22  C   LIG d   1       4.060  -0.929  -2.107  0.00  0.00    -0.061 A 
ATOM     23  H   LIG d   1       3.129   0.941  -1.654  0.00  0.00     0.062 H 
ATOM     24  C   LIG d   1       5.164  -1.556  -2.656  0.00  0.00    -0.055 A 
ATOM     25  H   LIG d   1       3.250  -1.518  -1.704  0.00  0.00     0.062 H 
ATOM     26  H   LIG d   1       5.215  -2.634  -2.682  0.00  0.00     0.062 H 
BRANCH  18  27
ATOM     27  C   LIG d   1       7.266   1.400  -3.703  0.00  0.00    -0.039 C 
ATOM     28  H   LIG d   1       8.183   0.812  -3.691  0.00  0.00     0.028 H 
ATOM     29  H   LIG d   1       7.031   1.686  -4.728  0.00  0.00     0.028 H 
ATOM     30  H   LIG d   1       7.401   2.296  -3.097  0.00  0.00     0.028 H 
ENDBRANCH  18  27
ENDBRANCH  14  17
ENDBRANCH  13  14
ENDBRANCH   1  13
BRANCH   7  31
ATOM     31  C   LIG d   1       2.966  -0.651  -8.575  0.00  0.00     0.343 C 
ATOM     32  O   LIG d   1       2.226  -0.133  -7.760  0.00  0.00    -0.245 OA
BRANCH  31  33
ATOM     33  O   LIG d   1       2.510  -1.649  -9.358  0.00  0.00    -0.458 OA
BRANCH  33  34
ATOM     34  C   LIG d   1       3.476  -2.646  -9.784  0.00  0.00     0.098 C 
ATOM     35  H   LIG d   1       4.480  -2.317  -9.514  0.00  0.00     0.073 H 
BRANCH  34  36
ATOM     36  C   LIG d   1       3.173  -3.978  -9.095  0.00  0.00    -0.028 C 
ATOM     37  H   LIG d   1       2.771  -3.789  -8.100  0.00  0.00     0.026 H 
ATOM     38  H   LIG d   1       2.442  -4.532  -9.683  0.00  0.00     0.026 H 
ATOM     39  H   LIG d   1       4.091  -4.560  -9.011  0.00  0.00     0.026 H 
ENDBRANCH  34  36
BRANCH  34  40
ATOM     40  C   LIG d   1       3.389  -2.826 -11.302  0.00  0.00    -0.028 C 
ATOM     41  H   LIG d   1       4.364  -3.121 -11.689  0.00  0.00     0.026 H 
ATOM     42  H   LIG d   1       2.657  -3.598 -11.534  0.00  0.00     0.026 H 
ATOM     43  H   LIG d   1       3.085  -1.885 -11.761  0.00  0.00     0.026 H 
ENDBRANCH  34  40
ENDBRANCH  33  34
ENDBRANCH  31  33
ENDBRANCH   7  31
BRANCH   8  44
ATOM     44  C   LIG d   1       4.066   1.230 -10.802  0.00  0.00    -0.005 C 
ATOM     45  H   LIG d   1       3.005   1.046 -10.638  0.00  0.00     0.031 H 
ATOM     46  H   LIG d   1       4.248   2.304 -10.846  0.00  0.00     0.031 H 
ATOM     47  H   LIG d   1       4.373   0.771 -11.742  0.00  0.00     0.031 H 
ENDBRANCH   8  44
TORSDOF 10
ENDMDL
MODEL 10
REMARK VINA RESULT:      -5.4      1.798      4.231
REMARK  10 active torsions:
REMARK  status: ('A' for Active; 'I' for Inactive)
REMARK    1  A    between atoms: C_1  and  C_2 
REMARK    2  A    between atoms: C_7  and  C_8 
REMARK    3  A    between atoms: C_8  and  O_9 
REMARK    4  A    between atoms: O_9  and  C_10 
REMARK    5  A    between atoms: C_16  and  C_20 
REMARK    6  A    between atoms: C_17  and  C_19 
REMARK    7  A    between atoms: C_20  and  O_22 
REMARK    8  A    between atoms: O_22  and  C_23 
REMARK    9  A    between atoms: C_23  and  C_24 
REMARK   10  A    between atoms: C_23  and  C_25 
ROOT
ATOM      1  C   LIG d   1       3.753  -0.385  -7.728  0.00  0.00     0.122 A 
ATOM      2  C   LIG d   1       2.804   0.336  -8.447  0.00  0.00    -0.016 A 
ATOM      3  C   LIG d   1       1.997  -0.294  -9.369  0.00  0.00    -0.015 A 
ATOM      4  C   LIG d   1       2.127  -1.659  -9.591  0.00  0.00     0.136 A 
ATOM      5  C   LIG d   1       3.088  -2.384  -8.871  0.00  0.00     0.038 A 
ATOM      6  C   LIG d   1       3.895  -1.745  -7.937  0.00  0.00    -0.008 A 
ATOM      7  C   LIG d   1       2.966  -3.777  -9.346  0.00  0.00     0.107 A 
ATOM      8  C   LIG d   1       1.978  -3.763 -10.282  0.00  0.00     0.117 A 
ATOM      9  O   LIG d   1       1.492  -2.524 -10.410  0.00  0.00    -0.459 OA
ATOM     10  H   LIG d   1       2.699   1.398  -8.279  0.00  0.00     0.066 H 
ATOM     11  H   LIG d   1       1.264   0.275  -9.922  0.00  0.00     0.066 H 
ATOM     12  H   LIG d   1       4.631  -2.306  -7.381  0.00  0.00     0.066 H 
ENDROOT
BRANCH   1  13
ATOM     13  O   LIG d   1       4.543   0.249  -6.822  0.00  0.00    -0.487 OA
BRANCH  13  14
ATOM     14  C   LIG d   1       5.392  -0.571  -6.015  0.00  0.00     0.115 C 
ATOM     15  H   LIG d   1       5.582  -1.513  -6.529  0.00  0.00     0.075 H 
ATOM     16  H   LIG d   1       6.336  -0.055  -5.841  0.00  0.00     0.075 H 
BRANCH  14  17
ATOM     17  C   LIG d   1       4.719  -0.846  -4.695  0.00  0.00    -0.007 A 
ATOM     18  C   LIG d   1       5.390  -1.544  -3.710  0.00  0.00    -0.044 A 
ATOM     19  C   LIG d   1       4.773  -1.796  -2.499  0.00  0.00    -0.059 A 
ATOM     20  C   LIG d   1       3.485  -1.350  -2.273  0.00  0.00    -0.061 A 
ATOM     21  H   LIG d   1       5.298  -2.342  -1.728  0.00  0.00     0.062 H 
ATOM     22  C   LIG d   1       2.812  -0.651  -3.259  0.00  0.00    -0.061 A 
ATOM     23  H   LIG d   1       3.002  -1.547  -1.327  0.00  0.00     0.062 H 
ATOM     24  C   LIG d   1       3.431  -0.395  -4.468  0.00  0.00    -0.055 A 
ATOM     25  H   LIG d   1       1.806  -0.302  -3.083  0.00  0.00     0.062 H 
ATOM     26  H   LIG d   1       2.909   0.155  -5.237  0.00  0.00     0.062 H 
BRANCH  18  27
ATOM     27  C   LIG d   1       6.795  -2.031  -3.955  0.00  0.00    -0.039 C 
ATOM     28  H   LIG d   1       6.824  -2.603  -4.882  0.00  0.00     0.028 H 
ATOM     29  H   LIG d   1       7.467  -1.176  -4.034  0.00  0.00     0.028 H 
ATOM     30  H   LIG d   1       7.109  -2.665  -3.126  0.00  0.00     0.028 H 
ENDBRANCH  18  27
ENDBRANCH  14  17
ENDBRANCH  13  14
ENDBRANCH   1  13
BRANCH   7  31
ATOM     31  C   LIG d   1       3.749  -4.937  -8.900  0.00  0.00     0.343 C 
ATOM     32  O   LIG d   1       4.594  -5.419  -9.630  0.00  0.00    -0.245 OA
BRANCH  31  33
ATOM     33  O   LIG d   1       3.531  -5.469  -7.680  0.00  0.00    -0.458 OA
BRANCH  33  34
ATOM     34  C   LIG d   1       4.684  -5.620  -6.811  0.00  0.00     0.098 C 
ATOM     35  H   LIG d   1       5.595  -5.431  -7.380  0.00  0.00     0.073 H 
BRANCH  34  36
ATOM     36  C   LIG d   1       4.588  -4.622  -5.656  0.00  0.00    -0.028 C 
ATOM     37  H   LIG d   1       5.445  -4.747  -4.995  0.00  0.00     0.026 H 
ATOM     38  H   LIG d   1       4.579  -3.608  -6.052  0.00  0.00     0.026 H 
ATOM     39  H   LIG d   1       3.669  -4.802  -5.097  0.00  0.00     0.026 H 
ENDBRANCH  34  36
BRANCH  34  40
ATOM     40  C   LIG d   1       4.719  -7.045  -6.253  0.00  0.00    -0.028 C 
ATOM     41  H   LIG d   1       4.240  -7.724  -6.958  0.00  0.00     0.026 H 
ATOM     42  H   LIG d   1       5.755  -7.350  -6.101  0.00  0.00     0.026 H 
ATOM     43  H   LIG d   1       4.188  -7.075  -5.302  0.00  0.00     0.026 H 
ENDBRANCH  34  40
ENDBRANCH  33  34
ENDBRANCH  31  33
ENDBRANCH   7  31
BRANCH   8  44
ATOM     44  C   LIG d   1       1.496  -4.966 -11.051  0.00  0.00    -0.005 C 
ATOM     45  H   LIG d   1       1.052  -5.683 -10.361  0.00  0.00     0.031 H 
ATOM     46  H   LIG d   1       0.751  -4.656 -11.783  0.00  0.00     0.031 H 
ATOM     47  H   LIG d   1       2.337  -5.431 -11.565  0.00  0.00     0.031 H 
ENDBRANCH   8  44
TORSDOF 10
ENDMDL
