MODEL 1
REMARK VINA RESULT:      -6.3      0.000      0.000
REMARK  5 active torsions:
REMARK  status: ('A' for Active; 'I' for Inactive)
REMARK    1  A    between atoms: C_1  and  C_2 
REMARK    2  A    between atoms: C_4  and  O_19 
REMARK    3  A    between atoms: C_11  and  C_12 
REMARK    4  A    between atoms: O_19  and  S_20 
REMARK    5  A    between atoms: S_20  and  C_23 
ROOT
ATOM      1  C   LIG d   1       5.279  -1.535  -3.153  0.00  0.00    -0.032 A 
ATOM      2  C   LIG d   1       6.557  -2.008  -3.071  0.00  0.00    -0.013 A 
ATOM      3  C   LIG d   1       7.388  -1.976  -4.188  0.00  0.00     0.160 A 
ATOM      4  C   LIG d   1       6.931  -1.464  -5.392  0.00  0.00     0.026 A 
ATOM      5  C   LIG d   1       5.634  -0.978  -5.493  0.00  0.00     0.143 A 
ATOM      6  C   LIG d   1       4.806  -1.016  -4.360  0.00  0.00     0.071 A 
ATOM      7  C   LIG d   1       3.514  -0.435  -4.770  0.00  0.00     0.232 A 
ATOM      8  O   LIG d   1       2.517  -0.275  -4.086  0.00  0.00    -0.283 OA
ATOM      9  C   LIG d   1       3.698  -0.092  -6.189  0.00  0.00     0.176 A 
ATOM     10  C   LIG d   1       2.773   0.471  -7.003  0.00  0.00    -0.007 C 
ATOM     11  O   LIG d   1       4.961  -0.439  -6.531  0.00  0.00    -0.451 OA
ATOM     12  H   LIG d   1       6.925  -2.410  -2.139  0.00  0.00     0.066 H 
ATOM     13  H   LIG d   1       7.584  -1.445  -6.252  0.00  0.00     0.069 H 
ATOM     14  H   LIG d   1       1.819   0.785  -6.603  0.00  0.00     0.066 H 
ENDROOT
BRANCH  10  15
ATOM     15  C   LIG d   1       3.066   0.657  -8.432  0.00  0.00    -0.003 A 
ATOM     16  C   LIG d   1       2.902  -0.399  -9.336  0.00  0.00     0.035 A 
ATOM     17  N   LIG d   1       3.166  -0.232 -10.614  0.00  0.00    -0.263 NA
ATOM     18  H   LIG d   1       2.555  -1.358  -8.981  0.00  0.00     0.084 H 
ATOM     19  C   LIG d   1       3.592   0.921 -11.093  0.00  0.00     0.028 A 
ATOM     20  C   LIG d   1       3.781   2.015 -10.266  0.00  0.00    -0.043 A 
ATOM     21  H   LIG d   1       3.797   1.014 -12.150  0.00  0.00     0.083 H 
ATOM     22  C   LIG d   1       3.518   1.895  -8.914  0.00  0.00    -0.052 A 
ATOM     23  H   LIG d   1       4.130   2.953 -10.672  0.00  0.00     0.063 H 
ATOM     24  H   LIG d   1       3.658   2.731  -8.246  0.00  0.00     0.062 H 
ENDBRANCH  10  15
BRANCH   1  25
ATOM     25  C   LIG d   1       4.381  -1.571  -1.944  0.00  0.00    -0.039 C 
ATOM     26  H   LIG d   1       4.030  -2.591  -1.782  0.00  0.00     0.028 H 
ATOM     27  H   LIG d   1       4.937  -1.236  -1.068  0.00  0.00     0.028 H 
ATOM     28  H   LIG d   1       3.527  -0.914  -2.105  0.00  0.00     0.028 H 
ENDBRANCH   1  25
BRANCH   3  29
ATOM     29  O   LIG d   1       8.657  -2.450  -4.096  0.00  0.00    -0.346 OA
BRANCH  29  30
ATOM     30  S   LIG d   1       8.761  -3.966  -4.195  0.00  0.00     0.118 S 
ATOM     31  O   LIG d   1       9.163  -4.387  -2.900  0.00  0.00    -0.137 OA
ATOM     32  O   LIG d   1       7.515  -4.379  -4.738  0.00  0.00    -0.137 OA
BRANCH  30  33
ATOM     33  C   LIG d   1      10.092  -4.264  -5.391  0.00  0.00     0.092 C 
ATOM     34  H   LIG d   1      10.191  -3.401  -6.049  0.00  0.00     0.050 H 
ATOM     35  H   LIG d   1      11.030  -4.423  -4.858  0.00  0.00     0.050 H 
ATOM     36  H   LIG d   1       9.857  -5.148  -5.983  0.00  0.00     0.050 H 
ENDBRANCH  30  33
ENDBRANCH  29  30
ENDBRANCH   3  29
TORSDOF 5
ENDMDL
MODEL 2
REMARK VINA RESULT:      -6.1      4.468      5.409
REMARK  5 active torsions:
REMARK  status: ('A' for Active; 'I' for Inactive)
REMARK    1  A    between atoms: C_1  and  C_2 
REMARK    2  A    between atoms: C_4  and  O_19 
REMARK    3  A    between atoms: C_11  and  C_12 
REMARK    4  A    between atoms: O_19  and  S_20 
REMARK    5  A    between atoms: S_20  and  C_23 
ROOT
ATOM      1  C   LIG d   1       4.706  -1.652  -3.241  0.00  0.00    -0.032 A 
ATOM      2  C   LIG d   1       4.624  -2.890  -3.811  0.00  0.00    -0.013 A 
ATOM      3  C   LIG d   1       5.594  -3.307  -4.718  0.00  0.00     0.160 A 
ATOM      4  C   LIG d   1       6.652  -2.476  -5.052  0.00  0.00     0.026 A 
ATOM      5  C   LIG d   1       6.750  -1.214  -4.482  0.00  0.00     0.143 A 
ATOM      6  C   LIG d   1       5.766  -0.804  -3.568  0.00  0.00     0.071 A 
ATOM      7  C   LIG d   1       6.140   0.555  -3.137  0.00  0.00     0.232 A 
ATOM      8  O   LIG d   1       5.556   1.274  -2.344  0.00  0.00    -0.283 OA
ATOM      9  C   LIG d   1       7.376   0.851  -3.878  0.00  0.00     0.176 A 
ATOM     10  C   LIG d   1       8.097   1.997  -3.811  0.00  0.00    -0.007 C 
ATOM     11  O   LIG d   1       7.664  -0.233  -4.637  0.00  0.00    -0.451 OA
ATOM     12  H   LIG d   1       3.805  -3.546  -3.559  0.00  0.00     0.066 H 
ATOM     13  H   LIG d   1       7.398  -2.810  -5.758  0.00  0.00     0.069 H 
ATOM     14  H   LIG d   1       7.821   2.768  -3.107  0.00  0.00     0.066 H 
ENDROOT
BRANCH  10  15
ATOM     15  C   LIG d   1       9.255   2.190  -4.696  0.00  0.00    -0.003 A 
ATOM     16  C   LIG d   1      10.542   1.846  -4.269  0.00  0.00     0.035 A 
ATOM     17  N   LIG d   1      11.578   2.019  -5.062  0.00  0.00    -0.263 NA
ATOM     18  H   LIG d   1      10.686   1.433  -3.281  0.00  0.00     0.084 H 
ATOM     19  C   LIG d   1      11.451   2.520  -6.276  0.00  0.00     0.028 A 
ATOM     20  C   LIG d   1      10.213   2.886  -6.774  0.00  0.00    -0.043 A 
ATOM     21  H   LIG d   1      12.329   2.645  -6.893  0.00  0.00     0.083 H 
ATOM     22  C   LIG d   1       9.090   2.724  -5.983  0.00  0.00    -0.052 A 
ATOM     23  H   LIG d   1      10.123   3.294  -7.770  0.00  0.00     0.063 H 
ATOM     24  H   LIG d   1       8.112   3.002  -6.346  0.00  0.00     0.062 H 
ENDBRANCH  10  15
BRANCH   1  25
ATOM     25  C   LIG d   1       3.655  -1.201  -2.260  0.00  0.00    -0.039 C 
ATOM     26  H   LIG d   1       4.023  -0.340  -1.702  0.00  0.00     0.028 H 
ATOM     27  H   LIG d   1       2.750  -0.923  -2.800  0.00  0.00     0.028 H 
ATOM     28  H   LIG d   1       3.431  -2.013  -1.569  0.00  0.00     0.028 H 
ENDBRANCH   1  25
BRANCH   3  29
ATOM     29  O   LIG d   1       5.503  -4.540  -5.281  0.00  0.00    -0.346 OA
BRANCH  29  30
ATOM     30  S   LIG d   1       4.541  -4.614  -6.458  0.00  0.00     0.118 S 
ATOM     31  O   LIG d   1       3.421  -5.335  -5.965  0.00  0.00    -0.137 OA
ATOM     32  O   LIG d   1       4.402  -3.271  -6.897  0.00  0.00    -0.137 OA
BRANCH  30  33
ATOM     33  C   LIG d   1       5.413  -5.594  -7.711  0.00  0.00     0.092 C 
ATOM     34  H   LIG d   1       6.310  -5.063  -8.029  0.00  0.00     0.050 H 
ATOM     35  H   LIG d   1       5.694  -6.558  -7.287  0.00  0.00     0.050 H 
ATOM     36  H   LIG d   1       4.760  -5.751  -8.569  0.00  0.00     0.050 H 
ENDBRANCH  30  33
ENDBRANCH  29  30
ENDBRANCH   3  29
TORSDOF 5
ENDMDL
MODEL 3
REMARK VINA RESULT:      -5.8      3.590      5.027
REMARK  5 active torsions:
REMARK  status: ('A' for Active; 'I' for Inactive)
REMARK    1  A    between atoms: C_1  and  C_2 
REMARK    2  A    between atoms: C_4  and  O_19 
REMARK    3  A    between atoms: C_11  and  C_12 
REMARK    4  A    between atoms: O_19  and  S_20 
REMARK    5  A    between atoms: S_20  and  C_23 
ROOT
ATOM      1  C   LIG d   1       7.530  -5.349  -5.457  0.00  0.00    -0.032 A 
ATOM      2  C   LIG d   1       8.889  -5.212  -5.472  0.00  0.00    -0.013 A 
ATOM      3  C   LIG d   1       9.480  -4.048  -4.989  0.00  0.00     0.160 A 
ATOM      4  C   LIG d   1       8.701  -3.018  -4.485  0.00  0.00     0.026 A 
ATOM      5  C   LIG d   1       7.318  -3.141  -4.461  0.00  0.00     0.143 A 
ATOM      6  C   LIG d   1       6.733  -4.319  -4.952  0.00  0.00     0.071 A 
ATOM      7  C   LIG d   1       5.276  -4.159  -4.791  0.00  0.00     0.232 A 
ATOM      8  O   LIG d   1       4.401  -4.954  -5.087  0.00  0.00    -0.283 OA
ATOM      9  C   LIG d   1       5.116  -2.824  -4.193  0.00  0.00     0.176 A 
ATOM     10  C   LIG d   1       3.944  -2.229  -3.861  0.00  0.00    -0.007 C 
ATOM     11  O   LIG d   1       6.354  -2.299  -4.031  0.00  0.00    -0.451 OA
ATOM     12  H   LIG d   1       9.506  -6.007  -5.863  0.00  0.00     0.066 H 
ATOM     13  H   LIG d   1       9.170  -2.119  -4.113  0.00  0.00     0.069 H 
ATOM     14  H   LIG d   1       3.016  -2.774  -3.956  0.00  0.00     0.066 H 
ENDROOT
BRANCH  10  15
ATOM     15  C   LIG d   1       3.936  -0.844  -3.370  0.00  0.00    -0.003 A 
ATOM     16  C   LIG d   1       3.450   0.194  -4.175  0.00  0.00     0.035 A 
ATOM     17  N   LIG d   1       3.443   1.434  -3.734  0.00  0.00    -0.263 NA
ATOM     18  H   LIG d   1       3.077  -0.026  -5.164  0.00  0.00     0.084 H 
ATOM     19  C   LIG d   1       3.889   1.750  -2.534  0.00  0.00     0.028 A 
ATOM     20  C   LIG d   1       4.387   0.783  -1.676  0.00  0.00    -0.043 A 
ATOM     21  H   LIG d   1       3.865   2.781  -2.212  0.00  0.00     0.083 H 
ATOM     22  C   LIG d   1       4.416  -0.536  -2.088  0.00  0.00    -0.052 A 
ATOM     23  H   LIG d   1       4.748   1.056  -0.696  0.00  0.00     0.063 H 
ATOM     24  H   LIG d   1       4.800  -1.310  -1.440  0.00  0.00     0.062 H 
ENDBRANCH  10  15
BRANCH   1  25
ATOM     25  C   LIG d   1       6.892  -6.609  -5.981  0.00  0.00    -0.039 C 
ATOM     26  H   LIG d   1       5.821  -6.449  -6.109  0.00  0.00     0.028 H 
ATOM     27  H   LIG d   1       7.336  -6.868  -6.942  0.00  0.00     0.028 H 
ATOM     28  H   LIG d   1       7.056  -7.421  -5.274  0.00  0.00     0.028 H 
ENDBRANCH   1  25
BRANCH   3  29
ATOM     29  O   LIG d   1      10.832  -3.921  -5.010  0.00  0.00    -0.346 OA
BRANCH  29  30
ATOM     30  S   LIG d   1      11.530  -4.532  -3.804  0.00  0.00     0.118 S 
ATOM     31  O   LIG d   1      10.673  -4.248  -2.707  0.00  0.00    -0.137 OA
ATOM     32  O   LIG d   1      11.802  -5.873  -4.184  0.00  0.00    -0.137 OA
BRANCH  30  33
ATOM     33  C   LIG d   1      13.080  -3.601  -3.643  0.00  0.00     0.092 C 
ATOM     34  H   LIG d   1      13.909  -4.212  -3.998  0.00  0.00     0.050 H 
ATOM     35  H   LIG d   1      13.019  -2.690  -4.238  0.00  0.00     0.050 H 
ATOM     36  H   LIG d   1      13.240  -3.342  -2.597  0.00  0.00     0.050 H 
ENDBRANCH  30  33
ENDBRANCH  29  30
ENDBRANCH   3  29
TORSDOF 5
ENDMDL
MODEL 4
REMARK VINA RESULT:      -5.8      6.281      8.244
REMARK  5 active torsions:
REMARK  status: ('A' for Active; 'I' for Inactive)
REMARK    1  A    between atoms: C_1  and  C_2 
REMARK    2  A    between atoms: C_4  and  O_19 
REMARK    3  A    between atoms: C_11  and  C_12 
REMARK    4  A    between atoms: O_19  and  S_20 
REMARK    5  A    between atoms: S_20  and  C_23 
ROOT
ATOM      1  C   LIG d   1       7.893   1.186  -6.183  0.00  0.00    -0.032 A 
ATOM      2  C   LIG d   1       7.085   0.218  -5.656  0.00  0.00    -0.013 A 
ATOM      3  C   LIG d   1       6.820   0.196  -4.290  0.00  0.00     0.160 A 
ATOM      4  C   LIG d   1       7.367   1.153  -3.449  0.00  0.00     0.026 A 
ATOM      5  C   LIG d   1       8.190   2.144  -3.968  0.00  0.00     0.143 A 
ATOM      6  C   LIG d   1       8.451   2.156  -5.348  0.00  0.00     0.071 A 
ATOM      7  C   LIG d   1       9.335   3.310  -5.594  0.00  0.00     0.232 A 
ATOM      8  O   LIG d   1       9.795   3.684  -6.659  0.00  0.00    -0.283 OA
ATOM      9  C   LIG d   1       9.537   3.909  -4.265  0.00  0.00     0.176 A 
ATOM     10  C   LIG d   1      10.288   5.003  -3.985  0.00  0.00    -0.007 C 
ATOM     11  O   LIG d   1       8.834   3.171  -3.374  0.00  0.00    -0.451 OA
ATOM     12  H   LIG d   1       6.654  -0.532  -6.301  0.00  0.00     0.066 H 
ATOM     13  H   LIG d   1       7.155   1.126  -2.391  0.00  0.00     0.069 H 
ATOM     14  H   LIG d   1      10.741   5.567  -4.787  0.00  0.00     0.066 H 
ENDROOT
BRANCH  10  15
ATOM     15  C   LIG d   1      10.484   5.421  -2.589  0.00  0.00    -0.003 A 
ATOM     16  C   LIG d   1       9.679   6.417  -2.024  0.00  0.00     0.035 A 
ATOM     17  N   LIG d   1       9.856   6.791  -0.775  0.00  0.00    -0.263 NA
ATOM     18  H   LIG d   1       8.906   6.881  -2.618  0.00  0.00     0.084 H 
ATOM     19  C   LIG d   1      10.788   6.253  -0.012  0.00  0.00     0.028 A 
ATOM     20  C   LIG d   1      11.627   5.263  -0.494  0.00  0.00    -0.043 A 
ATOM     21  H   LIG d   1      10.899   6.590   1.009  0.00  0.00     0.083 H 
ATOM     22  C   LIG d   1      11.483   4.831  -1.800  0.00  0.00    -0.052 A 
ATOM     23  H   LIG d   1      12.385   4.831   0.143  0.00  0.00     0.063 H 
ATOM     24  H   LIG d   1      12.125   4.061  -2.202  0.00  0.00     0.062 H 
ENDBRANCH  10  15
BRANCH   1  25
ATOM     25  C   LIG d   1       8.180   1.208  -7.661  0.00  0.00    -0.039 C 
ATOM     26  H   LIG d   1       7.735   2.099  -8.106  0.00  0.00     0.028 H 
ATOM     27  H   LIG d   1       9.258   1.222  -7.822  0.00  0.00     0.028 H 
ATOM     28  H   LIG d   1       7.754   0.319  -8.127  0.00  0.00     0.028 H 
ENDBRANCH   1  25
BRANCH   3  29
ATOM     29  O   LIG d   1       6.017  -0.771  -3.776  0.00  0.00    -0.346 OA
BRANCH  29  30
ATOM     30  S   LIG d   1       4.671  -0.261  -3.281  0.00  0.00     0.118 S 
ATOM     31  O   LIG d   1       4.941   0.286  -1.998  0.00  0.00    -0.137 OA
ATOM     32  O   LIG d   1       4.187   0.562  -4.332  0.00  0.00    -0.137 OA
BRANCH  30  33
ATOM     33  C   LIG d   1       3.640  -1.745  -3.123  0.00  0.00     0.092 C 
ATOM     34  H   LIG d   1       4.259  -2.586  -2.812  0.00  0.00     0.050 H 
ATOM     35  H   LIG d   1       2.864  -1.570  -2.378  0.00  0.00     0.050 H 
ATOM     36  H   LIG d   1       3.177  -1.969  -4.084  0.00  0.00     0.050 H 
ENDBRANCH  30  33
ENDBRANCH  29  30
ENDBRANCH   3  29
TORSDOF 5
ENDMDL
MODEL 5
REMARK VINA RESULT:      -5.7      6.585      8.283
REMARK  5 active torsions:
REMARK  status: ('A' for Active; 'I' for Inactive)
REMARK    1  A    between atoms: C_1  and  C_2 
REMARK    2  A    between atoms: C_4  and  O_19 
REMARK    3  A    between atoms: C_11  and  C_12 
REMARK    4  A    between atoms: O_19  and  S_20 
REMARK    5  A    between atoms: S_20  and  C_23 
ROOT
ATOM      1  C   LIG d   1      10.696   3.992  -5.344  0.00  0.00    -0.032 A 
ATOM      2  C   LIG d   1      11.277   4.828  -4.434  0.00  0.00    -0.013 A 
ATOM      3  C   LIG d   1      10.856   4.816  -3.106  0.00  0.00     0.160 A 
ATOM      4  C   LIG d   1       9.848   3.960  -2.693  0.00  0.00     0.026 A 
ATOM      5  C   LIG d   1       9.247   3.103  -3.606  0.00  0.00     0.143 A 
ATOM      6  C   LIG d   1       9.680   3.124  -4.942  0.00  0.00     0.071 A 
ATOM      7  C   LIG d   1       8.872   2.118  -5.656  0.00  0.00     0.232 A 
ATOM      8  O   LIG d   1       8.932   1.813  -6.835  0.00  0.00    -0.283 OA
ATOM      9  C   LIG d   1       7.979   1.564  -4.626  0.00  0.00     0.176 A 
ATOM     10  C   LIG d   1       7.044   0.600  -4.811  0.00  0.00    -0.007 C 
ATOM     11  O   LIG d   1       8.263   2.191  -3.460  0.00  0.00    -0.451 OA
ATOM     12  H   LIG d   1      12.062   5.500  -4.743  0.00  0.00     0.066 H 
ATOM     13  H   LIG d   1       9.529   3.960  -1.661  0.00  0.00     0.069 H 
ATOM     14  H   LIG d   1       6.957   0.107  -5.768  0.00  0.00     0.066 H 
ENDROOT
BRANCH  10  15
ATOM     15  C   LIG d   1       6.148   0.224  -3.707  0.00  0.00    -0.003 A 
ATOM     16  C   LIG d   1       5.934  -1.123  -3.391  0.00  0.00     0.035 A 
ATOM     17  N   LIG d   1       5.132  -1.458  -2.403  0.00  0.00    -0.263 NA
ATOM     18  H   LIG d   1       6.433  -1.892  -3.961  0.00  0.00     0.084 H 
ATOM     19  C   LIG d   1       4.502  -0.553  -1.679  0.00  0.00     0.028 A 
ATOM     20  C   LIG d   1       4.658   0.799  -1.927  0.00  0.00    -0.043 A 
ATOM     21  H   LIG d   1       3.852  -0.873  -0.877  0.00  0.00     0.083 H 
ATOM     22  C   LIG d   1       5.491   1.208  -2.953  0.00  0.00    -0.052 A 
ATOM     23  H   LIG d   1       4.137   1.529  -1.325  0.00  0.00     0.063 H 
ATOM     24  H   LIG d   1       5.630   2.256  -3.169  0.00  0.00     0.062 H 
ENDBRANCH  10  15
BRANCH   1  25
ATOM     25  C   LIG d   1      11.152   4.007  -6.780  0.00  0.00    -0.039 C 
ATOM     26  H   LIG d   1      10.310   4.257  -7.427  0.00  0.00     0.028 H 
ATOM     27  H   LIG d   1      11.938   4.751  -6.904  0.00  0.00     0.028 H 
ATOM     28  H   LIG d   1      11.536   3.023  -7.049  0.00  0.00     0.028 H 
ENDBRANCH   1  25
BRANCH   3  29
ATOM     29  O   LIG d   1      11.439   5.652  -2.209  0.00  0.00    -0.346 OA
BRANCH  29  30
ATOM     30  S   LIG d   1      10.556   6.817  -1.783  0.00  0.00     0.118 S 
ATOM     31  O   LIG d   1       9.665   7.012  -2.871  0.00  0.00    -0.137 OA
ATOM     32  O   LIG d   1      10.067   6.450  -0.501  0.00  0.00    -0.137 OA
BRANCH  30  33
ATOM     33  C   LIG d   1      11.687   8.229  -1.640  0.00  0.00     0.092 C 
ATOM     34  H   LIG d   1      11.247   9.098  -2.129  0.00  0.00     0.050 H 
ATOM     35  H   LIG d   1      11.857   8.452  -0.587  0.00  0.00     0.050 H 
ATOM     36  H   LIG d   1      12.635   7.984  -2.117  0.00  0.00     0.050 H 
ENDBRANCH  30  33
ENDBRANCH  29  30
ENDBRANCH   3  29
TORSDOF 5
ENDMDL
MODEL 6
REMARK VINA RESULT:      -5.6      1.485      2.087
REMARK  5 active torsions:
REMARK  status: ('A' for Active; 'I' for Inactive)
REMARK    1  A    between atoms: C_1  and  C_2 
REMARK    2  A    between atoms: C_4  and  O_19 
REMARK    3  A    between atoms: C_11  and  C_12 
REMARK    4  A    between atoms: O_19  and  S_20 
REMARK    5  A    between atoms: S_20  and  C_23 
ROOT
ATOM      1  C   LIG d   1       4.637  -1.031  -4.040  0.00  0.00    -0.032 A 
ATOM      2  C   LIG d   1       5.505  -2.053  -3.782  0.00  0.00    -0.013 A 
ATOM      3  C   LIG d   1       5.932  -2.884  -4.814  0.00  0.00     0.160 A 
ATOM      4  C   LIG d   1       5.486  -2.686  -6.111  0.00  0.00     0.026 A 
ATOM      5  C   LIG d   1       4.603  -1.650  -6.391  0.00  0.00     0.143 A 
ATOM      6  C   LIG d   1       4.179  -0.819  -5.342  0.00  0.00     0.071 A 
ATOM      7  C   LIG d   1       3.268   0.173  -5.941  0.00  0.00     0.232 A 
ATOM      8  O   LIG d   1       2.681   1.083  -5.380  0.00  0.00    -0.283 OA
ATOM      9  C   LIG d   1       3.223  -0.181  -7.369  0.00  0.00     0.176 A 
ATOM     10  C   LIG d   1       2.507   0.452  -8.330  0.00  0.00    -0.007 C 
ATOM     11  O   LIG d   1       4.031  -1.254  -7.547  0.00  0.00    -0.451 OA
ATOM     12  H   LIG d   1       5.859  -2.218  -2.776  0.00  0.00     0.066 H 
ATOM     13  H   LIG d   1       5.824  -3.337  -6.904  0.00  0.00     0.069 H 
ATOM     14  H   LIG d   1       1.959   1.352  -8.091  0.00  0.00     0.066 H 
ENDROOT
BRANCH  10  15
ATOM     15  C   LIG d   1       2.478  -0.085  -9.698  0.00  0.00    -0.003 A 
ATOM     16  C   LIG d   1       3.543   0.144 -10.577  0.00  0.00     0.035 A 
ATOM     17  N   LIG d   1       3.515  -0.337 -11.801  0.00  0.00    -0.263 NA
ATOM     18  H   LIG d   1       4.395   0.720 -10.246  0.00  0.00     0.084 H 
ATOM     19  C   LIG d   1       2.496  -1.045 -12.249  0.00  0.00     0.028 A 
ATOM     20  C   LIG d   1       1.403  -1.317 -11.444  0.00  0.00    -0.043 A 
ATOM     21  H   LIG d   1       2.515  -1.421 -13.262  0.00  0.00     0.083 H 
ATOM     22  C   LIG d   1       1.381  -0.836 -10.148  0.00  0.00    -0.052 A 
ATOM     23  H   LIG d   1       0.577  -1.899 -11.824  0.00  0.00     0.063 H 
ATOM     24  H   LIG d   1       0.541  -1.032  -9.499  0.00  0.00     0.062 H 
ENDBRANCH  10  15
BRANCH   1  25
ATOM     25  C   LIG d   1       4.174  -0.133  -2.923  0.00  0.00    -0.039 C 
ATOM     26  H   LIG d   1       3.996  -0.728  -2.027  0.00  0.00     0.028 H 
ATOM     27  H   LIG d   1       4.942   0.613  -2.715  0.00  0.00     0.028 H 
ATOM     28  H   LIG d   1       3.252   0.367  -3.216  0.00  0.00     0.028 H 
ENDBRANCH   1  25
BRANCH   3  29
ATOM     29  O   LIG d   1       6.795  -3.899  -4.547  0.00  0.00    -0.346 OA
BRANCH  29  30
ATOM     30  S   LIG d   1       8.246  -3.581  -4.877  0.00  0.00     0.118 S 
ATOM     31  O   LIG d   1       8.496  -4.259  -6.100  0.00  0.00    -0.137 OA
ATOM     32  O   LIG d   1       8.333  -2.165  -4.802  0.00  0.00    -0.137 OA
BRANCH  30  33
ATOM     33  C   LIG d   1       9.205  -4.339  -3.536  0.00  0.00     0.092 C 
ATOM     34  H   LIG d   1       9.523  -3.567  -2.836  0.00  0.00     0.050 H 
ATOM     35  H   LIG d   1       8.586  -5.069  -3.016  0.00  0.00     0.050 H 
ATOM     36  H   LIG d   1      10.081  -4.836  -3.953  0.00  0.00     0.050 H 
ENDBRANCH  30  33
ENDBRANCH  29  30
ENDBRANCH   3  29
TORSDOF 5
ENDMDL
MODEL 7
REMARK VINA RESULT:      -5.5      4.352      6.656
REMARK  5 active torsions:
REMARK  status: ('A' for Active; 'I' for Inactive)
REMARK    1  A    between atoms: C_1  and  C_2 
REMARK    2  A    between atoms: C_4  and  O_19 
REMARK    3  A    between atoms: C_11  and  C_12 
REMARK    4  A    between atoms: O_19  and  S_20 
REMARK    5  A    between atoms: S_20  and  C_23 
ROOT
ATOM      1  C   LIG d   1       6.607  -5.966  -6.228  0.00  0.00    -0.032 A 
ATOM      2  C   LIG d   1       5.583  -6.413  -7.013  0.00  0.00    -0.013 A 
ATOM      3  C   LIG d   1       4.406  -5.675  -7.115  0.00  0.00     0.160 A 
ATOM      4  C   LIG d   1       4.261  -4.481  -6.426  0.00  0.00     0.026 A 
ATOM      5  C   LIG d   1       5.293  -4.012  -5.624  0.00  0.00     0.143 A 
ATOM      6  C   LIG d   1       6.474  -4.766  -5.528  0.00  0.00     0.071 A 
ATOM      7  C   LIG d   1       7.370  -4.021  -4.625  0.00  0.00     0.232 A 
ATOM      8  O   LIG d   1       8.498  -4.323  -4.277  0.00  0.00    -0.283 OA
ATOM      9  C   LIG d   1       6.596  -2.831  -4.237  0.00  0.00     0.176 A 
ATOM     10  C   LIG d   1       7.009  -1.842  -3.406  0.00  0.00    -0.007 C 
ATOM     11  O   LIG d   1       5.398  -2.901  -4.864  0.00  0.00    -0.451 OA
ATOM     12  H   LIG d   1       5.684  -7.342  -7.554  0.00  0.00     0.066 H 
ATOM     13  H   LIG d   1       3.344  -3.917  -6.512  0.00  0.00     0.069 H 
ATOM     14  H   LIG d   1       8.020  -1.844  -3.025  0.00  0.00     0.066 H 
ENDROOT
BRANCH  10  15
ATOM     15  C   LIG d   1       6.081  -0.767  -3.025  0.00  0.00    -0.003 A 
ATOM     16  C   LIG d   1       6.361   0.564  -3.354  0.00  0.00     0.035 A 
ATOM     17  N   LIG d   1       5.530   1.526  -3.012  0.00  0.00    -0.263 NA
ATOM     18  H   LIG d   1       7.265   0.804  -3.893  0.00  0.00     0.084 H 
ATOM     19  C   LIG d   1       4.414   1.281  -2.352  0.00  0.00     0.028 A 
ATOM     20  C   LIG d   1       4.064  -0.008  -1.989  0.00  0.00    -0.043 A 
ATOM     21  H   LIG d   1       3.760   2.100  -2.091  0.00  0.00     0.083 H 
ATOM     22  C   LIG d   1       4.901  -1.057  -2.324  0.00  0.00    -0.052 A 
ATOM     23  H   LIG d   1       3.147  -0.194  -1.450  0.00  0.00     0.063 H 
ATOM     24  H   LIG d   1       4.653  -2.072  -2.053  0.00  0.00     0.062 H 
ENDBRANCH  10  15
BRANCH   1  25
ATOM     25  C   LIG d   1       7.879  -6.767  -6.118  0.00  0.00    -0.039 C 
ATOM     26  H   LIG d   1       7.757  -7.717  -6.639  0.00  0.00     0.028 H 
ATOM     27  H   LIG d   1       8.699  -6.209  -6.569  0.00  0.00     0.028 H 
ATOM     28  H   LIG d   1       8.100  -6.954  -5.068  0.00  0.00     0.028 H 
ENDBRANCH   1  25
BRANCH   3  29
ATOM     29  O   LIG d   1       3.393  -6.129  -7.897  0.00  0.00    -0.346 OA
BRANCH  29  30
ATOM     30  S   LIG d   1       3.465  -5.653  -9.341  0.00  0.00     0.118 S 
ATOM     31  O   LIG d   1       2.501  -4.614  -9.428  0.00  0.00    -0.137 OA
ATOM     32  O   LIG d   1       4.841  -5.386  -9.567  0.00  0.00    -0.137 OA
BRANCH  30  33
ATOM     33  C   LIG d   1       2.935  -7.081 -10.328  0.00  0.00     0.092 C 
ATOM     34  H   LIG d   1       3.645  -7.246 -11.138  0.00  0.00     0.050 H 
ATOM     35  H   LIG d   1       2.896  -7.966  -9.693  0.00  0.00     0.050 H 
ATOM     36  H   LIG d   1       1.946  -6.888 -10.743  0.00  0.00     0.050 H 
ENDBRANCH  30  33
ENDBRANCH  29  30
ENDBRANCH   3  29
TORSDOF 5
ENDMDL
MODEL 8
REMARK VINA RESULT:      -5.4      7.672      9.103
REMARK  5 active torsions:
REMARK  status: ('A' for Active; 'I' for Inactive)
REMARK    1  A    between atoms: C_1  and  C_2 
REMARK    2  A    between atoms: C_4  and  O_19 
REMARK    3  A    between atoms: C_11  and  C_12 
REMARK    4  A    between atoms: O_19  and  S_20 
REMARK    5  A    between atoms: S_20  and  C_23 
ROOT
ATOM      1  C   LIG d   1      11.014   6.230  -4.101  0.00  0.00    -0.032 A 
ATOM      2  C   LIG d   1      11.537   6.611  -2.899  0.00  0.00    -0.013 A 
ATOM      3  C   LIG d   1      11.351   5.815  -1.771  0.00  0.00     0.160 A 
ATOM      4  C   LIG d   1      10.637   4.630  -1.854  0.00  0.00     0.026 A 
ATOM      5  C   LIG d   1      10.099   4.228  -3.070  0.00  0.00     0.143 A 
ATOM      6  C   LIG d   1      10.293   5.039  -4.200  0.00  0.00     0.071 A 
ATOM      7  C   LIG d   1       9.622   4.356  -5.321  0.00  0.00     0.232 A 
ATOM      8  O   LIG d   1       9.554   4.720  -6.483  0.00  0.00    -0.283 OA
ATOM      9  C   LIG d   1       9.051   3.138  -4.724  0.00  0.00     0.176 A 
ATOM     10  C   LIG d   1       8.335   2.188  -5.371  0.00  0.00    -0.007 C 
ATOM     11  O   LIG d   1       9.377   3.138  -3.409  0.00  0.00    -0.451 OA
ATOM     12  H   LIG d   1      12.094   7.533  -2.821  0.00  0.00     0.066 H 
ATOM     13  H   LIG d   1      10.499   4.021  -0.974  0.00  0.00     0.069 H 
ATOM     14  H   LIG d   1       8.204   2.245  -6.442  0.00  0.00     0.066 H 
ENDROOT
BRANCH  10  15
ATOM     15  C   LIG d   1       7.735   1.077  -4.617  0.00  0.00    -0.003 A 
ATOM     16  C   LIG d   1       8.147  -0.241  -4.842  0.00  0.00     0.035 A 
ATOM     17  N   LIG d   1       7.610  -1.235  -4.166  0.00  0.00    -0.263 NA
ATOM     18  H   LIG d   1       8.913  -0.445  -5.576  0.00  0.00     0.084 H 
ATOM     19  C   LIG d   1       6.672  -1.034  -3.261  0.00  0.00     0.028 A 
ATOM     20  C   LIG d   1       6.209   0.239  -2.978  0.00  0.00    -0.043 A 
ATOM     21  H   LIG d   1       6.258  -1.879  -2.729  0.00  0.00     0.083 H 
ATOM     22  C   LIG d   1       6.739   1.319  -3.658  0.00  0.00    -0.052 A 
ATOM     23  H   LIG d   1       5.441   0.388  -2.233  0.00  0.00     0.063 H 
ATOM     24  H   LIG d   1       6.395   2.323  -3.459  0.00  0.00     0.062 H 
ENDBRANCH  10  15
BRANCH   1  25
ATOM     25  C   LIG d   1      11.215   7.093  -5.320  0.00  0.00    -0.039 C 
ATOM     26  H   LIG d   1      11.365   6.459  -6.194  0.00  0.00     0.028 H 
ATOM     27  H   LIG d   1      10.335   7.718  -5.472  0.00  0.00     0.028 H 
ATOM     28  H   LIG d   1      12.090   7.726  -5.176  0.00  0.00     0.028 H 
ENDBRANCH   1  25
BRANCH   3  29
ATOM     29  O   LIG d   1      11.874   6.204  -0.580  0.00  0.00    -0.346 OA
BRANCH  29  30
ATOM     30  S   LIG d   1      10.854   6.800   0.380  0.00  0.00     0.118 S 
ATOM     31  O   LIG d   1       9.753   7.162  -0.442  0.00  0.00    -0.137 OA
ATOM     32  O   LIG d   1      10.706   5.825   1.402  0.00  0.00    -0.137 OA
BRANCH  30  33
ATOM     33  C   LIG d   1      11.653   8.287   1.044  0.00  0.00     0.092 C 
ATOM     34  H   LIG d   1      12.648   8.033   1.409  0.00  0.00     0.050 H 
ATOM     35  H   LIG d   1      11.735   9.037   0.258  0.00  0.00     0.050 H 
ATOM     36  H   LIG d   1      11.055   8.684   1.865  0.00  0.00     0.050 H 
ENDBRANCH  30  33
ENDBRANCH  29  30
ENDBRANCH   3  29
TORSDOF 5
ENDMDL
MODEL 9
REMARK VINA RESULT:      -5.3      4.936      6.822
REMARK  5 active torsions:
REMARK  status: ('A' for Active; 'I' for Inactive)
REMARK    1  A    between atoms: C_1  and  C_2 
REMARK    2  A    between atoms: C_4  and  O_19 
REMARK    3  A    between atoms: C_11  and  C_12 
REMARK    4  A    between atoms: O_19  and  S_20 
REMARK    5  A    between atoms: S_20  and  C_23 
ROOT
ATOM      1  C   LIG d   1       9.787   2.177  -6.222  0.00  0.00    -0.032 A 
ATOM      2  C   LIG d   1      10.185   3.281  -5.524  0.00  0.00    -0.013 A 
ATOM      3  C   LIG d   1       9.481   3.684  -4.393  0.00  0.00     0.160 A 
ATOM      4  C   LIG d   1       8.373   2.973  -3.961  0.00  0.00     0.026 A 
ATOM      5  C   LIG d   1       7.955   1.847  -4.659  0.00  0.00     0.143 A 
ATOM      6  C   LIG d   1       8.673   1.450  -5.799  0.00  0.00     0.071 A 
ATOM      7  C   LIG d   1       8.004   0.241  -6.311  0.00  0.00     0.232 A 
ATOM      8  O   LIG d   1       8.311  -0.426  -7.285  0.00  0.00    -0.283 OA
ATOM      9  C   LIG d   1       6.883   0.019  -5.385  0.00  0.00     0.176 A 
ATOM     10  C   LIG d   1       5.974  -0.985  -5.452  0.00  0.00    -0.007 C 
ATOM     11  O   LIG d   1       6.927   0.998  -4.450  0.00  0.00    -0.451 OA
ATOM     12  H   LIG d   1      11.047   3.844  -5.851  0.00  0.00     0.066 H 
ATOM     13  H   LIG d   1       7.833   3.295  -3.082  0.00  0.00     0.069 H 
ATOM     14  H   LIG d   1       6.082  -1.763  -6.193  0.00  0.00     0.066 H 
ENDROOT
BRANCH  10  15
ATOM     15  C   LIG d   1       4.842  -1.015  -4.514  0.00  0.00    -0.003 A 
ATOM     16  C   LIG d   1       3.700  -0.241  -4.752  0.00  0.00     0.035 A 
ATOM     17  N   LIG d   1       2.687  -0.269  -3.912  0.00  0.00    -0.263 NA
ATOM     18  H   LIG d   1       3.650   0.383  -5.632  0.00  0.00     0.084 H 
ATOM     19  C   LIG d   1       2.704  -1.015  -2.824  0.00  0.00     0.028 A 
ATOM     20  C   LIG d   1       3.795  -1.809  -2.516  0.00  0.00    -0.043 A 
ATOM     21  H   LIG d   1       1.850  -1.007  -2.162  0.00  0.00     0.083 H 
ATOM     22  C   LIG d   1       4.886  -1.819  -3.365  0.00  0.00    -0.052 A 
ATOM     23  H   LIG d   1       3.794  -2.415  -1.623  0.00  0.00     0.063 H 
ATOM     24  H   LIG d   1       5.751  -2.428  -3.149  0.00  0.00     0.062 H 
ENDBRANCH  10  15
BRANCH   1  25
ATOM     25  C   LIG d   1      10.550   1.743  -7.447  0.00  0.00    -0.039 C 
ATOM     26  H   LIG d   1      10.598   0.654  -7.480  0.00  0.00     0.028 H 
ATOM     27  H   LIG d   1      10.044   2.110  -8.340  0.00  0.00     0.028 H 
ATOM     28  H   LIG d   1      11.560   2.149  -7.409  0.00  0.00     0.028 H 
ENDBRANCH   1  25
BRANCH   3  29
ATOM     29  O   LIG d   1       9.884   4.784  -3.706  0.00  0.00    -0.346 OA
BRANCH  29  30
ATOM     30  S   LIG d   1      10.991   4.514  -2.697  0.00  0.00     0.118 S 
ATOM     31  O   LIG d   1      10.820   3.153  -2.329  0.00  0.00    -0.137 OA
ATOM     32  O   LIG d   1      12.181   4.947  -3.341  0.00  0.00    -0.137 OA
BRANCH  30  33
ATOM     33  C   LIG d   1      10.612   5.595  -1.290  0.00  0.00     0.092 C 
ATOM     34  H   LIG d   1      11.256   6.474  -1.323  0.00  0.00     0.050 H 
ATOM     35  H   LIG d   1       9.569   5.906  -1.342  0.00  0.00     0.050 H 
ATOM     36  H   LIG d   1      10.783   5.053  -0.360  0.00  0.00     0.050 H 
ENDBRANCH  30  33
ENDBRANCH  29  30
ENDBRANCH   3  29
TORSDOF 5
ENDMDL
MODEL 10
REMARK VINA RESULT:      -5.2      5.649      7.095
REMARK  5 active torsions:
REMARK  status: ('A' for Active; 'I' for Inactive)
REMARK    1  A    between atoms: C_1  and  C_2 
REMARK    2  A    between atoms: C_4  and  O_19 
REMARK    3  A    between atoms: C_11  and  C_12 
REMARK    4  A    between atoms: O_19  and  S_20 
REMARK    5  A    between atoms: S_20  and  C_23 
ROOT
ATOM      1  C   LIG d   1       4.167  -7.771  -7.748  0.00  0.00    -0.032 A 
ATOM      2  C   LIG d   1       4.551  -8.930  -7.136  0.00  0.00    -0.013 A 
ATOM      3  C   LIG d   1       5.144  -8.892  -5.877  0.00  0.00     0.160 A 
ATOM      4  C   LIG d   1       5.348  -7.684  -5.229  0.00  0.00     0.026 A 
ATOM      5  C   LIG d   1       4.962  -6.496  -5.836  0.00  0.00     0.143 A 
ATOM      6  C   LIG d   1       4.366  -6.547  -7.107  0.00  0.00     0.071 A 
ATOM      7  C   LIG d   1       4.066  -5.153  -7.481  0.00  0.00     0.232 A 
ATOM      8  O   LIG d   1       3.542  -4.751  -8.506  0.00  0.00    -0.283 OA
ATOM      9  C   LIG d   1       4.544  -4.354  -6.341  0.00  0.00     0.176 A 
ATOM     10  C   LIG d   1       4.484  -3.005  -6.227  0.00  0.00    -0.007 C 
ATOM     11  O   LIG d   1       5.049  -5.214  -5.425  0.00  0.00    -0.451 OA
ATOM     12  H   LIG d   1       4.398  -9.877  -7.631  0.00  0.00     0.066 H 
ATOM     13  H   LIG d   1       5.808  -7.666  -4.252  0.00  0.00     0.069 H 
ATOM     14  H   LIG d   1       3.983  -2.420  -6.984  0.00  0.00     0.066 H 
ENDROOT
BRANCH  10  15
ATOM     15  C   LIG d   1       5.102  -2.337  -5.071  0.00  0.00    -0.003 A 
ATOM     16  C   LIG d   1       6.366  -1.748  -5.182  0.00  0.00     0.035 A 
ATOM     17  N   LIG d   1       6.918  -1.150  -4.147  0.00  0.00    -0.263 NA
ATOM     18  H   LIG d   1       6.893  -1.782  -6.124  0.00  0.00     0.084 H 
ATOM     19  C   LIG d   1       6.313  -1.084  -2.976  0.00  0.00     0.028 A 
ATOM     20  C   LIG d   1       5.061  -1.641  -2.784  0.00  0.00    -0.043 A 
ATOM     21  H   LIG d   1       6.803  -0.584  -2.153  0.00  0.00     0.083 H 
ATOM     22  C   LIG d   1       4.435  -2.280  -3.838  0.00  0.00    -0.052 A 
ATOM     23  H   LIG d   1       4.577  -1.578  -1.820  0.00  0.00     0.063 H 
ATOM     24  H   LIG d   1       3.459  -2.725  -3.715  0.00  0.00     0.062 H 
ENDBRANCH  10  15
BRANCH   1  25
ATOM     25  C   LIG d   1       3.527  -7.813  -9.111  0.00  0.00    -0.039 C 
ATOM     26  H   LIG d   1       3.716  -8.784  -9.572  0.00  0.00     0.028 H 
ATOM     27  H   LIG d   1       2.452  -7.661  -9.013  0.00  0.00     0.028 H 
ATOM     28  H   LIG d   1       3.950  -7.027  -9.736  0.00  0.00     0.028 H 
ENDBRANCH   1  25
BRANCH   3  29
ATOM     29  O   LIG d   1       5.524 -10.050  -5.277  0.00  0.00    -0.346 OA
BRANCH  29  30
ATOM     30  S   LIG d   1       4.451 -10.673  -4.396  0.00  0.00     0.118 S 
ATOM     31  O   LIG d   1       3.586  -9.596  -4.063  0.00  0.00    -0.137 OA
ATOM     32  O   LIG d   1       3.972 -11.784  -5.139  0.00  0.00    -0.137 OA
BRANCH  30  33
ATOM     33  C   LIG d   1       5.336 -11.243  -2.918  0.00  0.00     0.092 C 
ATOM     34  H   LIG d   1       6.260 -11.737  -3.216  0.00  0.00     0.050 H 
ATOM     35  H   LIG d   1       5.569 -10.389  -2.282  0.00  0.00     0.050 H 
ATOM     36  H   LIG d   1       4.709 -11.945  -2.368  0.00  0.00     0.050 H 
ENDBRANCH  30  33
ENDBRANCH  29  30
ENDBRANCH   3  29
TORSDOF 5
ENDMDL
