MODEL 1
REMARK VINA RESULT:      -6.5      0.000      0.000
REMARK  7 active torsions:
REMARK  status: ('A' for Active; 'I' for Inactive)
REMARK    1  A    between atoms: C_1  and  C_2 
REMARK    2  A    between atoms: C_2  and  C_30 
REMARK    3  A    between atoms: C_6  and  C_21 
REMARK    4  A    between atoms: C_17  and  C_19 
REMARK    5  A    between atoms: C_17  and  C_20 
REMARK    6  A    between atoms: C_21  and  N_22 
REMARK       I    between atoms: N_22  and  C_23 
REMARK    7  A    between atoms: C_23  and  C_25 
ROOT
ATOM      1  C   LIG d   1       4.786   0.307  -3.200  0.00  0.00     0.166 C 
ATOM      2  O   LIG d   1       4.489  -1.097  -3.163  0.00  0.00    -0.341 OA
ATOM      3  C   LIG d   1       3.964  -1.455  -4.467  0.00  0.00     0.118 C 
ATOM      4  H   LIG d   1       3.178  -2.207  -4.410  0.00  0.00     0.065 H 
ATOM      5  C   LIG d   1       5.145  -1.945  -5.300  0.00  0.00     0.106 C 
ATOM      6  H   LIG d   1       6.031  -1.373  -5.021  0.00  0.00     0.064 H 
ATOM      7  O   LIG d   1       4.939  -1.809  -6.712  0.00  0.00    -0.341 OA
ATOM      8  C   LIG d   1       4.694  -0.458  -7.059  0.00  0.00     0.191 C 
ATOM      9  H   LIG d   1       5.456   0.193  -6.628  0.00  0.00     0.094 H 
ATOM     10  C   LIG d   1       3.301  -0.112  -6.466  0.00  0.00     0.141 C 
ATOM     11  H   LIG d   1       2.573  -0.864  -6.770  0.00  0.00     0.068 H 
ATOM     12  C   LIG d   1       3.418  -0.095  -4.969  0.00  0.00     0.121 C 
ATOM     13  H   LIG d   1       2.449   0.115  -4.516  0.00  0.00     0.065 H 
ATOM     14  O   LIG d   1       4.418   0.824  -4.493  0.00  0.00    -0.341 OA
ATOM     15  O   LIG d   1       3.026   1.124  -7.126  0.00  0.00    -0.338 OA
ATOM     16  C   LIG d   1       3.503   0.894  -8.475  0.00  0.00     0.168 C 
ATOM     17  O   LIG d   1       4.512  -0.142  -8.435  0.00  0.00    -0.318 OA
ENDROOT
BRANCH   5  18
ATOM     18  C   LIG d   1       5.395  -3.419  -4.981  0.00  0.00     0.041 C 
ATOM     19  H   LIG d   1       4.738  -3.731  -4.168  0.00  0.00     0.049 H 
ATOM     20  H   LIG d   1       6.434  -3.556  -4.680  0.00  0.00     0.049 H 
BRANCH  18  21
ATOM     21  N   LIG d   1       5.120  -4.231  -6.169  0.00  0.00    -0.306 N 
ATOM     22  C   LIG d   1       4.391  -5.360  -6.061  0.00  0.00     0.279 C 
ATOM     23  O   LIG d   1       3.965  -5.707  -4.975  0.00  0.00    -0.267 OA
ATOM     24  H   LIG d   1       5.463  -3.956  -7.034  0.00  0.00     0.149 HD
BRANCH  22  25
ATOM     25  C   LIG d   1       4.116  -6.172  -7.251  0.00  0.00     0.189 A 
ATOM     26  O   LIG d   1       3.323  -5.821  -8.283  0.00  0.00    -0.458 OA
ATOM     27  C   LIG d   1       3.311  -6.807  -9.189  0.00  0.00     0.093 A 
ATOM     28  C   LIG d   1       4.093  -7.816  -8.745  0.00  0.00    -0.023 A 
ATOM     29  H   LIG d   1       2.763  -6.801 -10.120  0.00  0.00     0.103 H 
ATOM     30  C   LIG d   1       4.614  -7.418  -7.504  0.00  0.00    -0.011 A 
ATOM     31  H   LIG d   1       4.282  -8.752  -9.250  0.00  0.00     0.065 H 
ATOM     32  H   LIG d   1       5.279  -7.987  -6.871  0.00  0.00     0.066 H 
ENDBRANCH  22  25
ENDBRANCH  18  21
ENDBRANCH   5  18
BRANCH   1  33
ATOM     33  C   LIG d   1       6.283   0.521  -2.967  0.00  0.00    -0.011 C 
ATOM     34  H   LIG d   1       6.471   1.576  -2.761  0.00  0.00     0.028 H 
ATOM     35  H   LIG d   1       6.607  -0.078  -2.117  0.00  0.00     0.028 H 
ATOM     36  H   LIG d   1       6.836   0.221  -3.856  0.00  0.00     0.028 H 
ENDBRANCH   1  33
BRANCH   1  37
ATOM     37  C   LIG d   1       3.988   1.027  -2.111  0.00  0.00    -0.011 C 
ATOM     38  H   LIG d   1       4.637   1.734  -1.593  0.00  0.00     0.028 H 
ATOM     39  H   LIG d   1       3.156   1.565  -2.566  0.00  0.00     0.028 H 
ATOM     40  H   LIG d   1       3.604   0.298  -1.399  0.00  0.00     0.028 H 
ENDBRANCH   1  37
BRANCH  16  41
ATOM     41  C   LIG d   1       2.341   0.447  -9.363  0.00  0.00    -0.011 C 
ATOM     42  H   LIG d   1       1.949   1.306  -9.907  0.00  0.00     0.028 H 
ATOM     43  H   LIG d   1       2.692  -0.303 -10.072  0.00  0.00     0.028 H 
ATOM     44  H   LIG d   1       1.553   0.019  -8.743  0.00  0.00     0.028 H 
ENDBRANCH  16  41
BRANCH  16  45
ATOM     45  C   LIG d   1       4.113   2.182  -9.033  0.00  0.00    -0.011 C 
ATOM     46  H   LIG d   1       5.090   2.349  -8.578  0.00  0.00     0.028 H 
ATOM     47  H   LIG d   1       4.226   2.092 -10.114  0.00  0.00     0.028 H 
ATOM     48  H   LIG d   1       3.457   3.022  -8.806  0.00  0.00     0.028 H 
ENDBRANCH  16  45
TORSDOF 7
ENDMDL
MODEL 2
REMARK VINA RESULT:      -6.5      2.680      5.966
REMARK  7 active torsions:
REMARK  status: ('A' for Active; 'I' for Inactive)
REMARK    1  A    between atoms: C_1  and  C_2 
REMARK    2  A    between atoms: C_2  and  C_30 
REMARK    3  A    between atoms: C_6  and  C_21 
REMARK    4  A    between atoms: C_17  and  C_19 
REMARK    5  A    between atoms: C_17  and  C_20 
REMARK    6  A    between atoms: C_21  and  N_22 
REMARK       I    between atoms: N_22  and  C_23 
REMARK    7  A    between atoms: C_23  and  C_25 
ROOT
ATOM      1  C   LIG d   1       4.117   1.322  -9.051  0.00  0.00     0.166 C 
ATOM      2  O   LIG d   1       3.824   0.673  -7.804  0.00  0.00    -0.341 OA
ATOM      3  C   LIG d   1       2.984  -0.469  -8.107  0.00  0.00     0.118 C 
ATOM      4  H   LIG d   1       2.229  -0.649  -7.341  0.00  0.00     0.065 H 
ATOM      5  C   LIG d   1       3.911  -1.670  -8.269  0.00  0.00     0.106 C 
ATOM      6  H   LIG d   1       4.844  -1.333  -8.721  0.00  0.00     0.064 H 
ATOM      7  O   LIG d   1       3.357  -2.709  -9.086  0.00  0.00    -0.341 OA
ATOM      8  C   LIG d   1       3.046  -2.224 -10.379  0.00  0.00     0.191 C 
ATOM      9  H   LIG d   1       3.898  -1.693 -10.804  0.00  0.00     0.094 H 
ATOM     10  C   LIG d   1       1.852  -1.249 -10.192  0.00  0.00     0.141 C 
ATOM     11  H   LIG d   1       1.062  -1.737  -9.620  0.00  0.00     0.068 H 
ATOM     12  C   LIG d   1       2.342  -0.039  -9.450  0.00  0.00     0.121 C 
ATOM     13  H   LIG d   1       1.522   0.655  -9.273  0.00  0.00     0.065 H 
ATOM     14  O   LIG d   1       3.440   0.618 -10.109  0.00  0.00    -0.341 OA
ATOM     15  O   LIG d   1       1.432  -1.074 -11.546  0.00  0.00    -0.338 OA
ATOM     16  C   LIG d   1       1.550  -2.406 -12.106  0.00  0.00     0.168 C 
ATOM     17  O   LIG d   1       2.525  -3.144 -11.334  0.00  0.00    -0.318 OA
ENDROOT
BRANCH   5  18
ATOM     18  C   LIG d   1       4.217  -2.246  -6.885  0.00  0.00     0.041 C 
ATOM     19  H   LIG d   1       5.199  -2.721  -6.899  0.00  0.00     0.049 H 
ATOM     20  H   LIG d   1       3.460  -2.985  -6.623  0.00  0.00     0.049 H 
BRANCH  18  21
ATOM     21  N   LIG d   1       4.211  -1.167  -5.895  0.00  0.00    -0.306 N 
ATOM     22  C   LIG d   1       4.185  -1.460  -4.579  0.00  0.00     0.279 C 
ATOM     23  O   LIG d   1       4.163  -2.620  -4.214  0.00  0.00    -0.267 OA
ATOM     24  H   LIG d   1       4.224  -0.241  -6.186  0.00  0.00     0.149 HD
BRANCH  22  25
ATOM     25  C   LIG d   1       4.178  -0.379  -3.588  0.00  0.00     0.189 A 
ATOM     26  O   LIG d   1       3.827   0.903  -3.815  0.00  0.00    -0.458 OA
ATOM     27  C   LIG d   1       3.941   1.603  -2.679  0.00  0.00     0.093 A 
ATOM     28  C   LIG d   1       4.379   0.778  -1.702  0.00  0.00    -0.023 A 
ATOM     29  H   LIG d   1       3.723   2.655  -2.563  0.00  0.00     0.103 H 
ATOM     30  C   LIG d   1       4.533  -0.493  -2.274  0.00  0.00    -0.011 A 
ATOM     31  H   LIG d   1       4.572   1.048  -0.674  0.00  0.00     0.065 H 
ATOM     32  H   LIG d   1       4.869  -1.390  -1.773  0.00  0.00     0.066 H 
ENDBRANCH  22  25
ENDBRANCH  18  21
ENDBRANCH   5  18
BRANCH   1  33
ATOM     33  C   LIG d   1       5.626   1.298  -9.300  0.00  0.00    -0.011 C 
ATOM     34  H   LIG d   1       6.145   1.693  -8.426  0.00  0.00     0.028 H 
ATOM     35  H   LIG d   1       5.948   0.273  -9.480  0.00  0.00     0.028 H 
ATOM     36  H   LIG d   1       5.861   1.911 -10.170  0.00  0.00     0.028 H 
ENDBRANCH   1  33
BRANCH   1  37
ATOM     37  C   LIG d   1       3.627   2.771  -9.001  0.00  0.00    -0.011 C 
ATOM     38  H   LIG d   1       4.485   3.443  -8.969  0.00  0.00     0.028 H 
ATOM     39  H   LIG d   1       3.032   2.984  -9.888  0.00  0.00     0.028 H 
ATOM     40  H   LIG d   1       3.018   2.918  -8.110  0.00  0.00     0.028 H 
ENDBRANCH   1  37
BRANCH  16  41
ATOM     41  C   LIG d   1       0.197  -3.115 -12.039  0.00  0.00    -0.011 C 
ATOM     42  H   LIG d   1      -0.496  -2.641 -12.735  0.00  0.00     0.028 H 
ATOM     43  H   LIG d   1       0.322  -4.164 -12.307  0.00  0.00     0.028 H 
ATOM     44  H   LIG d   1      -0.201  -3.044 -11.026  0.00  0.00     0.028 H 
ENDBRANCH  16  41
BRANCH  16  45
ATOM     45  C   LIG d   1       2.012  -2.314 -13.562  0.00  0.00    -0.011 C 
ATOM     46  H   LIG d   1       1.433  -1.549 -14.080  0.00  0.00     0.028 H 
ATOM     47  H   LIG d   1       3.070  -2.052 -13.591  0.00  0.00     0.028 H 
ATOM     48  H   LIG d   1       1.863  -3.276 -14.051  0.00  0.00     0.028 H 
ENDBRANCH  16  45
TORSDOF 7
ENDMDL
MODEL 3
REMARK VINA RESULT:      -6.1      2.555      3.496
REMARK  7 active torsions:
REMARK  status: ('A' for Active; 'I' for Inactive)
REMARK    1  A    between atoms: C_1  and  C_2 
REMARK    2  A    between atoms: C_2  and  C_30 
REMARK    3  A    between atoms: C_6  and  C_21 
REMARK    4  A    between atoms: C_17  and  C_19 
REMARK    5  A    between atoms: C_17  and  C_20 
REMARK    6  A    between atoms: C_21  and  N_22 
REMARK       I    between atoms: N_22  and  C_23 
REMARK    7  A    between atoms: C_23  and  C_25 
ROOT
ATOM      1  C   LIG d   1       3.812  -1.319  -3.375  0.00  0.00     0.166 C 
ATOM      2  O   LIG d   1       3.813  -2.316  -4.407  0.00  0.00    -0.341 OA
ATOM      3  C   LIG d   1       4.939  -2.029  -5.275  0.00  0.00     0.118 C 
ATOM      4  H   LIG d   1       4.725  -2.240  -6.323  0.00  0.00     0.065 H 
ATOM      5  C   LIG d   1       6.114  -2.860  -4.767  0.00  0.00     0.106 C 
ATOM      6  H   LIG d   1       6.051  -2.926  -3.680  0.00  0.00     0.064 H 
ATOM      7  O   LIG d   1       7.390  -2.313  -5.118  0.00  0.00    -0.341 OA
ATOM      8  C   LIG d   1       7.536  -1.001  -4.608  0.00  0.00     0.191 C 
ATOM      9  H   LIG d   1       7.285  -0.972  -3.547  0.00  0.00     0.094 H 
ATOM     10  C   LIG d   1       6.543  -0.119  -5.413  0.00  0.00     0.141 C 
ATOM     11  H   LIG d   1       6.690  -0.277  -6.481  0.00  0.00     0.068 H 
ATOM     12  C   LIG d   1       5.145  -0.513  -5.029  0.00  0.00     0.121 C 
ATOM     13  H   LIG d   1       4.419   0.065  -5.599  0.00  0.00     0.065 H 
ATOM     14  O   LIG d   1       4.897  -0.402  -3.616  0.00  0.00    -0.341 OA
ATOM     15  O   LIG d   1       6.988   1.189  -5.050  0.00  0.00    -0.338 OA
ATOM     16  C   LIG d   1       8.432   1.061  -5.053  0.00  0.00     0.168 C 
ATOM     17  O   LIG d   1       8.771  -0.327  -4.831  0.00  0.00    -0.318 OA
ENDROOT
BRANCH   5  18
ATOM     18  C   LIG d   1       6.007  -4.270  -5.350  0.00  0.00     0.041 C 
ATOM     19  H   LIG d   1       5.454  -4.908  -4.659  0.00  0.00     0.049 H 
ATOM     20  H   LIG d   1       7.007  -4.679  -5.499  0.00  0.00     0.049 H 
BRANCH  18  21
ATOM     21  N   LIG d   1       5.305  -4.217  -6.634  0.00  0.00    -0.306 N 
ATOM     22  C   LIG d   1       4.171  -4.923  -6.813  0.00  0.00     0.279 C 
ATOM     23  O   LIG d   1       3.732  -5.609  -5.908  0.00  0.00    -0.267 OA
ATOM     24  H   LIG d   1       5.657  -3.673  -7.357  0.00  0.00     0.149 HD
BRANCH  22  25
ATOM     25  C   LIG d   1       3.468  -4.869  -8.099  0.00  0.00     0.189 A 
ATOM     26  O   LIG d   1       2.819  -5.892  -8.691  0.00  0.00    -0.458 OA
ATOM     27  C   LIG d   1       2.297  -5.476  -9.851  0.00  0.00     0.093 A 
ATOM     28  C   LIG d   1       2.614  -4.173 -10.028  0.00  0.00    -0.023 A 
ATOM     29  H   LIG d   1       1.722  -6.081 -10.537  0.00  0.00     0.103 H 
ATOM     30  C   LIG d   1       3.364  -3.776  -8.910  0.00  0.00    -0.011 A 
ATOM     31  H   LIG d   1       2.340  -3.555 -10.870  0.00  0.00     0.065 H 
ATOM     32  H   LIG d   1       3.779  -2.796  -8.727  0.00  0.00     0.066 H 
ENDBRANCH  22  25
ENDBRANCH  18  21
ENDBRANCH   5  18
BRANCH   1  33
ATOM     33  C   LIG d   1       3.999  -1.989  -2.012  0.00  0.00    -0.011 C 
ATOM     34  H   LIG d   1       4.095  -1.224  -1.241  0.00  0.00     0.028 H 
ATOM     35  H   LIG d   1       3.134  -2.616  -1.795  0.00  0.00     0.028 H 
ATOM     36  H   LIG d   1       4.898  -2.603  -2.029  0.00  0.00     0.028 H 
ENDBRANCH   1  33
BRANCH   1  37
ATOM     37  C   LIG d   1       2.484  -0.560  -3.398  0.00  0.00    -0.011 C 
ATOM     38  H   LIG d   1       2.050  -0.617  -4.397  0.00  0.00     0.028 H 
ATOM     39  H   LIG d   1       1.797  -1.008  -2.679  0.00  0.00     0.028 H 
ATOM     40  H   LIG d   1       2.656   0.483  -3.136  0.00  0.00     0.028 H 
ENDBRANCH   1  37
BRANCH  16  41
ATOM     41  C   LIG d   1       8.987   1.517  -6.403  0.00  0.00    -0.011 C 
ATOM     42  H   LIG d   1       8.257   1.307  -7.185  0.00  0.00     0.028 H 
ATOM     43  H   LIG d   1       9.188   2.588  -6.372  0.00  0.00     0.028 H 
ATOM     44  H   LIG d   1       9.912   0.980  -6.616  0.00  0.00     0.028 H 
ENDBRANCH  16  41
BRANCH  16  45
ATOM     45  C   LIG d   1       9.028   1.919  -3.935  0.00  0.00    -0.011 C 
ATOM     46  H   LIG d   1       8.745   2.962  -4.087  0.00  0.00     0.028 H 
ATOM     47  H   LIG d   1       8.649   1.576  -2.972  0.00  0.00     0.028 H 
ATOM     48  H   LIG d   1      10.114   1.832  -3.950  0.00  0.00     0.028 H 
ENDBRANCH  16  45
TORSDOF 7
ENDMDL
MODEL 4
REMARK VINA RESULT:      -5.9      3.496      7.153
REMARK  7 active torsions:
REMARK  status: ('A' for Active; 'I' for Inactive)
REMARK    1  A    between atoms: C_1  and  C_2 
REMARK    2  A    between atoms: C_2  and  C_30 
REMARK    3  A    between atoms: C_6  and  C_21 
REMARK    4  A    between atoms: C_17  and  C_19 
REMARK    5  A    between atoms: C_17  and  C_20 
REMARK    6  A    between atoms: C_21  and  N_22 
REMARK       I    between atoms: N_22  and  C_23 
REMARK    7  A    between atoms: C_23  and  C_25 
ROOT
ATOM      1  C   LIG d   1       4.542  -1.023  -3.017  0.00  0.00     0.166 C 
ATOM      2  O   LIG d   1       5.934  -1.360  -3.120  0.00  0.00    -0.341 OA
ATOM      3  C   LIG d   1       6.266  -1.364  -4.532  0.00  0.00     0.118 C 
ATOM      4  H   LIG d   1       6.988  -2.139  -4.789  0.00  0.00     0.065 H 
ATOM      5  C   LIG d   1       6.798   0.027  -4.866  0.00  0.00     0.106 C 
ATOM      6  H   LIG d   1       6.261   0.760  -4.264  0.00  0.00     0.064 H 
ATOM      7  O   LIG d   1       6.648   0.374  -6.248  0.00  0.00    -0.341 OA
ATOM      8  C   LIG d   1       5.288   0.325  -6.638  0.00  0.00     0.191 C 
ATOM      9  H   LIG d   1       4.668   0.888  -5.940  0.00  0.00     0.094 H 
ATOM     10  C   LIG d   1       4.891  -1.177  -6.609  0.00  0.00     0.141 C 
ATOM     11  H   LIG d   1       5.614  -1.761  -7.179  0.00  0.00     0.068 H 
ATOM     12  C   LIG d   1       4.884  -1.634  -5.178  0.00  0.00     0.121 C 
ATOM     13  H   LIG d   1       4.640  -2.694  -5.121  0.00  0.00     0.065 H 
ATOM     14  O   LIG d   1       4.006  -0.857  -4.343  0.00  0.00    -0.341 OA
ATOM     15  O   LIG d   1       3.643  -1.140  -7.301  0.00  0.00    -0.338 OA
ATOM     16  C   LIG d   1       3.886  -0.196  -8.374  0.00  0.00     0.168 C 
ATOM     17  O   LIG d   1       4.960   0.686  -7.976  0.00  0.00    -0.318 OA
ENDROOT
BRANCH   5  18
ATOM     18  C   LIG d   1       8.282   0.087  -4.503  0.00  0.00     0.041 C 
ATOM     19  H   LIG d   1       8.882  -0.017  -5.408  0.00  0.00     0.049 H 
ATOM     20  H   LIG d   1       8.521  -0.724  -3.815  0.00  0.00     0.049 H 
BRANCH  18  21
ATOM     21  N   LIG d   1       8.579   1.371  -3.865  0.00  0.00    -0.306 N 
ATOM     22  C   LIG d   1       9.146   2.364  -4.579  0.00  0.00     0.279 C 
ATOM     23  O   LIG d   1       9.416   2.192  -5.753  0.00  0.00    -0.267 OA
ATOM     24  H   LIG d   1       8.367   1.507  -2.928  0.00  0.00     0.149 HD
BRANCH  22  25
ATOM     25  C   LIG d   1       9.443   3.650  -3.940  0.00  0.00     0.189 A 
ATOM     26  O   LIG d   1       9.744   3.837  -2.639  0.00  0.00    -0.458 OA
ATOM     27  C   LIG d   1       9.956   5.140  -2.414  0.00  0.00     0.093 A 
ATOM     28  C   LIG d   1       9.784   5.815  -3.573  0.00  0.00    -0.023 A 
ATOM     29  H   LIG d   1      10.218   5.581  -1.464  0.00  0.00     0.103 H 
ATOM     30  C   LIG d   1       9.455   4.868  -4.556  0.00  0.00    -0.011 A 
ATOM     31  H   LIG d   1       9.882   6.881  -3.716  0.00  0.00     0.065 H 
ATOM     32  H   LIG d   1       9.251   5.065  -5.598  0.00  0.00     0.066 H 
ENDBRANCH  22  25
ENDBRANCH  18  21
ENDBRANCH   5  18
BRANCH   1  33
ATOM     33  C   LIG d   1       4.386   0.281  -2.232  0.00  0.00    -0.011 C 
ATOM     34  H   LIG d   1       3.329   0.544  -2.171  0.00  0.00     0.028 H 
ATOM     35  H   LIG d   1       4.787   0.150  -1.227  0.00  0.00     0.028 H 
ATOM     36  H   LIG d   1       4.929   1.078  -2.739  0.00  0.00     0.028 H 
ENDBRANCH   1  33
BRANCH   1  37
ATOM     37  C   LIG d   1       3.796  -2.148  -2.297  0.00  0.00    -0.011 C 
ATOM     38  H   LIG d   1       4.267  -2.337  -1.332  0.00  0.00     0.028 H 
ATOM     39  H   LIG d   1       2.758  -1.855  -2.143  0.00  0.00     0.028 H 
ATOM     40  H   LIG d   1       3.832  -3.053  -2.902  0.00  0.00     0.028 H 
ENDBRANCH   1  37
BRANCH  16  41
ATOM     41  C   LIG d   1       4.284  -0.951  -9.643  0.00  0.00    -0.011 C 
ATOM     42  H   LIG d   1       3.641  -1.823  -9.764  0.00  0.00     0.028 H 
ATOM     43  H   LIG d   1       4.175  -0.295 -10.507  0.00  0.00     0.028 H 
ATOM     44  H   LIG d   1       5.323  -1.275  -9.563  0.00  0.00     0.028 H 
ENDBRANCH  16  41
BRANCH  16  45
ATOM     45  C   LIG d   1       2.620   0.622  -8.638  0.00  0.00    -0.011 C 
ATOM     46  H   LIG d   1       1.743   0.033  -8.369  0.00  0.00     0.028 H 
ATOM     47  H   LIG d   1       2.645   1.532  -8.038  0.00  0.00     0.028 H 
ATOM     48  H   LIG d   1       2.572   0.885  -9.694  0.00  0.00     0.028 H 
ENDBRANCH  16  45
TORSDOF 7
ENDMDL
MODEL 5
REMARK VINA RESULT:      -5.9      4.272      6.559
REMARK  7 active torsions:
REMARK  status: ('A' for Active; 'I' for Inactive)
REMARK    1  A    between atoms: C_1  and  C_2 
REMARK    2  A    between atoms: C_2  and  C_30 
REMARK    3  A    between atoms: C_6  and  C_21 
REMARK    4  A    between atoms: C_17  and  C_19 
REMARK    5  A    between atoms: C_17  and  C_20 
REMARK    6  A    between atoms: C_21  and  N_22 
REMARK       I    between atoms: N_22  and  C_23 
REMARK    7  A    between atoms: C_23  and  C_25 
ROOT
ATOM      1  C   LIG d   1       9.484   1.869  -9.468  0.00  0.00     0.166 C 
ATOM      2  O   LIG d   1       9.523   1.824  -8.034  0.00  0.00    -0.341 OA
ATOM      3  C   LIG d   1       8.152   1.707  -7.575  0.00  0.00     0.118 C 
ATOM      4  H   LIG d   1       7.972   2.258  -6.652  0.00  0.00     0.065 H 
ATOM      5  C   LIG d   1       7.869   0.218  -7.400  0.00  0.00     0.106 C 
ATOM      6  H   LIG d   1       8.412  -0.333  -8.168  0.00  0.00     0.064 H 
ATOM      7  O   LIG d   1       6.478  -0.110  -7.499  0.00  0.00    -0.341 OA
ATOM      8  C   LIG d   1       5.953   0.287  -8.752  0.00  0.00     0.191 C 
ATOM      9  H   LIG d   1       6.583  -0.077  -9.565  0.00  0.00     0.094 H 
ATOM     10  C   LIG d   1       5.946   1.840  -8.739  0.00  0.00     0.141 C 
ATOM     11  H   LIG d   1       5.454   2.199  -7.835  0.00  0.00     0.068 H 
ATOM     12  C   LIG d   1       7.370   2.317  -8.765  0.00  0.00     0.121 C 
ATOM     13  H   LIG d   1       7.406   3.404  -8.725  0.00  0.00     0.065 H 
ATOM     14  O   LIG d   1       8.109   1.819  -9.896  0.00  0.00    -0.341 OA
ATOM     15  O   LIG d   1       5.131   2.117  -9.878  0.00  0.00    -0.338 OA
ATOM     16  C   LIG d   1       4.085   1.117  -9.788  0.00  0.00     0.168 C 
ATOM     17  O   LIG d   1       4.587  -0.008  -9.031  0.00  0.00    -0.318 OA
ENDROOT
BRANCH   5  18
ATOM     18  C   LIG d   1       8.381  -0.222  -6.028  0.00  0.00     0.041 C 
ATOM     19  H   LIG d   1       9.098   0.509  -5.655  0.00  0.00     0.049 H 
ATOM     20  H   LIG d   1       8.867  -1.195  -6.116  0.00  0.00     0.049 H 
BRANCH  18  21
ATOM     21  N   LIG d   1       7.256  -0.322  -5.095  0.00  0.00    -0.306 N 
ATOM     22  C   LIG d   1       7.191   0.498  -4.027  0.00  0.00     0.279 C 
ATOM     23  O   LIG d   1       8.069   1.318  -3.835  0.00  0.00    -0.267 OA
ATOM     24  H   LIG d   1       6.558  -0.979  -5.246  0.00  0.00     0.149 HD
BRANCH  22  25
ATOM     25  C   LIG d   1       6.065   0.398  -3.093  0.00  0.00     0.189 A 
ATOM     26  O   LIG d   1       5.485   1.424  -2.438  0.00  0.00    -0.458 OA
ATOM     27  C   LIG d   1       4.488   0.958  -1.675  0.00  0.00     0.093 A 
ATOM     28  C   LIG d   1       4.417  -0.384  -1.824  0.00  0.00    -0.023 A 
ATOM     29  H   LIG d   1       3.847   1.554  -1.043  0.00  0.00     0.103 H 
ATOM     30  C   LIG d   1       5.423  -0.752  -2.730  0.00  0.00    -0.011 A 
ATOM     31  H   LIG d   1       3.718  -1.047  -1.337  0.00  0.00     0.065 H 
ATOM     32  H   LIG d   1       5.648  -1.751  -3.075  0.00  0.00     0.066 H 
ENDBRANCH  22  25
ENDBRANCH  18  21
ENDBRANCH   5  18
BRANCH   1  33
ATOM     33  C   LIG d   1      10.244   0.671 -10.041  0.00  0.00    -0.011 C 
ATOM     34  H   LIG d   1      10.833   0.992 -10.901  0.00  0.00     0.028 H 
ATOM     35  H   LIG d   1      10.909   0.265  -9.278  0.00  0.00     0.028 H 
ATOM     36  H   LIG d   1       9.535  -0.096 -10.352  0.00  0.00     0.028 H 
ENDBRANCH   1  33
BRANCH   1  37
ATOM     37  C   LIG d   1      10.128   3.168  -9.957  0.00  0.00    -0.011 C 
ATOM     38  H   LIG d   1      11.209   3.107  -9.831  0.00  0.00     0.028 H 
ATOM     39  H   LIG d   1       9.893   3.315 -11.011  0.00  0.00     0.028 H 
ATOM     40  H   LIG d   1       9.741   4.005  -9.378  0.00  0.00     0.028 H 
ENDBRANCH   1  37
BRANCH  16  41
ATOM     41  C   LIG d   1       2.865   1.710  -9.081  0.00  0.00    -0.011 C 
ATOM     42  H   LIG d   1       2.510   1.012  -8.323  0.00  0.00     0.028 H 
ATOM     43  H   LIG d   1       3.141   2.652  -8.607  0.00  0.00     0.028 H 
ATOM     44  H   LIG d   1       2.073   1.889  -9.810  0.00  0.00     0.028 H 
ENDBRANCH  16  41
BRANCH  16  45
ATOM     45  C   LIG d   1       3.692   0.655 -11.193  0.00  0.00    -0.011 C 
ATOM     46  H   LIG d   1       4.267   1.212 -11.934  0.00  0.00     0.028 H 
ATOM     47  H   LIG d   1       3.900  -0.410 -11.297  0.00  0.00     0.028 H 
ATOM     48  H   LIG d   1       2.629   0.834 -11.350  0.00  0.00     0.028 H 
ENDBRANCH  16  45
TORSDOF 7
ENDMDL
MODEL 6
REMARK VINA RESULT:      -5.9      2.637      6.139
REMARK  7 active torsions:
REMARK  status: ('A' for Active; 'I' for Inactive)
REMARK    1  A    between atoms: C_1  and  C_2 
REMARK    2  A    between atoms: C_2  and  C_30 
REMARK    3  A    between atoms: C_6  and  C_21 
REMARK    4  A    between atoms: C_17  and  C_19 
REMARK    5  A    between atoms: C_17  and  C_20 
REMARK    6  A    between atoms: C_21  and  N_22 
REMARK       I    between atoms: N_22  and  C_23 
REMARK    7  A    between atoms: C_23  and  C_25 
ROOT
ATOM      1  C   LIG d   1       4.921  -1.183  -3.031  0.00  0.00     0.166 C 
ATOM      2  O   LIG d   1       4.585  -0.957  -4.408  0.00  0.00    -0.341 OA
ATOM      3  C   LIG d   1       5.611  -1.600  -5.206  0.00  0.00     0.118 C 
ATOM      4  H   LIG d   1       5.848  -1.042  -6.111  0.00  0.00     0.065 H 
ATOM      5  C   LIG d   1       5.103  -3.002  -5.533  0.00  0.00     0.106 C 
ATOM      6  H   LIG d   1       4.525  -3.371  -4.686  0.00  0.00     0.064 H 
ATOM      7  O   LIG d   1       6.154  -3.935  -5.810  0.00  0.00    -0.341 OA
ATOM      8  C   LIG d   1       7.040  -4.041  -4.711  0.00  0.00     0.191 C 
ATOM      9  H   LIG d   1       6.486  -4.214  -3.788  0.00  0.00     0.094 H 
ATOM     10  C   LIG d   1       7.788  -2.682  -4.635  0.00  0.00     0.141 C 
ATOM     11  H   LIG d   1       8.204  -2.435  -5.612  0.00  0.00     0.068 H 
ATOM     12  C   LIG d   1       6.805  -1.625  -4.220  0.00  0.00     0.121 C 
ATOM     13  H   LIG d   1       7.289  -0.650  -4.187  0.00  0.00     0.065 H 
ATOM     14  O   LIG d   1       6.156  -1.921  -2.970  0.00  0.00    -0.341 OA
ATOM     15  O   LIG d   1       8.842  -3.004  -3.727  0.00  0.00    -0.338 OA
ATOM     16  C   LIG d   1       9.239  -4.336  -4.137  0.00  0.00     0.168 C 
ATOM     17  O   LIG d   1       8.121  -4.964  -4.806  0.00  0.00    -0.318 OA
ENDROOT
BRANCH   5  18
ATOM     18  C   LIG d   1       4.185  -2.921  -6.754  0.00  0.00     0.041 C 
ATOM     19  H   LIG d   1       3.182  -3.244  -6.476  0.00  0.00     0.049 H 
ATOM     20  H   LIG d   1       4.570  -3.568  -7.542  0.00  0.00     0.049 H 
BRANCH  18  21
ATOM     21  N   LIG d   1       4.136  -1.539  -7.238  0.00  0.00    -0.306 N 
ATOM     22  C   LIG d   1       3.510  -1.252  -8.397  0.00  0.00     0.279 C 
ATOM     23  O   LIG d   1       2.988  -2.142  -9.043  0.00  0.00    -0.267 OA
ATOM     24  H   LIG d   1       4.556  -0.830  -6.725  0.00  0.00     0.149 HD
BRANCH  22  25
ATOM     25  C   LIG d   1       3.461   0.131  -8.881  0.00  0.00     0.189 A 
ATOM     26  O   LIG d   1       3.907   0.569 -10.076  0.00  0.00    -0.458 OA
ATOM     27  C   LIG d   1       3.697   1.887 -10.173  0.00  0.00     0.093 A 
ATOM     28  C   LIG d   1       3.118   2.321  -9.031  0.00  0.00    -0.023 A 
ATOM     29  H   LIG d   1       3.952   2.505 -11.022  0.00  0.00     0.103 H 
ATOM     30  C   LIG d   1       2.963   1.203  -8.198  0.00  0.00    -0.011 A 
ATOM     31  H   LIG d   1       2.829   3.336  -8.804  0.00  0.00     0.065 H 
ATOM     32  H   LIG d   1       2.532   1.192  -7.207  0.00  0.00     0.066 H 
ENDBRANCH  22  25
ENDBRANCH  18  21
ENDBRANCH   5  18
BRANCH   1  33
ATOM     33  C   LIG d   1       3.808  -1.986  -2.354  0.00  0.00    -0.011 C 
ATOM     34  H   LIG d   1       4.044  -3.049  -2.407  0.00  0.00     0.028 H 
ATOM     35  H   LIG d   1       3.726  -1.684  -1.310  0.00  0.00     0.028 H 
ATOM     36  H   LIG d   1       2.863  -1.798  -2.863  0.00  0.00     0.028 H 
ENDBRANCH   1  33
BRANCH   1  37
ATOM     37  C   LIG d   1       5.090   0.161  -2.319  0.00  0.00    -0.011 C 
ATOM     38  H   LIG d   1       4.796   0.968  -2.992  0.00  0.00     0.028 H 
ATOM     39  H   LIG d   1       4.461   0.184  -1.430  0.00  0.00     0.028 H 
ATOM     40  H   LIG d   1       6.132   0.291  -2.030  0.00  0.00     0.028 H 
ENDBRANCH   1  37
BRANCH  16  41
ATOM     41  C   LIG d   1      10.428  -4.247  -5.095  0.00  0.00    -0.011 C 
ATOM     42  H   LIG d   1      10.156  -3.634  -5.955  0.00  0.00     0.028 H 
ATOM     43  H   LIG d   1      11.277  -3.797  -4.581  0.00  0.00     0.028 H 
ATOM     44  H   LIG d   1      10.698  -5.248  -5.434  0.00  0.00     0.028 H 
ENDBRANCH  16  41
BRANCH  16  45
ATOM     45  C   LIG d   1       9.629  -5.160  -2.908  0.00  0.00    -0.011 C 
ATOM     46  H   LIG d   1       8.803  -5.817  -2.634  0.00  0.00     0.028 H 
ATOM     47  H   LIG d   1      10.510  -5.758  -3.136  0.00  0.00     0.028 H 
ATOM     48  H   LIG d   1       9.850  -4.490  -2.078  0.00  0.00     0.028 H 
ENDBRANCH  16  45
TORSDOF 7
ENDMDL
MODEL 7
REMARK VINA RESULT:      -5.9      6.300      9.523
REMARK  7 active torsions:
REMARK  status: ('A' for Active; 'I' for Inactive)
REMARK    1  A    between atoms: C_1  and  C_2 
REMARK    2  A    between atoms: C_2  and  C_30 
REMARK    3  A    between atoms: C_6  and  C_21 
REMARK    4  A    between atoms: C_17  and  C_19 
REMARK    5  A    between atoms: C_17  and  C_20 
REMARK    6  A    between atoms: C_21  and  N_22 
REMARK       I    between atoms: N_22  and  C_23 
REMARK    7  A    between atoms: C_23  and  C_25 
ROOT
ATOM      1  C   LIG d   1      11.227   5.178  -6.232  0.00  0.00     0.166 C 
ATOM      2  O   LIG d   1      11.316   3.763  -6.006  0.00  0.00    -0.341 OA
ATOM      3  C   LIG d   1      11.342   3.564  -4.570  0.00  0.00     0.118 C 
ATOM      4  H   LIG d   1      11.989   2.739  -4.273  0.00  0.00     0.065 H 
ATOM      5  C   LIG d   1       9.900   3.327  -4.130  0.00  0.00     0.106 C 
ATOM      6  H   LIG d   1       9.240   3.932  -4.753  0.00  0.00     0.064 H 
ATOM      7  O   LIG d   1       9.663   3.660  -2.757  0.00  0.00    -0.341 OA
ATOM      8  C   LIG d   1       9.975   5.018  -2.505  0.00  0.00     0.191 C 
ATOM      9  H   LIG d   1       9.492   5.665  -3.238  0.00  0.00     0.094 H 
ATOM     10  C   LIG d   1      11.519   5.131  -2.633  0.00  0.00     0.141 C 
ATOM     11  H   LIG d   1      11.997   4.368  -2.018  0.00  0.00     0.068 H 
ATOM     12  C   LIG d   1      11.889   4.926  -4.074  0.00  0.00     0.121 C 
ATOM     13  H   LIG d   1      12.970   4.967  -4.197  0.00  0.00     0.065 H 
ATOM     14  O   LIG d   1      11.234   5.852  -4.960  0.00  0.00    -0.341 OA
ATOM     15  O   LIG d   1      11.744   6.422  -2.066  0.00  0.00    -0.338 OA
ATOM     16  C   LIG d   1      10.834   6.452  -0.937  0.00  0.00     0.168 C 
ATOM     17  O   LIG d   1       9.754   5.526  -1.193  0.00  0.00    -0.318 OA
ENDROOT
BRANCH   5  18
ATOM     18  C   LIG d   1       9.556   1.852  -4.342  0.00  0.00     0.041 C 
ATOM     19  H   LIG d   1      10.425   1.238  -4.100  0.00  0.00     0.049 H 
ATOM     20  H   LIG d   1       9.277   1.690  -5.384  0.00  0.00     0.049 H 
BRANCH  18  21
ATOM     21  N   LIG d   1       8.438   1.479  -3.473  0.00  0.00    -0.306 N 
ATOM     22  C   LIG d   1       7.264   1.093  -4.012  0.00  0.00     0.279 C 
ATOM     23  O   LIG d   1       7.132   1.057  -5.221  0.00  0.00    -0.267 OA
ATOM     24  H   LIG d   1       8.542   1.511  -2.508  0.00  0.00     0.149 HD
BRANCH  22  25
ATOM     25  C   LIG d   1       6.145   0.720  -3.141  0.00  0.00     0.189 A 
ATOM     26  O   LIG d   1       5.438   1.558  -2.356  0.00  0.00    -0.458 OA
ATOM     27  C   LIG d   1       4.493   0.868  -1.705  0.00  0.00     0.093 A 
ATOM     28  C   LIG d   1       4.586  -0.434  -2.058  0.00  0.00    -0.023 A 
ATOM     29  H   LIG d   1       3.777   1.281  -1.010  0.00  0.00     0.103 H 
ATOM     30  C   LIG d   1       5.641  -0.539  -2.977  0.00  0.00    -0.011 A 
ATOM     31  H   LIG d   1       3.964  -1.241  -1.699  0.00  0.00     0.065 H 
ATOM     32  H   LIG d   1       5.988  -1.440  -3.461  0.00  0.00     0.066 H 
ENDBRANCH  22  25
ENDBRANCH  18  21
ENDBRANCH   5  18
BRANCH   1  33
ATOM     33  C   LIG d   1       9.929   5.498  -6.976  0.00  0.00    -0.011 C 
ATOM     34  H   LIG d   1       9.933   4.999  -7.946  0.00  0.00     0.028 H 
ATOM     35  H   LIG d   1       9.079   5.146  -6.392  0.00  0.00     0.028 H 
ATOM     36  H   LIG d   1       9.849   6.575  -7.122  0.00  0.00     0.028 H 
ENDBRANCH   1  33
BRANCH   1  37
ATOM     37  C   LIG d   1      12.424   5.639  -7.066  0.00  0.00    -0.011 C 
ATOM     38  H   LIG d   1      13.045   4.778  -7.317  0.00  0.00     0.028 H 
ATOM     39  H   LIG d   1      12.069   6.111  -7.982  0.00  0.00     0.028 H 
ATOM     40  H   LIG d   1      13.012   6.355  -6.493  0.00  0.00     0.028 H 
ENDBRANCH   1  37
BRANCH  16  41
ATOM     41  C   LIG d   1      11.577   6.038   0.334  0.00  0.00    -0.011 C 
ATOM     42  H   LIG d   1      12.445   6.683   0.474  0.00  0.00     0.028 H 
ATOM     43  H   LIG d   1      10.911   6.133   1.192  0.00  0.00     0.028 H 
ATOM     44  H   LIG d   1      11.906   5.002   0.243  0.00  0.00     0.028 H 
ENDBRANCH  16  41
BRANCH  16  45
ATOM     45  C   LIG d   1      10.270   7.864  -0.768  0.00  0.00    -0.011 C 
ATOM     46  H   LIG d   1       9.779   7.946   0.203  0.00  0.00     0.028 H 
ATOM     47  H   LIG d   1      11.081   8.589  -0.826  0.00  0.00     0.028 H 
ATOM     48  H   LIG d   1       9.547   8.063  -1.558  0.00  0.00     0.028 H 
ENDBRANCH  16  45
TORSDOF 7
ENDMDL
MODEL 8
REMARK VINA RESULT:      -5.7      1.992      4.274
REMARK  7 active torsions:
REMARK  status: ('A' for Active; 'I' for Inactive)
REMARK    1  A    between atoms: C_1  and  C_2 
REMARK    2  A    between atoms: C_2  and  C_30 
REMARK    3  A    between atoms: C_6  and  C_21 
REMARK    4  A    between atoms: C_17  and  C_19 
REMARK    5  A    between atoms: C_17  and  C_20 
REMARK    6  A    between atoms: C_21  and  N_22 
REMARK       I    between atoms: N_22  and  C_23 
REMARK    7  A    between atoms: C_23  and  C_25 
ROOT
ATOM      1  C   LIG d   1       6.589   0.300  -7.798  0.00  0.00     0.166 C 
ATOM      2  O   LIG d   1       6.590  -1.115  -8.033  0.00  0.00    -0.341 OA
ATOM      3  C   LIG d   1       6.098  -1.748  -6.825  0.00  0.00     0.118 C 
ATOM      4  H   LIG d   1       6.595  -2.695  -6.615  0.00  0.00     0.065 H 
ATOM      5  C   LIG d   1       4.594  -1.935  -7.004  0.00  0.00     0.106 C 
ATOM      6  H   LIG d   1       4.203  -1.094  -7.577  0.00  0.00     0.064 H 
ATOM      7  O   LIG d   1       3.880  -2.014  -5.764  0.00  0.00    -0.341 OA
ATOM      8  C   LIG d   1       4.082  -0.846  -4.990  0.00  0.00     0.191 C 
ATOM      9  H   LIG d   1       3.895   0.047  -5.586  0.00  0.00     0.094 H 
ATOM     10  C   LIG d   1       5.569  -0.884  -4.542  0.00  0.00     0.141 C 
ATOM     11  H   LIG d   1       5.794  -1.850  -4.089  0.00  0.00     0.068 H 
ATOM     12  C   LIG d   1       6.432  -0.679  -5.754  0.00  0.00     0.121 C 
ATOM     13  H   LIG d   1       7.485  -0.731  -5.482  0.00  0.00     0.065 H 
ATOM     14  O   LIG d   1       6.139   0.545  -6.452  0.00  0.00    -0.341 OA
ATOM     15  O   LIG d   1       5.576   0.134  -3.540  0.00  0.00    -0.338 OA
ATOM     16  C   LIG d   1       4.322  -0.076  -2.844  0.00  0.00     0.168 C 
ATOM     17  O   LIG d   1       3.405  -0.743  -3.741  0.00  0.00    -0.318 OA
ENDROOT
BRANCH   5  18
ATOM     18  C   LIG d   1       4.349  -3.222  -7.793  0.00  0.00     0.041 C 
ATOM     19  H   LIG d   1       4.680  -3.086  -8.823  0.00  0.00     0.049 H 
ATOM     20  H   LIG d   1       3.285  -3.459  -7.783  0.00  0.00     0.049 H 
BRANCH  18  21
ATOM     21  N   LIG d   1       5.099  -4.322  -7.181  0.00  0.00    -0.306 N 
ATOM     22  C   LIG d   1       4.445  -5.302  -6.525  0.00  0.00     0.279 C 
ATOM     23  O   LIG d   1       3.232  -5.270  -6.438  0.00  0.00    -0.267 OA
ATOM     24  H   LIG d   1       6.067  -4.345  -7.248  0.00  0.00     0.149 HD
BRANCH  22  25
ATOM     25  C   LIG d   1       5.196  -6.402  -5.913  0.00  0.00     0.189 A 
ATOM     26  O   LIG d   1       4.671  -7.538  -5.413  0.00  0.00    -0.458 OA
ATOM     27  C   LIG d   1       5.655  -8.313  -4.939  0.00  0.00     0.093 A 
ATOM     28  C   LIG d   1       6.834  -7.677  -5.120  0.00  0.00    -0.023 A 
ATOM     29  H   LIG d   1       5.529  -9.283  -4.482  0.00  0.00     0.103 H 
ATOM     30  C   LIG d   1       6.551  -6.452  -5.744  0.00  0.00    -0.011 A 
ATOM     31  H   LIG d   1       7.811  -8.043  -4.839  0.00  0.00     0.065 H 
ATOM     32  H   LIG d   1       7.264  -5.695  -6.035  0.00  0.00     0.066 H 
ENDBRANCH  22  25
ENDBRANCH  18  21
ENDBRANCH   5  18
BRANCH   1  33
ATOM     33  C   LIG d   1       5.645   0.985  -8.788  0.00  0.00    -0.011 C 
ATOM     34  H   LIG d   1       4.635   0.596  -8.655  0.00  0.00     0.028 H 
ATOM     35  H   LIG d   1       5.647   2.060  -8.606  0.00  0.00     0.028 H 
ATOM     36  H   LIG d   1       5.980   0.788  -9.806  0.00  0.00     0.028 H 
ENDBRANCH   1  33
BRANCH   1  37
ATOM     37  C   LIG d   1       8.006   0.850  -7.974  0.00  0.00    -0.011 C 
ATOM     38  H   LIG d   1       8.416   0.499  -8.922  0.00  0.00     0.028 H 
ATOM     39  H   LIG d   1       7.977   1.939  -7.973  0.00  0.00     0.028 H 
ATOM     40  H   LIG d   1       8.635   0.502  -7.156  0.00  0.00     0.028 H 
ENDBRANCH   1  37
BRANCH  16  41
ATOM     41  C   LIG d   1       4.558  -0.945  -1.609  0.00  0.00    -0.011 C 
ATOM     42  H   LIG d   1       3.689  -1.581  -1.440  0.00  0.00     0.028 H 
ATOM     43  H   LIG d   1       5.440  -1.567  -1.764  0.00  0.00     0.028 H 
ATOM     44  H   LIG d   1       4.715  -0.306  -0.738  0.00  0.00     0.028 H 
ENDBRANCH  16  41
BRANCH  16  45
ATOM     45  C   LIG d   1       3.735   1.273  -2.421  0.00  0.00    -0.011 C 
ATOM     46  H   LIG d   1       2.736   1.122  -2.011  0.00  0.00     0.028 H 
ATOM     47  H   LIG d   1       4.374   1.725  -1.663  0.00  0.00     0.028 H 
ATOM     48  H   LIG d   1       3.677   1.931  -3.288  0.00  0.00     0.028 H 
ENDBRANCH  16  45
TORSDOF 7
ENDMDL
MODEL 9
REMARK VINA RESULT:      -5.7      2.242      4.644
REMARK  7 active torsions:
REMARK  status: ('A' for Active; 'I' for Inactive)
REMARK    1  A    between atoms: C_1  and  C_2 
REMARK    2  A    between atoms: C_2  and  C_30 
REMARK    3  A    between atoms: C_6  and  C_21 
REMARK    4  A    between atoms: C_17  and  C_19 
REMARK    5  A    between atoms: C_17  and  C_20 
REMARK    6  A    between atoms: C_21  and  N_22 
REMARK       I    between atoms: N_22  and  C_23 
REMARK    7  A    between atoms: C_23  and  C_25 
ROOT
ATOM      1  C   LIG d   1       6.263   0.453  -8.265  0.00  0.00     0.166 C 
ATOM      2  O   LIG d   1       5.481  -0.547  -8.935  0.00  0.00    -0.341 OA
ATOM      3  C   LIG d   1       4.521  -1.052  -7.973  0.00  0.00     0.118 C 
ATOM      4  H   LIG d   1       4.333  -2.119  -8.089  0.00  0.00     0.065 H 
ATOM      5  C   LIG d   1       3.243  -0.237  -8.154  0.00  0.00     0.106 C 
ATOM      6  H   LIG d   1       3.514   0.785  -8.421  0.00  0.00     0.064 H 
ATOM      7  O   LIG d   1       2.422  -0.201  -6.981  0.00  0.00    -0.341 OA
ATOM      8  C   LIG d   1       3.132   0.346  -5.884  0.00  0.00     0.191 C 
ATOM      9  H   LIG d   1       3.600   1.290  -6.163  0.00  0.00     0.094 H 
ATOM     10  C   LIG d   1       4.220  -0.700  -5.519  0.00  0.00     0.141 C 
ATOM     11  H   LIG d   1       3.764  -1.683  -5.401  0.00  0.00     0.068 H 
ATOM     12  C   LIG d   1       5.229  -0.739  -6.631  0.00  0.00     0.121 C 
ATOM     13  H   LIG d   1       5.993  -1.486  -6.423  0.00  0.00     0.065 H 
ATOM     14  O   LIG d   1       5.822   0.545  -6.897  0.00  0.00    -0.341 OA
ATOM     15  O   LIG d   1       4.650  -0.210  -4.248  0.00  0.00    -0.338 OA
ATOM     16  C   LIG d   1       3.413   0.201  -3.614  0.00  0.00     0.168 C 
ATOM     17  O   LIG d   1       2.443   0.494  -4.646  0.00  0.00    -0.318 OA
ENDROOT
BRANCH   5  18
ATOM     18  C   LIG d   1       2.432  -0.843  -9.301  0.00  0.00     0.041 C 
ATOM     19  H   LIG d   1       2.710  -0.359 -10.238  0.00  0.00     0.049 H 
ATOM     20  H   LIG d   1       1.369  -0.690  -9.115  0.00  0.00     0.049 H 
BRANCH  18  21
ATOM     21  N   LIG d   1       2.710  -2.278  -9.393  0.00  0.00    -0.306 N 
ATOM     22  C   LIG d   1       1.908  -3.076 -10.126  0.00  0.00     0.279 C 
ATOM     23  O   LIG d   1       0.951  -2.603 -10.710  0.00  0.00    -0.267 OA
ATOM     24  H   LIG d   1       3.472  -2.655  -8.924  0.00  0.00     0.149 HD
BRANCH  22  25
ATOM     25  C   LIG d   1       2.187  -4.512 -10.217  0.00  0.00     0.189 A 
ATOM     26  O   LIG d   1       2.802  -5.261  -9.279  0.00  0.00    -0.458 OA
ATOM     27  C   LIG d   1       2.882  -6.528  -9.704  0.00  0.00     0.093 A 
ATOM     28  C   LIG d   1       2.324  -6.611 -10.932  0.00  0.00    -0.023 A 
ATOM     29  H   LIG d   1       3.322  -7.349  -9.157  0.00  0.00     0.103 H 
ATOM     30  C   LIG d   1       1.876  -5.325 -11.270  0.00  0.00    -0.011 A 
ATOM     31  H   LIG d   1       2.239  -7.500 -11.540  0.00  0.00     0.065 H 
ATOM     32  H   LIG d   1       1.382  -5.033 -12.185  0.00  0.00     0.066 H 
ENDBRANCH  22  25
ENDBRANCH  18  21
ENDBRANCH   5  18
BRANCH   1  33
ATOM     33  C   LIG d   1       6.072   1.804  -8.959  0.00  0.00    -0.011 C 
ATOM     34  H   LIG d   1       6.836   1.928  -9.727  0.00  0.00     0.028 H 
ATOM     35  H   LIG d   1       5.085   1.840  -9.419  0.00  0.00     0.028 H 
ATOM     36  H   LIG d   1       6.162   2.605  -8.226  0.00  0.00     0.028 H 
ENDBRANCH   1  33
BRANCH   1  37
ATOM     37  C   LIG d   1       7.741   0.059  -8.305  0.00  0.00    -0.011 C 
ATOM     38  H   LIG d   1       7.875  -0.898  -7.798  0.00  0.00     0.028 H 
ATOM     39  H   LIG d   1       8.066  -0.031  -9.341  0.00  0.00     0.028 H 
ATOM     40  H   LIG d   1       8.334   0.822  -7.802  0.00  0.00     0.028 H 
ENDBRANCH   1  37
BRANCH  16  41
ATOM     41  C   LIG d   1       2.891  -0.928  -2.724  0.00  0.00    -0.011 C 
ATOM     42  H   LIG d   1       3.728  -1.402  -2.211  0.00  0.00     0.028 H 
ATOM     43  H   LIG d   1       2.197  -0.520  -1.989  0.00  0.00     0.028 H 
ATOM     44  H   LIG d   1       2.376  -1.668  -3.338  0.00  0.00     0.028 H 
ENDBRANCH  16  41
BRANCH  16  45
ATOM     45  C   LIG d   1       3.657   1.453  -2.769  0.00  0.00    -0.011 C 
ATOM     46  H   LIG d   1       3.933   1.160  -1.756  0.00  0.00     0.028 H 
ATOM     47  H   LIG d   1       4.464   2.038  -3.211  0.00  0.00     0.028 H 
ATOM     48  H   LIG d   1       2.748   2.053  -2.739  0.00  0.00     0.028 H 
ENDBRANCH  16  45
TORSDOF 7
ENDMDL
MODEL 10
REMARK VINA RESULT:      -5.6      2.303      5.363
REMARK  7 active torsions:
REMARK  status: ('A' for Active; 'I' for Inactive)
REMARK    1  A    between atoms: C_1  and  C_2 
REMARK    2  A    between atoms: C_2  and  C_30 
REMARK    3  A    between atoms: C_6  and  C_21 
REMARK    4  A    between atoms: C_17  and  C_19 
REMARK    5  A    between atoms: C_17  and  C_20 
REMARK    6  A    between atoms: C_21  and  N_22 
REMARK       I    between atoms: N_22  and  C_23 
REMARK    7  A    between atoms: C_23  and  C_25 
ROOT
ATOM      1  C   LIG d   1       5.586  -3.951  -5.490  0.00  0.00     0.166 C 
ATOM      2  O   LIG d   1       5.382  -3.419  -6.807  0.00  0.00    -0.341 OA
ATOM      3  C   LIG d   1       4.888  -2.065  -6.648  0.00  0.00     0.118 C 
ATOM      4  H   LIG d   1       4.153  -1.795  -7.406  0.00  0.00     0.065 H 
ATOM      5  C   LIG d   1       6.103  -1.142  -6.695  0.00  0.00     0.106 C 
ATOM      6  H   LIG d   1       6.947  -1.652  -6.230  0.00  0.00     0.064 H 
ATOM      7  O   LIG d   1       5.895   0.105  -6.022  0.00  0.00    -0.341 OA
ATOM      8  C   LIG d   1       5.562  -0.104  -4.662  0.00  0.00     0.191 C 
ATOM      9  H   LIG d   1       6.277  -0.780  -4.192  0.00  0.00     0.094 H 
ATOM     10  C   LIG d   1       4.147  -0.743  -4.663  0.00  0.00     0.141 C 
ATOM     11  H   LIG d   1       3.472  -0.143  -5.274  0.00  0.00     0.068 H 
ATOM     12  C   LIG d   1       4.255  -2.127  -5.235  0.00  0.00     0.121 C 
ATOM     13  H   LIG d   1       3.273  -2.596  -5.280  0.00  0.00     0.065 H 
ATOM     14  O   LIG d   1       5.190  -2.958  -4.524  0.00  0.00    -0.341 OA
ATOM     15  O   LIG d   1       3.793  -0.619  -3.285  0.00  0.00    -0.338 OA
ATOM     16  C   LIG d   1       4.291   0.696  -2.931  0.00  0.00     0.168 C 
ATOM     17  O   LIG d   1       5.365   1.040  -3.836  0.00  0.00    -0.318 OA
ENDROOT
BRANCH   5  18
ATOM     18  C   LIG d   1       6.448  -0.858  -8.158  0.00  0.00     0.041 C 
ATOM     19  H   LIG d   1       7.305  -1.465  -8.454  0.00  0.00     0.049 H 
ATOM     20  H   LIG d   1       6.694   0.197  -8.275  0.00  0.00     0.049 H 
BRANCH  18  21
ATOM     21  N   LIG d   1       5.300  -1.189  -9.005  0.00  0.00    -0.306 N 
ATOM     22  C   LIG d   1       4.509  -0.207  -9.482  0.00  0.00     0.279 C 
ATOM     23  O   LIG d   1       4.746   0.954  -9.206  0.00  0.00    -0.267 OA
ATOM     24  H   LIG d   1       5.108  -2.115  -9.222  0.00  0.00     0.149 HD
BRANCH  22  25
ATOM     25  C   LIG d   1       3.359  -0.539 -10.330  0.00  0.00     0.189 A 
ATOM     26  O   LIG d   1       3.414  -0.968 -11.607  0.00  0.00    -0.458 OA
ATOM     27  C   LIG d   1       2.171  -1.173 -12.061  0.00  0.00     0.093 A 
ATOM     28  C   LIG d   1       1.294  -0.869 -11.079  0.00  0.00    -0.023 A 
ATOM     29  H   LIG d   1       1.911  -1.520 -13.050  0.00  0.00     0.103 H 
ATOM     30  C   LIG d   1       2.045  -0.462  -9.966  0.00  0.00    -0.011 A 
ATOM     31  H   LIG d   1       0.217  -0.928 -11.140  0.00  0.00     0.065 H 
ATOM     32  H   LIG d   1       1.660  -0.148  -9.007  0.00  0.00     0.066 H 
ENDBRANCH  22  25
ENDBRANCH  18  21
ENDBRANCH   5  18
BRANCH   1  33
ATOM     33  C   LIG d   1       7.064  -4.295  -5.297  0.00  0.00    -0.011 C 
ATOM     34  H   LIG d   1       7.307  -5.189  -5.873  0.00  0.00     0.028 H 
ATOM     35  H   LIG d   1       7.678  -3.463  -5.642  0.00  0.00     0.028 H 
ATOM     36  H   LIG d   1       7.260  -4.479  -4.241  0.00  0.00     0.028 H 
ENDBRANCH   1  33
BRANCH   1  37
ATOM     37  C   LIG d   1       4.737  -5.211  -5.309  0.00  0.00    -0.011 C 
ATOM     38  H   LIG d   1       3.704  -4.927  -5.102  0.00  0.00     0.028 H 
ATOM     39  H   LIG d   1       4.773  -5.807  -6.221  0.00  0.00     0.028 H 
ATOM     40  H   LIG d   1       5.126  -5.795  -4.477  0.00  0.00     0.028 H 
ENDBRANCH   1  37
BRANCH  16  41
ATOM     41  C   LIG d   1       3.165   1.723  -3.056  0.00  0.00    -0.011 C 
ATOM     42  H   LIG d   1       2.892   1.838  -4.105  0.00  0.00     0.028 H 
ATOM     43  H   LIG d   1       2.297   1.384  -2.490  0.00  0.00     0.028 H 
ATOM     44  H   LIG d   1       3.502   2.683  -2.661  0.00  0.00     0.028 H 
ENDBRANCH  16  41
BRANCH  16  45
ATOM     45  C   LIG d   1       4.816   0.680  -1.494  0.00  0.00    -0.011 C 
ATOM     46  H   LIG d   1       4.541  -0.262  -1.017  0.00  0.00     0.028 H 
ATOM     47  H   LIG d   1       5.901   0.780  -1.503  0.00  0.00     0.028 H 
ATOM     48  H   LIG d   1       4.379   1.509  -0.939  0.00  0.00     0.028 H 
ENDBRANCH  16  45
TORSDOF 7
ENDMDL
