MODEL 1
REMARK VINA RESULT:      -5.8      0.000      0.000
REMARK  8 active torsions:
REMARK  status: ('A' for Active; 'I' for Inactive)
REMARK    1  A    between atoms: C_1  and  O_2 
REMARK    2  A    between atoms: O_2  and  C_3 
REMARK    3  A    between atoms: N_9  and  C_12 
REMARK    4  A    between atoms: C_12  and  C_13 
REMARK       I    between atoms: C_13  and  N_15 
REMARK    5  A    between atoms: N_15  and  C_16 
REMARK    6  A    between atoms: C_16  and  C_17 
REMARK    7  A    between atoms: C_17  and  O_19 
REMARK    8  A    between atoms: O_19  and  C_20 
ROOT
ATOM      1  C   LIG d   1       5.895   0.565  -3.679  0.00  0.00     0.144 A 
ATOM      2  C   LIG d   1       5.410   1.237  -2.573  0.00  0.00    -0.018 A 
ATOM      3  C   LIG d   1       4.559   0.603  -1.679  0.00  0.00    -0.058 A 
ATOM      4  C   LIG d   1       4.187  -0.697  -1.877  0.00  0.00    -0.052 A 
ATOM      5  C   LIG d   1       4.665  -1.396  -2.988  0.00  0.00     0.003 A 
ATOM      6  C   LIG d   1       5.526  -0.762  -3.899  0.00  0.00     0.092 A 
ATOM      7  N   LIG d   1       5.829  -1.682  -4.880  0.00  0.00    -0.335 N 
ATOM      8  C   LIG d   1       5.189  -2.863  -4.623  0.00  0.00     0.006 A 
ATOM      9  C   LIG d   1       4.474  -2.758  -3.492  0.00  0.00    -0.036 A 
ATOM     10  H   LIG d   1       5.695   2.264  -2.403  0.00  0.00     0.066 H 
ATOM     11  H   LIG d   1       4.189   1.141  -0.818  0.00  0.00     0.062 H 
ATOM     12  H   LIG d   1       3.525  -1.183  -1.175  0.00  0.00     0.062 H 
ATOM     13  H   LIG d   1       5.253  -3.748  -5.238  0.00  0.00     0.081 H 
ATOM     14  H   LIG d   1       3.868  -3.531  -3.042  0.00  0.00     0.064 H 
ENDROOT
BRANCH   7  15
ATOM     15  C   LIG d   1       6.703  -1.430  -6.029  0.00  0.00     0.100 C 
ATOM     16  H   LIG d   1       7.424  -0.639  -5.775  0.00  0.00     0.059 H 
ATOM     17  H   LIG d   1       7.244  -2.352  -6.288  0.00  0.00     0.059 H 
BRANCH  15  18
ATOM     18  C   LIG d   1       5.870  -0.990  -7.205  0.00  0.00     0.233 C 
ATOM     19  O   LIG d   1       5.523  -1.799  -8.040  0.00  0.00    -0.274 OA
ATOM     20  N   LIG d   1       5.511   0.304  -7.331  0.00  0.00    -0.303 N 
ATOM     21  H   LIG d   1       5.826   1.038  -6.575  0.00  0.00     0.149 HD
BRANCH  20  22
ATOM     22  C   LIG d   1       4.702   0.731  -8.475  0.00  0.00     0.109 C 
ATOM     23  H   LIG d   1       5.110   1.667  -8.884  0.00  0.00     0.058 H 
ATOM     24  H   LIG d   1       4.723  -0.048  -9.251  0.00  0.00     0.058 H 
BRANCH  22  25
ATOM     25  C   LIG d   1       3.280   0.957  -8.028  0.00  0.00     0.324 C 
ATOM     26  O   LIG d   1       2.897   2.074  -7.772  0.00  0.00    -0.249 OA
BRANCH  25  27
ATOM     27  O   LIG d   1       2.439  -0.083  -7.917  0.00  0.00    -0.467 OA
BRANCH  27  28
ATOM     28  C   LIG d   1       2.218  -0.884  -9.108  0.00  0.00     0.082 C 
ATOM     29  H   LIG d   1       1.245  -1.390  -9.035  0.00  0.00     0.066 H 
ATOM     30  H   LIG d   1       3.017  -1.636  -9.196  0.00  0.00     0.066 H 
ATOM     31  H   LIG d   1       2.229  -0.233  -9.995  0.00  0.00     0.066 H 
ENDBRANCH  27  28
ENDBRANCH  25  27
ENDBRANCH  22  25
ENDBRANCH  20  22
ENDBRANCH  15  18
ENDBRANCH   7  15
BRANCH   1  32
ATOM     32  O   LIG d   1       6.728   1.196  -4.550  0.00  0.00    -0.493 OA
BRANCH  32  33
ATOM     33  C   LIG d   1       7.893   1.813  -4.001  0.00  0.00     0.079 C 
ATOM     34  H   LIG d   1       8.561   2.127  -4.817  0.00  0.00     0.066 H 
ATOM     35  H   LIG d   1       8.419   1.095  -3.354  0.00  0.00     0.066 H 
ATOM     36  H   LIG d   1       7.599   2.693  -3.410  0.00  0.00     0.066 H 
ENDBRANCH  32  33
ENDBRANCH   1  32
TORSDOF 8
ENDMDL
MODEL 2
REMARK VINA RESULT:      -5.5      2.767      4.207
REMARK  8 active torsions:
REMARK  status: ('A' for Active; 'I' for Inactive)
REMARK    1  A    between atoms: C_1  and  O_2 
REMARK    2  A    between atoms: O_2  and  C_3 
REMARK    3  A    between atoms: N_9  and  C_12 
REMARK    4  A    between atoms: C_12  and  C_13 
REMARK       I    between atoms: C_13  and  N_15 
REMARK    5  A    between atoms: N_15  and  C_16 
REMARK    6  A    between atoms: C_16  and  C_17 
REMARK    7  A    between atoms: C_17  and  O_19 
REMARK    8  A    between atoms: O_19  and  C_20 
ROOT
ATOM      1  C   LIG d   1       5.130  -1.738  -4.320  0.00  0.00     0.144 A 
ATOM      2  C   LIG d   1       5.107  -2.095  -2.985  0.00  0.00    -0.018 A 
ATOM      3  C   LIG d   1       4.101  -1.634  -2.148  0.00  0.00    -0.058 A 
ATOM      4  C   LIG d   1       3.114  -0.821  -2.631  0.00  0.00    -0.052 A 
ATOM      5  C   LIG d   1       3.117  -0.447  -3.977  0.00  0.00     0.003 A 
ATOM      6  C   LIG d   1       4.133  -0.908  -4.832  0.00  0.00     0.092 A 
ATOM      7  N   LIG d   1       3.881  -0.385  -6.082  0.00  0.00    -0.335 N 
ATOM      8  C   LIG d   1       2.753   0.388  -6.043  0.00  0.00     0.006 A 
ATOM      9  C   LIG d   1       2.241   0.388  -4.802  0.00  0.00    -0.036 A 
ATOM     10  H   LIG d   1       5.880  -2.737  -2.589  0.00  0.00     0.066 H 
ATOM     11  H   LIG d   1       4.097  -1.922  -1.107  0.00  0.00     0.062 H 
ATOM     12  H   LIG d   1       2.335  -0.467  -1.972  0.00  0.00     0.062 H 
ATOM     13  H   LIG d   1       2.336   0.916  -6.887  0.00  0.00     0.081 H 
ATOM     14  H   LIG d   1       1.353   0.909  -4.474  0.00  0.00     0.064 H 
ENDROOT
BRANCH   7  15
ATOM     15  C   LIG d   1       4.702  -0.619  -7.272  0.00  0.00     0.100 C 
ATOM     16  H   LIG d   1       4.722   0.292  -7.888  0.00  0.00     0.059 H 
ATOM     17  H   LIG d   1       5.727  -0.877  -6.966  0.00  0.00     0.059 H 
BRANCH  15  18
ATOM     18  C   LIG d   1       4.116  -1.753  -8.072  0.00  0.00     0.233 C 
ATOM     19  O   LIG d   1       3.624  -1.537  -9.160  0.00  0.00    -0.274 OA
ATOM     20  N   LIG d   1       4.137  -3.007  -7.579  0.00  0.00    -0.303 N 
ATOM     21  H   LIG d   1       4.582  -3.203  -6.592  0.00  0.00     0.149 HD
BRANCH  20  22
ATOM     22  C   LIG d   1       3.567  -4.110  -8.357  0.00  0.00     0.109 C 
ATOM     23  H   LIG d   1       2.536  -3.858  -8.650  0.00  0.00     0.058 H 
ATOM     24  H   LIG d   1       4.174  -4.274  -9.260  0.00  0.00     0.058 H 
BRANCH  22  25
ATOM     25  C   LIG d   1       3.560  -5.364  -7.521  0.00  0.00     0.324 C 
ATOM     26  O   LIG d   1       3.602  -6.447  -8.056  0.00  0.00    -0.249 OA
BRANCH  25  27
ATOM     27  O   LIG d   1       3.510  -5.278  -6.183  0.00  0.00    -0.467 OA
BRANCH  27  28
ATOM     28  C   LIG d   1       4.603  -5.882  -5.441  0.00  0.00     0.082 C 
ATOM     29  H   LIG d   1       5.244  -6.450  -6.131  0.00  0.00     0.066 H 
ATOM     30  H   LIG d   1       4.196  -6.559  -4.676  0.00  0.00     0.066 H 
ATOM     31  H   LIG d   1       5.195  -5.093  -4.955  0.00  0.00     0.066 H 
ENDBRANCH  27  28
ENDBRANCH  25  27
ENDBRANCH  22  25
ENDBRANCH  20  22
ENDBRANCH  15  18
ENDBRANCH   7  15
BRANCH   1  32
ATOM     32  O   LIG d   1       6.122  -2.195  -5.132  0.00  0.00    -0.493 OA
BRANCH  32  33
ATOM     33  C   LIG d   1       7.011  -3.168  -4.584  0.00  0.00     0.079 C 
ATOM     34  H   LIG d   1       6.496  -3.731  -3.792  0.00  0.00     0.066 H 
ATOM     35  H   LIG d   1       7.893  -2.664  -4.159  0.00  0.00     0.066 H 
ATOM     36  H   LIG d   1       7.331  -3.861  -5.376  0.00  0.00     0.066 H 
ENDBRANCH  32  33
ENDBRANCH   1  32
TORSDOF 8
ENDMDL
MODEL 3
REMARK VINA RESULT:      -5.3      2.040      3.963
REMARK  8 active torsions:
REMARK  status: ('A' for Active; 'I' for Inactive)
REMARK    1  A    between atoms: C_1  and  O_2 
REMARK    2  A    between atoms: O_2  and  C_3 
REMARK    3  A    between atoms: N_9  and  C_12 
REMARK    4  A    between atoms: C_12  and  C_13 
REMARK       I    between atoms: C_13  and  N_15 
REMARK    5  A    between atoms: N_15  and  C_16 
REMARK    6  A    between atoms: C_16  and  C_17 
REMARK    7  A    between atoms: C_17  and  O_19 
REMARK    8  A    between atoms: O_19  and  C_20 
ROOT
ATOM      1  C   LIG d   1       5.247  -1.620  -4.198  0.00  0.00     0.144 A 
ATOM      2  C   LIG d   1       5.253  -1.826  -2.831  0.00  0.00    -0.018 A 
ATOM      3  C   LIG d   1       4.259  -1.282  -2.031  0.00  0.00    -0.058 A 
ATOM      4  C   LIG d   1       3.256  -0.535  -2.580  0.00  0.00    -0.052 A 
ATOM      5  C   LIG d   1       3.229  -0.313  -3.960  0.00  0.00     0.003 A 
ATOM      6  C   LIG d   1       4.232  -0.860  -4.778  0.00  0.00     0.092 A 
ATOM      7  N   LIG d   1       3.951  -0.481  -6.073  0.00  0.00    -0.335 N 
ATOM      8  C   LIG d   1       2.817   0.283  -6.098  0.00  0.00     0.006 A 
ATOM      9  C   LIG d   1       2.329   0.418  -4.854  0.00  0.00    -0.036 A 
ATOM     10  H   LIG d   1       6.039  -2.415  -2.382  0.00  0.00     0.066 H 
ATOM     11  H   LIG d   1       4.277  -1.453  -0.964  0.00  0.00     0.062 H 
ATOM     12  H   LIG d   1       2.486  -0.116  -1.949  0.00  0.00     0.062 H 
ATOM     13  H   LIG d   1       2.378   0.712  -6.987  0.00  0.00     0.081 H 
ATOM     14  H   LIG d   1       1.443   0.965  -4.568  0.00  0.00     0.064 H 
ENDROOT
BRANCH   7  15
ATOM     15  C   LIG d   1       4.751  -0.839  -7.247  0.00  0.00     0.100 C 
ATOM     16  H   LIG d   1       5.241  -1.809  -7.074  0.00  0.00     0.059 H 
ATOM     17  H   LIG d   1       4.097  -0.911  -8.129  0.00  0.00     0.059 H 
BRANCH  15  18
ATOM     18  C   LIG d   1       5.798   0.217  -7.482  0.00  0.00     0.233 C 
ATOM     19  O   LIG d   1       5.530   1.203  -8.137  0.00  0.00    -0.274 OA
ATOM     20  N   LIG d   1       7.035   0.068  -6.967  0.00  0.00    -0.303 N 
ATOM     21  H   LIG d   1       7.279  -0.826  -6.373  0.00  0.00     0.149 HD
BRANCH  20  22
ATOM     22  C   LIG d   1       8.053   1.096  -7.196  0.00  0.00     0.109 C 
ATOM     23  H   LIG d   1       8.915   0.649  -7.713  0.00  0.00     0.058 H 
ATOM     24  H   LIG d   1       7.630   1.900  -7.816  0.00  0.00     0.058 H 
BRANCH  22  25
ATOM     25  C   LIG d   1       8.500   1.664  -5.873  0.00  0.00     0.324 C 
ATOM     26  O   LIG d   1       9.678   1.726  -5.609  0.00  0.00    -0.249 OA
BRANCH  25  27
ATOM     27  O   LIG d   1       7.591   2.103  -4.989  0.00  0.00    -0.467 OA
BRANCH  27  28
ATOM     28  C   LIG d   1       7.471   1.364  -3.744  0.00  0.00     0.082 C 
ATOM     29  H   LIG d   1       8.266   0.607  -3.689  0.00  0.00     0.066 H 
ATOM     30  H   LIG d   1       6.489   0.869  -3.706  0.00  0.00     0.066 H 
ATOM     31  H   LIG d   1       7.565   2.058  -2.896  0.00  0.00     0.066 H 
ENDBRANCH  27  28
ENDBRANCH  25  27
ENDBRANCH  22  25
ENDBRANCH  20  22
ENDBRANCH  15  18
ENDBRANCH   7  15
BRANCH   1  32
ATOM     32  O   LIG d   1       6.227  -2.157  -4.974  0.00  0.00    -0.493 OA
BRANCH  32  33
ATOM     33  C   LIG d   1       7.454  -2.495  -4.326  0.00  0.00     0.079 C 
ATOM     34  H   LIG d   1       8.294  -2.043  -4.875  0.00  0.00     0.066 H 
ATOM     35  H   LIG d   1       7.573  -3.589  -4.311  0.00  0.00     0.066 H 
ATOM     36  H   LIG d   1       7.443  -2.112  -3.295  0.00  0.00     0.066 H 
ENDBRANCH  32  33
ENDBRANCH   1  32
TORSDOF 8
ENDMDL
MODEL 4
REMARK VINA RESULT:      -5.2      1.401      2.982
REMARK  8 active torsions:
REMARK  status: ('A' for Active; 'I' for Inactive)
REMARK    1  A    between atoms: C_1  and  O_2 
REMARK    2  A    between atoms: O_2  and  C_3 
REMARK    3  A    between atoms: N_9  and  C_12 
REMARK    4  A    between atoms: C_12  and  C_13 
REMARK       I    between atoms: C_13  and  N_15 
REMARK    5  A    between atoms: N_15  and  C_16 
REMARK    6  A    between atoms: C_16  and  C_17 
REMARK    7  A    between atoms: C_17  and  O_19 
REMARK    8  A    between atoms: O_19  and  C_20 
ROOT
ATOM      1  C   LIG d   1       5.189  -2.144  -4.232  0.00  0.00     0.144 A 
ATOM      2  C   LIG d   1       4.263  -2.759  -3.410  0.00  0.00    -0.018 A 
ATOM      3  C   LIG d   1       3.792  -2.116  -2.274  0.00  0.00    -0.058 A 
ATOM      4  C   LIG d   1       4.232  -0.863  -1.951  0.00  0.00    -0.052 A 
ATOM      5  C   LIG d   1       5.167  -0.222  -2.767  0.00  0.00     0.003 A 
ATOM      6  C   LIG d   1       5.652  -0.866  -3.919  0.00  0.00     0.092 A 
ATOM      7  N   LIG d   1       6.548  -0.007  -4.518  0.00  0.00    -0.335 N 
ATOM      8  C   LIG d   1       6.648   1.144  -3.786  0.00  0.00     0.006 A 
ATOM      9  C   LIG d   1       5.836   1.080  -2.720  0.00  0.00    -0.036 A 
ATOM     10  H   LIG d   1       3.906  -3.748  -3.652  0.00  0.00     0.066 H 
ATOM     11  H   LIG d   1       3.068  -2.609  -1.641  0.00  0.00     0.062 H 
ATOM     12  H   LIG d   1       3.859  -0.370  -1.065  0.00  0.00     0.062 H 
ATOM     13  H   LIG d   1       7.284   1.981  -4.033  0.00  0.00     0.081 H 
ATOM     14  H   LIG d   1       5.704   1.843  -1.966  0.00  0.00     0.064 H 
ENDROOT
BRANCH   7  15
ATOM     15  C   LIG d   1       7.287  -0.289  -5.751  0.00  0.00     0.100 C 
ATOM     16  H   LIG d   1       8.278   0.186  -5.700  0.00  0.00     0.059 H 
ATOM     17  H   LIG d   1       7.406  -1.376  -5.868  0.00  0.00     0.059 H 
BRANCH  15  18
ATOM     18  C   LIG d   1       6.527   0.263  -6.929  0.00  0.00     0.233 C 
ATOM     19  O   LIG d   1       6.868   1.311  -7.434  0.00  0.00    -0.274 OA
ATOM     20  N   LIG d   1       5.468  -0.409  -7.422  0.00  0.00    -0.303 N 
ATOM     21  H   LIG d   1       5.158  -1.361  -6.964  0.00  0.00     0.149 HD
BRANCH  20  22
ATOM     22  C   LIG d   1       4.728   0.127  -8.567  0.00  0.00     0.109 C 
ATOM     23  H   LIG d   1       5.320   0.920  -9.047  0.00  0.00     0.058 H 
ATOM     24  H   LIG d   1       4.541  -0.680  -9.292  0.00  0.00     0.058 H 
BRANCH  22  25
ATOM     25  C   LIG d   1       3.414   0.694  -8.096  0.00  0.00     0.324 C 
ATOM     26  O   LIG d   1       2.764   0.105  -7.265  0.00  0.00    -0.249 OA
BRANCH  25  27
ATOM     27  O   LIG d   1       2.966   1.856  -8.598  0.00  0.00    -0.467 OA
BRANCH  27  28
ATOM     28  C   LIG d   1       3.801   2.513  -9.588  0.00  0.00     0.082 C 
ATOM     29  H   LIG d   1       4.860   2.345  -9.344  0.00  0.00     0.066 H 
ATOM     30  H   LIG d   1       3.592   3.593  -9.584  0.00  0.00     0.066 H 
ATOM     31  H   LIG d   1       3.584   2.101 -10.584  0.00  0.00     0.066 H 
ENDBRANCH  27  28
ENDBRANCH  25  27
ENDBRANCH  22  25
ENDBRANCH  20  22
ENDBRANCH  15  18
ENDBRANCH   7  15
BRANCH   1  32
ATOM     32  O   LIG d   1       5.647  -2.783  -5.343  0.00  0.00    -0.493 OA
BRANCH  32  33
ATOM     33  C   LIG d   1       4.886  -3.899  -5.808  0.00  0.00     0.079 C 
ATOM     34  H   LIG d   1       5.513  -4.523  -6.462  0.00  0.00     0.066 H 
ATOM     35  H   LIG d   1       4.013  -3.539  -6.373  0.00  0.00     0.066 H 
ATOM     36  H   LIG d   1       4.547  -4.496  -4.948  0.00  0.00     0.066 H 
ENDBRANCH  32  33
ENDBRANCH   1  32
TORSDOF 8
ENDMDL
MODEL 5
REMARK VINA RESULT:      -5.0      2.403      2.854
REMARK  8 active torsions:
REMARK  status: ('A' for Active; 'I' for Inactive)
REMARK    1  A    between atoms: C_1  and  O_2 
REMARK    2  A    between atoms: O_2  and  C_3 
REMARK    3  A    between atoms: N_9  and  C_12 
REMARK    4  A    between atoms: C_12  and  C_13 
REMARK       I    between atoms: C_13  and  N_15 
REMARK    5  A    between atoms: N_15  and  C_16 
REMARK    6  A    between atoms: C_16  and  C_17 
REMARK    7  A    between atoms: C_17  and  O_19 
REMARK    8  A    between atoms: O_19  and  C_20 
ROOT
ATOM      1  C   LIG d   1       5.234  -1.021  -3.745  0.00  0.00     0.144 A 
ATOM      2  C   LIG d   1       5.350  -0.743  -2.396  0.00  0.00    -0.018 A 
ATOM      3  C   LIG d   1       4.461   0.122  -1.775  0.00  0.00    -0.058 A 
ATOM      4  C   LIG d   1       3.454   0.713  -2.485  0.00  0.00    -0.052 A 
ATOM      5  C   LIG d   1       3.318   0.447  -3.850  0.00  0.00     0.003 A 
ATOM      6  C   LIG d   1       4.214  -0.427  -4.488  0.00  0.00     0.092 A 
ATOM      7  N   LIG d   1       3.840  -0.497  -5.813  0.00  0.00    -0.335 N 
ATOM      8  C   LIG d   1       2.751   0.301  -6.031  0.00  0.00     0.006 A 
ATOM      9  C   LIG d   1       2.383   0.895  -4.885  0.00  0.00    -0.036 A 
ATOM     10  H   LIG d   1       6.139  -1.203  -1.821  0.00  0.00     0.066 H 
ATOM     11  H   LIG d   1       4.564   0.329  -0.719  0.00  0.00     0.062 H 
ATOM     12  H   LIG d   1       2.766   1.385  -1.993  0.00  0.00     0.062 H 
ATOM     13  H   LIG d   1       2.259   0.431  -6.984  0.00  0.00     0.081 H 
ATOM     14  H   LIG d   1       1.556   1.578  -4.752  0.00  0.00     0.064 H 
ENDROOT
BRANCH   7  15
ATOM     15  C   LIG d   1       4.513  -1.302  -6.836  0.00  0.00     0.100 C 
ATOM     16  H   LIG d   1       5.316  -1.890  -6.370  0.00  0.00     0.059 H 
ATOM     17  H   LIG d   1       3.786  -1.981  -7.306  0.00  0.00     0.059 H 
BRANCH  15  18
ATOM     18  C   LIG d   1       5.101  -0.392  -7.884  0.00  0.00     0.233 C 
ATOM     19  O   LIG d   1       5.732   0.588  -7.551  0.00  0.00    -0.274 OA
ATOM     20  N   LIG d   1       4.924  -0.668  -9.191  0.00  0.00    -0.303 N 
ATOM     21  H   LIG d   1       4.350  -1.557  -9.494  0.00  0.00     0.149 HD
BRANCH  20  22
ATOM     22  C   LIG d   1       5.495   0.216 -10.210  0.00  0.00     0.109 C 
ATOM     23  H   LIG d   1       6.005   1.059  -9.721  0.00  0.00     0.058 H 
ATOM     24  H   LIG d   1       6.218  -0.346 -10.820  0.00  0.00     0.058 H 
BRANCH  22  25
ATOM     25  C   LIG d   1       4.394   0.741 -11.095  0.00  0.00     0.324 C 
ATOM     26  O   LIG d   1       3.744   1.699 -10.747  0.00  0.00    -0.249 OA
BRANCH  25  27
ATOM     27  O   LIG d   1       4.135   0.146 -12.270  0.00  0.00    -0.467 OA
BRANCH  27  28
ATOM     28  C   LIG d   1       3.180  -0.948 -12.260  0.00  0.00     0.082 C 
ATOM     29  H   LIG d   1       2.567  -0.891 -11.349  0.00  0.00     0.066 H 
ATOM     30  H   LIG d   1       3.720  -1.906 -12.280  0.00  0.00     0.066 H 
ATOM     31  H   LIG d   1       2.530  -0.875 -13.145  0.00  0.00     0.066 H 
ENDBRANCH  27  28
ENDBRANCH  25  27
ENDBRANCH  22  25
ENDBRANCH  20  22
ENDBRANCH  15  18
ENDBRANCH   7  15
BRANCH   1  32
ATOM     32  O   LIG d   1       6.111  -1.870  -4.345  0.00  0.00    -0.493 OA
BRANCH  32  33
ATOM     33  C   LIG d   1       7.305  -2.182  -3.627  0.00  0.00     0.079 C 
ATOM     34  H   LIG d   1       8.179  -1.853  -4.208  0.00  0.00     0.066 H 
ATOM     35  H   LIG d   1       7.363  -3.269  -3.464  0.00  0.00     0.066 H 
ATOM     36  H   LIG d   1       7.296  -1.665  -2.656  0.00  0.00     0.066 H 
ENDBRANCH  32  33
ENDBRANCH   1  32
TORSDOF 8
ENDMDL
MODEL 6
REMARK VINA RESULT:      -5.0      2.249      4.941
REMARK  8 active torsions:
REMARK  status: ('A' for Active; 'I' for Inactive)
REMARK    1  A    between atoms: C_1  and  O_2 
REMARK    2  A    between atoms: O_2  and  C_3 
REMARK    3  A    between atoms: N_9  and  C_12 
REMARK    4  A    between atoms: C_12  and  C_13 
REMARK       I    between atoms: C_13  and  N_15 
REMARK    5  A    between atoms: N_15  and  C_16 
REMARK    6  A    between atoms: C_16  and  C_17 
REMARK    7  A    between atoms: C_17  and  O_19 
REMARK    8  A    between atoms: O_19  and  C_20 
ROOT
ATOM      1  C   LIG d   1       3.775  -0.130  -4.861  0.00  0.00     0.144 A 
ATOM      2  C   LIG d   1       2.710  -0.236  -3.985  0.00  0.00    -0.018 A 
ATOM      3  C   LIG d   1       2.847  -0.921  -2.787  0.00  0.00    -0.058 A 
ATOM      4  C   LIG d   1       4.038  -1.502  -2.451  0.00  0.00    -0.052 A 
ATOM      5  C   LIG d   1       5.128  -1.408  -3.320  0.00  0.00     0.003 A 
ATOM      6  C   LIG d   1       4.998  -0.717  -4.536  0.00  0.00     0.092 A 
ATOM      7  N   LIG d   1       6.217  -0.789  -5.176  0.00  0.00    -0.335 N 
ATOM      8  C   LIG d   1       7.101  -1.501  -4.413  0.00  0.00     0.006 A 
ATOM      9  C   LIG d   1       6.507  -1.898  -3.277  0.00  0.00    -0.036 A 
ATOM     10  H   LIG d   1       1.764   0.219  -4.237  0.00  0.00     0.066 H 
ATOM     11  H   LIG d   1       2.006  -0.995  -2.113  0.00  0.00     0.062 H 
ATOM     12  H   LIG d   1       4.135  -2.034  -1.515  0.00  0.00     0.062 H 
ATOM     13  H   LIG d   1       8.125  -1.708  -4.684  0.00  0.00     0.081 H 
ATOM     14  H   LIG d   1       6.960  -2.475  -2.483  0.00  0.00     0.064 H 
ENDROOT
BRANCH   7  15
ATOM     15  C   LIG d   1       6.518  -0.196  -6.482  0.00  0.00     0.100 C 
ATOM     16  H   LIG d   1       6.762  -0.993  -7.199  0.00  0.00     0.059 H 
ATOM     17  H   LIG d   1       5.642   0.365  -6.841  0.00  0.00     0.059 H 
BRANCH  15  18
ATOM     18  C   LIG d   1       7.692   0.738  -6.350  0.00  0.00     0.233 C 
ATOM     19  O   LIG d   1       8.688   0.559  -7.019  0.00  0.00    -0.274 OA
ATOM     20  N   LIG d   1       7.638   1.773  -5.488  0.00  0.00    -0.303 N 
ATOM     21  H   LIG d   1       6.735   1.936  -4.880  0.00  0.00     0.149 HD
BRANCH  20  22
ATOM     22  C   LIG d   1       8.780   2.681  -5.360  0.00  0.00     0.109 C 
ATOM     23  H   LIG d   1       9.454   2.547  -6.219  0.00  0.00     0.058 H 
ATOM     24  H   LIG d   1       8.421   3.721  -5.335  0.00  0.00     0.058 H 
BRANCH  22  25
ATOM     25  C   LIG d   1       9.524   2.377  -4.085  0.00  0.00     0.324 C 
ATOM     26  O   LIG d   1      10.357   1.502  -4.066  0.00  0.00    -0.249 OA
BRANCH  25  27
ATOM     27  O   LIG d   1       9.263   3.078  -2.971  0.00  0.00    -0.467 OA
BRANCH  27  28
ATOM     28  C   LIG d   1       9.959   4.342  -2.809  0.00  0.00     0.082 C 
ATOM     29  H   LIG d   1       9.238   5.169  -2.875  0.00  0.00     0.066 H 
ATOM     30  H   LIG d   1      10.714   4.449  -3.602  0.00  0.00     0.066 H 
ATOM     31  H   LIG d   1      10.454   4.364  -1.826  0.00  0.00     0.066 H 
ENDBRANCH  27  28
ENDBRANCH  25  27
ENDBRANCH  22  25
ENDBRANCH  20  22
ENDBRANCH  15  18
ENDBRANCH   7  15
BRANCH   1  32
ATOM     32  O   LIG d   1       3.631   0.544  -6.034  0.00  0.00    -0.493 OA
BRANCH  32  33
ATOM     33  C   LIG d   1       2.856  -0.089  -7.053  0.00  0.00     0.079 C 
ATOM     34  H   LIG d   1       2.941  -1.182  -6.953  0.00  0.00     0.066 H 
ATOM     35  H   LIG d   1       3.230   0.217  -8.042  0.00  0.00     0.066 H 
ATOM     36  H   LIG d   1       1.802   0.207  -6.951  0.00  0.00     0.066 H 
ENDBRANCH  32  33
ENDBRANCH   1  32
TORSDOF 8
ENDMDL
MODEL 7
REMARK VINA RESULT:      -5.0      2.521      6.808
REMARK  8 active torsions:
REMARK  status: ('A' for Active; 'I' for Inactive)
REMARK    1  A    between atoms: C_1  and  O_2 
REMARK    2  A    between atoms: O_2  and  C_3 
REMARK    3  A    between atoms: N_9  and  C_12 
REMARK    4  A    between atoms: C_12  and  C_13 
REMARK       I    between atoms: C_13  and  N_15 
REMARK    5  A    between atoms: N_15  and  C_16 
REMARK    6  A    between atoms: C_16  and  C_17 
REMARK    7  A    between atoms: C_17  and  O_19 
REMARK    8  A    between atoms: O_19  and  C_20 
ROOT
ATOM      1  C   LIG d   1       2.698  -2.830  -9.371  0.00  0.00     0.144 A 
ATOM      2  C   LIG d   1       1.890  -3.194 -10.432  0.00  0.00    -0.018 A 
ATOM      3  C   LIG d   1       1.228  -2.229 -11.178  0.00  0.00    -0.058 A 
ATOM      4  C   LIG d   1       1.365  -0.903 -10.878  0.00  0.00    -0.052 A 
ATOM      5  C   LIG d   1       2.177  -0.512  -9.810  0.00  0.00     0.003 A 
ATOM      6  C   LIG d   1       2.851  -1.481  -9.049  0.00  0.00     0.092 A 
ATOM      7  N   LIG d   1       3.565  -0.812  -8.078  0.00  0.00    -0.335 N 
ATOM      8  C   LIG d   1       3.362   0.535  -8.198  0.00  0.00     0.006 A 
ATOM      9  C   LIG d   1       2.538   0.783  -9.229  0.00  0.00    -0.036 A 
ATOM     10  H   LIG d   1       1.772  -4.237 -10.682  0.00  0.00     0.066 H 
ATOM     11  H   LIG d   1       0.600  -2.529 -12.004  0.00  0.00     0.062 H 
ATOM     12  H   LIG d   1       0.846  -0.159 -11.465  0.00  0.00     0.062 H 
ATOM     13  H   LIG d   1       3.802   1.287  -7.560  0.00  0.00     0.081 H 
ATOM     14  H   LIG d   1       2.201   1.754  -9.562  0.00  0.00     0.064 H 
ENDROOT
BRANCH   7  15
ATOM     15  C   LIG d   1       4.411  -1.450  -7.066  0.00  0.00     0.100 C 
ATOM     16  H   LIG d   1       4.102  -2.498  -6.938  0.00  0.00     0.059 H 
ATOM     17  H   LIG d   1       5.462  -1.413  -7.390  0.00  0.00     0.059 H 
BRANCH  15  18
ATOM     18  C   LIG d   1       4.263  -0.720  -5.756  0.00  0.00     0.233 C 
ATOM     19  O   LIG d   1       5.068   0.131  -5.442  0.00  0.00    -0.274 OA
ATOM     20  N   LIG d   1       3.237  -1.013  -4.933  0.00  0.00    -0.303 N 
ATOM     21  H   LIG d   1       2.506  -1.785  -5.217  0.00  0.00     0.149 HD
BRANCH  20  22
ATOM     22  C   LIG d   1       3.093  -0.303  -3.660  0.00  0.00     0.109 C 
ATOM     23  H   LIG d   1       3.603   0.670  -3.722  0.00  0.00     0.058 H 
ATOM     24  H   LIG d   1       2.025  -0.144  -3.447  0.00  0.00     0.058 H 
BRANCH  22  25
ATOM     25  C   LIG d   1       3.709  -1.123  -2.555  0.00  0.00     0.324 C 
ATOM     26  O   LIG d   1       3.572  -2.324  -2.546  0.00  0.00    -0.249 OA
BRANCH  25  27
ATOM     27  O   LIG d   1       4.410  -0.520  -1.583  0.00  0.00    -0.467 OA
BRANCH  27  28
ATOM     28  C   LIG d   1       4.627   0.910  -1.715  0.00  0.00     0.082 C 
ATOM     29  H   LIG d   1       5.539   1.089  -2.303  0.00  0.00     0.066 H 
ATOM     30  H   LIG d   1       4.742   1.356  -0.716  0.00  0.00     0.066 H 
ATOM     31  H   LIG d   1       3.766   1.366  -2.224  0.00  0.00     0.066 H 
ENDBRANCH  27  28
ENDBRANCH  25  27
ENDBRANCH  22  25
ENDBRANCH  20  22
ENDBRANCH  15  18
ENDBRANCH   7  15
BRANCH   1  32
ATOM     32  O   LIG d   1       3.342  -3.783  -8.645  0.00  0.00    -0.493 OA
BRANCH  32  33
ATOM     33  C   LIG d   1       3.166  -5.140  -9.056  0.00  0.00     0.079 C 
ATOM     34  H   LIG d   1       4.047  -5.729  -8.761  0.00  0.00     0.066 H 
ATOM     35  H   LIG d   1       3.049  -5.180 -10.150  0.00  0.00     0.066 H 
ATOM     36  H   LIG d   1       2.269  -5.556  -8.575  0.00  0.00     0.066 H 
ENDBRANCH  32  33
ENDBRANCH   1  32
TORSDOF 8
ENDMDL
MODEL 8
REMARK VINA RESULT:      -4.9      2.493      6.775
REMARK  8 active torsions:
REMARK  status: ('A' for Active; 'I' for Inactive)
REMARK    1  A    between atoms: C_1  and  O_2 
REMARK    2  A    between atoms: O_2  and  C_3 
REMARK    3  A    between atoms: N_9  and  C_12 
REMARK    4  A    between atoms: C_12  and  C_13 
REMARK       I    between atoms: C_13  and  N_15 
REMARK    5  A    between atoms: N_15  and  C_16 
REMARK    6  A    between atoms: C_16  and  C_17 
REMARK    7  A    between atoms: C_17  and  O_19 
REMARK    8  A    between atoms: O_19  and  C_20 
ROOT
ATOM      1  C   LIG d   1       3.277  -1.257  -9.736  0.00  0.00     0.144 A 
ATOM      2  C   LIG d   1       3.574  -1.644 -11.030  0.00  0.00    -0.018 A 
ATOM      3  C   LIG d   1       3.891  -0.697 -11.994  0.00  0.00    -0.058 A 
ATOM      4  C   LIG d   1       3.918   0.632 -11.680  0.00  0.00    -0.052 A 
ATOM      5  C   LIG d   1       3.621   1.047 -10.379  0.00  0.00     0.003 A 
ATOM      6  C   LIG d   1       3.298   0.096  -9.396  0.00  0.00     0.092 A 
ATOM      7  N   LIG d   1       3.056   0.786  -8.228  0.00  0.00    -0.335 N 
ATOM      8  C   LIG d   1       3.210   2.128  -8.441  0.00  0.00     0.006 A 
ATOM      9  C   LIG d   1       3.556   2.352  -9.718  0.00  0.00    -0.036 A 
ATOM     10  H   LIG d   1       3.558  -2.691 -11.292  0.00  0.00     0.066 H 
ATOM     11  H   LIG d   1       4.122  -1.016 -13.000  0.00  0.00     0.062 H 
ATOM     12  H   LIG d   1       4.166   1.362 -12.438  0.00  0.00     0.062 H 
ATOM     13  H   LIG d   1       3.076   2.893  -7.690  0.00  0.00     0.081 H 
ATOM     14  H   LIG d   1       3.746   3.313 -10.173  0.00  0.00     0.064 H 
ENDROOT
BRANCH   7  15
ATOM     15  C   LIG d   1       2.684   0.172  -6.950  0.00  0.00     0.100 C 
ATOM     16  H   LIG d   1       2.240   0.934  -6.294  0.00  0.00     0.059 H 
ATOM     17  H   LIG d   1       1.954  -0.631  -7.128  0.00  0.00     0.059 H 
BRANCH  15  18
ATOM     18  C   LIG d   1       3.912  -0.402  -6.293  0.00  0.00     0.233 C 
ATOM     19  O   LIG d   1       4.896   0.290  -6.136  0.00  0.00    -0.274 OA
ATOM     20  N   LIG d   1       3.918  -1.684  -5.879  0.00  0.00    -0.303 N 
ATOM     21  H   LIG d   1       3.026  -2.313  -6.021  0.00  0.00     0.149 HD
BRANCH  20  22
ATOM     22  C   LIG d   1       5.112  -2.243  -5.239  0.00  0.00     0.109 C 
ATOM     23  H   LIG d   1       5.310  -3.247  -5.644  0.00  0.00     0.058 H 
ATOM     24  H   LIG d   1       5.975  -1.590  -5.440  0.00  0.00     0.058 H 
BRANCH  22  25
ATOM     25  C   LIG d   1       4.889  -2.335  -3.752  0.00  0.00     0.324 C 
ATOM     26  O   LIG d   1       3.976  -2.998  -3.318  0.00  0.00    -0.249 OA
BRANCH  25  27
ATOM     27  O   LIG d   1       5.704  -1.683  -2.908  0.00  0.00    -0.467 OA
BRANCH  27  28
ATOM     28  C   LIG d   1       6.895  -1.078  -3.478  0.00  0.00     0.082 C 
ATOM     29  H   LIG d   1       7.550  -0.726  -2.668  0.00  0.00     0.066 H 
ATOM     30  H   LIG d   1       6.606  -0.227  -4.112  0.00  0.00     0.066 H 
ATOM     31  H   LIG d   1       7.430  -1.823  -4.085  0.00  0.00     0.066 H 
ENDBRANCH  27  28
ENDBRANCH  25  27
ENDBRANCH  22  25
ENDBRANCH  20  22
ENDBRANCH  15  18
ENDBRANCH   7  15
BRANCH   1  32
ATOM     32  O   LIG d   1       2.966  -2.192  -8.798  0.00  0.00    -0.493 OA
BRANCH  32  33
ATOM     33  C   LIG d   1       3.368  -3.536  -9.065  0.00  0.00     0.079 C 
ATOM     34  H   LIG d   1       2.761  -4.227  -8.461  0.00  0.00     0.066 H 
ATOM     35  H   LIG d   1       4.430  -3.661  -8.807  0.00  0.00     0.066 H 
ATOM     36  H   LIG d   1       3.221  -3.758 -10.132  0.00  0.00     0.066 H 
ENDBRANCH  32  33
ENDBRANCH   1  32
TORSDOF 8
ENDMDL
MODEL 9
REMARK VINA RESULT:      -4.7      2.321      3.153
REMARK  8 active torsions:
REMARK  status: ('A' for Active; 'I' for Inactive)
REMARK    1  A    between atoms: C_1  and  O_2 
REMARK    2  A    between atoms: O_2  and  C_3 
REMARK    3  A    between atoms: N_9  and  C_12 
REMARK    4  A    between atoms: C_12  and  C_13 
REMARK       I    between atoms: C_13  and  N_15 
REMARK    5  A    between atoms: N_15  and  C_16 
REMARK    6  A    between atoms: C_16  and  C_17 
REMARK    7  A    between atoms: C_17  and  O_19 
REMARK    8  A    between atoms: O_19  and  C_20 
ROOT
ATOM      1  C   LIG d   1       5.157  -1.671  -4.188  0.00  0.00     0.144 A 
ATOM      2  C   LIG d   1       5.055  -1.956  -2.838  0.00  0.00    -0.018 A 
ATOM      3  C   LIG d   1       4.003  -1.450  -2.088  0.00  0.00    -0.058 A 
ATOM      4  C   LIG d   1       3.050  -0.662  -2.670  0.00  0.00    -0.052 A 
ATOM      5  C   LIG d   1       3.133  -0.361  -4.032  0.00  0.00     0.003 A 
ATOM      6  C   LIG d   1       4.194  -0.868  -4.800  0.00  0.00     0.092 A 
ATOM      7  N   LIG d   1       4.018  -0.412  -6.088  0.00  0.00    -0.335 N 
ATOM      8  C   LIG d   1       2.893   0.363  -6.157  0.00  0.00     0.006 A 
ATOM      9  C   LIG d   1       2.310   0.430  -4.950  0.00  0.00    -0.036 A 
ATOM     10  H   LIG d   1       5.800  -2.577  -2.365  0.00  0.00     0.066 H 
ATOM     11  H   LIG d   1       3.937  -1.682  -1.035  0.00  0.00     0.062 H 
ATOM     12  H   LIG d   1       2.235  -0.273  -2.078  0.00  0.00     0.062 H 
ATOM     13  H   LIG d   1       2.528   0.846  -7.051  0.00  0.00     0.081 H 
ATOM     14  H   LIG d   1       1.407   0.968  -4.702  0.00  0.00     0.064 H 
ENDROOT
BRANCH   7  15
ATOM     15  C   LIG d   1       4.906  -0.710  -7.215  0.00  0.00     0.100 C 
ATOM     16  H   LIG d   1       5.141   0.221  -7.752  0.00  0.00     0.059 H 
ATOM     17  H   LIG d   1       5.837  -1.162  -6.839  0.00  0.00     0.059 H 
BRANCH  15  18
ATOM     18  C   LIG d   1       4.224  -1.671  -8.153  0.00  0.00     0.233 C 
ATOM     19  O   LIG d   1       4.075  -2.831  -7.831  0.00  0.00    -0.274 OA
ATOM     20  N   LIG d   1       3.778  -1.242  -9.350  0.00  0.00    -0.303 N 
ATOM     21  H   LIG d   1       3.913  -0.190  -9.644  0.00  0.00     0.149 HD
BRANCH  20  22
ATOM     22  C   LIG d   1       3.114  -2.177 -10.262  0.00  0.00     0.109 C 
ATOM     23  H   LIG d   1       3.601  -2.137 -11.248  0.00  0.00     0.058 H 
ATOM     24  H   LIG d   1       3.188  -3.198  -9.859  0.00  0.00     0.058 H 
BRANCH  22  25
ATOM     25  C   LIG d   1       1.663  -1.796 -10.403  0.00  0.00     0.324 C 
ATOM     26  O   LIG d   1       1.250  -0.786  -9.884  0.00  0.00    -0.249 OA
BRANCH  25  27
ATOM     27  O   LIG d   1       0.829  -2.578 -11.106  0.00  0.00    -0.467 OA
BRANCH  27  28
ATOM     28  C   LIG d   1       0.652  -3.942 -10.640  0.00  0.00     0.082 C 
ATOM     29  H   LIG d   1       1.147  -4.635 -11.335  0.00  0.00     0.066 H 
ATOM     30  H   LIG d   1      -0.422  -4.176 -10.592  0.00  0.00     0.066 H 
ATOM     31  H   LIG d   1       1.094  -4.047  -9.638  0.00  0.00     0.066 H 
ENDBRANCH  27  28
ENDBRANCH  25  27
ENDBRANCH  22  25
ENDBRANCH  20  22
ENDBRANCH  15  18
ENDBRANCH   7  15
BRANCH   1  32
ATOM     32  O   LIG d   1       6.192  -2.171  -4.915  0.00  0.00    -0.493 OA
BRANCH  32  33
ATOM     33  C   LIG d   1       7.496  -2.070  -4.340  0.00  0.00     0.079 C 
ATOM     34  H   LIG d   1       8.184  -2.745  -4.871  0.00  0.00     0.066 H 
ATOM     35  H   LIG d   1       7.453  -2.354  -3.278  0.00  0.00     0.066 H 
ATOM     36  H   LIG d   1       7.857  -1.035  -4.429  0.00  0.00     0.066 H 
ENDBRANCH  32  33
ENDBRANCH   1  32
TORSDOF 8
ENDMDL
MODEL 10
REMARK VINA RESULT:      -4.7      2.623      3.918
REMARK  8 active torsions:
REMARK  status: ('A' for Active; 'I' for Inactive)
REMARK    1  A    between atoms: C_1  and  O_2 
REMARK    2  A    between atoms: O_2  and  C_3 
REMARK    3  A    between atoms: N_9  and  C_12 
REMARK    4  A    between atoms: C_12  and  C_13 
REMARK       I    between atoms: C_13  and  N_15 
REMARK    5  A    between atoms: N_15  and  C_16 
REMARK    6  A    between atoms: C_16  and  C_17 
REMARK    7  A    between atoms: C_17  and  O_19 
REMARK    8  A    between atoms: O_19  and  C_20 
ROOT
ATOM      1  C   LIG d   1       5.293  -1.486  -4.196  0.00  0.00     0.144 A 
ATOM      2  C   LIG d   1       5.274  -1.718  -2.833  0.00  0.00    -0.018 A 
ATOM      3  C   LIG d   1       4.230  -1.243  -2.051  0.00  0.00    -0.058 A 
ATOM      4  C   LIG d   1       3.203  -0.539  -2.616  0.00  0.00    -0.052 A 
ATOM      5  C   LIG d   1       3.202  -0.293  -3.991  0.00  0.00     0.003 A 
ATOM      6  C   LIG d   1       4.255  -0.769  -4.790  0.00  0.00     0.092 A 
ATOM      7  N   LIG d   1       3.989  -0.381  -6.086  0.00  0.00    -0.335 N 
ATOM      8  C   LIG d   1       2.817   0.323  -6.129  0.00  0.00     0.006 A 
ATOM      9  C   LIG d   1       2.289   0.407  -4.898  0.00  0.00    -0.036 A 
ATOM     10  H   LIG d   1       6.077  -2.272  -2.373  0.00  0.00     0.066 H 
ATOM     11  H   LIG d   1       4.229  -1.432  -0.987  0.00  0.00     0.062 H 
ATOM     12  H   LIG d   1       2.395  -0.174  -1.999  0.00  0.00     0.062 H 
ATOM     13  H   LIG d   1       2.380   0.744  -7.022  0.00  0.00     0.081 H 
ATOM     14  H   LIG d   1       1.367   0.901  -4.627  0.00  0.00     0.064 H 
ENDROOT
BRANCH   7  15
ATOM     15  C   LIG d   1       4.839  -0.673  -7.243  0.00  0.00     0.100 C 
ATOM     16  H   LIG d   1       5.404  -1.599  -7.058  0.00  0.00     0.059 H 
ATOM     17  H   LIG d   1       4.210  -0.800  -8.137  0.00  0.00     0.059 H 
BRANCH  15  18
ATOM     18  C   LIG d   1       5.800   0.466  -7.461  0.00  0.00     0.233 C 
ATOM     19  O   LIG d   1       5.530   1.344  -8.254  0.00  0.00    -0.274 OA
ATOM     20  N   LIG d   1       6.960   0.510  -6.777  0.00  0.00    -0.303 N 
ATOM     21  H   LIG d   1       7.206  -0.286  -6.058  0.00  0.00     0.149 HD
BRANCH  20  22
ATOM     22  C   LIG d   1       7.894   1.618  -6.989  0.00  0.00     0.109 C 
ATOM     23  H   LIG d   1       7.408   2.397  -7.596  0.00  0.00     0.058 H 
ATOM     24  H   LIG d   1       8.189   2.041  -6.017  0.00  0.00     0.058 H 
BRANCH  22  25
ATOM     25  C   LIG d   1       9.119   1.113  -7.708  0.00  0.00     0.324 C 
ATOM     26  O   LIG d   1      10.219   1.449  -7.338  0.00  0.00    -0.249 OA
BRANCH  25  27
ATOM     27  O   LIG d   1       8.988   0.287  -8.758  0.00  0.00    -0.467 OA
BRANCH  27  28
ATOM     28  C   LIG d   1       8.743   0.899 -10.053  0.00  0.00     0.082 C 
ATOM     29  H   LIG d   1       7.669   1.103 -10.164  0.00  0.00     0.066 H 
ATOM     30  H   LIG d   1       9.072   0.215 -10.849  0.00  0.00     0.066 H 
ATOM     31  H   LIG d   1       9.305   1.842 -10.124  0.00  0.00     0.066 H 
ENDBRANCH  27  28
ENDBRANCH  25  27
ENDBRANCH  22  25
ENDBRANCH  20  22
ENDBRANCH  15  18
ENDBRANCH   7  15
BRANCH   1  32
ATOM     32  O   LIG d   1       6.321  -1.955  -4.953  0.00  0.00    -0.493 OA
BRANCH  32  33
ATOM     33  C   LIG d   1       7.497  -2.377  -4.261  0.00  0.00     0.079 C 
ATOM     34  H   LIG d   1       7.247  -3.212  -3.590  0.00  0.00     0.066 H 
ATOM     35  H   LIG d   1       7.896  -1.539  -3.669  0.00  0.00     0.066 H 
ATOM     36  H   LIG d   1       8.253  -2.706  -4.988  0.00  0.00     0.066 H 
ENDBRANCH  32  33
ENDBRANCH   1  32
TORSDOF 8
ENDMDL
