MODEL 1
REMARK VINA RESULT:      -7.5      0.000      0.000
REMARK  6 active torsions:
REMARK  status: ('A' for Active; 'I' for Inactive)
REMARK    1  A    between atoms: C_1  and  C_2 
REMARK    2  A    between atoms: C_4  and  C_40 
REMARK    3  A    between atoms: C_9  and  C_27 
REMARK    4  A    between atoms: C_27  and  C_29 
REMARK    5  A    between atoms: C_32  and  O_35 
REMARK    6  A    between atoms: O_35  and  C_36 
ROOT
ATOM      1  C   LIG d   1       5.480  -9.238  -4.397  0.00  0.00    -0.050 A 
ATOM      2  C   LIG d   1       6.550  -9.461  -3.549  0.00  0.00    -0.054 A 
ATOM      3  C   LIG d   1       7.674  -8.666  -3.622  0.00  0.00    -0.029 A 
ATOM      4  C   LIG d   1       7.741  -7.631  -4.552  0.00  0.00     0.042 A 
ATOM      5  C   LIG d   1       6.660  -7.417  -5.400  0.00  0.00     0.004 A 
ATOM      6  C   LIG d   1       5.541  -8.216  -5.327  0.00  0.00    -0.052 A 
ATOM      7  C   LIG d   1       7.039  -6.248  -6.271  0.00  0.00     0.138 A 
ATOM      8  C   LIG d   1       6.056  -5.086  -6.080  0.00  0.00     0.073 C 
ATOM      9  H   LIG d   1       5.254  -5.376  -5.400  0.00  0.00     0.042 H 
ATOM     10  C   LIG d   1       5.492  -4.807  -7.477  0.00  0.00     0.102 A 
ATOM     11  C   LIG d   1       5.386  -3.333  -7.749  0.00  0.00    -0.009 A 
ATOM     12  C   LIG d   1       6.303  -2.306  -7.783  0.00  0.00    -0.056 A 
ATOM     13  C   LIG d   1       5.889  -1.018  -8.072  0.00  0.00    -0.061 A 
ATOM     14  C   LIG d   1       4.554  -0.763  -8.326  0.00  0.00    -0.060 A 
ATOM     15  C   LIG d   1       3.632  -1.789  -8.295  0.00  0.00    -0.040 A 
ATOM     16  C   LIG d   1       4.040  -3.089  -8.006  0.00  0.00     0.038 A 
ATOM     17  N   LIG d   1       3.310  -4.276  -7.920  0.00  0.00    -0.284 N 
ATOM     18  C   LIG d   1       4.089  -5.333  -7.618  0.00  0.00     0.230 A 
ATOM     19  O   LIG d   1       3.730  -6.483  -7.484  0.00  0.00    -0.274 OA
ATOM     20  C   LIG d   1       6.451  -5.494  -8.456  0.00  0.00     0.030 C 
ATOM     21  H   LIG d   1       7.217  -4.808  -8.815  0.00  0.00     0.048 H 
ATOM     22  N   LIG d   1       7.042  -6.623  -7.688  0.00  0.00    -0.280 N 
ATOM     23  C   LIG d   1       6.147  -7.781  -7.925  0.00  0.00     0.001 C 
ATOM     24  C   LIG d   1       5.779  -7.646  -9.424  0.00  0.00    -0.039 C 
ATOM     25  C   LIG d   1       5.644  -6.101  -9.618  0.00  0.00    -0.035 C 
ATOM     26  C   LIG d   1       8.420  -5.859  -5.808  0.00  0.00     0.243 A 
ATOM     27  O   LIG d   1       9.101  -4.957  -6.246  0.00  0.00    -0.273 OA
ATOM     28  N   LIG d   1       8.752  -6.705  -4.816  0.00  0.00    -0.283 N 
ATOM     29  H   LIG d   1       6.504 -10.263  -2.826  0.00  0.00     0.062 H 
ATOM     30  H   LIG d   1       4.709  -8.042  -5.994  0.00  0.00     0.062 H 
ATOM     31  H   LIG d   1       7.346  -2.507  -7.585  0.00  0.00     0.062 H 
ATOM     32  H   LIG d   1       6.608  -0.211  -8.098  0.00  0.00     0.062 H 
ATOM     33  H   LIG d   1       4.231   0.242  -8.550  0.00  0.00     0.062 H 
ATOM     34  H   LIG d   1       2.591  -1.584  -8.495  0.00  0.00     0.064 H 
ATOM     35  H   LIG d   1       2.352  -4.334  -8.062  0.00  0.00     0.155 HD
ATOM     36  H   LIG d   1       6.673  -8.719  -7.741  0.00  0.00     0.043 H 
ATOM     37  H   LIG d   1       5.253  -7.712  -7.303  0.00  0.00     0.043 H 
ATOM     38  H   LIG d   1       6.577  -8.040 -10.053  0.00  0.00     0.028 H 
ATOM     39  H   LIG d   1       4.835  -8.146  -9.637  0.00  0.00     0.028 H 
ATOM     40  H   LIG d   1       4.599  -5.796  -9.553  0.00  0.00     0.028 H 
ATOM     41  H   LIG d   1       6.069  -5.793 -10.574  0.00  0.00     0.028 H 
ATOM     42  H   LIG d   1       9.597  -6.675  -4.339  0.00  0.00     0.155 HD
ENDROOT
BRANCH   8  43
ATOM     43  C   LIG d   1       6.775  -3.872  -5.551  0.00  0.00     0.170 C 
ATOM     44  O   LIG d   1       7.877  -3.590  -5.972  0.00  0.00    -0.292 OA
BRANCH  43  45
ATOM     45  C   LIG d   1       6.143  -3.032  -4.526  0.00  0.00     0.018 A 
ATOM     46  C   LIG d   1       4.803  -3.240  -4.176  0.00  0.00    -0.048 A 
ATOM     47  C   LIG d   1       4.219  -2.456  -3.214  0.00  0.00    -0.019 A 
ATOM     48  H   LIG d   1       4.232  -4.020  -4.659  0.00  0.00     0.063 H 
ATOM     49  C   LIG d   1       4.951  -1.449  -2.597  0.00  0.00     0.120 A 
ATOM     50  H   LIG d   1       3.187  -2.619  -2.940  0.00  0.00     0.065 H 
ATOM     51  C   LIG d   1       6.280  -1.234  -2.945  0.00  0.00    -0.019 A 
ATOM     52  C   LIG d   1       6.875  -2.016  -3.901  0.00  0.00    -0.048 A 
ATOM     53  H   LIG d   1       6.845  -0.450  -2.462  0.00  0.00     0.065 H 
ATOM     54  H   LIG d   1       7.907  -1.849  -4.171  0.00  0.00     0.063 H 
BRANCH  49  55
ATOM     55  O   LIG d   1       4.367  -0.672  -1.650  0.00  0.00    -0.495 OA
BRANCH  55  56
ATOM     56  C   LIG d   1       4.567   0.739  -1.754  0.00  0.00     0.079 C 
ATOM     57  H   LIG d   1       5.384   0.940  -2.447  0.00  0.00     0.066 H 
ATOM     58  H   LIG d   1       3.655   1.210  -2.122  0.00  0.00     0.066 H 
ATOM     59  H   LIG d   1       4.814   1.144  -0.773  0.00  0.00     0.066 H 
ENDBRANCH  55  56
ENDBRANCH  49  55
ENDBRANCH  43  45
ENDBRANCH   8  43
BRANCH   3  60
ATOM     60  C   LIG d   1       8.833  -8.917  -2.692  0.00  0.00    -0.038 C 
ATOM     61  H   LIG d   1       9.219  -9.922  -2.855  0.00  0.00     0.028 H 
ATOM     62  H   LIG d   1       9.621  -8.189  -2.889  0.00  0.00     0.028 H 
ATOM     63  H   LIG d   1       8.499  -8.818  -1.659  0.00  0.00     0.028 H 
ENDBRANCH   3  60
BRANCH   1  64
ATOM     64  C   LIG d   1       4.255 -10.112  -4.313  0.00  0.00    -0.040 C 
ATOM     65  H   LIG d   1       3.827 -10.042  -3.313  0.00  0.00     0.028 H 
ATOM     66  H   LIG d   1       3.519  -9.779  -5.046  0.00  0.00     0.028 H 
ATOM     67  H   LIG d   1       4.531 -11.145  -4.519  0.00  0.00     0.028 H 
ENDBRANCH   1  64
TORSDOF 6
ENDMDL
MODEL 2
REMARK VINA RESULT:      -7.2      2.785      6.134
REMARK  6 active torsions:
REMARK  status: ('A' for Active; 'I' for Inactive)
REMARK    1  A    between atoms: C_1  and  C_2 
REMARK    2  A    between atoms: C_4  and  C_40 
REMARK    3  A    between atoms: C_9  and  C_27 
REMARK    4  A    between atoms: C_27  and  C_29 
REMARK    5  A    between atoms: C_32  and  O_35 
REMARK    6  A    between atoms: O_35  and  C_36 
ROOT
ATOM      1  C   LIG d   1       9.586  -3.291  -9.177  0.00  0.00    -0.050 A 
ATOM      2  C   LIG d   1       9.039  -4.200 -10.064  0.00  0.00    -0.054 A 
ATOM      3  C   LIG d   1       7.960  -4.975  -9.691  0.00  0.00    -0.029 A 
ATOM      4  C   LIG d   1       7.412  -4.846  -8.417  0.00  0.00     0.042 A 
ATOM      5  C   LIG d   1       7.970  -3.928  -7.535  0.00  0.00     0.004 A 
ATOM      6  C   LIG d   1       9.050  -3.160  -7.908  0.00  0.00    -0.052 A 
ATOM      7  C   LIG d   1       7.166  -4.029  -6.265  0.00  0.00     0.138 A 
ATOM      8  C   LIG d   1       6.499  -2.689  -5.935  0.00  0.00     0.073 C 
ATOM      9  H   LIG d   1       6.799  -1.928  -6.656  0.00  0.00     0.042 H 
ATOM     10  C   LIG d   1       7.007  -2.323  -4.536  0.00  0.00     0.102 A 
ATOM     11  C   LIG d   1       5.910  -1.766  -3.674  0.00  0.00    -0.009 A 
ATOM     12  C   LIG d   1       4.701  -2.262  -3.236  0.00  0.00    -0.056 A 
ATOM     13  C   LIG d   1       3.887  -1.487  -2.430  0.00  0.00    -0.061 A 
ATOM     14  C   LIG d   1       4.287  -0.215  -2.065  0.00  0.00    -0.060 A 
ATOM     15  C   LIG d   1       5.497   0.285  -2.499  0.00  0.00    -0.040 A 
ATOM     16  C   LIG d   1       6.324  -0.488  -3.311  0.00  0.00     0.038 A 
ATOM     17  N   LIG d   1       7.574  -0.209  -3.866  0.00  0.00    -0.284 N 
ATOM     18  C   LIG d   1       8.047  -1.238  -4.596  0.00  0.00     0.230 A 
ATOM     19  O   LIG d   1       9.105  -1.281  -5.188  0.00  0.00    -0.274 OA
ATOM     20  C   LIG d   1       7.580  -3.619  -3.952  0.00  0.00     0.030 C 
ATOM     21  H   LIG d   1       6.839  -4.153  -3.357  0.00  0.00     0.048 H 
ATOM     22  N   LIG d   1       8.013  -4.416  -5.132  0.00  0.00    -0.280 N 
ATOM     23  C   LIG d   1       9.424  -4.034  -5.378  0.00  0.00     0.001 C 
ATOM     24  C   LIG d   1      10.015  -3.918  -3.950  0.00  0.00    -0.039 C 
ATOM     25  C   LIG d   1       8.840  -3.294  -3.130  0.00  0.00    -0.035 C 
ATOM     26  C   LIG d   1       6.129  -5.085  -6.554  0.00  0.00     0.243 A 
ATOM     27  O   LIG d   1       5.269  -5.479  -5.795  0.00  0.00    -0.273 OA
ATOM     28  N   LIG d   1       6.339  -5.504  -7.814  0.00  0.00    -0.283 N 
ATOM     29  H   LIG d   1       9.460  -4.305 -11.053  0.00  0.00     0.062 H 
ATOM     30  H   LIG d   1       9.477  -2.453  -7.212  0.00  0.00     0.062 H 
ATOM     31  H   LIG d   1       4.391  -3.256  -3.522  0.00  0.00     0.062 H 
ATOM     32  H   LIG d   1       2.939  -1.875  -2.087  0.00  0.00     0.062 H 
ATOM     33  H   LIG d   1       3.650   0.389  -1.436  0.00  0.00     0.062 H 
ATOM     34  H   LIG d   1       5.803   1.279  -2.210  0.00  0.00     0.064 H 
ATOM     35  H   LIG d   1       8.048   0.627  -3.740  0.00  0.00     0.155 HD
ATOM     36  H   LIG d   1       9.939  -4.809  -5.946  0.00  0.00     0.043 H 
ATOM     37  H   LIG d   1       9.479  -3.076  -5.896  0.00  0.00     0.043 H 
ATOM     38  H   LIG d   1      10.272  -4.902  -3.559  0.00  0.00     0.028 H 
ATOM     39  H   LIG d   1      10.882  -3.259  -3.944  0.00  0.00     0.028 H 
ATOM     40  H   LIG d   1       8.965  -2.215  -3.040  0.00  0.00     0.028 H 
ATOM     41  H   LIG d   1       8.774  -3.751  -2.142  0.00  0.00     0.028 H 
ATOM     42  H   LIG d   1       5.807  -6.186  -8.254  0.00  0.00     0.155 HD
ENDROOT
BRANCH   8  43
ATOM     43  C   LIG d   1       4.999  -2.837  -5.927  0.00  0.00     0.170 C 
ATOM     44  O   LIG d   1       4.468  -3.582  -5.131  0.00  0.00    -0.292 OA
BRANCH  43  45
ATOM     45  C   LIG d   1       4.181  -2.081  -6.883  0.00  0.00     0.018 A 
ATOM     46  C   LIG d   1       3.887  -2.625  -8.140  0.00  0.00    -0.048 A 
ATOM     47  C   LIG d   1       3.117  -1.917  -9.028  0.00  0.00    -0.019 A 
ATOM     48  H   LIG d   1       4.261  -3.603  -8.408  0.00  0.00     0.063 H 
ATOM     49  C   LIG d   1       2.641  -0.657  -8.687  0.00  0.00     0.120 A 
ATOM     50  H   LIG d   1       2.886  -2.338  -9.995  0.00  0.00     0.065 H 
ATOM     51  C   LIG d   1       2.935  -0.109  -7.443  0.00  0.00    -0.019 A 
ATOM     52  C   LIG d   1       3.699  -0.811  -6.546  0.00  0.00    -0.048 A 
ATOM     53  H   LIG d   1       2.562   0.870  -7.182  0.00  0.00     0.065 H 
ATOM     54  H   LIG d   1       3.926  -0.386  -5.580  0.00  0.00     0.063 H 
BRANCH  49  55
ATOM     55  O   LIG d   1       1.885   0.042  -9.571  0.00  0.00    -0.495 OA
BRANCH  55  56
ATOM     56  C   LIG d   1       1.258  -0.701 -10.618  0.00  0.00     0.079 C 
ATOM     57  H   LIG d   1       0.701  -0.022 -11.263  0.00  0.00     0.066 H 
ATOM     58  H   LIG d   1       2.020  -1.217 -11.203  0.00  0.00     0.066 H 
ATOM     59  H   LIG d   1       0.576  -1.433 -10.185  0.00  0.00     0.066 H 
ENDBRANCH  55  56
ENDBRANCH  49  55
ENDBRANCH  43  45
ENDBRANCH   8  43
BRANCH   3  60
ATOM     60  C   LIG d   1       7.372  -5.962 -10.667  0.00  0.00    -0.038 C 
ATOM     61  H   LIG d   1       6.672  -5.449 -11.325  0.00  0.00     0.028 H 
ATOM     62  H   LIG d   1       8.172  -6.405 -11.261  0.00  0.00     0.028 H 
ATOM     63  H   LIG d   1       6.850  -6.747 -10.120  0.00  0.00     0.028 H 
ENDBRANCH   3  60
BRANCH   1  64
ATOM     64  C   LIG d   1      10.765  -2.448  -9.590  0.00  0.00    -0.040 C 
ATOM     65  H   LIG d   1      10.484  -1.395  -9.571  0.00  0.00     0.028 H 
ATOM     66  H   LIG d   1      11.592  -2.616  -8.900  0.00  0.00     0.028 H 
ATOM     67  H   LIG d   1      11.072  -2.724 -10.599  0.00  0.00     0.028 H 
ENDBRANCH   1  64
TORSDOF 6
ENDMDL
MODEL 3
REMARK VINA RESULT:      -7.0      3.007      6.642
REMARK  6 active torsions:
REMARK  status: ('A' for Active; 'I' for Inactive)
REMARK    1  A    between atoms: C_1  and  C_2 
REMARK    2  A    between atoms: C_4  and  C_40 
REMARK    3  A    between atoms: C_9  and  C_27 
REMARK    4  A    between atoms: C_27  and  C_29 
REMARK    5  A    between atoms: C_32  and  O_35 
REMARK    6  A    between atoms: O_35  and  C_36 
ROOT
ATOM      1  C   LIG d   1       9.342  -1.564  -9.695  0.00  0.00    -0.050 A 
ATOM      2  C   LIG d   1      10.267  -2.593  -9.716  0.00  0.00    -0.054 A 
ATOM      3  C   LIG d   1      10.576  -3.276  -8.558  0.00  0.00    -0.029 A 
ATOM      4  C   LIG d   1       9.956  -2.936  -7.358  0.00  0.00     0.042 A 
ATOM      5  C   LIG d   1       9.029  -1.900  -7.349  0.00  0.00     0.004 A 
ATOM      6  C   LIG d   1       8.727  -1.217  -8.505  0.00  0.00    -0.052 A 
ATOM      7  C   LIG d   1       8.551  -1.780  -5.925  0.00  0.00     0.138 A 
ATOM      8  C   LIG d   1       7.040  -2.025  -5.836  0.00  0.00     0.073 C 
ATOM      9  H   LIG d   1       6.620  -2.173  -6.831  0.00  0.00     0.042 H 
ATOM     10  C   LIG d   1       6.466  -0.755  -5.200  0.00  0.00     0.102 A 
ATOM     11  C   LIG d   1       5.411  -1.071  -4.179  0.00  0.00    -0.009 A 
ATOM     12  C   LIG d   1       5.409  -1.801  -3.010  0.00  0.00    -0.056 A 
ATOM     13  C   LIG d   1       4.248  -1.912  -2.266  0.00  0.00    -0.061 A 
ATOM     14  C   LIG d   1       3.091  -1.292  -2.697  0.00  0.00    -0.060 A 
ATOM     15  C   LIG d   1       3.088  -0.559  -3.866  0.00  0.00    -0.040 A 
ATOM     16  C   LIG d   1       4.252  -0.440  -4.621  0.00  0.00     0.038 A 
ATOM     17  N   LIG d   1       4.498   0.237  -5.817  0.00  0.00    -0.284 N 
ATOM     18  C   LIG d   1       5.776   0.107  -6.223  0.00  0.00     0.230 A 
ATOM     19  O   LIG d   1       6.273   0.588  -7.218  0.00  0.00    -0.274 OA
ATOM     20  C   LIG d   1       7.662  -0.031  -4.571  0.00  0.00     0.030 C 
ATOM     21  H   LIG d   1       7.783  -0.296  -3.521  0.00  0.00     0.048 H 
ATOM     22  N   LIG d   1       8.837  -0.449  -5.381  0.00  0.00    -0.280 N 
ATOM     23  C   LIG d   1       8.949   0.549  -6.471  0.00  0.00     0.001 C 
ATOM     24  C   LIG d   1       8.620   1.887  -5.763  0.00  0.00    -0.039 C 
ATOM     25  C   LIG d   1       7.493   1.488  -4.756  0.00  0.00    -0.035 C 
ATOM     26  C   LIG d   1       9.310  -2.848  -5.178  0.00  0.00     0.243 A 
ATOM     27  O   LIG d   1       9.225  -3.100  -3.995  0.00  0.00    -0.273 OA
ATOM     28  N   LIG d   1      10.098  -3.468  -6.075  0.00  0.00    -0.283 N 
ATOM     29  H   LIG d   1      10.751  -2.861 -10.644  0.00  0.00     0.062 H 
ATOM     30  H   LIG d   1       8.007  -0.411  -8.485  0.00  0.00     0.062 H 
ATOM     31  H   LIG d   1       6.315  -2.284  -2.675  0.00  0.00     0.062 H 
ATOM     32  H   LIG d   1       4.246  -2.485  -1.350  0.00  0.00     0.062 H 
ATOM     33  H   LIG d   1       2.185  -1.380  -2.116  0.00  0.00     0.062 H 
ATOM     34  H   LIG d   1       2.180  -0.076  -4.197  0.00  0.00     0.064 H 
ATOM     35  H   LIG d   1       3.826   0.744  -6.300  0.00  0.00     0.155 HD
ATOM     36  H   LIG d   1       9.961   0.567  -6.875  0.00  0.00     0.043 H 
ATOM     37  H   LIG d   1       8.223   0.343  -7.259  0.00  0.00     0.043 H 
ATOM     38  H   LIG d   1       9.492   2.264  -5.228  0.00  0.00     0.028 H 
ATOM     39  H   LIG d   1       8.256   2.624  -6.478  0.00  0.00     0.028 H 
ATOM     40  H   LIG d   1       6.510   1.712  -5.172  0.00  0.00     0.028 H 
ATOM     41  H   LIG d   1       7.627   2.002  -3.803  0.00  0.00     0.028 H 
ATOM     42  H   LIG d   1      10.695  -4.200  -5.856  0.00  0.00     0.155 HD
ENDROOT
BRANCH   8  43
ATOM     43  C   LIG d   1       6.753  -3.223  -4.967  0.00  0.00     0.170 C 
ATOM     44  O   LIG d   1       7.129  -3.238  -3.814  0.00  0.00    -0.292 OA
BRANCH  43  45
ATOM     45  C   LIG d   1       6.022  -4.371  -5.517  0.00  0.00     0.018 A 
ATOM     46  C   LIG d   1       4.679  -4.234  -5.893  0.00  0.00    -0.048 A 
ATOM     47  C   LIG d   1       4.003  -5.308  -6.412  0.00  0.00    -0.019 A 
ATOM     48  H   LIG d   1       4.180  -3.282  -5.781  0.00  0.00     0.063 H 
ATOM     49  C   LIG d   1       4.642  -6.534  -6.551  0.00  0.00     0.120 A 
ATOM     50  H   LIG d   1       2.969  -5.202  -6.707  0.00  0.00     0.065 H 
ATOM     51  C   LIG d   1       5.973  -6.678  -6.173  0.00  0.00    -0.019 A 
ATOM     52  C   LIG d   1       6.661  -5.609  -5.659  0.00  0.00    -0.048 A 
ATOM     53  H   LIG d   1       6.465  -7.633  -6.284  0.00  0.00     0.065 H 
ATOM     54  H   LIG d   1       7.694  -5.720  -5.367  0.00  0.00     0.063 H 
BRANCH  49  55
ATOM     55  O   LIG d   1       3.966  -7.596  -7.059  0.00  0.00    -0.495 OA
BRANCH  55  56
ATOM     56  C   LIG d   1       4.610  -8.869  -6.989  0.00  0.00     0.079 C 
ATOM     57  H   LIG d   1       4.235  -9.511  -7.785  0.00  0.00     0.066 H 
ATOM     58  H   LIG d   1       5.687  -8.738  -7.106  0.00  0.00     0.066 H 
ATOM     59  H   LIG d   1       4.403  -9.328  -6.023  0.00  0.00     0.066 H 
ENDBRANCH  55  56
ENDBRANCH  49  55
ENDBRANCH  43  45
ENDBRANCH   8  43
BRANCH   3  60
ATOM     60  C   LIG d   1      11.584  -4.395  -8.593  0.00  0.00    -0.038 C 
ATOM     61  H   LIG d   1      11.373  -5.100  -7.790  0.00  0.00     0.028 H 
ATOM     62  H   LIG d   1      11.522  -4.909  -9.553  0.00  0.00     0.028 H 
ATOM     63  H   LIG d   1      12.586  -3.986  -8.465  0.00  0.00     0.028 H 
ENDBRANCH   3  60
BRANCH   1  64
ATOM     64  C   LIG d   1       9.010  -0.821 -10.963  0.00  0.00    -0.040 C 
ATOM     65  H   LIG d   1       9.894  -0.774 -11.599  0.00  0.00     0.028 H 
ATOM     66  H   LIG d   1       8.210  -1.341 -11.491  0.00  0.00     0.028 H 
ATOM     67  H   LIG d   1       8.685   0.189 -10.717  0.00  0.00     0.028 H 
ENDBRANCH   1  64
TORSDOF 6
ENDMDL
MODEL 4
REMARK VINA RESULT:      -7.0      3.896      7.055
REMARK  6 active torsions:
REMARK  status: ('A' for Active; 'I' for Inactive)
REMARK    1  A    between atoms: C_1  and  C_2 
REMARK    2  A    between atoms: C_4  and  C_40 
REMARK    3  A    between atoms: C_9  and  C_27 
REMARK    4  A    between atoms: C_27  and  C_29 
REMARK    5  A    between atoms: C_32  and  O_35 
REMARK    6  A    between atoms: O_35  and  C_36 
ROOT
ATOM      1  C   LIG d   1       7.267  -2.394  -4.417  0.00  0.00    -0.050 A 
ATOM      2  C   LIG d   1       6.259  -2.521  -3.477  0.00  0.00    -0.054 A 
ATOM      3  C   LIG d   1       5.008  -1.996  -3.722  0.00  0.00    -0.029 A 
ATOM      4  C   LIG d   1       4.748  -1.333  -4.920  0.00  0.00     0.042 A 
ATOM      5  C   LIG d   1       5.769  -1.212  -5.856  0.00  0.00     0.004 A 
ATOM      6  C   LIG d   1       7.018  -1.733  -5.606  0.00  0.00    -0.052 A 
ATOM      7  C   LIG d   1       5.179  -0.457  -7.019  0.00  0.00     0.138 A 
ATOM      8  C   LIG d   1       5.231  -1.301  -8.298  0.00  0.00     0.073 C 
ATOM      9  H   LIG d   1       5.742  -2.245  -8.109  0.00  0.00     0.042 H 
ATOM     10  C   LIG d   1       6.028  -0.458  -9.300  0.00  0.00     0.102 A 
ATOM     11  C   LIG d   1       5.420  -0.505 -10.673  0.00  0.00    -0.009 A 
ATOM     12  C   LIG d   1       4.187  -0.155 -11.178  0.00  0.00    -0.056 A 
ATOM     13  C   LIG d   1       3.918  -0.319 -12.524  0.00  0.00    -0.061 A 
ATOM     14  C   LIG d   1       4.888  -0.835 -13.363  0.00  0.00    -0.060 A 
ATOM     15  C   LIG d   1       6.126  -1.185 -12.863  0.00  0.00    -0.040 A 
ATOM     16  C   LIG d   1       6.405  -1.022 -11.508  0.00  0.00     0.038 A 
ATOM     17  N   LIG d   1       7.563  -1.296 -10.777  0.00  0.00    -0.284 N 
ATOM     18  C   LIG d   1       7.425  -0.988  -9.473  0.00  0.00     0.230 A 
ATOM     19  O   LIG d   1       8.264  -1.114  -8.606  0.00  0.00    -0.274 OA
ATOM     20  C   LIG d   1       6.033   0.965  -8.732  0.00  0.00     0.030 C 
ATOM     21  H   LIG d   1       5.217   1.562  -9.140  0.00  0.00     0.048 H 
ATOM     22  N   LIG d   1       5.904   0.794  -7.260  0.00  0.00    -0.280 N 
ATOM     23  C   LIG d   1       7.291   0.704  -6.744  0.00  0.00     0.001 C 
ATOM     24  C   LIG d   1       8.054   1.755  -7.589  0.00  0.00    -0.039 C 
ATOM     25  C   LIG d   1       7.401   1.617  -9.002  0.00  0.00    -0.035 C 
ATOM     26  C   LIG d   1       3.751  -0.189  -6.615  0.00  0.00     0.243 A 
ATOM     27  O   LIG d   1       2.914   0.398  -7.267  0.00  0.00    -0.273 OA
ATOM     28  N   LIG d   1       3.584  -0.726  -5.393  0.00  0.00    -0.283 N 
ATOM     29  H   LIG d   1       6.455  -3.033  -2.546  0.00  0.00     0.062 H 
ATOM     30  H   LIG d   1       7.804  -1.629  -6.341  0.00  0.00     0.062 H 
ATOM     31  H   LIG d   1       3.430   0.248 -10.521  0.00  0.00     0.062 H 
ATOM     32  H   LIG d   1       2.951  -0.046 -12.920  0.00  0.00     0.062 H 
ATOM     33  H   LIG d   1       4.678  -0.964 -14.414  0.00  0.00     0.062 H 
ATOM     34  H   LIG d   1       6.879  -1.587 -13.524  0.00  0.00     0.064 H 
ATOM     35  H   LIG d   1       8.373  -1.664 -11.163  0.00  0.00     0.155 HD
ATOM     36  H   LIG d   1       7.326   0.962  -5.685  0.00  0.00     0.043 H 
ATOM     37  H   LIG d   1       7.700  -0.294  -6.912  0.00  0.00     0.043 H 
ATOM     38  H   LIG d   1       7.893   2.758  -7.191  0.00  0.00     0.028 H 
ATOM     39  H   LIG d   1       9.117   1.520  -7.629  0.00  0.00     0.028 H 
ATOM     40  H   LIG d   1       8.006   0.975  -9.643  0.00  0.00     0.028 H 
ATOM     41  H   LIG d   1       7.269   2.596  -9.463  0.00  0.00     0.028 H 
ATOM     42  H   LIG d   1       2.750  -0.694  -4.897  0.00  0.00     0.155 HD
ENDROOT
BRANCH   8  43
ATOM     43  C   LIG d   1       3.839  -1.555  -8.816  0.00  0.00     0.170 C 
ATOM     44  O   LIG d   1       3.101  -0.622  -9.053  0.00  0.00    -0.292 OA
BRANCH  43  45
ATOM     45  C   LIG d   1       3.375  -2.931  -9.031  0.00  0.00     0.018 A 
ATOM     46  C   LIG d   1       3.918  -3.982  -8.279  0.00  0.00    -0.048 A 
ATOM     47  C   LIG d   1       3.477  -5.265  -8.480  0.00  0.00    -0.019 A 
ATOM     48  H   LIG d   1       4.679  -3.780  -7.539  0.00  0.00     0.063 H 
ATOM     49  C   LIG d   1       2.503  -5.525  -9.437  0.00  0.00     0.120 A 
ATOM     50  H   LIG d   1       3.891  -6.074  -7.897  0.00  0.00     0.065 H 
ATOM     51  C   LIG d   1       1.965  -4.488 -10.191  0.00  0.00    -0.019 A 
ATOM     52  C   LIG d   1       2.394  -3.200  -9.993  0.00  0.00    -0.048 A 
ATOM     53  H   LIG d   1       1.208  -4.696 -10.932  0.00  0.00     0.065 H 
ATOM     54  H   LIG d   1       1.976  -2.395 -10.578  0.00  0.00     0.063 H 
BRANCH  49  55
ATOM     55  O   LIG d   1       2.075  -6.798  -9.636  0.00  0.00    -0.495 OA
BRANCH  55  56
ATOM     56  C   LIG d   1       1.002  -6.983 -10.562  0.00  0.00     0.079 C 
ATOM     57  H   LIG d   1       0.143  -6.392 -10.246  0.00  0.00     0.066 H 
ATOM     58  H   LIG d   1       1.319  -6.662 -11.554  0.00  0.00     0.066 H 
ATOM     59  H   LIG d   1       0.727  -8.037 -10.592  0.00  0.00     0.066 H 
ENDBRANCH  55  56
ENDBRANCH  49  55
ENDBRANCH  43  45
ENDBRANCH   8  43
BRANCH   3  60
ATOM     60  C   LIG d   1       3.918  -2.141  -2.691  0.00  0.00    -0.038 C 
ATOM     61  H   LIG d   1       4.255  -1.721  -1.744  0.00  0.00     0.028 H 
ATOM     62  H   LIG d   1       3.027  -1.610  -3.027  0.00  0.00     0.028 H 
ATOM     63  H   LIG d   1       3.681  -3.197  -2.558  0.00  0.00     0.028 H 
ENDBRANCH   3  60
BRANCH   1  64
ATOM     64  C   LIG d   1       8.632  -2.970  -4.143  0.00  0.00    -0.040 C 
ATOM     65  H   LIG d   1       8.555  -4.051  -4.032  0.00  0.00     0.028 H 
ATOM     66  H   LIG d   1       9.299  -2.736  -4.973  0.00  0.00     0.028 H 
ATOM     67  H   LIG d   1       9.031  -2.537  -3.225  0.00  0.00     0.028 H 
ENDBRANCH   1  64
TORSDOF 6
ENDMDL
MODEL 5
REMARK VINA RESULT:      -7.0      2.421      7.611
REMARK  6 active torsions:
REMARK  status: ('A' for Active; 'I' for Inactive)
REMARK    1  A    between atoms: C_1  and  C_2 
REMARK    2  A    between atoms: C_4  and  C_40 
REMARK    3  A    between atoms: C_9  and  C_27 
REMARK    4  A    between atoms: C_27  and  C_29 
REMARK    5  A    between atoms: C_32  and  O_35 
REMARK    6  A    between atoms: O_35  and  C_36 
ROOT
ATOM      1  C   LIG d   1       6.523  -2.182  -4.359  0.00  0.00    -0.050 A 
ATOM      2  C   LIG d   1       5.847  -2.164  -5.566  0.00  0.00    -0.054 A 
ATOM      3  C   LIG d   1       6.196  -3.039  -6.573  0.00  0.00    -0.029 A 
ATOM      4  C   LIG d   1       7.232  -3.950  -6.381  0.00  0.00     0.042 A 
ATOM      5  C   LIG d   1       7.904  -3.958  -5.164  0.00  0.00     0.004 A 
ATOM      6  C   LIG d   1       7.556  -3.080  -4.163  0.00  0.00    -0.052 A 
ATOM      7  C   LIG d   1       8.951  -5.036  -5.273  0.00  0.00     0.138 A 
ATOM      8  C   LIG d   1       8.727  -6.122  -4.213  0.00  0.00     0.073 C 
ATOM      9  H   LIG d   1       7.894  -5.851  -3.564  0.00  0.00     0.042 H 
ATOM     10  C   LIG d   1      10.031  -6.171  -3.410  0.00  0.00     0.102 A 
ATOM     11  C   LIG d   1      10.443  -7.584  -3.105  0.00  0.00    -0.009 A 
ATOM     12  C   LIG d   1      10.744  -8.675  -3.889  0.00  0.00    -0.056 A 
ATOM     13  C   LIG d   1      11.099  -9.875  -3.299  0.00  0.00    -0.061 A 
ATOM     14  C   LIG d   1      11.151  -9.976  -1.921  0.00  0.00    -0.060 A 
ATOM     15  C   LIG d   1      10.852  -8.885  -1.132  0.00  0.00    -0.040 A 
ATOM     16  C   LIG d   1      10.494  -7.673  -1.717  0.00  0.00     0.038 A 
ATOM     17  N   LIG d   1      10.156  -6.447  -1.141  0.00  0.00    -0.284 N 
ATOM     18  C   LIG d   1       9.875  -5.510  -2.068  0.00  0.00     0.230 A 
ATOM     19  O   LIG d   1       9.556  -4.359  -1.861  0.00  0.00    -0.274 OA
ATOM     20  C   LIG d   1      11.075  -5.452  -4.272  0.00  0.00     0.030 C 
ATOM     21  H   LIG d   1      11.632  -6.153  -4.895  0.00  0.00     0.048 H 
ATOM     22  N   LIG d   1      10.298  -4.486  -5.095  0.00  0.00    -0.280 N 
ATOM     23  C   LIG d   1      10.252  -3.233  -4.303  0.00  0.00     0.001 C 
ATOM     24  C   LIG d   1      11.673  -3.145  -3.693  0.00  0.00    -0.039 C 
ATOM     25  C   LIG d   1      12.011  -4.635  -3.364  0.00  0.00    -0.035 C 
ATOM     26  C   LIG d   1       8.773  -5.601  -6.660  0.00  0.00     0.243 A 
ATOM     27  O   LIG d   1       9.416  -6.497  -7.163  0.00  0.00    -0.273 OA
ATOM     28  N   LIG d   1       7.764  -4.921  -7.232  0.00  0.00    -0.283 N 
ATOM     29  H   LIG d   1       5.043  -1.459  -5.721  0.00  0.00     0.062 H 
ATOM     30  H   LIG d   1       8.089  -3.093  -3.222  0.00  0.00     0.062 H 
ATOM     31  H   LIG d   1      10.703  -8.594  -4.965  0.00  0.00     0.062 H 
ATOM     32  H   LIG d   1      11.334 -10.731  -3.913  0.00  0.00     0.062 H 
ATOM     33  H   LIG d   1      11.428 -10.913  -1.461  0.00  0.00     0.062 H 
ATOM     34  H   LIG d   1      10.896  -8.971  -0.056  0.00  0.00     0.064 H 
ATOM     35  H   LIG d   1      10.127  -6.288  -0.185  0.00  0.00     0.155 HD
ATOM     36  H   LIG d   1      10.056  -2.377  -4.950  0.00  0.00     0.043 H 
ATOM     37  H   LIG d   1       9.499  -3.302  -3.517  0.00  0.00     0.043 H 
ATOM     38  H   LIG d   1      12.380  -2.746  -4.421  0.00  0.00     0.028 H 
ATOM     39  H   LIG d   1      11.667  -2.541  -2.787  0.00  0.00     0.028 H 
ATOM     40  H   LIG d   1      11.805  -4.852  -2.316  0.00  0.00     0.028 H 
ATOM     41  H   LIG d   1      13.052  -4.856  -3.598  0.00  0.00     0.028 H 
ATOM     42  H   LIG d   1       7.442  -5.085  -8.133  0.00  0.00     0.155 HD
ENDROOT
BRANCH   8  43
ATOM     43  C   LIG d   1       8.464  -7.451  -4.871  0.00  0.00     0.170 C 
ATOM     44  O   LIG d   1       9.334  -7.986  -5.526  0.00  0.00    -0.292 OA
BRANCH  43  45
ATOM     45  C   LIG d   1       7.155  -8.100  -4.721  0.00  0.00     0.018 A 
ATOM     46  C   LIG d   1       7.019  -9.227  -3.900  0.00  0.00    -0.048 A 
ATOM     47  C   LIG d   1       5.793  -9.825  -3.759  0.00  0.00    -0.019 A 
ATOM     48  H   LIG d   1       7.877  -9.620  -3.375  0.00  0.00     0.063 H 
ATOM     49  C   LIG d   1       4.690  -9.322  -4.439  0.00  0.00     0.120 A 
ATOM     50  H   LIG d   1       5.686 -10.690  -3.122  0.00  0.00     0.065 H 
ATOM     51  C   LIG d   1       4.820  -8.208  -5.260  0.00  0.00    -0.019 A 
ATOM     52  C   LIG d   1       6.040  -7.598  -5.403  0.00  0.00    -0.048 A 
ATOM     53  H   LIG d   1       3.959  -7.821  -5.786  0.00  0.00     0.065 H 
ATOM     54  H   LIG d   1       6.141  -6.732  -6.041  0.00  0.00     0.063 H 
BRANCH  49  55
ATOM     55  O   LIG d   1       3.480  -9.922  -4.301  0.00  0.00    -0.495 OA
BRANCH  55  56
ATOM     56  C   LIG d   1       3.376 -10.954  -3.318  0.00  0.00     0.079 C 
ATOM     57  H   LIG d   1       2.731 -11.748  -3.691  0.00  0.00     0.066 H 
ATOM     58  H   LIG d   1       4.367 -11.358  -3.110  0.00  0.00     0.066 H 
ATOM     59  H   LIG d   1       2.953 -10.541  -2.402  0.00  0.00     0.066 H 
ENDBRANCH  55  56
ENDBRANCH  49  55
ENDBRANCH  43  45
ENDBRANCH   8  43
BRANCH   3  60
ATOM     60  C   LIG d   1       5.452  -3.011  -7.883  0.00  0.00    -0.038 C 
ATOM     61  H   LIG d   1       4.455  -3.426  -7.744  0.00  0.00     0.028 H 
ATOM     62  H   LIG d   1       5.372  -1.981  -8.233  0.00  0.00     0.028 H 
ATOM     63  H   LIG d   1       5.993  -3.603  -8.621  0.00  0.00     0.028 H 
ENDBRANCH   3  60
BRANCH   1  64
ATOM     64  C   LIG d   1       6.137  -1.221  -3.263  0.00  0.00    -0.040 C 
ATOM     65  H   LIG d   1       5.370  -0.540  -3.630  0.00  0.00     0.028 H 
ATOM     66  H   LIG d   1       5.750  -1.779  -2.410  0.00  0.00     0.028 H 
ATOM     67  H   LIG d   1       7.013  -0.651  -2.955  0.00  0.00     0.028 H 
ENDBRANCH   1  64
TORSDOF 6
ENDMDL
MODEL 6
REMARK VINA RESULT:      -6.9      3.183      7.183
REMARK  6 active torsions:
REMARK  status: ('A' for Active; 'I' for Inactive)
REMARK    1  A    between atoms: C_1  and  C_2 
REMARK    2  A    between atoms: C_4  and  C_40 
REMARK    3  A    between atoms: C_9  and  C_27 
REMARK    4  A    between atoms: C_27  and  C_29 
REMARK    5  A    between atoms: C_32  and  O_35 
REMARK    6  A    between atoms: O_35  and  C_36 
ROOT
ATOM      1  C   LIG d   1       2.536  -2.466 -12.527  0.00  0.00    -0.050 A 
ATOM      2  C   LIG d   1       3.414  -3.231 -13.272  0.00  0.00    -0.054 A 
ATOM      3  C   LIG d   1       4.750  -3.287 -12.934  0.00  0.00    -0.029 A 
ATOM      4  C   LIG d   1       5.225  -2.574 -11.836  0.00  0.00     0.042 A 
ATOM      5  C   LIG d   1       4.333  -1.808 -11.094  0.00  0.00     0.004 A 
ATOM      6  C   LIG d   1       3.001  -1.750 -11.438  0.00  0.00    -0.052 A 
ATOM      7  C   LIG d   1       5.144  -1.170  -9.997  0.00  0.00     0.138 A 
ATOM      8  C   LIG d   1       4.630  -1.603  -8.618  0.00  0.00     0.073 C 
ATOM      9  H   LIG d   1       3.746  -2.233  -8.724  0.00  0.00     0.042 H 
ATOM     10  C   LIG d   1       4.270  -0.300  -7.898  0.00  0.00     0.102 A 
ATOM     11  C   LIG d   1       4.709  -0.319  -6.461  0.00  0.00    -0.009 A 
ATOM     12  C   LIG d   1       5.931  -0.464  -5.843  0.00  0.00    -0.056 A 
ATOM     13  C   LIG d   1       6.016  -0.439  -4.463  0.00  0.00    -0.061 A 
ATOM     14  C   LIG d   1       4.873  -0.268  -3.704  0.00  0.00    -0.060 A 
ATOM     15  C   LIG d   1       3.646  -0.122  -4.319  0.00  0.00    -0.040 A 
ATOM     16  C   LIG d   1       3.551  -0.145  -5.708  0.00  0.00     0.038 A 
ATOM     17  N   LIG d   1       2.444  -0.017  -6.548  0.00  0.00    -0.284 N 
ATOM     18  C   LIG d   1       2.781  -0.092  -7.851  0.00  0.00     0.230 A 
ATOM     19  O   LIG d   1       2.031  -0.009  -8.800  0.00  0.00    -0.274 OA
ATOM     20  C   LIG d   1       4.969   0.814  -8.686  0.00  0.00     0.030 C 
ATOM     21  H   LIG d   1       5.946   1.051  -8.265  0.00  0.00     0.048 H 
ATOM     22  N   LIG d   1       5.082   0.293 -10.074  0.00  0.00    -0.280 N 
ATOM     23  C   LIG d   1       3.847   0.729 -10.769  0.00  0.00     0.001 C 
ATOM     24  C   LIG d   1       3.625   2.165 -10.231  0.00  0.00    -0.039 C 
ATOM     25  C   LIG d   1       4.057   2.054  -8.733  0.00  0.00    -0.035 C 
ATOM     26  C   LIG d   1       6.549  -1.668 -10.223  0.00  0.00     0.243 A 
ATOM     27  O   LIG d   1       7.527  -1.397  -9.558  0.00  0.00    -0.273 OA
ATOM     28  N   LIG d   1       6.511  -2.471 -11.301  0.00  0.00    -0.283 N 
ATOM     29  H   LIG d   1       3.052  -3.786 -14.126  0.00  0.00     0.062 H 
ATOM     30  H   LIG d   1       2.318  -1.148 -10.856  0.00  0.00     0.062 H 
ATOM     31  H   LIG d   1       6.823  -0.596  -6.437  0.00  0.00     0.062 H 
ATOM     32  H   LIG d   1       6.975  -0.553  -3.978  0.00  0.00     0.062 H 
ATOM     33  H   LIG d   1       4.940  -0.250  -2.627  0.00  0.00     0.062 H 
ATOM     34  H   LIG d   1       2.757   0.011  -3.721  0.00  0.00     0.064 H 
ATOM     35  H   LIG d   1       1.536   0.112  -6.232  0.00  0.00     0.155 HD
ATOM     36  H   LIG d   1       3.996   0.741 -11.849  0.00  0.00     0.043 H 
ATOM     37  H   LIG d   1       3.007   0.084 -10.503  0.00  0.00     0.043 H 
ATOM     38  H   LIG d   1       4.260   2.876 -10.759  0.00  0.00     0.028 H 
ATOM     39  H   LIG d   1       2.576   2.449 -10.311  0.00  0.00     0.028 H 
ATOM     40  H   LIG d   1       3.187   1.908  -8.093  0.00  0.00     0.028 H 
ATOM     41  H   LIG d   1       4.609   2.941  -8.424  0.00  0.00     0.028 H 
ATOM     42  H   LIG d   1       7.287  -2.925 -11.666  0.00  0.00     0.155 HD
ENDROOT
BRANCH   8  43
ATOM     43  C   LIG d   1       5.707  -2.341  -7.865  0.00  0.00     0.170 C 
ATOM     44  O   LIG d   1       6.835  -1.895  -7.831  0.00  0.00    -0.292 OA
BRANCH  43  45
ATOM     45  C   LIG d   1       5.392  -3.597  -7.174  0.00  0.00     0.018 A 
ATOM     46  C   LIG d   1       4.128  -4.182  -7.321  0.00  0.00    -0.048 A 
ATOM     47  C   LIG d   1       3.841  -5.359  -6.679  0.00  0.00    -0.019 A 
ATOM     48  H   LIG d   1       3.382  -3.709  -7.944  0.00  0.00     0.063 H 
ATOM     49  C   LIG d   1       4.797  -5.964  -5.872  0.00  0.00     0.120 A 
ATOM     50  H   LIG d   1       2.868  -5.813  -6.796  0.00  0.00     0.065 H 
ATOM     51  C   LIG d   1       6.052  -5.385  -5.718  0.00  0.00    -0.019 A 
ATOM     52  C   LIG d   1       6.352  -4.212  -6.361  0.00  0.00    -0.048 A 
ATOM     53  H   LIG d   1       6.792  -5.860  -5.091  0.00  0.00     0.065 H 
ATOM     54  H   LIG d   1       7.326  -3.762  -6.241  0.00  0.00     0.063 H 
BRANCH  49  55
ATOM     55  O   LIG d   1       4.506  -7.126  -5.233  0.00  0.00    -0.495 OA
BRANCH  55  56
ATOM     56  C   LIG d   1       4.900  -8.338  -5.880  0.00  0.00     0.079 C 
ATOM     57  H   LIG d   1       4.020  -8.839  -6.281  0.00  0.00     0.066 H 
ATOM     58  H   LIG d   1       5.590  -8.108  -6.692  0.00  0.00     0.066 H 
ATOM     59  H   LIG d   1       5.393  -8.990  -5.159  0.00  0.00     0.066 H 
ENDBRANCH  55  56
ENDBRANCH  49  55
ENDBRANCH  43  45
ENDBRANCH   8  43
BRANCH   3  60
ATOM     60  C   LIG d   1       5.697  -4.126 -13.753  0.00  0.00    -0.038 C 
ATOM     61  H   LIG d   1       6.683  -4.120 -13.289  0.00  0.00     0.028 H 
ATOM     62  H   LIG d   1       5.326  -5.150 -13.803  0.00  0.00     0.028 H 
ATOM     63  H   LIG d   1       5.767  -3.716 -14.761  0.00  0.00     0.028 H 
ENDBRANCH   3  60
BRANCH   1  64
ATOM     64  C   LIG d   1       1.078  -2.408 -12.903  0.00  0.00    -0.040 C 
ATOM     65  H   LIG d   1       0.941  -1.702 -13.722  0.00  0.00     0.028 H 
ATOM     66  H   LIG d   1       0.743  -3.397 -13.216  0.00  0.00     0.028 H 
ATOM     67  H   LIG d   1       0.494  -2.083 -12.042  0.00  0.00     0.028 H 
ENDBRANCH   1  64
TORSDOF 6
ENDMDL
MODEL 7
REMARK VINA RESULT:      -6.9      3.082      6.483
REMARK  6 active torsions:
REMARK  status: ('A' for Active; 'I' for Inactive)
REMARK    1  A    between atoms: C_1  and  C_2 
REMARK    2  A    between atoms: C_4  and  C_40 
REMARK    3  A    between atoms: C_9  and  C_27 
REMARK    4  A    between atoms: C_27  and  C_29 
REMARK    5  A    between atoms: C_32  and  O_35 
REMARK    6  A    between atoms: O_35  and  C_36 
ROOT
ATOM      1  C   LIG d   1       3.506  -0.768  -8.187  0.00  0.00    -0.050 A 
ATOM      2  C   LIG d   1       2.800   0.198  -7.493  0.00  0.00    -0.054 A 
ATOM      3  C   LIG d   1       2.911   0.292  -6.121  0.00  0.00    -0.029 A 
ATOM      4  C   LIG d   1       3.737  -0.586  -5.424  0.00  0.00     0.042 A 
ATOM      5  C   LIG d   1       4.442  -1.553  -6.133  0.00  0.00     0.004 A 
ATOM      6  C   LIG d   1       4.325  -1.646  -7.501  0.00  0.00    -0.052 A 
ATOM      7  C   LIG d   1       5.228  -2.329  -5.108  0.00  0.00     0.138 A 
ATOM      8  C   LIG d   1       6.733  -2.221  -5.380  0.00  0.00     0.073 C 
ATOM      9  H   LIG d   1       6.914  -1.655  -6.295  0.00  0.00     0.042 H 
ATOM     10  C   LIG d   1       7.215  -3.666  -5.546  0.00  0.00     0.102 A 
ATOM     11  C   LIG d   1       8.528  -3.897  -4.854  0.00  0.00    -0.009 A 
ATOM     12  C   LIG d   1       8.946  -3.782  -3.547  0.00  0.00    -0.056 A 
ATOM     13  C   LIG d   1      10.255  -4.074  -3.210  0.00  0.00    -0.061 A 
ATOM     14  C   LIG d   1      11.144  -4.482  -4.188  0.00  0.00    -0.060 A 
ATOM     15  C   LIG d   1      10.730  -4.601  -5.498  0.00  0.00    -0.040 A 
ATOM     16  C   LIG d   1       9.413  -4.309  -5.846  0.00  0.00     0.038 A 
ATOM     17  N   LIG d   1       8.765  -4.356  -7.082  0.00  0.00    -0.284 N 
ATOM     18  C   LIG d   1       7.469  -3.997  -6.991  0.00  0.00     0.230 A 
ATOM     19  O   LIG d   1       6.665  -3.949  -7.898  0.00  0.00    -0.274 OA
ATOM     20  C   LIG d   1       6.104  -4.542  -4.956  0.00  0.00     0.030 C 
ATOM     21  H   LIG d   1       6.294  -4.780  -3.910  0.00  0.00     0.048 H 
ATOM     22  N   LIG d   1       4.857  -3.747  -5.121  0.00  0.00    -0.280 N 
ATOM     23  C   LIG d   1       4.307  -4.134  -6.442  0.00  0.00     0.001 C 
ATOM     24  C   LIG d   1       4.561  -5.661  -6.501  0.00  0.00    -0.039 C 
ATOM     25  C   LIG d   1       5.953  -5.816  -5.808  0.00  0.00    -0.035 C 
ATOM     26  C   LIG d   1       4.876  -1.686  -3.790  0.00  0.00     0.243 A 
ATOM     27  O   LIG d   1       5.293  -2.005  -2.697  0.00  0.00    -0.273 OA
ATOM     28  N   LIG d   1       4.013  -0.691  -4.059  0.00  0.00    -0.283 N 
ATOM     29  H   LIG d   1       2.156   0.881  -8.028  0.00  0.00     0.062 H 
ATOM     30  H   LIG d   1       4.876  -2.404  -8.040  0.00  0.00     0.062 H 
ATOM     31  H   LIG d   1       8.250  -3.464  -2.785  0.00  0.00     0.062 H 
ATOM     32  H   LIG d   1      10.584  -3.983  -2.185  0.00  0.00     0.062 H 
ATOM     33  H   LIG d   1      12.166  -4.709  -3.925  0.00  0.00     0.062 H 
ATOM     34  H   LIG d   1      11.429  -4.920  -6.257  0.00  0.00     0.064 H 
ATOM     35  H   LIG d   1       9.197  -4.616  -7.910  0.00  0.00     0.155 HD
ATOM     36  H   LIG d   1       3.238  -3.919  -6.492  0.00  0.00     0.043 H 
ATOM     37  H   LIG d   1       4.840  -3.624  -7.245  0.00  0.00     0.043 H 
ATOM     38  H   LIG d   1       3.795  -6.200  -5.942  0.00  0.00     0.028 H 
ATOM     39  H   LIG d   1       4.602  -6.006  -7.533  0.00  0.00     0.028 H 
ATOM     40  H   LIG d   1       6.748  -5.869  -6.552  0.00  0.00     0.028 H 
ATOM     41  H   LIG d   1       5.971  -6.700  -5.171  0.00  0.00     0.028 H 
ATOM     42  H   LIG d   1       3.625  -0.113  -3.383  0.00  0.00     0.155 HD
ENDROOT
BRANCH   8  43
ATOM     43  C   LIG d   1       7.431  -1.565  -4.216  0.00  0.00     0.170 C 
ATOM     44  O   LIG d   1       7.434  -2.105  -3.130  0.00  0.00    -0.292 OA
BRANCH  43  45
ATOM     45  C   LIG d   1       8.104  -0.273  -4.396  0.00  0.00     0.018 A 
ATOM     46  C   LIG d   1       7.556   0.889  -3.837  0.00  0.00    -0.048 A 
ATOM     47  C   LIG d   1       8.192   2.093  -4.003  0.00  0.00    -0.019 A 
ATOM     48  H   LIG d   1       6.637   0.836  -3.271  0.00  0.00     0.063 H 
ATOM     49  C   LIG d   1       9.371   2.163  -4.736  0.00  0.00     0.120 A 
ATOM     50  H   LIG d   1       7.773   2.988  -3.568  0.00  0.00     0.065 H 
ATOM     51  C   LIG d   1       9.916   1.014  -5.299  0.00  0.00    -0.019 A 
ATOM     52  C   LIG d   1       9.292  -0.196  -5.133  0.00  0.00    -0.048 A 
ATOM     53  H   LIG d   1      10.833   1.074  -5.867  0.00  0.00     0.065 H 
ATOM     54  H   LIG d   1       9.715  -1.088  -5.570  0.00  0.00     0.063 H 
BRANCH  49  55
ATOM     55  O   LIG d   1       9.993   3.357  -4.903  0.00  0.00    -0.495 OA
BRANCH  55  56
ATOM     56  C   LIG d   1      10.051   4.222  -3.767  0.00  0.00     0.079 C 
ATOM     57  H   LIG d   1       9.047   4.368  -3.370  0.00  0.00     0.066 H 
ATOM     58  H   LIG d   1      10.683   3.774  -3.001  0.00  0.00     0.066 H 
ATOM     59  H   LIG d   1      10.468   5.184  -4.065  0.00  0.00     0.066 H 
ENDBRANCH  55  56
ENDBRANCH  49  55
ENDBRANCH  43  45
ENDBRANCH   8  43
BRANCH   3  60
ATOM     60  C   LIG d   1       2.137   1.349  -5.376  0.00  0.00    -0.038 C 
ATOM     61  H   LIG d   1       2.045   1.061  -4.330  0.00  0.00     0.028 H 
ATOM     62  H   LIG d   1       2.663   2.301  -5.447  0.00  0.00     0.028 H 
ATOM     63  H   LIG d   1       1.144   1.450  -5.815  0.00  0.00     0.028 H 
ENDBRANCH   3  60
BRANCH   1  64
ATOM     64  C   LIG d   1       3.380  -0.866  -9.686  0.00  0.00    -0.040 C 
ATOM     65  H   LIG d   1       3.228   0.130 -10.103  0.00  0.00     0.028 H 
ATOM     66  H   LIG d   1       4.290  -1.298 -10.100  0.00  0.00     0.028 H 
ATOM     67  H   LIG d   1       2.530  -1.499  -9.937  0.00  0.00     0.028 H 
ENDBRANCH   1  64
TORSDOF 6
ENDMDL
MODEL 8
REMARK VINA RESULT:      -6.8      4.031      6.879
REMARK  6 active torsions:
REMARK  status: ('A' for Active; 'I' for Inactive)
REMARK    1  A    between atoms: C_1  and  C_2 
REMARK    2  A    between atoms: C_4  and  C_40 
REMARK    3  A    between atoms: C_9  and  C_27 
REMARK    4  A    between atoms: C_27  and  C_29 
REMARK    5  A    between atoms: C_32  and  O_35 
REMARK    6  A    between atoms: O_35  and  C_36 
ROOT
ATOM      1  C   LIG d   1       7.060  -2.585 -10.989  0.00  0.00    -0.050 A 
ATOM      2  C   LIG d   1       8.157  -1.901 -11.481  0.00  0.00    -0.054 A 
ATOM      3  C   LIG d   1       8.597  -0.751 -10.859  0.00  0.00    -0.029 A 
ATOM      4  C   LIG d   1       7.940  -0.271  -9.728  0.00  0.00     0.042 A 
ATOM      5  C   LIG d   1       6.839  -0.968  -9.243  0.00  0.00     0.004 A 
ATOM      6  C   LIG d   1       6.399  -2.112  -9.869  0.00  0.00    -0.052 A 
ATOM      7  C   LIG d   1       6.361  -0.203  -8.036  0.00  0.00     0.138 A 
ATOM      8  C   LIG d   1       6.425  -1.078  -6.778  0.00  0.00     0.073 C 
ATOM      9  H   LIG d   1       6.744  -2.089  -7.035  0.00  0.00     0.042 H 
ATOM     10  C   LIG d   1       4.994  -1.096  -6.230  0.00  0.00     0.102 A 
ATOM     11  C   LIG d   1       4.970  -0.963  -4.734  0.00  0.00    -0.009 A 
ATOM     12  C   LIG d   1       5.421   0.001  -3.859  0.00  0.00    -0.056 A 
ATOM     13  C   LIG d   1       5.247  -0.165  -2.497  0.00  0.00    -0.061 A 
ATOM     14  C   LIG d   1       4.622  -1.300  -2.015  0.00  0.00    -0.060 A 
ATOM     15  C   LIG d   1       4.167  -2.268  -2.887  0.00  0.00    -0.040 A 
ATOM     16  C   LIG d   1       4.337  -2.108  -4.261  0.00  0.00     0.038 A 
ATOM     17  N   LIG d   1       3.967  -2.931  -5.326  0.00  0.00    -0.284 N 
ATOM     18  C   LIG d   1       4.313  -2.406  -6.518  0.00  0.00     0.230 A 
ATOM     19  O   LIG d   1       4.115  -2.895  -7.610  0.00  0.00    -0.274 OA
ATOM     20  C   LIG d   1       4.276   0.073  -6.913  0.00  0.00     0.030 C 
ATOM     21  H   LIG d   1       4.314   0.977  -6.306  0.00  0.00     0.048 H 
ATOM     22  N   LIG d   1       4.980   0.254  -8.211  0.00  0.00    -0.280 N 
ATOM     23  C   LIG d   1       4.261  -0.608  -9.180  0.00  0.00     0.001 C 
ATOM     24  C   LIG d   1       2.774  -0.420  -8.789  0.00  0.00    -0.039 C 
ATOM     25  C   LIG d   1       2.826  -0.335  -7.229  0.00  0.00    -0.035 C 
ATOM     26  C   LIG d   1       7.310   0.963  -7.923  0.00  0.00     0.243 A 
ATOM     27  O   LIG d   1       7.287   1.835  -7.081  0.00  0.00    -0.273 OA
ATOM     28  N   LIG d   1       8.189   0.851  -8.935  0.00  0.00    -0.283 N 
ATOM     29  H   LIG d   1       8.670  -2.268 -12.358  0.00  0.00     0.062 H 
ATOM     30  H   LIG d   1       5.540  -2.643  -9.485  0.00  0.00     0.062 H 
ATOM     31  H   LIG d   1       5.908   0.887  -4.238  0.00  0.00     0.062 H 
ATOM     32  H   LIG d   1       5.601   0.590  -1.810  0.00  0.00     0.062 H 
ATOM     33  H   LIG d   1       4.488  -1.430  -0.952  0.00  0.00     0.062 H 
ATOM     34  H   LIG d   1       3.679  -3.151  -2.504  0.00  0.00     0.064 H 
ATOM     35  H   LIG d   1       3.513  -3.781  -5.221  0.00  0.00     0.155 HD
ATOM     36  H   LIG d   1       4.436  -0.268 -10.202  0.00  0.00     0.043 H 
ATOM     37  H   LIG d   1       4.561  -1.651  -9.065  0.00  0.00     0.043 H 
ATOM     38  H   LIG d   1       2.380   0.505  -9.208  0.00  0.00     0.028 H 
ATOM     39  H   LIG d   1       2.180  -1.275  -9.110  0.00  0.00     0.028 H 
ATOM     40  H   LIG d   1       2.600  -1.305  -6.785  0.00  0.00     0.028 H 
ATOM     41  H   LIG d   1       2.132   0.421  -6.861  0.00  0.00     0.028 H 
ATOM     42  H   LIG d   1       8.912   1.478  -9.096  0.00  0.00     0.155 HD
ENDROOT
BRANCH   8  43
ATOM     43  C   LIG d   1       7.368  -0.476  -5.768  0.00  0.00     0.170 C 
ATOM     44  O   LIG d   1       7.159   0.637  -5.334  0.00  0.00    -0.292 OA
BRANCH  43  45
ATOM     45  C   LIG d   1       8.537  -1.236  -5.309  0.00  0.00     0.018 A 
ATOM     46  C   LIG d   1       9.829  -0.780  -5.600  0.00  0.00    -0.048 A 
ATOM     47  C   LIG d   1      10.919  -1.490  -5.165  0.00  0.00    -0.019 A 
ATOM     48  H   LIG d   1       9.967   0.133  -6.162  0.00  0.00     0.063 H 
ATOM     49  C   LIG d   1      10.742  -2.668  -4.447  0.00  0.00     0.120 A 
ATOM     50  H   LIG d   1      11.915  -1.137  -5.384  0.00  0.00     0.065 H 
ATOM     51  C   LIG d   1       9.461  -3.128  -4.161  0.00  0.00    -0.019 A 
ATOM     52  C   LIG d   1       8.365  -2.422  -4.586  0.00  0.00    -0.048 A 
ATOM     53  H   LIG d   1       9.329  -4.043  -3.602  0.00  0.00     0.065 H 
ATOM     54  H   LIG d   1       7.371  -2.780  -4.363  0.00  0.00     0.063 H 
BRANCH  49  55
ATOM     55  O   LIG d   1      11.823  -3.370  -4.024  0.00  0.00    -0.495 OA
BRANCH  55  56
ATOM     56  C   LIG d   1      11.574  -4.638  -3.413  0.00  0.00     0.079 C 
ATOM     57  H   LIG d   1      10.625  -5.034  -3.772  0.00  0.00     0.066 H 
ATOM     58  H   LIG d   1      12.377  -5.329  -3.671  0.00  0.00     0.066 H 
ATOM     59  H   LIG d   1      11.533  -4.517  -2.331  0.00  0.00     0.066 H 
ENDBRANCH  55  56
ENDBRANCH  49  55
ENDBRANCH  43  45
ENDBRANCH   8  43
BRANCH   3  60
ATOM     60  C   LIG d   1       9.794  -0.014 -11.403  0.00  0.00    -0.038 C 
ATOM     61  H   LIG d   1       9.846   0.976 -10.953  0.00  0.00     0.028 H 
ATOM     62  H   LIG d   1      10.701  -0.570 -11.165  0.00  0.00     0.028 H 
ATOM     63  H   LIG d   1       9.701   0.081 -12.485  0.00  0.00     0.028 H 
ENDBRANCH   3  60
BRANCH   1  64
ATOM     64  C   LIG d   1       6.584  -3.841 -11.673  0.00  0.00    -0.040 C 
ATOM     65  H   LIG d   1       6.191  -4.534 -10.930  0.00  0.00     0.028 H 
ATOM     66  H   LIG d   1       5.799  -3.590 -12.388  0.00  0.00     0.028 H 
ATOM     67  H   LIG d   1       7.417  -4.306 -12.199  0.00  0.00     0.028 H 
ENDBRANCH   1  64
TORSDOF 6
ENDMDL
MODEL 9
REMARK VINA RESULT:      -6.8      2.929      7.524
REMARK  6 active torsions:
REMARK  status: ('A' for Active; 'I' for Inactive)
REMARK    1  A    between atoms: C_1  and  C_2 
REMARK    2  A    between atoms: C_4  and  C_40 
REMARK    3  A    between atoms: C_9  and  C_27 
REMARK    4  A    between atoms: C_27  and  C_29 
REMARK    5  A    between atoms: C_32  and  O_35 
REMARK    6  A    between atoms: O_35  and  C_36 
ROOT
ATOM      1  C   LIG d   1       3.027   0.352  -6.089  0.00  0.00    -0.050 A 
ATOM      2  C   LIG d   1       2.895   1.208  -7.168  0.00  0.00    -0.054 A 
ATOM      3  C   LIG d   1       3.480   0.898  -8.378  0.00  0.00    -0.029 A 
ATOM      4  C   LIG d   1       4.208  -0.281  -8.523  0.00  0.00     0.042 A 
ATOM      5  C   LIG d   1       4.334  -1.132  -7.431  0.00  0.00     0.004 A 
ATOM      6  C   LIG d   1       3.753  -0.818  -6.224  0.00  0.00    -0.052 A 
ATOM      7  C   LIG d   1       5.165  -2.296  -7.905  0.00  0.00     0.138 A 
ATOM      8  C   LIG d   1       4.381  -3.609  -7.786  0.00  0.00     0.073 C 
ATOM      9  H   LIG d   1       3.409  -3.430  -7.325  0.00  0.00     0.042 H 
ATOM     10  C   LIG d   1       5.238  -4.506  -6.887  0.00  0.00     0.102 A 
ATOM     11  C   LIG d   1       5.280  -5.921  -7.391  0.00  0.00    -0.009 A 
ATOM     12  C   LIG d   1       5.701  -6.496  -8.569  0.00  0.00    -0.056 A 
ATOM     13  C   LIG d   1       5.611  -7.866  -8.741  0.00  0.00    -0.061 A 
ATOM     14  C   LIG d   1       5.098  -8.656  -7.729  0.00  0.00    -0.060 A 
ATOM     15  C   LIG d   1       4.676  -8.084  -6.546  0.00  0.00    -0.040 A 
ATOM     16  C   LIG d   1       4.764  -6.706  -6.364  0.00  0.00     0.038 A 
ATOM     17  N   LIG d   1       4.412  -5.906  -5.275  0.00  0.00    -0.284 N 
ATOM     18  C   LIG d   1       4.663  -4.601  -5.500  0.00  0.00     0.230 A 
ATOM     19  O   LIG d   1       4.463  -3.683  -4.734  0.00  0.00    -0.274 OA
ATOM     20  C   LIG d   1       6.632  -3.869  -6.874  0.00  0.00     0.030 C 
ATOM     21  H   LIG d   1       7.279  -4.305  -7.635  0.00  0.00     0.048 H 
ATOM     22  N   LIG d   1       6.397  -2.421  -7.120  0.00  0.00    -0.280 N 
ATOM     23  C   LIG d   1       6.228  -1.809  -5.779  0.00  0.00     0.001 C 
ATOM     24  C   LIG d   1       7.288  -2.542  -4.918  0.00  0.00    -0.039 C 
ATOM     25  C   LIG d   1       7.242  -4.004  -5.467  0.00  0.00    -0.035 C 
ATOM     26  C   LIG d   1       5.469  -1.985  -9.349  0.00  0.00     0.243 A 
ATOM     27  O   LIG d   1       6.118  -2.667 -10.113  0.00  0.00    -0.273 OA
ATOM     28  N   LIG d   1       4.882  -0.807  -9.627  0.00  0.00    -0.283 N 
ATOM     29  H   LIG d   1       2.333   2.124  -7.062  0.00  0.00     0.062 H 
ATOM     30  H   LIG d   1       3.861  -1.486  -5.381  0.00  0.00     0.062 H 
ATOM     31  H   LIG d   1       6.102  -5.878  -9.358  0.00  0.00     0.062 H 
ATOM     32  H   LIG d   1       5.940  -8.318  -9.666  0.00  0.00     0.062 H 
ATOM     33  H   LIG d   1       5.027  -9.725  -7.864  0.00  0.00     0.062 H 
ATOM     34  H   LIG d   1       4.277  -8.707  -5.760  0.00  0.00     0.064 H 
ATOM     35  H   LIG d   1       4.031  -6.250  -4.452  0.00  0.00     0.155 HD
ATOM     36  H   LIG d   1       6.434  -0.739  -5.815  0.00  0.00     0.043 H 
ATOM     37  H   LIG d   1       5.224  -1.996  -5.395  0.00  0.00     0.043 H 
ATOM     38  H   LIG d   1       8.275  -2.108  -5.073  0.00  0.00     0.028 H 
ATOM     39  H   LIG d   1       7.013  -2.516  -3.864  0.00  0.00     0.028 H 
ATOM     40  H   LIG d   1       6.608  -4.630  -4.839  0.00  0.00     0.028 H 
ATOM     41  H   LIG d   1       8.246  -4.425  -5.530  0.00  0.00     0.028 H 
ATOM     42  H   LIG d   1       4.923  -0.373 -10.494  0.00  0.00     0.155 HD
ENDROOT
BRANCH   8  43
ATOM     43  C   LIG d   1       4.205  -4.239  -9.143  0.00  0.00     0.170 C 
ATOM     44  O   LIG d   1       5.179  -4.557  -9.794  0.00  0.00    -0.292 OA
BRANCH  43  45
ATOM     45  C   LIG d   1       2.858  -4.468  -9.679  0.00  0.00     0.018 A 
ATOM     46  C   LIG d   1       2.354  -5.771  -9.780  0.00  0.00    -0.048 A 
ATOM     47  C   LIG d   1       1.092  -5.978 -10.276  0.00  0.00    -0.019 A 
ATOM     48  H   LIG d   1       2.956  -6.610  -9.464  0.00  0.00     0.063 H 
ATOM     49  C   LIG d   1       0.319  -4.899 -10.690  0.00  0.00     0.120 A 
ATOM     50  H   LIG d   1       0.700  -6.982 -10.350  0.00  0.00     0.065 H 
ATOM     51  C   LIG d   1       0.817  -3.604 -10.597  0.00  0.00    -0.019 A 
ATOM     52  C   LIG d   1       2.075  -3.385 -10.097  0.00  0.00    -0.048 A 
ATOM     53  H   LIG d   1       0.212  -2.769 -10.919  0.00  0.00     0.065 H 
ATOM     54  H   LIG d   1       2.461  -2.379 -10.025  0.00  0.00     0.063 H 
BRANCH  49  55
ATOM     55  O   LIG d   1      -0.927  -5.110 -11.185  0.00  0.00    -0.495 OA
BRANCH  55  56
ATOM     56  C   LIG d   1      -2.007  -5.094 -10.251  0.00  0.00     0.079 C 
ATOM     57  H   LIG d   1      -1.643  -4.761  -9.279  0.00  0.00     0.066 H 
ATOM     58  H   LIG d   1      -2.781  -4.412 -10.602  0.00  0.00     0.066 H 
ATOM     59  H   LIG d   1      -2.423  -6.098 -10.159  0.00  0.00     0.066 H 
ENDBRANCH  55  56
ENDBRANCH  49  55
ENDBRANCH  43  45
ENDBRANCH   8  43
BRANCH   3  60
ATOM     60  C   LIG d   1       3.329   1.837  -9.547  0.00  0.00    -0.038 C 
ATOM     61  H   LIG d   1       2.460   2.475  -9.391  0.00  0.00     0.028 H 
ATOM     62  H   LIG d   1       4.223   2.456  -9.634  0.00  0.00     0.028 H 
ATOM     63  H   LIG d   1       3.198   1.261 -10.463  0.00  0.00     0.028 H 
ENDBRANCH   3  60
BRANCH   1  64
ATOM     64  C   LIG d   1       2.386   0.697  -4.769  0.00  0.00    -0.040 C 
ATOM     65  H   LIG d   1       3.155   0.769  -4.000  0.00  0.00     0.028 H 
ATOM     66  H   LIG d   1       1.868   1.652  -4.855  0.00  0.00     0.028 H 
ATOM     67  H   LIG d   1       1.672  -0.080  -4.499  0.00  0.00     0.028 H 
ENDBRANCH   1  64
TORSDOF 6
ENDMDL
