MODEL 1
REMARK VINA RESULT:      -6.7      0.000      0.000
REMARK  6 active torsions:
REMARK  status: ('A' for Active; 'I' for Inactive)
REMARK    1  A    between atoms: C_1  and  C_2 
REMARK    2  A    between atoms: C_2  and  O_3 
REMARK    3  A    between atoms: O_3  and  C_4 
REMARK    4  A    between atoms: C_11  and  S_13 
REMARK    5  A    between atoms: S_13  and  N_16 
REMARK    6  A    between atoms: N_16  and  C_17 
ROOT
ATOM      1  C   LIG d   1       5.390   0.662  -8.510  0.00  0.00     0.324 A 
ATOM      2  N   LIG d   1       4.423   1.457  -8.905  0.00  0.00    -0.166 NA
ATOM      3  C   LIG d   1       3.207   1.414  -8.352  0.00  0.00     0.221 A 
ATOM      4  C   LIG d   1       2.935   0.529  -7.348  0.00  0.00     0.037 A 
ATOM      5  C   LIG d   1       3.961  -0.330  -6.913  0.00  0.00     0.167 A 
ATOM      6  N   LIG d   1       5.188  -0.246  -7.519  0.00  0.00    -0.162 N 
ATOM      7  N   LIG d   1       5.995  -1.207  -6.899  0.00  0.00    -0.123 NA
ATOM      8  C   LIG d   1       5.257  -1.804  -5.993  0.00  0.00     0.274 A 
ATOM      9  N   LIG d   1       4.038  -1.277  -5.991  0.00  0.00    -0.192 NA
ATOM     10  F   LIG d   1       2.240   2.250  -8.790  0.00  0.00    -0.184 F 
ATOM     11  H   LIG d   1       1.954   0.491  -6.897  0.00  0.00     0.070 H 
ENDROOT
BRANCH   8  12
ATOM     12  S   LIG d   1       5.805  -3.098  -4.931  0.00  0.00    -0.022 S 
ATOM     13  O   LIG d   1       4.666  -3.898  -4.642  0.00  0.00    -0.181 OA
ATOM     14  O   LIG d   1       6.983  -3.635  -5.519  0.00  0.00    -0.181 OA
BRANCH  12  15
ATOM     15  N   LIG d   1       6.265  -2.399  -3.502  0.00  0.00    -0.532 NA
BRANCH  15  16
ATOM     16  C   LIG d   1       5.774  -1.138  -3.150  0.00  0.00    -0.092 A 
ATOM     17  C   LIG d   1       4.562  -1.025  -2.482  0.00  0.00     0.028 A 
ATOM     18  C   LIG d   1       4.081   0.223  -2.130  0.00  0.00    -0.044 A 
ATOM     19 CL   LIG d   1       3.653  -2.450  -2.082  0.00  0.00    -0.085 Cl
ATOM     20  C   LIG d   1       4.801   1.358  -2.453  0.00  0.00    -0.059 A 
ATOM     21  H   LIG d   1       3.140   0.311  -1.607  0.00  0.00     0.063 H 
ATOM     22  C   LIG d   1       6.005   1.250  -3.124  0.00  0.00    -0.044 A 
ATOM     23  H   LIG d   1       4.421   2.332  -2.181  0.00  0.00     0.062 H 
ATOM     24  C   LIG d   1       6.495   0.005  -3.473  0.00  0.00     0.028 A 
ATOM     25  H   LIG d   1       6.565   2.139  -3.373  0.00  0.00     0.063 H 
ATOM     26 CL   LIG d   1       8.008  -0.129  -4.313  0.00  0.00    -0.085 Cl
ENDBRANCH  15  16
ENDBRANCH  12  15
ENDBRANCH   8  12
BRANCH   1  27
ATOM     27  O   LIG d   1       6.602   0.744  -9.102  0.00  0.00    -0.463 OA
BRANCH  27  28
ATOM     28  C   LIG d   1       7.364   1.929  -8.859  0.00  0.00     0.090 C 
ATOM     29  H   LIG d   1       6.707   2.797  -8.899  0.00  0.00     0.070 H 
ATOM     30  H   LIG d   1       8.138   2.024  -9.620  0.00  0.00     0.070 H 
BRANCH  28  31
ATOM     31  C   LIG d   1       8.014   1.843  -7.477  0.00  0.00    -0.031 C 
ATOM     32  H   LIG d   1       8.683   0.984  -7.444  0.00  0.00     0.026 H 
ATOM     33  H   LIG d   1       8.582   2.754  -7.287  0.00  0.00     0.026 H 
ATOM     34  H   LIG d   1       7.241   1.731  -6.718  0.00  0.00     0.026 H 
ENDBRANCH  28  31
ENDBRANCH  27  28
ENDBRANCH   1  27
TORSDOF 6
ENDMDL
MODEL 2
REMARK VINA RESULT:      -6.3      2.179      3.071
REMARK  6 active torsions:
REMARK  status: ('A' for Active; 'I' for Inactive)
REMARK    1  A    between atoms: C_1  and  C_2 
REMARK    2  A    between atoms: C_2  and  O_3 
REMARK    3  A    between atoms: O_3  and  C_4 
REMARK    4  A    between atoms: C_11  and  S_13 
REMARK    5  A    between atoms: S_13  and  N_16 
REMARK    6  A    between atoms: N_16  and  C_17 
ROOT
ATOM      1  C   LIG d   1       3.185   0.201  -7.888  0.00  0.00     0.324 A 
ATOM      2  N   LIG d   1       2.330  -0.395  -8.686  0.00  0.00    -0.166 NA
ATOM      3  C   LIG d   1       2.452  -1.685  -9.010  0.00  0.00     0.221 A 
ATOM      4  C   LIG d   1       3.483  -2.429  -8.514  0.00  0.00     0.037 A 
ATOM      5  C   LIG d   1       4.409  -1.807  -7.656  0.00  0.00     0.167 A 
ATOM      6  N   LIG d   1       4.239  -0.478  -7.361  0.00  0.00    -0.162 N 
ATOM      7  N   LIG d   1       5.293  -0.132  -6.508  0.00  0.00    -0.123 NA
ATOM      8  C   LIG d   1       6.021  -1.210  -6.336  0.00  0.00     0.274 A 
ATOM      9  N   LIG d   1       5.492  -2.220  -7.016  0.00  0.00    -0.192 NA
ATOM     10  F   LIG d   1       1.548  -2.258  -9.836  0.00  0.00    -0.184 F 
ATOM     11  H   LIG d   1       3.585  -3.473  -8.772  0.00  0.00     0.070 H 
ENDROOT
BRANCH   8  12
ATOM     12  S   LIG d   1       7.473  -1.305  -5.344  0.00  0.00    -0.022 S 
ATOM     13  O   LIG d   1       8.067  -2.569  -5.610  0.00  0.00    -0.181 OA
ATOM     14  O   LIG d   1       8.173  -0.081  -5.529  0.00  0.00    -0.181 OA
BRANCH  12  15
ATOM     15  N   LIG d   1       6.985  -1.336  -3.762  0.00  0.00    -0.532 NA
BRANCH  15  16
ATOM     16  C   LIG d   1       5.837  -0.641  -3.370  0.00  0.00    -0.092 A 
ATOM     17  C   LIG d   1       5.898   0.726  -3.132  0.00  0.00     0.028 A 
ATOM     18  C   LIG d   1       4.760   1.412  -2.750  0.00  0.00    -0.044 A 
ATOM     19 CL   LIG d   1       7.401   1.575  -3.322  0.00  0.00    -0.085 Cl
ATOM     20  C   LIG d   1       3.564   0.736  -2.594  0.00  0.00    -0.059 A 
ATOM     21  H   LIG d   1       4.806   2.476  -2.569  0.00  0.00     0.063 H 
ATOM     22  C   LIG d   1       3.501  -0.626  -2.824  0.00  0.00    -0.044 A 
ATOM     23  H   LIG d   1       2.677   1.273  -2.291  0.00  0.00     0.062 H 
ATOM     24  C   LIG d   1       4.633  -1.318  -3.212  0.00  0.00     0.028 A 
ATOM     25  H   LIG d   1       2.565  -1.151  -2.701  0.00  0.00     0.063 H 
ATOM     26 CL   LIG d   1       4.552  -3.026  -3.501  0.00  0.00    -0.085 Cl
ENDBRANCH  15  16
ENDBRANCH  12  15
ENDBRANCH   8  12
BRANCH   1  27
ATOM     27  O   LIG d   1       3.019   1.507  -7.591  0.00  0.00    -0.463 OA
BRANCH  27  28
ATOM     28  C   LIG d   1       2.855   2.408  -8.688  0.00  0.00     0.090 C 
ATOM     29  H   LIG d   1       2.399   3.332  -8.333  0.00  0.00     0.070 H 
ATOM     30  H   LIG d   1       2.212   1.951  -9.440  0.00  0.00     0.070 H 
BRANCH  28  31
ATOM     31  C   LIG d   1       4.221   2.716  -9.304  0.00  0.00    -0.031 C 
ATOM     32  H   LIG d   1       4.715   1.784  -9.576  0.00  0.00     0.026 H 
ATOM     33  H   LIG d   1       4.086   3.330 -10.195  0.00  0.00     0.026 H 
ATOM     34  H   LIG d   1       4.833   3.255  -8.581  0.00  0.00     0.026 H 
ENDBRANCH  28  31
ENDBRANCH  27  28
ENDBRANCH   1  27
TORSDOF 6
ENDMDL
MODEL 3
REMARK VINA RESULT:      -6.2      0.882      2.141
REMARK  6 active torsions:
REMARK  status: ('A' for Active; 'I' for Inactive)
REMARK    1  A    between atoms: C_1  and  C_2 
REMARK    2  A    between atoms: C_2  and  O_3 
REMARK    3  A    between atoms: O_3  and  C_4 
REMARK    4  A    between atoms: C_11  and  S_13 
REMARK    5  A    between atoms: S_13  and  N_16 
REMARK    6  A    between atoms: N_16  and  C_17 
ROOT
ATOM      1  C   LIG d   1       5.407   0.427  -8.710  0.00  0.00     0.324 A 
ATOM      2  N   LIG d   1       4.482   1.273  -9.100  0.00  0.00    -0.166 NA
ATOM      3  C   LIG d   1       3.295   1.348  -8.491  0.00  0.00     0.221 A 
ATOM      4  C   LIG d   1       3.008   0.535  -7.433  0.00  0.00     0.037 A 
ATOM      5  C   LIG d   1       3.989  -0.377  -7.001  0.00  0.00     0.167 A 
ATOM      6  N   LIG d   1       5.188  -0.415  -7.665  0.00  0.00    -0.162 N 
ATOM      7  N   LIG d   1       5.951  -1.404  -7.034  0.00  0.00    -0.123 NA
ATOM      8  C   LIG d   1       5.217  -1.900  -6.066  0.00  0.00     0.274 A 
ATOM      9  N   LIG d   1       4.042  -1.283  -6.036  0.00  0.00    -0.192 NA
ATOM     10  F   LIG d   1       2.372   2.233  -8.927  0.00  0.00    -0.184 F 
ATOM     11  H   LIG d   1       2.051   0.592  -6.936  0.00  0.00     0.070 H 
ENDROOT
BRANCH   8  12
ATOM     12  S   LIG d   1       5.720  -3.180  -4.966  0.00  0.00    -0.022 S 
ATOM     13  O   LIG d   1       4.545  -3.897  -4.612  0.00  0.00    -0.181 OA
ATOM     14  O   LIG d   1       6.845  -3.811  -5.564  0.00  0.00    -0.181 OA
BRANCH  12  15
ATOM     15  N   LIG d   1       6.265  -2.452  -3.582  0.00  0.00    -0.532 NA
BRANCH  15  16
ATOM     16  C   LIG d   1       5.829  -1.165  -3.251  0.00  0.00    -0.092 A 
ATOM     17  C   LIG d   1       6.585  -0.058  -3.615  0.00  0.00     0.028 A 
ATOM     18  C   LIG d   1       6.149   1.213  -3.290  0.00  0.00    -0.044 A 
ATOM     19 CL   LIG d   1       8.075  -0.271  -4.483  0.00  0.00    -0.085 Cl
ATOM     20  C   LIG d   1       4.967   1.382  -2.594  0.00  0.00    -0.059 A 
ATOM     21  H   LIG d   1       6.736   2.074  -3.576  0.00  0.00     0.063 H 
ATOM     22  C   LIG d   1       4.214   0.282  -2.225  0.00  0.00    -0.044 A 
ATOM     23  H   LIG d   1       4.631   2.376  -2.338  0.00  0.00     0.062 H 
ATOM     24  C   LIG d   1       4.641  -0.991  -2.551  0.00  0.00     0.028 A 
ATOM     25  H   LIG d   1       3.291   0.419  -1.682  0.00  0.00     0.063 H 
ATOM     26 CL   LIG d   1       3.695  -2.370  -2.088  0.00  0.00    -0.085 Cl
ENDBRANCH  15  16
ENDBRANCH  12  15
ENDBRANCH   8  12
BRANCH   1  27
ATOM     27  O   LIG d   1       6.591   0.390  -9.359  0.00  0.00    -0.463 OA
BRANCH  27  28
ATOM     28  C   LIG d   1       6.586  -0.126 -10.692  0.00  0.00     0.090 C 
ATOM     29  H   LIG d   1       7.414   0.308 -11.251  0.00  0.00     0.070 H 
ATOM     30  H   LIG d   1       5.645   0.133 -11.177  0.00  0.00     0.070 H 
BRANCH  28  31
ATOM     31  C   LIG d   1       6.738  -1.647 -10.651  0.00  0.00    -0.031 C 
ATOM     32  H   LIG d   1       5.784  -2.114 -10.895  0.00  0.00     0.026 H 
ATOM     33  H   LIG d   1       7.490  -1.955 -11.378  0.00  0.00     0.026 H 
ATOM     34  H   LIG d   1       7.049  -1.956  -9.653  0.00  0.00     0.026 H 
ENDBRANCH  28  31
ENDBRANCH  27  28
ENDBRANCH   1  27
TORSDOF 6
ENDMDL
MODEL 4
REMARK VINA RESULT:      -6.2      3.665      4.457
REMARK  6 active torsions:
REMARK  status: ('A' for Active; 'I' for Inactive)
REMARK    1  A    between atoms: C_1  and  C_2 
REMARK    2  A    between atoms: C_2  and  O_3 
REMARK    3  A    between atoms: O_3  and  C_4 
REMARK    4  A    between atoms: C_11  and  S_13 
REMARK    5  A    between atoms: S_13  and  N_16 
REMARK    6  A    between atoms: N_16  and  C_17 
ROOT
ATOM      1  C   LIG d   1       2.235  -3.151 -10.309  0.00  0.00     0.324 A 
ATOM      2  N   LIG d   1       1.377  -2.639 -11.161  0.00  0.00    -0.166 NA
ATOM      3  C   LIG d   1       1.074  -1.338 -11.157  0.00  0.00     0.221 A 
ATOM      4  C   LIG d   1       1.655  -0.495 -10.255  0.00  0.00     0.037 A 
ATOM      5  C   LIG d   1       2.578  -1.027  -9.335  0.00  0.00     0.167 A 
ATOM      6  N   LIG d   1       2.848  -2.370  -9.380  0.00  0.00    -0.162 N 
ATOM      7  N   LIG d   1       3.778  -2.614  -8.362  0.00  0.00    -0.123 NA
ATOM      8  C   LIG d   1       4.014  -1.466  -7.772  0.00  0.00     0.274 A 
ATOM      9  N   LIG d   1       3.303  -0.509  -8.356  0.00  0.00    -0.192 NA
ATOM     10  F   LIG d   1       0.185  -0.854 -12.052  0.00  0.00    -0.184 F 
ATOM     11  H   LIG d   1       1.414   0.558 -10.249  0.00  0.00     0.070 H 
ENDROOT
BRANCH   8  12
ATOM     12  S   LIG d   1       5.117  -1.230  -6.420  0.00  0.00    -0.022 S 
ATOM     13  O   LIG d   1       6.118  -2.234  -6.530  0.00  0.00    -0.181 OA
ATOM     14  O   LIG d   1       5.431   0.157  -6.388  0.00  0.00    -0.181 OA
BRANCH  12  15
ATOM     15  N   LIG d   1       4.271  -1.556  -5.034  0.00  0.00    -0.532 NA
BRANCH  15  16
ATOM     16  C   LIG d   1       4.275  -0.638  -3.979  0.00  0.00    -0.092 A 
ATOM     17  C   LIG d   1       3.286   0.333  -3.897  0.00  0.00     0.028 A 
ATOM     18  C   LIG d   1       3.290   1.236  -2.850  0.00  0.00    -0.044 A 
ATOM     19 CL   LIG d   1       2.041   0.410  -5.105  0.00  0.00    -0.085 Cl
ATOM     20  C   LIG d   1       4.284   1.178  -1.891  0.00  0.00    -0.059 A 
ATOM     21  H   LIG d   1       2.519   1.989  -2.784  0.00  0.00     0.063 H 
ATOM     22  C   LIG d   1       5.274   0.217  -1.973  0.00  0.00    -0.044 A 
ATOM     23  H   LIG d   1       4.288   1.888  -1.076  0.00  0.00     0.062 H 
ATOM     24  C   LIG d   1       5.274  -0.693  -3.014  0.00  0.00     0.028 A 
ATOM     25  H   LIG d   1       6.049   0.175  -1.221  0.00  0.00     0.063 H 
ATOM     26 CL   LIG d   1       6.516  -1.900  -3.114  0.00  0.00    -0.085 Cl
ENDBRANCH  15  16
ENDBRANCH  12  15
ENDBRANCH   8  12
BRANCH   1  27
ATOM     27  O   LIG d   1       2.508  -4.473 -10.353  0.00  0.00    -0.463 OA
BRANCH  27  28
ATOM     28  C   LIG d   1       1.406  -5.370 -10.203  0.00  0.00     0.090 C 
ATOM     29  H   LIG d   1       0.635  -5.122 -10.933  0.00  0.00     0.070 H 
ATOM     30  H   LIG d   1       0.996  -5.278  -9.198  0.00  0.00     0.070 H 
BRANCH  28  31
ATOM     31  C   LIG d   1       1.882  -6.806 -10.432  0.00  0.00    -0.031 C 
ATOM     32  H   LIG d   1       1.772  -7.375  -9.509  0.00  0.00     0.026 H 
ATOM     33  H   LIG d   1       1.281  -7.266 -11.216  0.00  0.00     0.026 H 
ATOM     34  H   LIG d   1       2.929  -6.799 -10.732  0.00  0.00     0.026 H 
ENDBRANCH  28  31
ENDBRANCH  27  28
ENDBRANCH   1  27
TORSDOF 6
ENDMDL
MODEL 5
REMARK VINA RESULT:      -6.1      3.594      6.425
REMARK  6 active torsions:
REMARK  status: ('A' for Active; 'I' for Inactive)
REMARK    1  A    between atoms: C_1  and  C_2 
REMARK    2  A    between atoms: C_2  and  O_3 
REMARK    3  A    between atoms: O_3  and  C_4 
REMARK    4  A    between atoms: C_11  and  S_13 
REMARK    5  A    between atoms: S_13  and  N_16 
REMARK    6  A    between atoms: N_16  and  C_17 
ROOT
ATOM      1  C   LIG d   1       4.796  -0.661  -4.878  0.00  0.00     0.324 A 
ATOM      2  N   LIG d   1       4.625  -1.843  -4.335  0.00  0.00    -0.166 NA
ATOM      3  C   LIG d   1       4.838  -2.970  -5.020  0.00  0.00     0.221 A 
ATOM      4  C   LIG d   1       5.244  -2.921  -6.322  0.00  0.00     0.037 A 
ATOM      5  C   LIG d   1       5.433  -1.661  -6.921  0.00  0.00     0.167 A 
ATOM      6  N   LIG d   1       5.194  -0.538  -6.172  0.00  0.00    -0.162 N 
ATOM      7  N   LIG d   1       5.451   0.551  -7.013  0.00  0.00    -0.123 NA
ATOM      8  C   LIG d   1       5.811   0.064  -8.177  0.00  0.00     0.274 A 
ATOM      9  N   LIG d   1       5.810  -1.263  -8.126  0.00  0.00    -0.192 NA
ATOM     10  F   LIG d   1       4.649  -4.167  -4.420  0.00  0.00    -0.184 F 
ATOM     11  H   LIG d   1       5.419  -3.829  -6.881  0.00  0.00     0.070 H 
ENDROOT
BRANCH   8  12
ATOM     12  S   LIG d   1       6.244   1.025  -9.588  0.00  0.00    -0.022 S 
ATOM     13  O   LIG d   1       6.634   2.304  -9.107  0.00  0.00    -0.181 OA
ATOM     14  O   LIG d   1       7.104   0.217 -10.382  0.00  0.00    -0.181 OA
BRANCH  12  15
ATOM     15  N   LIG d   1       4.861   1.252 -10.470  0.00  0.00    -0.532 NA
BRANCH  15  16
ATOM     16  C   LIG d   1       3.783   0.374 -10.319  0.00  0.00    -0.092 A 
ATOM     17  C   LIG d   1       2.766   0.667  -9.420  0.00  0.00     0.028 A 
ATOM     18  C   LIG d   1       1.700  -0.201  -9.277  0.00  0.00    -0.044 A 
ATOM     19 CL   LIG d   1       2.831   2.126  -8.479  0.00  0.00    -0.085 Cl
ATOM     20  C   LIG d   1       1.650  -1.365 -10.021  0.00  0.00    -0.059 A 
ATOM     21  H   LIG d   1       0.907   0.029  -8.580  0.00  0.00     0.063 H 
ATOM     22  C   LIG d   1       2.664  -1.663 -10.914  0.00  0.00    -0.044 A 
ATOM     23  H   LIG d   1       0.818  -2.043  -9.905  0.00  0.00     0.062 H 
ATOM     24  C   LIG d   1       3.731  -0.797 -11.066  0.00  0.00     0.028 A 
ATOM     25  H   LIG d   1       2.621  -2.573 -11.494  0.00  0.00     0.063 H 
ATOM     26 CL   LIG d   1       5.000  -1.171 -12.187  0.00  0.00    -0.085 Cl
ENDBRANCH  15  16
ENDBRANCH  12  15
ENDBRANCH   8  12
BRANCH   1  27
ATOM     27  O   LIG d   1       4.567   0.449  -4.143  0.00  0.00    -0.463 OA
BRANCH  27  28
ATOM     28  C   LIG d   1       5.402   0.657  -3.003  0.00  0.00     0.090 C 
ATOM     29  H   LIG d   1       6.032   1.530  -3.169  0.00  0.00     0.070 H 
ATOM     30  H   LIG d   1       6.030  -0.220  -2.848  0.00  0.00     0.070 H 
BRANCH  28  31
ATOM     31  C   LIG d   1       4.530   0.885  -1.766  0.00  0.00    -0.031 C 
ATOM     32  H   LIG d   1       5.030   1.581  -1.093  0.00  0.00     0.026 H 
ATOM     33  H   LIG d   1       3.570   1.302  -2.072  0.00  0.00     0.026 H 
ATOM     34  H   LIG d   1       4.368  -0.063  -1.255  0.00  0.00     0.026 H 
ENDBRANCH  28  31
ENDBRANCH  27  28
ENDBRANCH   1  27
TORSDOF 6
ENDMDL
MODEL 6
REMARK VINA RESULT:      -6.1      3.783      6.371
REMARK  6 active torsions:
REMARK  status: ('A' for Active; 'I' for Inactive)
REMARK    1  A    between atoms: C_1  and  C_2 
REMARK    2  A    between atoms: C_2  and  O_3 
REMARK    3  A    between atoms: O_3  and  C_4 
REMARK    4  A    between atoms: C_11  and  S_13 
REMARK    5  A    between atoms: S_13  and  N_16 
REMARK    6  A    between atoms: N_16  and  C_17 
ROOT
ATOM      1  C   LIG d   1       5.858   0.390  -3.696  0.00  0.00     0.324 A 
ATOM      2  N   LIG d   1       5.423  -0.120  -2.567  0.00  0.00    -0.166 NA
ATOM      3  C   LIG d   1       4.806  -1.304  -2.522  0.00  0.00     0.221 A 
ATOM      4  C   LIG d   1       4.606  -2.024  -3.664  0.00  0.00     0.037 A 
ATOM      5  C   LIG d   1       5.067  -1.493  -4.883  0.00  0.00     0.167 A 
ATOM      6  N   LIG d   1       5.690  -0.272  -4.872  0.00  0.00    -0.162 N 
ATOM      7  N   LIG d   1       6.027   0.005  -6.202  0.00  0.00    -0.123 NA
ATOM      8  C   LIG d   1       5.611  -1.008  -6.925  0.00  0.00     0.274 A 
ATOM      9  N   LIG d   1       5.040  -1.914  -6.138  0.00  0.00    -0.192 NA
ATOM     10  F   LIG d   1       4.374  -1.791  -1.337  0.00  0.00    -0.184 F 
ATOM     11  H   LIG d   1       4.108  -2.982  -3.633  0.00  0.00     0.070 H 
ENDROOT
BRANCH   8  12
ATOM     12  S   LIG d   1       5.793  -1.151  -8.671  0.00  0.00    -0.022 S 
ATOM     13  O   LIG d   1       7.139  -0.805  -8.970  0.00  0.00    -0.181 OA
ATOM     14  O   LIG d   1       5.229  -2.404  -9.037  0.00  0.00    -0.181 OA
BRANCH  12  15
ATOM     15  N   LIG d   1       4.841   0.016  -9.360  0.00  0.00    -0.532 NA
BRANCH  15  16
ATOM     16  C   LIG d   1       3.671  -0.344 -10.035  0.00  0.00    -0.092 A 
ATOM     17  C   LIG d   1       3.710  -0.628 -11.394  0.00  0.00     0.028 A 
ATOM     18  C   LIG d   1       2.552  -0.989 -12.057  0.00  0.00    -0.044 A 
ATOM     19 CL   LIG d   1       5.213  -0.536 -12.258  0.00  0.00    -0.085 Cl
ATOM     20  C   LIG d   1       1.354  -1.057 -11.371  0.00  0.00    -0.059 A 
ATOM     21  H   LIG d   1       2.582  -1.213 -13.114  0.00  0.00     0.063 H 
ATOM     22  C   LIG d   1       1.310  -0.769 -10.019  0.00  0.00    -0.044 A 
ATOM     23  H   LIG d   1       0.449  -1.335 -11.892  0.00  0.00     0.062 H 
ATOM     24  C   LIG d   1       2.464  -0.414  -9.348  0.00  0.00     0.028 A 
ATOM     25  H   LIG d   1       0.372  -0.825  -9.487  0.00  0.00     0.063 H 
ATOM     26 CL   LIG d   1       2.408  -0.055  -7.651  0.00  0.00    -0.085 Cl
ENDBRANCH  15  16
ENDBRANCH  12  15
ENDBRANCH   8  12
BRANCH   1  27
ATOM     27  O   LIG d   1       6.477   1.590  -3.690  0.00  0.00    -0.463 OA
BRANCH  27  28
ATOM     28  C   LIG d   1       7.905   1.585  -3.734  0.00  0.00     0.090 C 
ATOM     29  H   LIG d   1       8.255   0.603  -4.051  0.00  0.00     0.070 H 
ATOM     30  H   LIG d   1       8.301   1.810  -2.744  0.00  0.00     0.070 H 
BRANCH  28  31
ATOM     31  C   LIG d   1       8.388   2.643  -4.729  0.00  0.00    -0.031 C 
ATOM     32  H   LIG d   1       9.143   3.269  -4.254  0.00  0.00     0.026 H 
ATOM     33  H   LIG d   1       8.819   2.152  -5.600  0.00  0.00     0.026 H 
ATOM     34  H   LIG d   1       7.546   3.262  -5.039  0.00  0.00     0.026 H 
ENDBRANCH  28  31
ENDBRANCH  27  28
ENDBRANCH   1  27
TORSDOF 6
ENDMDL
MODEL 7
REMARK VINA RESULT:      -6.0      4.751      5.761
REMARK  6 active torsions:
REMARK  status: ('A' for Active; 'I' for Inactive)
REMARK    1  A    between atoms: C_1  and  C_2 
REMARK    2  A    between atoms: C_2  and  O_3 
REMARK    3  A    between atoms: O_3  and  C_4 
REMARK    4  A    between atoms: C_11  and  S_13 
REMARK    5  A    between atoms: S_13  and  N_16 
REMARK    6  A    between atoms: N_16  and  C_17 
ROOT
ATOM      1  C   LIG d   1       9.896   4.869  -5.500  0.00  0.00     0.324 A 
ATOM      2  N   LIG d   1      10.422   5.720  -4.651  0.00  0.00    -0.166 NA
ATOM      3  C   LIG d   1      10.429   5.488  -3.335  0.00  0.00     0.221 A 
ATOM      4  C   LIG d   1       9.881   4.343  -2.832  0.00  0.00     0.037 A 
ATOM      5  C   LIG d   1       9.314   3.419  -3.728  0.00  0.00     0.167 A 
ATOM      6  N   LIG d   1       9.329   3.711  -5.068  0.00  0.00    -0.162 N 
ATOM      7  N   LIG d   1       8.700   2.636  -5.707  0.00  0.00    -0.123 NA
ATOM      8  C   LIG d   1       8.345   1.786  -4.773  0.00  0.00     0.274 A 
ATOM      9  N   LIG d   1       8.717   2.246  -3.585  0.00  0.00    -0.192 NA
ATOM     10  F   LIG d   1      10.981   6.393  -2.497  0.00  0.00    -0.184 F 
ATOM     11  H   LIG d   1       9.886   4.150  -1.769  0.00  0.00     0.070 H 
ENDROOT
BRANCH   8  12
ATOM     12  S   LIG d   1       7.513   0.259  -5.056  0.00  0.00    -0.022 S 
ATOM     13  O   LIG d   1       6.245   0.582  -5.611  0.00  0.00    -0.181 OA
ATOM     14  O   LIG d   1       8.439  -0.593  -5.718  0.00  0.00    -0.181 OA
BRANCH  12  15
ATOM     15  N   LIG d   1       7.221  -0.421  -3.574  0.00  0.00    -0.532 NA
BRANCH  15  16
ATOM     16  C   LIG d   1       5.954  -0.932  -3.277  0.00  0.00    -0.092 A 
ATOM     17  C   LIG d   1       5.002  -0.124  -2.669  0.00  0.00     0.028 A 
ATOM     18  C   LIG d   1       3.748  -0.632  -2.381  0.00  0.00    -0.044 A 
ATOM     19 CL   LIG d   1       5.383   1.524  -2.277  0.00  0.00    -0.085 Cl
ATOM     20  C   LIG d   1       3.446  -1.945  -2.688  0.00  0.00    -0.059 A 
ATOM     21  H   LIG d   1       3.007  -0.002  -1.912  0.00  0.00     0.063 H 
ATOM     22  C   LIG d   1       4.394  -2.754  -3.287  0.00  0.00    -0.044 A 
ATOM     23  H   LIG d   1       2.467  -2.340  -2.458  0.00  0.00     0.062 H 
ATOM     24  C   LIG d   1       5.647  -2.253  -3.584  0.00  0.00     0.028 A 
ATOM     25  H   LIG d   1       4.153  -3.780  -3.526  0.00  0.00     0.063 H 
ATOM     26 CL   LIG d   1       6.834  -3.269  -4.338  0.00  0.00    -0.085 Cl
ENDBRANCH  15  16
ENDBRANCH  12  15
ENDBRANCH   8  12
BRANCH   1  27
ATOM     27  O   LIG d   1       9.913   5.149  -6.821  0.00  0.00    -0.463 OA
BRANCH  27  28
ATOM     28  C   LIG d   1      10.404   6.435  -7.206  0.00  0.00     0.090 C 
ATOM     29  H   LIG d   1      11.406   6.331  -7.623  0.00  0.00     0.070 H 
ATOM     30  H   LIG d   1      10.441   7.086  -6.333  0.00  0.00     0.070 H 
BRANCH  28  31
ATOM     31  C   LIG d   1       9.474   7.043  -8.257  0.00  0.00    -0.031 C 
ATOM     32  H   LIG d   1       8.870   6.255  -8.706  0.00  0.00     0.026 H 
ATOM     33  H   LIG d   1       8.821   7.775  -7.783  0.00  0.00     0.026 H 
ATOM     34  H   LIG d   1      10.067   7.531  -9.030  0.00  0.00     0.026 H 
ENDBRANCH  28  31
ENDBRANCH  27  28
ENDBRANCH   1  27
TORSDOF 6
ENDMDL
MODEL 8
REMARK VINA RESULT:      -6.0      3.157      5.353
REMARK  6 active torsions:
REMARK  status: ('A' for Active; 'I' for Inactive)
REMARK    1  A    between atoms: C_1  and  C_2 
REMARK    2  A    between atoms: C_2  and  O_3 
REMARK    3  A    between atoms: O_3  and  C_4 
REMARK    4  A    between atoms: C_11  and  S_13 
REMARK    5  A    between atoms: S_13  and  N_16 
REMARK    6  A    between atoms: N_16  and  C_17 
ROOT
ATOM      1  C   LIG d   1       6.024   0.378  -4.171  0.00  0.00     0.324 A 
ATOM      2  N   LIG d   1       5.339   1.005  -3.242  0.00  0.00    -0.166 NA
ATOM      3  C   LIG d   1       4.003   0.998  -3.228  0.00  0.00     0.221 A 
ATOM      4  C   LIG d   1       3.304   0.331  -4.193  0.00  0.00     0.037 A 
ATOM      5  C   LIG d   1       4.023  -0.346  -5.196  0.00  0.00     0.167 A 
ATOM      6  N   LIG d   1       5.393  -0.302  -5.165  0.00  0.00    -0.162 N 
ATOM      7  N   LIG d   1       5.831  -1.043  -6.269  0.00  0.00    -0.123 NA
ATOM      8  C   LIG d   1       4.761  -1.477  -6.891  0.00  0.00     0.274 A 
ATOM      9  N   LIG d   1       3.673  -1.069  -6.249  0.00  0.00    -0.192 NA
ATOM     10  F   LIG d   1       3.339   1.657  -2.253  0.00  0.00    -0.184 F 
ATOM     11  H   LIG d   1       2.224   0.322  -4.186  0.00  0.00     0.070 H 
ENDROOT
BRANCH   8  12
ATOM     12  S   LIG d   1       4.767  -2.463  -8.351  0.00  0.00    -0.022 S 
ATOM     13  O   LIG d   1       6.079  -2.996  -8.477  0.00  0.00    -0.181 OA
ATOM     14  O   LIG d   1       3.613  -3.291  -8.287  0.00  0.00    -0.181 OA
BRANCH  12  15
ATOM     15  N   LIG d   1       4.546  -1.441  -9.635  0.00  0.00    -0.532 NA
BRANCH  15  16
ATOM     16  C   LIG d   1       4.315  -0.080  -9.413  0.00  0.00    -0.092 A 
ATOM     17  C   LIG d   1       5.384   0.804  -9.331  0.00  0.00     0.028 A 
ATOM     18  C   LIG d   1       5.151   2.150  -9.117  0.00  0.00    -0.044 A 
ATOM     19 CL   LIG d   1       7.010   0.219  -9.502  0.00  0.00    -0.085 Cl
ATOM     20  C   LIG d   1       3.857   2.614  -8.975  0.00  0.00    -0.059 A 
ATOM     21  H   LIG d   1       5.982   2.838  -9.056  0.00  0.00     0.063 H 
ATOM     22  C   LIG d   1       2.791   1.737  -9.050  0.00  0.00    -0.044 A 
ATOM     23  H   LIG d   1       3.679   3.666  -8.803  0.00  0.00     0.062 H 
ATOM     24  C   LIG d   1       3.015   0.391  -9.270  0.00  0.00     0.028 A 
ATOM     25  H   LIG d   1       1.782   2.105  -8.939  0.00  0.00     0.063 H 
ATOM     26 CL   LIG d   1       1.676  -0.709  -9.366  0.00  0.00    -0.085 Cl
ENDBRANCH  15  16
ENDBRANCH  12  15
ENDBRANCH   8  12
BRANCH   1  27
ATOM     27  O   LIG d   1       7.373   0.415  -4.142  0.00  0.00    -0.463 OA
BRANCH  27  28
ATOM     28  C   LIG d   1       8.006   1.538  -4.757  0.00  0.00     0.090 C 
ATOM     29  H   LIG d   1       7.250   2.174  -5.218  0.00  0.00     0.070 H 
ATOM     30  H   LIG d   1       8.702   1.190  -5.521  0.00  0.00     0.070 H 
BRANCH  28  31
ATOM     31  C   LIG d   1       8.769   2.338  -3.699  0.00  0.00    -0.031 C 
ATOM     32  H   LIG d   1       8.118   2.521  -2.844  0.00  0.00     0.026 H 
ATOM     33  H   LIG d   1       9.642   1.772  -3.376  0.00  0.00     0.026 H 
ATOM     34  H   LIG d   1       9.088   3.290  -4.122  0.00  0.00     0.026 H 
ENDBRANCH  28  31
ENDBRANCH  27  28
ENDBRANCH   1  27
TORSDOF 6
ENDMDL
MODEL 9
REMARK VINA RESULT:      -5.9      4.097      6.025
REMARK  6 active torsions:
REMARK  status: ('A' for Active; 'I' for Inactive)
REMARK    1  A    between atoms: C_1  and  C_2 
REMARK    2  A    between atoms: C_2  and  O_3 
REMARK    3  A    between atoms: O_3  and  C_4 
REMARK    4  A    between atoms: C_11  and  S_13 
REMARK    5  A    between atoms: S_13  and  N_16 
REMARK    6  A    between atoms: N_16  and  C_17 
ROOT
ATOM      1  C   LIG d   1       5.708   0.004  -4.395  0.00  0.00     0.324 A 
ATOM      2  N   LIG d   1       5.446   0.686  -3.304  0.00  0.00    -0.166 NA
ATOM      3  C   LIG d   1       4.792   0.142  -2.274  0.00  0.00     0.221 A 
ATOM      4  C   LIG d   1       4.371  -1.156  -2.329  0.00  0.00     0.037 A 
ATOM      5  C   LIG d   1       4.643  -1.901  -3.491  0.00  0.00     0.167 A 
ATOM      6  N   LIG d   1       5.314  -1.291  -4.520  0.00  0.00    -0.162 N 
ATOM      7  N   LIG d   1       5.435  -2.253  -5.530  0.00  0.00    -0.123 NA
ATOM      8  C   LIG d   1       4.857  -3.347  -5.092  0.00  0.00     0.274 A 
ATOM      9  N   LIG d   1       4.387  -3.145  -3.867  0.00  0.00    -0.192 NA
ATOM     10  F   LIG d   1       4.544   0.881  -1.170  0.00  0.00    -0.184 F 
ATOM     11  H   LIG d   1       3.842  -1.600  -1.499  0.00  0.00     0.070 H 
ENDROOT
BRANCH   8  12
ATOM     12  S   LIG d   1       4.736  -4.858  -5.989  0.00  0.00    -0.022 S 
ATOM     13  O   LIG d   1       5.791  -5.692  -5.528  0.00  0.00    -0.181 OA
ATOM     14  O   LIG d   1       3.372  -5.255  -5.934  0.00  0.00    -0.181 OA
BRANCH  12  15
ATOM     15  N   LIG d   1       5.065  -4.514  -7.576  0.00  0.00    -0.532 NA
BRANCH  15  16
ATOM     16  C   LIG d   1       4.097  -4.745  -8.557  0.00  0.00    -0.092 A 
ATOM     17  C   LIG d   1       3.300  -3.702  -9.009  0.00  0.00     0.028 A 
ATOM     18  C   LIG d   1       2.346  -3.933  -9.984  0.00  0.00    -0.044 A 
ATOM     19 CL   LIG d   1       3.505  -2.106  -8.356  0.00  0.00    -0.085 Cl
ATOM     20  C   LIG d   1       2.179  -5.204 -10.500  0.00  0.00    -0.059 A 
ATOM     21  H   LIG d   1       1.729  -3.120 -10.338  0.00  0.00     0.063 H 
ATOM     22  C   LIG d   1       2.966  -6.247 -10.048  0.00  0.00    -0.044 A 
ATOM     23  H   LIG d   1       1.431  -5.383 -11.258  0.00  0.00     0.062 H 
ATOM     24  C   LIG d   1       3.925  -6.023  -9.078  0.00  0.00     0.028 A 
ATOM     25  H   LIG d   1       2.832  -7.239 -10.454  0.00  0.00     0.063 H 
ATOM     26 CL   LIG d   1       4.914  -7.332  -8.513  0.00  0.00    -0.085 Cl
ENDBRANCH  15  16
ENDBRANCH  12  15
ENDBRANCH   8  12
BRANCH   1  27
ATOM     27  O   LIG d   1       6.372   0.599  -5.408  0.00  0.00    -0.463 OA
BRANCH  27  28
ATOM     28  C   LIG d   1       7.800   0.592  -5.343  0.00  0.00     0.090 C 
ATOM     29  H   LIG d   1       8.200   0.060  -6.205  0.00  0.00     0.070 H 
ATOM     30  H   LIG d   1       8.119   0.094  -4.428  0.00  0.00     0.070 H 
BRANCH  28  31
ATOM     31  C   LIG d   1       8.317   2.032  -5.347  0.00  0.00    -0.031 C 
ATOM     32  H   LIG d   1       8.570   2.323  -6.366  0.00  0.00     0.026 H 
ATOM     33  H   LIG d   1       7.545   2.696  -4.960  0.00  0.00     0.026 H 
ATOM     34  H   LIG d   1       9.205   2.101  -4.719  0.00  0.00     0.026 H 
ENDBRANCH  28  31
ENDBRANCH  27  28
ENDBRANCH   1  27
TORSDOF 6
ENDMDL
MODEL 10
REMARK VINA RESULT:      -5.9      1.993      2.608
REMARK  6 active torsions:
REMARK  status: ('A' for Active; 'I' for Inactive)
REMARK    1  A    between atoms: C_1  and  C_2 
REMARK    2  A    between atoms: C_2  and  O_3 
REMARK    3  A    between atoms: O_3  and  C_4 
REMARK    4  A    between atoms: C_11  and  S_13 
REMARK    5  A    between atoms: S_13  and  N_16 
REMARK    6  A    between atoms: N_16  and  C_17 
ROOT
ATOM      1  C   LIG d   1       4.665  -0.907  -8.490  0.00  0.00     0.324 A 
ATOM      2  N   LIG d   1       4.236   0.071  -9.254  0.00  0.00    -0.166 NA
ATOM      3  C   LIG d   1       3.479   1.060  -8.773  0.00  0.00     0.221 A 
ATOM      4  C   LIG d   1       3.125   1.081  -7.454  0.00  0.00     0.037 A 
ATOM      5  C   LIG d   1       3.576   0.041  -6.621  0.00  0.00     0.167 A 
ATOM      6  N   LIG d   1       4.347  -0.951  -7.169  0.00  0.00    -0.162 N 
ATOM      7  N   LIG d   1       4.637  -1.838  -6.126  0.00  0.00    -0.123 NA
ATOM      8  C   LIG d   1       4.056  -1.370  -5.047  0.00  0.00     0.274 A 
ATOM      9  N   LIG d   1       3.424  -0.239  -5.335  0.00  0.00    -0.192 NA
ATOM     10  F   LIG d   1       3.060   2.047  -9.596  0.00  0.00    -0.184 F 
ATOM     11  H   LIG d   1       2.513   1.880  -7.060  0.00  0.00     0.070 H 
ENDROOT
BRANCH   8  12
ATOM     12  S   LIG d   1       4.116  -2.122  -3.455  0.00  0.00    -0.022 S 
ATOM     13  O   LIG d   1       3.068  -1.541  -2.690  0.00  0.00    -0.181 OA
ATOM     14  O   LIG d   1       4.213  -3.524  -3.671  0.00  0.00    -0.181 OA
BRANCH  12  15
ATOM     15  N   LIG d   1       5.536  -1.653  -2.745  0.00  0.00    -0.532 NA
BRANCH  15  16
ATOM     16  C   LIG d   1       6.366  -0.727  -3.384  0.00  0.00    -0.092 A 
ATOM     17  C   LIG d   1       7.374  -1.164  -4.234  0.00  0.00     0.028 A 
ATOM     18  C   LIG d   1       8.189  -0.245  -4.868  0.00  0.00    -0.044 A 
ATOM     19 CL   LIG d   1       7.606  -2.864  -4.503  0.00  0.00    -0.085 Cl
ATOM     20  C   LIG d   1       8.008   1.108  -4.649  0.00  0.00    -0.059 A 
ATOM     21  H   LIG d   1       8.971  -0.585  -5.531  0.00  0.00     0.063 H 
ATOM     22  C   LIG d   1       7.010   1.547  -3.799  0.00  0.00    -0.044 A 
ATOM     23  H   LIG d   1       8.649   1.823  -5.142  0.00  0.00     0.062 H 
ATOM     24  C   LIG d   1       6.187   0.634  -3.166  0.00  0.00     0.028 A 
ATOM     25  H   LIG d   1       6.871   2.605  -3.632  0.00  0.00     0.063 H 
ATOM     26 CL   LIG d   1       4.933   1.187  -2.102  0.00  0.00    -0.085 Cl
ENDBRANCH  15  16
ENDBRANCH  12  15
ENDBRANCH   8  12
BRANCH   1  27
ATOM     27  O   LIG d   1       5.428  -1.884  -9.025  0.00  0.00    -0.463 OA
BRANCH  27  28
ATOM     28  C   LIG d   1       6.677  -1.493  -9.600  0.00  0.00     0.090 C 
ATOM     29  H   LIG d   1       6.548  -0.557 -10.143  0.00  0.00     0.070 H 
ATOM     30  H   LIG d   1       7.019  -2.267 -10.286  0.00  0.00     0.070 H 
BRANCH  28  31
ATOM     31  C   LIG d   1       7.712  -1.299  -8.489  0.00  0.00    -0.031 C 
ATOM     32  H   LIG d   1       7.201  -1.090  -7.550  0.00  0.00     0.026 H 
ATOM     33  H   LIG d   1       8.305  -2.207  -8.386  0.00  0.00     0.026 H 
ATOM     34  H   LIG d   1       8.365  -0.464  -8.742  0.00  0.00     0.026 H 
ENDBRANCH  28  31
ENDBRANCH  27  28
ENDBRANCH   1  27
TORSDOF 6
ENDMDL
