MODEL 1
REMARK VINA RESULT:      -7.6      0.000      0.000
REMARK  8 active torsions:
REMARK  status: ('A' for Active; 'I' for Inactive)
REMARK    1  A    between atoms: C_8  and  C_12 
REMARK       I    between atoms: C_12  and  N_14 
REMARK    2  A    between atoms: N_14  and  C_15 
REMARK    3  A    between atoms: C_15  and  C_16 
REMARK    4  A    between atoms: C_16  and  C_18 
REMARK    5  A    between atoms: C_16  and  C_26 
REMARK    6  A    between atoms: C_18  and  C_19 
REMARK       I    between atoms: C_19  and  N_21 
REMARK    7  A    between atoms: N_21  and  C_22 
REMARK    8  A    between atoms: C_22  and  C_23 
ROOT
ATOM      1  C   LIG d   1      11.021   3.004  -5.061  0.00  0.00     0.019 C 
ATOM      2  H   LIG d   1      11.912   2.435  -4.798  0.00  0.00     0.047 H 
ATOM      3  H   LIG d   1      10.974   3.128  -6.143  0.00  0.00     0.047 H 
ENDROOT
BRANCH   1   4
ATOM      4  N   LIG d   1       9.830   2.287  -4.600  0.00  0.00    -0.313 N 
ATOM      5  C   LIG d   1       9.292   1.314  -5.363  0.00  0.00     0.230 C 
ATOM      6  O   LIG d   1       9.793   1.033  -6.430  0.00  0.00    -0.274 OA
ATOM      7  H   LIG d   1       9.430   2.512  -3.746  0.00  0.00     0.149 HD
BRANCH   5   8
ATOM      8  C   LIG d   1       8.066   0.577  -4.888  0.00  0.00     0.089 C 
ATOM      9  C   LIG d   1       7.335   1.416  -3.840  0.00  0.00    -0.003 C 
ATOM     10  C   LIG d   1       6.251   0.596  -3.188  0.00  0.00    -0.041 A 
ATOM     11  H   LIG d   1       6.891   2.287  -4.321  0.00  0.00     0.033 H 
ATOM     12  H   LIG d   1       8.045   1.746  -3.081  0.00  0.00     0.033 H 
ATOM     13  C   LIG d   1       6.231  -0.780  -3.279  0.00  0.00    -0.030 A 
ATOM     14  C   LIG d   1       5.258   1.256  -2.480  0.00  0.00    -0.058 A 
ATOM     15  C   LIG d   1       5.220  -1.495  -2.655  0.00  0.00    -0.057 A 
ATOM     16  C   LIG d   1       7.281  -1.541  -4.044  0.00  0.00     0.022 C 
ATOM     17  C   LIG d   1       4.234  -0.838  -1.947  0.00  0.00    -0.061 A 
ATOM     18  H   LIG d   1       5.204  -2.573  -2.723  0.00  0.00     0.062 H 
ATOM     19  C   LIG d   1       4.252   0.542  -1.860  0.00  0.00    -0.061 A 
ATOM     20  H   LIG d   1       3.450  -1.400  -1.462  0.00  0.00     0.062 H 
ATOM     21  H   LIG d   1       3.479   1.060  -1.312  0.00  0.00     0.062 H 
ATOM     22  N   LIG d   1       8.462  -0.700  -4.272  0.00  0.00    -0.301 N 
ATOM     23  H   LIG d   1       7.573  -2.424  -3.475  0.00  0.00     0.047 H 
ATOM     24  H   LIG d   1       6.872  -1.853  -5.004  0.00  0.00     0.047 H 
ATOM     25  H   LIG d   1       9.143  -1.180  -4.840  0.00  0.00     0.123 HD
ATOM     26  H   LIG d   1       5.272   2.333  -2.413  0.00  0.00     0.062 H 
ATOM     27  H   LIG d   1       7.404   0.386  -5.732  0.00  0.00     0.056 H 
ENDBRANCH   5   8
ENDBRANCH   1   4
BRANCH   1  28
ATOM     28  C   LIG d   1      11.079   4.379  -4.393  0.00  0.00     0.008 C 
ATOM     29  H   LIG d   1      12.117   4.632  -4.174  0.00  0.00     0.037 H 
BRANCH  28  30
ATOM     30  C   LIG d   1      10.276   4.349  -3.092  0.00  0.00     0.032 C 
ATOM     31  H   LIG d   1       9.433   5.036  -3.169  0.00  0.00     0.036 H 
ATOM     32  H   LIG d   1       9.906   3.339  -2.916  0.00  0.00     0.036 H 
BRANCH  30  33
ATOM     33  C   LIG d   1      11.160   4.766  -1.945  0.00  0.00     0.214 C 
ATOM     34  O   LIG d   1      12.363   4.815  -2.093  0.00  0.00    -0.276 OA
ATOM     35  N   LIG d   1      10.614   5.086  -0.755  0.00  0.00    -0.310 N 
ATOM     36  H   LIG d   1       9.652   5.047  -0.636  0.00  0.00     0.149 HD
BRANCH  35  37
ATOM     37  C   LIG d   1      11.474   5.491   0.360  0.00  0.00     0.051 C 
ATOM     38  H   LIG d   1      11.402   4.755   1.161  0.00  0.00     0.052 H 
ATOM     39  H   LIG d   1      12.507   5.555   0.017  0.00  0.00     0.052 H 
BRANCH  37  40
ATOM     40  C   LIG d   1      11.031   6.837   0.873  0.00  0.00     0.059 C 
ATOM     41  O   LIG d   1      10.273   7.523   0.208  0.00  0.00    -0.548 OA
ATOM     42  O   LIG d   1      11.430   7.240   1.952  0.00  0.00    -0.548 OA
ENDBRANCH  37  40
ENDBRANCH  35  37
ENDBRANCH  30  33
ENDBRANCH  28  30
BRANCH  28  43
ATOM     43  C   LIG d   1      10.496   5.413  -5.321  0.00  0.00    -0.042 A 
ATOM     44  C   LIG d   1      10.570   5.234  -6.690  0.00  0.00    -0.057 A 
ATOM     45  C   LIG d   1      10.030   6.181  -7.541  0.00  0.00    -0.043 A 
ATOM     46  H   LIG d   1      11.047   4.354  -7.094  0.00  0.00     0.062 H 
ATOM     47  C   LIG d   1       9.425   7.311  -7.022  0.00  0.00     0.041 A 
ATOM     48  H   LIG d   1      10.084   6.039  -8.610  0.00  0.00     0.063 H 
ATOM     49  C   LIG d   1       9.355   7.492  -5.653  0.00  0.00    -0.043 A 
ATOM     50 CL   LIG d   1       8.751   8.503  -8.090  0.00  0.00    -0.084 Cl
ATOM     51  C   LIG d   1       9.891   6.543  -4.802  0.00  0.00    -0.057 A 
ATOM     52  H   LIG d   1       8.883   8.375  -5.247  0.00  0.00     0.063 H 
ATOM     53  H   LIG d   1       9.837   6.683  -3.733  0.00  0.00     0.062 H 
ENDBRANCH  28  43
ENDBRANCH   1  28
TORSDOF 8
ENDMDL
MODEL 2
REMARK VINA RESULT:      -7.5      1.632      2.192
REMARK  8 active torsions:
REMARK  status: ('A' for Active; 'I' for Inactive)
REMARK    1  A    between atoms: C_8  and  C_12 
REMARK       I    between atoms: C_12  and  N_14 
REMARK    2  A    between atoms: N_14  and  C_15 
REMARK    3  A    between atoms: C_15  and  C_16 
REMARK    4  A    between atoms: C_16  and  C_18 
REMARK    5  A    between atoms: C_16  and  C_26 
REMARK    6  A    between atoms: C_18  and  C_19 
REMARK       I    between atoms: C_19  and  N_21 
REMARK    7  A    between atoms: N_21  and  C_22 
REMARK    8  A    between atoms: C_22  and  C_23 
ROOT
ATOM      1  C   LIG d   1      10.758   2.957  -5.714  0.00  0.00     0.019 C 
ATOM      2  H   LIG d   1      11.613   2.731  -5.077  0.00  0.00     0.047 H 
ATOM      3  H   LIG d   1      10.952   2.601  -6.725  0.00  0.00     0.047 H 
ENDROOT
BRANCH   1   4
ATOM      4  N   LIG d   1       9.565   2.294  -5.183  0.00  0.00    -0.313 N 
ATOM      5  C   LIG d   1       9.284   1.025  -5.541  0.00  0.00     0.230 C 
ATOM      6  O   LIG d   1      10.019   0.432  -6.301  0.00  0.00    -0.274 OA
ATOM      7  H   LIG d   1       8.977   2.768  -4.574  0.00  0.00     0.149 HD
BRANCH   5   8
ATOM      8  C   LIG d   1       8.056   0.343  -4.994  0.00  0.00     0.089 C 
ATOM      9  C   LIG d   1       7.374   1.253  -3.973  0.00  0.00    -0.003 C 
ATOM     10  C   LIG d   1       6.290   0.494  -3.251  0.00  0.00    -0.041 A 
ATOM     11  H   LIG d   1       6.936   2.108  -4.488  0.00  0.00     0.033 H 
ATOM     12  H   LIG d   1       8.111   1.606  -3.252  0.00  0.00     0.033 H 
ATOM     13  C   LIG d   1       6.238  -0.883  -3.267  0.00  0.00    -0.030 A 
ATOM     14  C   LIG d   1       5.333   1.214  -2.552  0.00  0.00    -0.058 A 
ATOM     15  C   LIG d   1       5.228  -1.541  -2.579  0.00  0.00    -0.057 A 
ATOM     16  C   LIG d   1       7.248  -1.708  -4.019  0.00  0.00     0.022 C 
ATOM     17  C   LIG d   1       4.278  -0.824  -1.881  0.00  0.00    -0.061 A 
ATOM     18  H   LIG d   1       5.187  -2.620  -2.589  0.00  0.00     0.062 H 
ATOM     19  C   LIG d   1       4.329   0.558  -1.868  0.00  0.00    -0.061 A 
ATOM     20  H   LIG d   1       3.495  -1.341  -1.346  0.00  0.00     0.062 H 
ATOM     21  H   LIG d   1       3.583   1.122  -1.328  0.00  0.00     0.062 H 
ATOM     22  N   LIG d   1       8.440  -0.909  -4.322  0.00  0.00    -0.301 N 
ATOM     23  H   LIG d   1       7.536  -2.567  -3.411  0.00  0.00     0.047 H 
ATOM     24  H   LIG d   1       6.806  -2.061  -4.949  0.00  0.00     0.047 H 
ATOM     25  H   LIG d   1       9.095  -1.434  -4.882  0.00  0.00     0.123 HD
ATOM     26  H   LIG d   1       5.373   2.293  -2.543  0.00  0.00     0.062 H 
ATOM     27  H   LIG d   1       7.366   0.124  -5.809  0.00  0.00     0.056 H 
ENDBRANCH   5   8
ENDBRANCH   1   4
BRANCH   1  28
ATOM     28  C   LIG d   1      10.531   4.470  -5.741  0.00  0.00     0.008 C 
ATOM     29  H   LIG d   1      11.463   4.982  -5.499  0.00  0.00     0.037 H 
BRANCH  28  30
ATOM     30  C   LIG d   1       9.461   4.845  -4.714  0.00  0.00     0.032 C 
ATOM     31  H   LIG d   1       8.620   5.317  -5.221  0.00  0.00     0.036 H 
ATOM     32  H   LIG d   1       9.119   3.946  -4.201  0.00  0.00     0.036 H 
BRANCH  30  33
ATOM     33  C   LIG d   1      10.044   5.805  -3.709  0.00  0.00     0.214 C 
ATOM     34  O   LIG d   1      11.097   5.547  -3.164  0.00  0.00    -0.276 OA
ATOM     35  N   LIG d   1       9.396   6.950  -3.416  0.00  0.00    -0.310 N 
ATOM     36  H   LIG d   1       8.554   7.156  -3.850  0.00  0.00     0.149 HD
BRANCH  35  37
ATOM     37  C   LIG d   1       9.963   7.883  -2.438  0.00  0.00     0.051 C 
ATOM     38  H   LIG d   1      11.041   7.732  -2.374  0.00  0.00     0.052 H 
ATOM     39  H   LIG d   1       9.758   8.906  -2.752  0.00  0.00     0.052 H 
BRANCH  37  40
ATOM     40  C   LIG d   1       9.341   7.637  -1.089  0.00  0.00     0.059 C 
ATOM     41  O   LIG d   1       9.856   6.849  -0.314  0.00  0.00    -0.548 OA
ATOM     42  O   LIG d   1       8.321   8.225  -0.771  0.00  0.00    -0.548 OA
ENDBRANCH  37  40
ENDBRANCH  35  37
ENDBRANCH  30  33
ENDBRANCH  28  30
BRANCH  28  43
ATOM     43  C   LIG d   1      10.073   4.885  -7.116  0.00  0.00    -0.042 A 
ATOM     44  C   LIG d   1       9.893   6.224  -7.410  0.00  0.00    -0.057 A 
ATOM     45  C   LIG d   1       9.479   6.604  -8.674  0.00  0.00    -0.043 A 
ATOM     46  H   LIG d   1      10.079   6.972  -6.655  0.00  0.00     0.062 H 
ATOM     47  C   LIG d   1       9.234   5.644  -9.639  0.00  0.00     0.041 A 
ATOM     48  H   LIG d   1       9.343   7.650  -8.905  0.00  0.00     0.063 H 
ATOM     49  C   LIG d   1       9.409   4.305  -9.342  0.00  0.00    -0.043 A 
ATOM     50 CL   LIG d   1       8.708   6.121 -11.223  0.00  0.00    -0.084 Cl
ATOM     51  C   LIG d   1       9.829   3.925  -8.080  0.00  0.00    -0.057 A 
ATOM     52  H   LIG d   1       9.218   3.555 -10.096  0.00  0.00     0.063 H 
ATOM     53  H   LIG d   1       9.966   2.880  -7.849  0.00  0.00     0.062 H 
ENDBRANCH  28  43
ENDBRANCH   1  28
TORSDOF 8
ENDMDL
MODEL 3
REMARK VINA RESULT:      -7.4      3.122      5.431
REMARK  8 active torsions:
REMARK  status: ('A' for Active; 'I' for Inactive)
REMARK    1  A    between atoms: C_8  and  C_12 
REMARK       I    between atoms: C_12  and  N_14 
REMARK    2  A    between atoms: N_14  and  C_15 
REMARK    3  A    between atoms: C_15  and  C_16 
REMARK    4  A    between atoms: C_16  and  C_18 
REMARK    5  A    between atoms: C_16  and  C_26 
REMARK    6  A    between atoms: C_18  and  C_19 
REMARK       I    between atoms: C_19  and  N_21 
REMARK    7  A    between atoms: N_21  and  C_22 
REMARK    8  A    between atoms: C_22  and  C_23 
ROOT
ATOM      1  C   LIG d   1      10.183   4.115  -5.135  0.00  0.00     0.019 C 
ATOM      2  H   LIG d   1      11.049   3.770  -4.572  0.00  0.00     0.047 H 
ATOM      3  H   LIG d   1      10.415   4.110  -6.200  0.00  0.00     0.047 H 
ENDROOT
BRANCH   1   4
ATOM      4  N   LIG d   1       9.047   3.227  -4.878  0.00  0.00    -0.313 N 
ATOM      5  C   LIG d   1       9.220   1.890  -4.894  0.00  0.00     0.230 C 
ATOM      6  O   LIG d   1      10.316   1.423  -5.122  0.00  0.00    -0.274 OA
ATOM      7  H   LIG d   1       8.171   3.600  -4.696  0.00  0.00     0.149 HD
BRANCH   5   8
ATOM      8  C   LIG d   1       8.052   0.976  -4.630  0.00  0.00     0.089 C 
ATOM      9  C   LIG d   1       7.175   1.569  -3.527  0.00  0.00    -0.003 C 
ATOM     10  C   LIG d   1       6.144   0.560  -3.091  0.00  0.00    -0.041 A 
ATOM     11  H   LIG d   1       6.672   2.459  -3.905  0.00  0.00     0.033 H 
ATOM     12  H   LIG d   1       7.798   1.842  -2.676  0.00  0.00     0.033 H 
ATOM     13  C   LIG d   1       6.273  -0.780  -3.386  0.00  0.00    -0.030 A 
ATOM     14  C   LIG d   1       5.047   1.005  -2.369  0.00  0.00    -0.058 A 
ATOM     15  C   LIG d   1       5.306  -1.676  -2.955  0.00  0.00    -0.057 A 
ATOM     16  C   LIG d   1       7.442  -1.311  -4.175  0.00  0.00     0.022 C 
ATOM     17  C   LIG d   1       4.215  -1.232  -2.234  0.00  0.00    -0.061 A 
ATOM     18  H   LIG d   1       5.406  -2.727  -3.184  0.00  0.00     0.062 H 
ATOM     19  C   LIG d   1       4.084   0.113  -1.942  0.00  0.00    -0.061 A 
ATOM     20  H   LIG d   1       3.466  -1.935  -1.900  0.00  0.00     0.062 H 
ATOM     21  H   LIG d   1       3.230   0.463  -1.383  0.00  0.00     0.062 H 
ATOM     22  N   LIG d   1       8.540  -0.338  -4.183  0.00  0.00    -0.301 N 
ATOM     23  H   LIG d   1       7.788  -2.241  -3.723  0.00  0.00     0.047 H 
ATOM     24  H   LIG d   1       7.127  -1.507  -5.199  0.00  0.00     0.047 H 
ATOM     25  H   LIG d   1       9.301  -0.658  -4.762  0.00  0.00     0.123 HD
ATOM     26  H   LIG d   1       4.944   2.055  -2.141  0.00  0.00     0.062 H 
ATOM     27  H   LIG d   1       7.466   0.858  -5.541  0.00  0.00     0.056 H 
ENDBRANCH   5   8
ENDBRANCH   1   4
BRANCH   1  28
ATOM     28  C   LIG d   1       9.826   5.538  -4.699  0.00  0.00     0.008 C 
ATOM     29  H   LIG d   1       8.765   5.717  -4.876  0.00  0.00     0.037 H 
BRANCH  28  30
ATOM     30  C   LIG d   1      10.654   6.541  -5.504  0.00  0.00     0.032 C 
ATOM     31  H   LIG d   1      10.918   7.387  -4.870  0.00  0.00     0.036 H 
ATOM     32  H   LIG d   1      11.564   6.058  -5.861  0.00  0.00     0.036 H 
BRANCH  30  33
ATOM     33  C   LIG d   1       9.849   7.028  -6.681  0.00  0.00     0.214 C 
ATOM     34  O   LIG d   1       9.067   7.945  -6.543  0.00  0.00    -0.276 OA
ATOM     35  N   LIG d   1       9.999   6.446  -7.887  0.00  0.00    -0.310 N 
ATOM     36  H   LIG d   1      10.624   5.713  -7.998  0.00  0.00     0.149 HD
BRANCH  35  37
ATOM     37  C   LIG d   1       9.216   6.920  -9.032  0.00  0.00     0.051 C 
ATOM     38  H   LIG d   1       8.382   7.525  -8.677  0.00  0.00     0.052 H 
ATOM     39  H   LIG d   1       9.852   7.522  -9.682  0.00  0.00     0.052 H 
BRANCH  37  40
ATOM     40  C   LIG d   1       8.687   5.738  -9.802  0.00  0.00     0.059 C 
ATOM     41  O   LIG d   1       8.546   4.661  -9.246  0.00  0.00    -0.548 OA
ATOM     42  O   LIG d   1       8.400   5.857 -10.981  0.00  0.00    -0.548 OA
ENDBRANCH  37  40
ENDBRANCH  35  37
ENDBRANCH  30  33
ENDBRANCH  28  30
BRANCH  28  43
ATOM     43  C   LIG d   1      10.125   5.703  -3.231  0.00  0.00    -0.042 A 
ATOM     44  C   LIG d   1       9.576   6.760  -2.529  0.00  0.00    -0.057 A 
ATOM     45  C   LIG d   1       9.845   6.909  -1.181  0.00  0.00    -0.043 A 
ATOM     46  H   LIG d   1       8.933   7.467  -3.032  0.00  0.00     0.062 H 
ATOM     47  C   LIG d   1      10.674   6.006  -0.538  0.00  0.00     0.041 A 
ATOM     48  H   LIG d   1       9.412   7.731  -0.631  0.00  0.00     0.063 H 
ATOM     49  C   LIG d   1      11.227   4.953  -1.243  0.00  0.00    -0.043 A 
ATOM     50 CL   LIG d   1      11.018   6.196   1.153  0.00  0.00    -0.084 Cl
ATOM     51  C   LIG d   1      10.953   4.802  -2.590  0.00  0.00    -0.057 A 
ATOM     52  H   LIG d   1      11.875   4.248  -0.741  0.00  0.00     0.063 H 
ATOM     53  H   LIG d   1      11.385   3.979  -3.140  0.00  0.00     0.062 H 
ENDBRANCH  28  43
ENDBRANCH   1  28
TORSDOF 8
ENDMDL
MODEL 4
REMARK VINA RESULT:      -7.3      3.115      5.261
REMARK  8 active torsions:
REMARK  status: ('A' for Active; 'I' for Inactive)
REMARK    1  A    between atoms: C_8  and  C_12 
REMARK       I    between atoms: C_12  and  N_14 
REMARK    2  A    between atoms: N_14  and  C_15 
REMARK    3  A    between atoms: C_15  and  C_16 
REMARK    4  A    between atoms: C_16  and  C_18 
REMARK    5  A    between atoms: C_16  and  C_26 
REMARK    6  A    between atoms: C_18  and  C_19 
REMARK       I    between atoms: C_19  and  N_21 
REMARK    7  A    between atoms: N_21  and  C_22 
REMARK    8  A    between atoms: C_22  and  C_23 
ROOT
ATOM      1  C   LIG d   1      10.654   2.839  -3.550  0.00  0.00     0.019 C 
ATOM      2  H   LIG d   1      11.231   2.759  -2.629  0.00  0.00     0.047 H 
ATOM      3  H   LIG d   1      11.261   2.502  -4.390  0.00  0.00     0.047 H 
ENDROOT
BRANCH   1   4
ATOM      4  N   LIG d   1       9.455   2.005  -3.449  0.00  0.00    -0.313 N 
ATOM      5  C   LIG d   1       8.997   1.349  -4.535  0.00  0.00     0.230 C 
ATOM      6  O   LIG d   1       9.578   1.450  -5.594  0.00  0.00    -0.274 OA
ATOM      7  H   LIG d   1       8.990   1.924  -2.602  0.00  0.00     0.149 HD
BRANCH   5   8
ATOM      8  C   LIG d   1       7.762   0.491  -4.431  0.00  0.00     0.089 C 
ATOM      9  C   LIG d   1       6.763   1.143  -3.476  0.00  0.00    -0.003 C 
ATOM     10  C   LIG d   1       5.635   0.187  -3.180  0.00  0.00    -0.041 A 
ATOM     11  H   LIG d   1       6.361   2.046  -3.935  0.00  0.00     0.033 H 
ATOM     12  H   LIG d   1       7.268   1.405  -2.546  0.00  0.00     0.033 H 
ATOM     13  C   LIG d   1       5.745  -1.163  -3.436  0.00  0.00    -0.030 A 
ATOM     14  C   LIG d   1       4.466   0.693  -2.632  0.00  0.00    -0.058 A 
ATOM     15  C   LIG d   1       4.686  -2.008  -3.138  0.00  0.00    -0.057 A 
ATOM     16  C   LIG d   1       6.990  -1.759  -4.039  0.00  0.00     0.022 C 
ATOM     17  C   LIG d   1       3.524  -1.504  -2.590  0.00  0.00    -0.061 A 
ATOM     18  H   LIG d   1       4.772  -3.066  -3.336  0.00  0.00     0.062 H 
ATOM     19  C   LIG d   1       3.413  -0.149  -2.337  0.00  0.00    -0.061 A 
ATOM     20  H   LIG d   1       2.703  -2.167  -2.359  0.00  0.00     0.062 H 
ATOM     21  H   LIG d   1       2.503   0.249  -1.914  0.00  0.00     0.062 H 
ATOM     22  N   LIG d   1       8.121  -0.834  -3.900  0.00  0.00    -0.301 N 
ATOM     23  H   LIG d   1       7.226  -2.694  -3.528  0.00  0.00     0.047 H 
ATOM     24  H   LIG d   1       6.819  -1.961  -5.095  0.00  0.00     0.047 H 
ATOM     25  H   LIG d   1       8.943  -1.197  -4.358  0.00  0.00     0.123 HD
ATOM     26  H   LIG d   1       4.379   1.751  -2.436  0.00  0.00     0.062 H 
ATOM     27  H   LIG d   1       7.310   0.380  -5.416  0.00  0.00     0.056 H 
ENDBRANCH   5   8
ENDBRANCH   1   4
BRANCH   1  28
ATOM     28  C   LIG d   1      10.245   4.297  -3.769  0.00  0.00     0.008 C 
ATOM     29  H   LIG d   1       9.190   4.341  -4.041  0.00  0.00     0.037 H 
BRANCH  28  30
ATOM     30  C   LIG d   1      11.087   4.900  -4.895  0.00  0.00     0.032 C 
ATOM     31  H   LIG d   1      11.499   5.855  -4.569  0.00  0.00     0.036 H 
ATOM     32  H   LIG d   1      11.901   4.219  -5.144  0.00  0.00     0.036 H 
BRANCH  30  33
ATOM     33  C   LIG d   1      10.222   5.114  -6.111  0.00  0.00     0.214 C 
ATOM     34  O   LIG d   1       9.614   6.155  -6.246  0.00  0.00    -0.276 OA
ATOM     35  N   LIG d   1      10.126   4.151  -7.047  0.00  0.00    -0.310 N 
ATOM     36  H   LIG d   1      10.612   3.319  -6.939  0.00  0.00     0.149 HD
BRANCH  35  37
ATOM     37  C   LIG d   1       9.285   4.359  -8.229  0.00  0.00     0.051 C 
ATOM     38  H   LIG d   1       8.357   4.850  -7.934  0.00  0.00     0.052 H 
ATOM     39  H   LIG d   1       9.816   4.987  -8.945  0.00  0.00     0.052 H 
BRANCH  37  40
ATOM     40  C   LIG d   1       8.971   3.030  -8.863  0.00  0.00     0.059 C 
ATOM     41  O   LIG d   1       9.827   2.162  -8.917  0.00  0.00    -0.548 OA
ATOM     42  O   LIG d   1       7.862   2.820  -9.323  0.00  0.00    -0.548 OA
ENDBRANCH  37  40
ENDBRANCH  35  37
ENDBRANCH  30  33
ENDBRANCH  28  30
BRANCH  28  43
ATOM     43  C   LIG d   1      10.470   5.078  -2.500  0.00  0.00    -0.042 A 
ATOM     44  C   LIG d   1      11.373   4.620  -1.558  0.00  0.00    -0.057 A 
ATOM     45  C   LIG d   1      11.584   5.340  -0.396  0.00  0.00    -0.043 A 
ATOM     46  H   LIG d   1      11.917   3.704  -1.731  0.00  0.00     0.062 H 
ATOM     47  C   LIG d   1      10.882   6.511  -0.172  0.00  0.00     0.041 A 
ATOM     48  H   LIG d   1      12.292   4.985   0.338  0.00  0.00     0.063 H 
ATOM     49  C   LIG d   1       9.975   6.965  -1.112  0.00  0.00    -0.043 A 
ATOM     50 CL   LIG d   1      11.141   7.411   1.290  0.00  0.00    -0.084 Cl
ATOM     51  C   LIG d   1       9.769   6.248  -2.276  0.00  0.00    -0.057 A 
ATOM     52  H   LIG d   1       9.427   7.879  -0.937  0.00  0.00     0.063 H 
ATOM     53  H   LIG d   1       9.062   6.602  -3.010  0.00  0.00     0.062 H 
ENDBRANCH  28  43
ENDBRANCH   1  28
TORSDOF 8
ENDMDL
MODEL 5
REMARK VINA RESULT:      -7.2      7.579     11.702
REMARK  8 active torsions:
REMARK  status: ('A' for Active; 'I' for Inactive)
REMARK    1  A    between atoms: C_8  and  C_12 
REMARK       I    between atoms: C_12  and  N_14 
REMARK    2  A    between atoms: N_14  and  C_15 
REMARK    3  A    between atoms: C_15  and  C_16 
REMARK    4  A    between atoms: C_16  and  C_18 
REMARK    5  A    between atoms: C_16  and  C_26 
REMARK    6  A    between atoms: C_18  and  C_19 
REMARK       I    between atoms: C_19  and  N_21 
REMARK    7  A    between atoms: N_21  and  C_22 
REMARK    8  A    between atoms: C_22  and  C_23 
ROOT
ATOM      1  C   LIG d   1       3.514  -3.992  -8.850  0.00  0.00     0.019 C 
ATOM      2  H   LIG d   1       4.450  -3.764  -9.359  0.00  0.00     0.047 H 
ATOM      3  H   LIG d   1       3.354  -5.069  -8.847  0.00  0.00     0.047 H 
ENDROOT
BRANCH   1   4
ATOM      4  N   LIG d   1       3.577  -3.503  -7.470  0.00  0.00    -0.313 N 
ATOM      5  C   LIG d   1       4.618  -2.745  -7.071  0.00  0.00     0.230 C 
ATOM      6  O   LIG d   1       5.502  -2.468  -7.853  0.00  0.00    -0.274 OA
ATOM      7  H   LIG d   1       2.870  -3.725  -6.845  0.00  0.00     0.149 HD
BRANCH   5   8
ATOM      8  C   LIG d   1       4.683  -2.243  -5.651  0.00  0.00     0.089 C 
ATOM      9  C   LIG d   1       3.885  -0.945  -5.529  0.00  0.00    -0.003 C 
ATOM     10  C   LIG d   1       4.136  -0.311  -4.185  0.00  0.00    -0.041 A 
ATOM     11  H   LIG d   1       2.822  -1.163  -5.633  0.00  0.00     0.033 H 
ATOM     12  H   LIG d   1       4.190  -0.256  -6.317  0.00  0.00     0.033 H 
ATOM     13  C   LIG d   1       5.213  -0.674  -3.404  0.00  0.00    -0.030 A 
ATOM     14  C   LIG d   1       3.257   0.664  -3.738  0.00  0.00    -0.058 A 
ATOM     15  C   LIG d   1       5.412  -0.056  -2.178  0.00  0.00    -0.057 A 
ATOM     16  C   LIG d   1       6.190  -1.733  -3.840  0.00  0.00     0.022 C 
ATOM     17  C   LIG d   1       4.538   0.916  -1.736  0.00  0.00    -0.061 A 
ATOM     18  H   LIG d   1       6.256  -0.338  -1.566  0.00  0.00     0.062 H 
ATOM     19  C   LIG d   1       3.456   1.277  -2.518  0.00  0.00    -0.061 A 
ATOM     20  H   LIG d   1       4.699   1.394  -0.781  0.00  0.00     0.062 H 
ATOM     21  H   LIG d   1       2.767   2.033  -2.172  0.00  0.00     0.062 H 
ATOM     22  N   LIG d   1       6.081  -1.969  -5.284  0.00  0.00    -0.301 N 
ATOM     23  H   LIG d   1       7.204  -1.408  -3.604  0.00  0.00     0.047 H 
ATOM     24  H   LIG d   1       5.979  -2.660  -3.308  0.00  0.00     0.047 H 
ATOM     25  H   LIG d   1       6.686  -2.722  -5.574  0.00  0.00     0.123 HD
ATOM     26  H   LIG d   1       2.412   0.945  -4.349  0.00  0.00     0.062 H 
ATOM     27  H   LIG d   1       4.268  -2.993  -4.978  0.00  0.00     0.056 H 
ENDBRANCH   5   8
ENDBRANCH   1   4
BRANCH   1  28
ATOM     28  C   LIG d   1       2.357  -3.307  -9.581  0.00  0.00     0.008 C 
ATOM     29  H   LIG d   1       1.446  -3.404  -8.990  0.00  0.00     0.037 H 
BRANCH  28  30
ATOM     30  C   LIG d   1       2.153  -3.968 -10.945  0.00  0.00     0.032 C 
ATOM     31  H   LIG d   1       2.561  -3.325 -11.725  0.00  0.00     0.036 H 
ATOM     32  H   LIG d   1       2.665  -4.930 -10.963  0.00  0.00     0.036 H 
BRANCH  30  33
ATOM     33  C   LIG d   1       0.680  -4.178 -11.187  0.00  0.00     0.214 C 
ATOM     34  O   LIG d   1       0.161  -3.732 -12.188  0.00  0.00    -0.276 OA
ATOM     35  N   LIG d   1      -0.058  -4.863 -10.292  0.00  0.00    -0.310 N 
ATOM     36  H   LIG d   1       0.357  -5.219  -9.491  0.00  0.00     0.149 HD
BRANCH  35  37
ATOM     37  C   LIG d   1      -1.490  -5.067 -10.527  0.00  0.00     0.051 C 
ATOM     38  H   LIG d   1      -1.976  -4.102 -10.676  0.00  0.00     0.052 H 
ATOM     39  H   LIG d   1      -1.628  -5.683 -11.416  0.00  0.00     0.052 H 
BRANCH  37  40
ATOM     40  C   LIG d   1      -2.101  -5.759  -9.337  0.00  0.00     0.059 C 
ATOM     41  O   LIG d   1      -1.411  -6.466  -8.622  0.00  0.00    -0.548 OA
ATOM     42  O   LIG d   1      -3.286  -5.613  -9.088  0.00  0.00    -0.548 OA
ENDBRANCH  37  40
ENDBRANCH  35  37
ENDBRANCH  30  33
ENDBRANCH  28  30
BRANCH  28  43
ATOM     43  C   LIG d   1       2.678  -1.847  -9.773  0.00  0.00    -0.042 A 
ATOM     44  C   LIG d   1       2.017  -0.890  -9.026  0.00  0.00    -0.057 A 
ATOM     45  C   LIG d   1       2.315   0.449  -9.198  0.00  0.00    -0.043 A 
ATOM     46  H   LIG d   1       1.270  -1.188  -8.305  0.00  0.00     0.062 H 
ATOM     47  C   LIG d   1       3.268   0.831 -10.126  0.00  0.00     0.041 A 
ATOM     48  H   LIG d   1       1.802   1.196  -8.611  0.00  0.00     0.063 H 
ATOM     49  C   LIG d   1       3.925  -0.127 -10.876  0.00  0.00    -0.043 A 
ATOM     50 CL   LIG d   1       3.638   2.513 -10.347  0.00  0.00    -0.084 Cl
ATOM     51  C   LIG d   1       3.630  -1.466 -10.700  0.00  0.00    -0.057 A 
ATOM     52  H   LIG d   1       4.668   0.172 -11.601  0.00  0.00     0.063 H 
ATOM     53  H   LIG d   1       4.143  -2.213 -11.286  0.00  0.00     0.062 H 
ENDBRANCH  28  43
ENDBRANCH   1  28
TORSDOF 8
ENDMDL
MODEL 6
REMARK VINA RESULT:      -7.1      1.647      2.304
REMARK  8 active torsions:
REMARK  status: ('A' for Active; 'I' for Inactive)
REMARK    1  A    between atoms: C_8  and  C_12 
REMARK       I    between atoms: C_12  and  N_14 
REMARK    2  A    between atoms: N_14  and  C_15 
REMARK    3  A    between atoms: C_15  and  C_16 
REMARK    4  A    between atoms: C_16  and  C_18 
REMARK    5  A    between atoms: C_16  and  C_26 
REMARK    6  A    between atoms: C_18  and  C_19 
REMARK       I    between atoms: C_19  and  N_21 
REMARK    7  A    between atoms: N_21  and  C_22 
REMARK    8  A    between atoms: C_22  and  C_23 
ROOT
ATOM      1  C   LIG d   1      10.524   3.159  -4.706  0.00  0.00     0.019 C 
ATOM      2  H   LIG d   1      11.455   2.952  -4.180  0.00  0.00     0.047 H 
ATOM      3  H   LIG d   1      10.560   2.711  -5.699  0.00  0.00     0.047 H 
ENDROOT
BRANCH   1   4
ATOM      4  N   LIG d   1       9.401   2.594  -3.955  0.00  0.00    -0.313 N 
ATOM      5  C   LIG d   1       8.830   1.442  -4.362  0.00  0.00     0.230 C 
ATOM      6  O   LIG d   1       9.246   0.874  -5.349  0.00  0.00    -0.274 OA
ATOM      7  H   LIG d   1       9.069   3.048  -3.165  0.00  0.00     0.149 HD
BRANCH   5   8
ATOM      8  C   LIG d   1       7.675   0.860  -3.589  0.00  0.00     0.089 C 
ATOM      9  C   LIG d   1       7.254  -0.469  -4.216  0.00  0.00    -0.003 C 
ATOM     10  C   LIG d   1       5.959  -0.940  -3.605  0.00  0.00    -0.041 A 
ATOM     11  H   LIG d   1       8.030  -1.213  -4.039  0.00  0.00     0.033 H 
ATOM     12  H   LIG d   1       7.121  -0.336  -5.290  0.00  0.00     0.033 H 
ATOM     13  C   LIG d   1       5.140  -0.085  -2.898  0.00  0.00    -0.030 A 
ATOM     14  C   LIG d   1       5.594  -2.267  -3.771  0.00  0.00    -0.058 A 
ATOM     15  C   LIG d   1       3.952  -0.559  -2.361  0.00  0.00    -0.057 A 
ATOM     16  C   LIG d   1       5.498   1.362  -2.682  0.00  0.00     0.022 C 
ATOM     17  C   LIG d   1       3.588  -1.880  -2.530  0.00  0.00    -0.061 A 
ATOM     18  H   LIG d   1       3.308   0.109  -1.809  0.00  0.00     0.062 H 
ATOM     19  C   LIG d   1       4.412  -2.737  -3.235  0.00  0.00    -0.061 A 
ATOM     20  H   LIG d   1       2.661  -2.242  -2.111  0.00  0.00     0.062 H 
ATOM     21  H   LIG d   1       4.132  -3.772  -3.364  0.00  0.00     0.062 H 
ATOM     22  N   LIG d   1       6.530   1.783  -3.637  0.00  0.00    -0.301 N 
ATOM     23  H   LIG d   1       4.608   1.977  -2.819  0.00  0.00     0.047 H 
ATOM     24  H   LIG d   1       5.871   1.494  -1.668  0.00  0.00     0.047 H 
ATOM     25  H   LIG d   1       6.822   2.732  -3.458  0.00  0.00     0.123 HD
ATOM     26  H   LIG d   1       6.238  -2.936  -4.321  0.00  0.00     0.062 H 
ATOM     27  H   LIG d   1       7.972   0.699  -2.553  0.00  0.00     0.056 H 
ENDBRANCH   5   8
ENDBRANCH   1   4
BRANCH   1  28
ATOM     28  C   LIG d   1      10.340   4.672  -4.837  0.00  0.00     0.008 C 
ATOM     29  H   LIG d   1      11.267   5.176  -4.563  0.00  0.00     0.037 H 
BRANCH  28  30
ATOM     30  C   LIG d   1       9.215   5.132  -3.909  0.00  0.00     0.032 C 
ATOM     31  H   LIG d   1       8.413   5.574  -4.500  0.00  0.00     0.036 H 
ATOM     32  H   LIG d   1       8.828   4.277  -3.354  0.00  0.00     0.036 H 
BRANCH  30  33
ATOM     33  C   LIG d   1       9.749   6.157  -2.941  0.00  0.00     0.214 C 
ATOM     34  O   LIG d   1       9.944   7.296  -3.310  0.00  0.00    -0.276 OA
ATOM     35  N   LIG d   1      10.008   5.809  -1.665  0.00  0.00    -0.310 N 
ATOM     36  H   LIG d   1       9.852   4.898  -1.370  0.00  0.00     0.149 HD
BRANCH  35  37
ATOM     37  C   LIG d   1      10.527   6.805  -0.725  0.00  0.00     0.051 C 
ATOM     38  H   LIG d   1      11.202   7.482  -1.248  0.00  0.00     0.052 H 
ATOM     39  H   LIG d   1       9.697   7.373  -0.303  0.00  0.00     0.052 H 
BRANCH  37  40
ATOM     40  C   LIG d   1      11.273   6.109   0.384  0.00  0.00     0.059 C 
ATOM     41  O   LIG d   1      10.688   5.787   1.404  0.00  0.00    -0.548 OA
ATOM     42  O   LIG d   1      12.462   5.867   0.261  0.00  0.00    -0.548 OA
ENDBRANCH  37  40
ENDBRANCH  35  37
ENDBRANCH  30  33
ENDBRANCH  28  30
BRANCH  28  43
ATOM     43  C   LIG d   1       9.986   5.014  -6.262  0.00  0.00    -0.042 A 
ATOM     44  C   LIG d   1       9.926   6.336  -6.661  0.00  0.00    -0.057 A 
ATOM     45  C   LIG d   1       9.607   6.649  -7.970  0.00  0.00    -0.043 A 
ATOM     46  H   LIG d   1      10.132   7.124  -5.953  0.00  0.00     0.062 H 
ATOM     47  C   LIG d   1       9.337   5.639  -8.876  0.00  0.00     0.041 A 
ATOM     48  H   LIG d   1       9.565   7.682  -8.283  0.00  0.00     0.063 H 
ATOM     49  C   LIG d   1       9.391   4.317  -8.474  0.00  0.00    -0.043 A 
ATOM     50 CL   LIG d   1       8.930   6.032 -10.517  0.00  0.00    -0.084 Cl
ATOM     51  C   LIG d   1       9.716   4.004  -7.167  0.00  0.00    -0.057 A 
ATOM     52  H   LIG d   1       9.180   3.528  -9.181  0.00  0.00     0.063 H 
ATOM     53  H   LIG d   1       9.759   2.973  -6.853  0.00  0.00     0.062 H 
ENDBRANCH  28  43
ENDBRANCH   1  28
TORSDOF 8
ENDMDL
MODEL 7
REMARK VINA RESULT:      -7.1      3.263      4.808
REMARK  8 active torsions:
REMARK  status: ('A' for Active; 'I' for Inactive)
REMARK    1  A    between atoms: C_8  and  C_12 
REMARK       I    between atoms: C_12  and  N_14 
REMARK    2  A    between atoms: N_14  and  C_15 
REMARK    3  A    between atoms: C_15  and  C_16 
REMARK    4  A    between atoms: C_16  and  C_18 
REMARK    5  A    between atoms: C_16  and  C_26 
REMARK    6  A    between atoms: C_18  and  C_19 
REMARK       I    between atoms: C_19  and  N_21 
REMARK    7  A    between atoms: N_21  and  C_22 
REMARK    8  A    between atoms: C_22  and  C_23 
ROOT
ATOM      1  C   LIG d   1      10.440   3.431  -4.559  0.00  0.00     0.019 C 
ATOM      2  H   LIG d   1      11.190   3.166  -3.815  0.00  0.00     0.047 H 
ATOM      3  H   LIG d   1      10.828   3.226  -5.556  0.00  0.00     0.047 H 
ENDROOT
BRANCH   1   4
ATOM      4  N   LIG d   1       9.228   2.640  -4.333  0.00  0.00    -0.313 N 
ATOM      5  C   LIG d   1       9.156   1.373  -4.788  0.00  0.00     0.230 C 
ATOM      6  O   LIG d   1      10.095   0.888  -5.383  0.00  0.00    -0.274 OA
ATOM      7  H   LIG d   1       8.477   3.028  -3.857  0.00  0.00     0.149 HD
BRANCH   5   8
ATOM      8  C   LIG d   1       7.909   0.560  -4.556  0.00  0.00     0.089 C 
ATOM      9  C   LIG d   1       7.023   1.259  -3.526  0.00  0.00    -0.003 C 
ATOM     10  C   LIG d   1       5.896   0.348  -3.111  0.00  0.00    -0.041 A 
ATOM     11  H   LIG d   1       6.610   2.169  -3.963  0.00  0.00     0.033 H 
ATOM     12  H   LIG d   1       7.620   1.519  -2.651  0.00  0.00     0.033 H 
ATOM     13  C   LIG d   1       5.939  -1.009  -3.351  0.00  0.00    -0.030 A 
ATOM     14  C   LIG d   1       4.800   0.901  -2.468  0.00  0.00    -0.058 A 
ATOM     15  C   LIG d   1       4.884  -1.813  -2.943  0.00  0.00    -0.057 A 
ATOM     16  C   LIG d   1       7.103  -1.656  -4.054  0.00  0.00     0.022 C 
ATOM     17  C   LIG d   1       3.795  -1.261  -2.300  0.00  0.00    -0.061 A 
ATOM     18  H   LIG d   1       4.917  -2.876  -3.128  0.00  0.00     0.062 H 
ATOM     19  C   LIG d   1       3.751   0.100  -2.063  0.00  0.00    -0.061 A 
ATOM     20  H   LIG d   1       2.977  -1.892  -1.983  0.00  0.00     0.062 H 
ATOM     21  H   LIG d   1       2.898   0.536  -1.565  0.00  0.00     0.062 H 
ATOM     22  N   LIG d   1       8.271  -0.768  -4.037  0.00  0.00    -0.301 N 
ATOM     23  H   LIG d   1       7.353  -2.591  -3.551  0.00  0.00     0.047 H 
ATOM     24  H   LIG d   1       6.828  -1.868  -5.086  0.00  0.00     0.047 H 
ATOM     25  H   LIG d   1       9.035  -1.166  -4.561  0.00  0.00     0.123 HD
ATOM     26  H   LIG d   1       4.766   1.964  -2.283  0.00  0.00     0.062 H 
ATOM     27  H   LIG d   1       7.364   0.450  -5.494  0.00  0.00     0.056 H 
ENDBRANCH   5   8
ENDBRANCH   1   4
BRANCH   1  28
ATOM     28  C   LIG d   1      10.107   4.920  -4.439  0.00  0.00     0.008 C 
ATOM     29  H   LIG d   1       9.063   5.082  -4.708  0.00  0.00     0.037 H 
BRANCH  28  30
ATOM     30  C   LIG d   1      11.006   5.722  -5.381  0.00  0.00     0.032 C 
ATOM     31  H   LIG d   1      11.601   6.428  -4.803  0.00  0.00     0.036 H 
ATOM     32  H   LIG d   1      11.669   5.042  -5.917  0.00  0.00     0.036 H 
BRANCH  30  33
ATOM     33  C   LIG d   1      10.154   6.475  -6.370  0.00  0.00     0.214 C 
ATOM     34  O   LIG d   1       9.719   5.908  -7.351  0.00  0.00    -0.276 OA
ATOM     35  N   LIG d   1       9.874   7.776  -6.165  0.00  0.00    -0.310 N 
ATOM     36  H   LIG d   1      10.221   8.230  -5.381  0.00  0.00     0.149 HD
BRANCH  35  37
ATOM     37  C   LIG d   1       9.045   8.508  -7.126  0.00  0.00     0.051 C 
ATOM     38  H   LIG d   1       8.683   7.821  -7.892  0.00  0.00     0.052 H 
ATOM     39  H   LIG d   1       8.196   8.955  -6.608  0.00  0.00     0.052 H 
BRANCH  37  40
ATOM     40  C   LIG d   1       9.865   9.593  -7.774  0.00  0.00     0.059 C 
ATOM     41  O   LIG d   1      10.077  10.636  -7.177  0.00  0.00    -0.548 OA
ATOM     42  O   LIG d   1      10.318   9.430  -8.894  0.00  0.00    -0.548 OA
ENDBRANCH  37  40
ENDBRANCH  35  37
ENDBRANCH  30  33
ENDBRANCH  28  30
BRANCH  28  43
ATOM     43  C   LIG d   1      10.336   5.373  -3.020  0.00  0.00    -0.042 A 
ATOM     44  C   LIG d   1      11.236   4.697  -2.215  0.00  0.00    -0.057 A 
ATOM     45  C   LIG d   1      11.450   5.117  -0.915  0.00  0.00    -0.043 A 
ATOM     46  H   LIG d   1      11.774   3.845  -2.604  0.00  0.00     0.062 H 
ATOM     47  C   LIG d   1      10.756   6.205  -0.417  0.00  0.00     0.041 A 
ATOM     48  H   LIG d   1      12.156   4.592  -0.289  0.00  0.00     0.063 H 
ATOM     49  C   LIG d   1       9.853   6.876  -1.220  0.00  0.00    -0.043 A 
ATOM     50 CL   LIG d   1      11.020   6.727   1.218  0.00  0.00    -0.084 Cl
ATOM     51  C   LIG d   1       9.643   6.460  -2.522  0.00  0.00    -0.057 A 
ATOM     52  H   LIG d   1       9.311   7.725  -0.831  0.00  0.00     0.063 H 
ATOM     53  H   LIG d   1       8.938   6.984  -3.149  0.00  0.00     0.062 H 
ENDBRANCH  28  43
ENDBRANCH   1  28
TORSDOF 8
ENDMDL
MODEL 8
REMARK VINA RESULT:      -6.9      4.755      6.293
REMARK  8 active torsions:
REMARK  status: ('A' for Active; 'I' for Inactive)
REMARK    1  A    between atoms: C_8  and  C_12 
REMARK       I    between atoms: C_12  and  N_14 
REMARK    2  A    between atoms: N_14  and  C_15 
REMARK    3  A    between atoms: C_15  and  C_16 
REMARK    4  A    between atoms: C_16  and  C_18 
REMARK    5  A    between atoms: C_16  and  C_26 
REMARK    6  A    between atoms: C_18  and  C_19 
REMARK       I    between atoms: C_19  and  N_21 
REMARK    7  A    between atoms: N_21  and  C_22 
REMARK    8  A    between atoms: C_22  and  C_23 
ROOT
ATOM      1  C   LIG d   1       8.531   1.611  -5.747  0.00  0.00     0.019 C 
ATOM      2  H   LIG d   1       8.874   0.580  -5.665  0.00  0.00     0.047 H 
ATOM      3  H   LIG d   1       9.350   2.241  -6.092  0.00  0.00     0.047 H 
ENDROOT
BRANCH   1   4
ATOM      4  N   LIG d   1       7.423   1.683  -6.702  0.00  0.00    -0.313 N 
ATOM      5  C   LIG d   1       7.118   0.611  -7.462  0.00  0.00     0.230 C 
ATOM      6  O   LIG d   1       7.761  -0.412  -7.354  0.00  0.00    -0.274 OA
ATOM      7  H   LIG d   1       6.909   2.500  -6.789  0.00  0.00     0.149 HD
BRANCH   5   8
ATOM      8  C   LIG d   1       5.979   0.685  -8.445  0.00  0.00     0.089 C 
ATOM      9  C   LIG d   1       4.828  -0.200  -7.966  0.00  0.00    -0.003 C 
ATOM     10  C   LIG d   1       3.787  -0.322  -9.049  0.00  0.00    -0.041 A 
ATOM     11  H   LIG d   1       4.377   0.243  -7.078  0.00  0.00     0.033 H 
ATOM     12  H   LIG d   1       5.212  -1.190  -7.719  0.00  0.00     0.033 H 
ATOM     13  C   LIG d   1       4.065   0.001 -10.360  0.00  0.00    -0.030 A 
ATOM     14  C   LIG d   1       2.523  -0.777  -8.703  0.00  0.00    -0.058 A 
ATOM     15  C   LIG d   1       3.079  -0.137 -11.326  0.00  0.00    -0.057 A 
ATOM     16  C   LIG d   1       5.419   0.508 -10.783  0.00  0.00     0.022 C 
ATOM     17  C   LIG d   1       1.823  -0.592 -10.981  0.00  0.00    -0.061 A 
ATOM     18  H   LIG d   1       3.296   0.114 -12.354  0.00  0.00     0.062 H 
ATOM     19  C   LIG d   1       1.543  -0.912  -9.665  0.00  0.00    -0.061 A 
ATOM     20  H   LIG d   1       1.060  -0.699 -11.738  0.00  0.00     0.062 H 
ATOM     21  H   LIG d   1       0.560  -1.264  -9.392  0.00  0.00     0.062 H 
ATOM     22  N   LIG d   1       6.425   0.200  -9.761  0.00  0.00    -0.301 N 
ATOM     23  H   LIG d   1       5.703   0.033 -11.723  0.00  0.00     0.047 H 
ATOM     24  H   LIG d   1       5.371   1.586 -10.928  0.00  0.00     0.047 H 
ATOM     25  H   LIG d   1       7.321   0.593 -10.006  0.00  0.00     0.123 HD
ATOM     26  H   LIG d   1       2.305  -1.026  -7.675  0.00  0.00     0.062 H 
ATOM     27  H   LIG d   1       5.636   1.716  -8.532  0.00  0.00     0.056 H 
ENDBRANCH   5   8
ENDBRANCH   1   4
BRANCH   1  28
ATOM     28  C   LIG d   1       8.055   2.099  -4.377  0.00  0.00     0.008 C 
ATOM     29  H   LIG d   1       7.572   3.071  -4.485  0.00  0.00     0.037 H 
BRANCH  28  30
ATOM     30  C   LIG d   1       9.254   2.226  -3.435  0.00  0.00     0.032 C 
ATOM     31  H   LIG d   1       8.970   1.890  -2.439  0.00  0.00     0.036 H 
ATOM     32  H   LIG d   1      10.074   1.612  -3.807  0.00  0.00     0.036 H 
BRANCH  30  33
ATOM     33  C   LIG d   1       9.694   3.667  -3.373  0.00  0.00     0.214 C 
ATOM     34  O   LIG d   1       9.373   4.437  -4.255  0.00  0.00    -0.276 OA
ATOM     35  N   LIG d   1      10.441   4.099  -2.339  0.00  0.00    -0.310 N 
ATOM     36  H   LIG d   1      10.697   3.484  -1.635  0.00  0.00     0.149 HD
BRANCH  35  37
ATOM     37  C   LIG d   1      10.868   5.500  -2.279  0.00  0.00     0.051 C 
ATOM     38  H   LIG d   1      11.893   5.552  -1.911  0.00  0.00     0.052 H 
ATOM     39  H   LIG d   1      10.818   5.938  -3.276  0.00  0.00     0.052 H 
BRANCH  37  40
ATOM     40  C   LIG d   1       9.961   6.263  -1.349  0.00  0.00     0.059 C 
ATOM     41  O   LIG d   1       9.010   6.882  -1.797  0.00  0.00    -0.548 OA
ATOM     42  O   LIG d   1      10.176   6.261  -0.149  0.00  0.00    -0.548 OA
ENDBRANCH  37  40
ENDBRANCH  35  37
ENDBRANCH  30  33
ENDBRANCH  28  30
BRANCH  28  43
ATOM     43  C   LIG d   1       7.071   1.111  -3.805  0.00  0.00    -0.042 A 
ATOM     44  C   LIG d   1       5.893   1.559  -3.236  0.00  0.00    -0.057 A 
ATOM     45  C   LIG d   1       4.987   0.652  -2.717  0.00  0.00    -0.043 A 
ATOM     46  H   LIG d   1       5.678   2.617  -3.201  0.00  0.00     0.062 H 
ATOM     47  C   LIG d   1       5.266  -0.703  -2.757  0.00  0.00     0.041 A 
ATOM     48  H   LIG d   1       4.065   1.002  -2.277  0.00  0.00     0.063 H 
ATOM     49  C   LIG d   1       6.447  -1.149  -3.322  0.00  0.00    -0.043 A 
ATOM     50 CL   LIG d   1       4.132  -1.841  -2.100  0.00  0.00    -0.084 Cl
ATOM     51  C   LIG d   1       7.350  -0.243  -3.845  0.00  0.00    -0.057 A 
ATOM     52  H   LIG d   1       6.664  -2.207  -3.353  0.00  0.00     0.063 H 
ATOM     53  H   LIG d   1       8.271  -0.591  -4.286  0.00  0.00     0.062 H 
ENDBRANCH  28  43
ENDBRANCH   1  28
TORSDOF 8
ENDMDL
MODEL 9
REMARK VINA RESULT:      -6.8      2.939      5.410
REMARK  8 active torsions:
REMARK  status: ('A' for Active; 'I' for Inactive)
REMARK    1  A    between atoms: C_8  and  C_12 
REMARK       I    between atoms: C_12  and  N_14 
REMARK    2  A    between atoms: N_14  and  C_15 
REMARK    3  A    between atoms: C_15  and  C_16 
REMARK    4  A    between atoms: C_16  and  C_18 
REMARK    5  A    between atoms: C_16  and  C_26 
REMARK    6  A    between atoms: C_18  and  C_19 
REMARK       I    between atoms: C_19  and  N_21 
REMARK    7  A    between atoms: N_21  and  C_22 
REMARK    8  A    between atoms: C_22  and  C_23 
ROOT
ATOM      1  C   LIG d   1       9.994   3.337  -5.493  0.00  0.00     0.019 C 
ATOM      2  H   LIG d   1      10.253   3.638  -4.479  0.00  0.00     0.047 H 
ATOM      3  H   LIG d   1      10.888   2.987  -6.009  0.00  0.00     0.047 H 
ENDROOT
BRANCH   1   4
ATOM      4  N   LIG d   1       9.004   2.258  -5.446  0.00  0.00    -0.313 N 
ATOM      5  C   LIG d   1       8.367   1.979  -4.291  0.00  0.00     0.230 C 
ATOM      6  O   LIG d   1       8.614   2.621  -3.292  0.00  0.00    -0.274 OA
ATOM      7  H   LIG d   1       8.807   1.746  -6.245  0.00  0.00     0.149 HD
BRANCH   5   8
ATOM      8  C   LIG d   1       7.349   0.869  -4.242  0.00  0.00     0.089 C 
ATOM      9  C   LIG d   1       6.197   1.269  -3.320  0.00  0.00    -0.003 C 
ATOM     10  C   LIG d   1       5.297   0.085  -3.076  0.00  0.00    -0.041 A 
ATOM     11  H   LIG d   1       5.623   2.070  -3.787  0.00  0.00     0.033 H 
ATOM     12  H   LIG d   1       6.598   1.621  -2.370  0.00  0.00     0.033 H 
ATOM     13  C   LIG d   1       5.711  -1.203  -3.339  0.00  0.00    -0.030 A 
ATOM     14  C   LIG d   1       4.027   0.313  -2.569  0.00  0.00    -0.058 A 
ATOM     15  C   LIG d   1       4.853  -2.265  -3.090  0.00  0.00    -0.057 A 
ATOM     16  C   LIG d   1       7.077  -1.501  -3.899  0.00  0.00     0.022 C 
ATOM     17  C   LIG d   1       3.590  -2.038  -2.582  0.00  0.00    -0.061 A 
ATOM     18  H   LIG d   1       5.176  -3.275  -3.293  0.00  0.00     0.062 H 
ATOM     19  C   LIG d   1       3.175  -0.745  -2.322  0.00  0.00    -0.061 A 
ATOM     20  H   LIG d   1       2.928  -2.868  -2.388  0.00  0.00     0.062 H 
ATOM     21  H   LIG d   1       2.185  -0.563  -1.931  0.00  0.00     0.062 H 
ATOM     22  N   LIG d   1       7.970  -0.353  -3.709  0.00  0.00    -0.301 N 
ATOM     23  H   LIG d   1       7.494  -2.370  -3.388  0.00  0.00     0.047 H 
ATOM     24  H   LIG d   1       6.991  -1.718  -4.963  0.00  0.00     0.047 H 
ATOM     25  H   LIG d   1       8.868  -0.519  -4.138  0.00  0.00     0.123 HD
ATOM     26  H   LIG d   1       3.702   1.322  -2.367  0.00  0.00     0.062 H 
ATOM     27  H   LIG d   1       6.967   0.679  -5.245  0.00  0.00     0.056 H 
ENDBRANCH   5   8
ENDBRANCH   1   4
BRANCH   1  28
ATOM     28  C   LIG d   1       9.408   4.534  -6.245  0.00  0.00     0.008 C 
ATOM     29  H   LIG d   1       8.329   4.409  -6.342  0.00  0.00     0.037 H 
BRANCH  28  30
ATOM     30  C   LIG d   1      10.039   4.622  -7.635  0.00  0.00     0.032 C 
ATOM     31  H   LIG d   1      10.136   5.668  -7.925  0.00  0.00     0.036 H 
ATOM     32  H   LIG d   1      11.025   4.158  -7.617  0.00  0.00     0.036 H 
BRANCH  30  33
ATOM     33  C   LIG d   1       9.165   3.904  -8.631  0.00  0.00     0.214 C 
ATOM     34  O   LIG d   1       8.603   4.530  -9.506  0.00  0.00    -0.276 OA
ATOM     35  N   LIG d   1       9.008   2.569  -8.550  0.00  0.00    -0.310 N 
ATOM     36  H   LIG d   1       9.456   2.069  -7.850  0.00  0.00     0.149 HD
BRANCH  35  37
ATOM     37  C   LIG d   1       8.158   1.871  -9.518  0.00  0.00     0.051 C 
ATOM     38  H   LIG d   1       8.086   2.461 -10.432  0.00  0.00     0.052 H 
ATOM     39  H   LIG d   1       8.592   0.898  -9.748  0.00  0.00     0.052 H 
BRANCH  37  40
ATOM     40  C   LIG d   1       6.782   1.682  -8.935  0.00  0.00     0.059 C 
ATOM     41  O   LIG d   1       5.798   1.768  -9.651  0.00  0.00    -0.548 OA
ATOM     42  O   LIG d   1       6.651   1.443  -7.746  0.00  0.00    -0.548 OA
ENDBRANCH  37  40
ENDBRANCH  35  37
ENDBRANCH  30  33
ENDBRANCH  28  30
BRANCH  28  43
ATOM     43  C   LIG d   1       9.700   5.799  -5.480  0.00  0.00    -0.042 A 
ATOM     44  C   LIG d   1       9.960   5.742  -4.123  0.00  0.00    -0.057 A 
ATOM     45  C   LIG d   1      10.234   6.902  -3.422  0.00  0.00    -0.043 A 
ATOM     46  H   LIG d   1       9.954   4.791  -3.611  0.00  0.00     0.062 H 
ATOM     47  C   LIG d   1      10.235   8.121  -4.076  0.00  0.00     0.041 A 
ATOM     48  H   LIG d   1      10.441   6.856  -2.363  0.00  0.00     0.063 H 
ATOM     49  C   LIG d   1       9.970   8.177  -5.432  0.00  0.00    -0.043 A 
ATOM     50 CL   LIG d   1      10.572   9.578  -3.195  0.00  0.00    -0.084 Cl
ATOM     51  C   LIG d   1       9.702   7.017  -6.134  0.00  0.00    -0.057 A 
ATOM     52  H   LIG d   1       9.971   9.129  -5.944  0.00  0.00     0.063 H 
ATOM     53  H   LIG d   1       9.495   7.061  -7.192  0.00  0.00     0.062 H 
ENDBRANCH  28  43
ENDBRANCH   1  28
TORSDOF 8
ENDMDL
MODEL 10
REMARK VINA RESULT:      -6.6      3.612      4.771
REMARK  8 active torsions:
REMARK  status: ('A' for Active; 'I' for Inactive)
REMARK    1  A    between atoms: C_8  and  C_12 
REMARK       I    between atoms: C_12  and  N_14 
REMARK    2  A    between atoms: N_14  and  C_15 
REMARK    3  A    between atoms: C_15  and  C_16 
REMARK    4  A    between atoms: C_16  and  C_18 
REMARK    5  A    between atoms: C_16  and  C_26 
REMARK    6  A    between atoms: C_18  and  C_19 
REMARK       I    between atoms: C_19  and  N_21 
REMARK    7  A    between atoms: N_21  and  C_22 
REMARK    8  A    between atoms: C_22  and  C_23 
ROOT
ATOM      1  C   LIG d   1      11.760   1.143  -4.933  0.00  0.00     0.019 C 
ATOM      2  H   LIG d   1      12.408   0.416  -5.422  0.00  0.00     0.047 H 
ATOM      3  H   LIG d   1      11.564   1.972  -5.613  0.00  0.00     0.047 H 
ENDROOT
BRANCH   1   4
ATOM      4  N   LIG d   1      10.496   0.503  -4.565  0.00  0.00    -0.313 N 
ATOM      5  C   LIG d   1       9.338   0.946  -5.093  0.00  0.00     0.230 C 
ATOM      6  O   LIG d   1       9.342   1.875  -5.872  0.00  0.00    -0.274 OA
ATOM      7  H   LIG d   1      10.492  -0.240  -3.942  0.00  0.00     0.149 HD
BRANCH   5   8
ATOM      8  C   LIG d   1       8.036   0.287  -4.714  0.00  0.00     0.089 C 
ATOM      9  C   LIG d   1       7.288   1.165  -3.711  0.00  0.00    -0.003 C 
ATOM     10  C   LIG d   1       6.109   0.413  -3.148  0.00  0.00    -0.041 A 
ATOM     11  H   LIG d   1       6.937   2.067  -4.212  0.00  0.00     0.033 H 
ATOM     12  H   LIG d   1       7.962   1.443  -2.900  0.00  0.00     0.033 H 
ATOM     13  C   LIG d   1       6.007  -0.957  -3.255  0.00  0.00    -0.030 A 
ATOM     14  C   LIG d   1       5.114   1.132  -2.503  0.00  0.00    -0.058 A 
ATOM     15  C   LIG d   1       4.910  -1.609  -2.712  0.00  0.00    -0.057 A 
ATOM     16  C   LIG d   1       7.058  -1.780  -3.953  0.00  0.00     0.022 C 
ATOM     17  C   LIG d   1       3.921  -0.894  -2.068  0.00  0.00    -0.061 A 
ATOM     18  H   LIG d   1       4.829  -2.683  -2.794  0.00  0.00     0.062 H 
ATOM     19  C   LIG d   1       4.022   0.481  -1.964  0.00  0.00    -0.061 A 
ATOM     20  H   LIG d   1       3.069  -1.407  -1.646  0.00  0.00     0.062 H 
ATOM     21  H   LIG d   1       3.247   1.044  -1.466  0.00  0.00     0.062 H 
ATOM     22  N   LIG d   1       8.303  -1.017  -4.087  0.00  0.00    -0.301 N 
ATOM     23  H   LIG d   1       7.250  -2.685  -3.375  0.00  0.00     0.047 H 
ATOM     24  H   LIG d   1       6.699  -2.059  -4.943  0.00  0.00     0.047 H 
ATOM     25  H   LIG d   1       8.991  -1.536  -4.611  0.00  0.00     0.123 HD
ATOM     26  H   LIG d   1       5.193   2.205  -2.423  0.00  0.00     0.062 H 
ATOM     27  H   LIG d   1       7.424   0.146  -5.605  0.00  0.00     0.056 H 
ENDBRANCH   5   8
ENDBRANCH   1   4
BRANCH   1  28
ATOM     28  C   LIG d   1      12.450   1.672  -3.673  0.00  0.00     0.008 C 
ATOM     29  H   LIG d   1      11.913   1.321  -2.791  0.00  0.00     0.037 H 
BRANCH  28  30
ATOM     30  C   LIG d   1      12.450   3.201  -3.695  0.00  0.00     0.032 C 
ATOM     31  H   LIG d   1      13.379   3.571  -3.261  0.00  0.00     0.036 H 
ATOM     32  H   LIG d   1      12.366   3.550  -4.724  0.00  0.00     0.036 H 
BRANCH  30  33
ATOM     33  C   LIG d   1      11.282   3.716  -2.894  0.00  0.00     0.214 C 
ATOM     34  O   LIG d   1      10.415   2.951  -2.526  0.00  0.00    -0.276 OA
ATOM     35  N   LIG d   1      11.201   5.025  -2.585  0.00  0.00    -0.310 N 
ATOM     36  H   LIG d   1      11.894   5.637  -2.879  0.00  0.00     0.149 HD
BRANCH  35  37
ATOM     37  C   LIG d   1      10.065   5.525  -1.806  0.00  0.00     0.051 C 
ATOM     38  H   LIG d   1       9.172   5.536  -2.431  0.00  0.00     0.052 H 
ATOM     39  H   LIG d   1       9.900   4.875  -0.947  0.00  0.00     0.052 H 
BRANCH  37  40
ATOM     40  C   LIG d   1      10.360   6.923  -1.328  0.00  0.00     0.059 C 
ATOM     41  O   LIG d   1      11.366   7.498  -1.709  0.00  0.00    -0.548 OA
ATOM     42  O   LIG d   1       9.593   7.480  -0.561  0.00  0.00    -0.548 OA
ENDBRANCH  37  40
ENDBRANCH  35  37
ENDBRANCH  30  33
ENDBRANCH  28  30
BRANCH  28  43
ATOM     43  C   LIG d   1      13.870   1.170  -3.630  0.00  0.00    -0.042 A 
ATOM     44  C   LIG d   1      14.917   2.067  -3.519  0.00  0.00    -0.057 A 
ATOM     45  C   LIG d   1      16.220   1.606  -3.473  0.00  0.00    -0.043 A 
ATOM     46  H   LIG d   1      14.717   3.126  -3.464  0.00  0.00     0.062 H 
ATOM     47  C   LIG d   1      16.476   0.249  -3.550  0.00  0.00     0.041 A 
ATOM     48  H   LIG d   1      17.037   2.306  -3.382  0.00  0.00     0.063 H 
ATOM     49  C   LIG d   1      15.429  -0.647  -3.667  0.00  0.00    -0.043 A 
ATOM     50 CL   LIG d   1      18.112  -0.330  -3.500  0.00  0.00    -0.084 Cl
ATOM     51  C   LIG d   1      14.126  -0.186  -3.707  0.00  0.00    -0.057 A 
ATOM     52  H   LIG d   1      15.628  -1.707  -3.727  0.00  0.00     0.063 H 
ATOM     53  H   LIG d   1      13.308  -0.885  -3.798  0.00  0.00     0.062 H 
ENDBRANCH  28  43
ENDBRANCH   1  28
TORSDOF 8
ENDMDL
