MODEL 1
REMARK VINA RESULT:      -7.8      0.000      0.000
REMARK  20 active torsions:
REMARK  status: ('A' for Active; 'I' for Inactive)
REMARK    1  A    between atoms: C_3  and  N_53 
REMARK    2  A    between atoms: N_7  and  C1*_40 
REMARK    3  A    between atoms: C_8  and  N_10 
REMARK    4  A    between atoms: N_10  and  C_11 
REMARK    5  A    between atoms: C_11  and  C_12 
REMARK    6  A    between atoms: C_12  and  C_13 
REMARK    7  A    between atoms: C_13  and  C_14 
REMARK    8  A    between atoms: C_14  and  C_15 
REMARK    9  A    between atoms: C_15  and  N_16 
REMARK   10  A    between atoms: N_16  and  C_17 
REMARK   11  A    between atoms: C_20  and  N_39 
REMARK   12  A    between atoms: N_25  and  C1*_26 
REMARK   13  A    between atoms: C2*_28  and  O2*_38 
REMARK   14  A    between atoms: C3*_30  and  O3*_37 
REMARK   15  A    between atoms: C4*_32  and  C5*_35 
REMARK   16  A    between atoms: C5*_35  and  O5*_36 
REMARK   17  A    between atoms: C2*_42  and  O2*_52 
REMARK   18  A    between atoms: C3*_44  and  O3*_51 
REMARK   19  A    between atoms: C4*_46  and  C5*_49 
REMARK   20  A    between atoms: C5*_49  and  O5*_50 
ROOT
ATOM      1  C   LIG d   1       9.898   3.911  -4.261  0.00  0.00    -0.050 C 
ATOM      2  H   LIG d   1      10.080   3.618  -5.295  0.00  0.00     0.027 H 
ATOM      3  H   LIG d   1      10.850   4.038  -3.746  0.00  0.00     0.027 H 
ENDROOT
BRANCH   1   4
ATOM      4  C   LIG d   1       9.123   5.231  -4.235  0.00  0.00    -0.037 C 
ATOM      5  H   LIG d   1       8.398   5.210  -3.423  0.00  0.00     0.028 H 
ATOM      6  H   LIG d   1       8.605   5.368  -5.184  0.00  0.00     0.028 H 
BRANCH   4   7
ATOM      7  C   LIG d   1      10.100   6.390  -4.016  0.00  0.00     0.012 C 
ATOM      8  H   LIG d   1      10.308   6.873  -4.970  0.00  0.00     0.046 H 
ATOM      9  H   LIG d   1      11.027   6.008  -3.591  0.00  0.00     0.046 H 
BRANCH   7  10
ATOM     10  N   LIG d   1       9.504   7.362  -3.096  0.00  0.00    -0.315 N 
ATOM     11  H   LIG d   1       8.761   7.913  -3.387  0.00  0.00     0.149 HD
BRANCH  10  12
ATOM     12  C   LIG d   1      10.001   7.494  -1.815  0.00  0.00     0.200 A 
ATOM     13  N   LIG d   1      10.472   8.656  -1.270  0.00  0.00    -0.267 N 
ATOM     14  C   LIG d   1      10.873   8.375   0.016  0.00  0.00     0.169 A 
ATOM     15  C   LIG d   1      10.622   7.007   0.213  0.00  0.00     0.149 A 
ATOM     16  N   LIG d   1      11.400   9.084   1.008  0.00  0.00    -0.216 NA
ATOM     17  C   LIG d   1      10.942   6.447   1.461  0.00  0.00     0.147 A 
ATOM     18  N   LIG d   1      10.090   6.524  -0.938  0.00  0.00    -0.209 NA
ATOM     19  N   LIG d   1      11.466   7.235   2.394  0.00  0.00    -0.219 NA
ATOM     20  C   LIG d   1      11.685   8.516   2.161  0.00  0.00     0.120 A 
ATOM     21  H   LIG d   1      12.108   9.122   2.949  0.00  0.00     0.105 H 
BRANCH  13  22
ATOM     22  C1* LIG d   1      10.540   9.960  -1.933  0.00  0.00     0.168 C 
ATOM     23  H1* LIG d   1      11.453  10.482  -1.646  0.00  0.00     0.087 H 
ATOM     24  O4* LIG d   1      10.482   9.799  -3.367  0.00  0.00    -0.346 OA
ATOM     25  C4* LIG d   1      10.059  11.083  -3.877  0.00  0.00     0.113 C 
ATOM     26  C3* LIG d   1       8.976  11.566  -2.886  0.00  0.00     0.114 C 
ATOM     27  H4* LIG d   1      10.898  11.780  -3.890  0.00  0.00     0.065 H 
ATOM     28  C2* LIG d   1       9.300  10.810  -1.578  0.00  0.00     0.129 C 
ATOM     29  H3* LIG d   1       9.050  12.642  -2.733  0.00  0.00     0.065 H 
ATOM     30  H2* LIG d   1       9.534  11.512  -0.779  0.00  0.00     0.067 H 
BRANCH  25  31
ATOM     31  C5* LIG d   1       9.470  10.935  -5.281  0.00  0.00     0.073 C 
ATOM     32 1H5* LIG d   1       8.608  11.593  -5.384  0.00  0.00     0.058 H 
ATOM     33 2H5* LIG d   1      10.224  11.204  -6.021  0.00  0.00     0.058 H 
BRANCH  31  34
ATOM     34  O5* LIG d   1       9.064   9.581  -5.486  0.00  0.00    -0.392 OA
ATOM     35  H5* LIG d   1       9.734   9.029  -5.912  0.00  0.00     0.209 HD
ENDBRANCH  31  34
ENDBRANCH  25  31
BRANCH  26  36
ATOM     36  O3* LIG d   1       7.673  11.218  -3.357  0.00  0.00    -0.386 OA
ATOM     37  H3* LIG d   1       7.069  10.922  -2.661  0.00  0.00     0.210 HD
ENDBRANCH  26  36
BRANCH  28  38
ATOM     38  O2* LIG d   1       8.208   9.969  -1.200  0.00  0.00    -0.385 OA
ATOM     39  H2* LIG d   1       7.342  10.307  -1.464  0.00  0.00     0.210 HD
ENDBRANCH  28  38
ENDBRANCH  13  22
BRANCH  17  40
ATOM     40  N   LIG d   1      10.717   5.103   1.713  0.00  0.00    -0.341 N 
ATOM     41  H   LIG d   1       9.809   4.769   1.786  0.00  0.00     0.144 HD
ATOM     42  H   LIG d   1      11.467   4.496   1.817  0.00  0.00     0.144 HD
ENDBRANCH  17  40
ENDBRANCH  10  12
ENDBRANCH   7  10
ENDBRANCH   4   7
ENDBRANCH   1   4
BRANCH   1  43
ATOM     43  C   LIG d   1       9.078   2.826  -3.560  0.00  0.00    -0.037 C 
ATOM     44  H   LIG d   1       9.741   2.026  -3.232  0.00  0.00     0.028 H 
ATOM     45  H   LIG d   1       8.570   3.254  -2.696  0.00  0.00     0.028 H 
BRANCH  43  46
ATOM     46  C   LIG d   1       8.041   2.262  -4.534  0.00  0.00     0.012 C 
ATOM     47  H   LIG d   1       7.309   3.033  -4.772  0.00  0.00     0.046 H 
ATOM     48  H   LIG d   1       8.540   1.940  -5.449  0.00  0.00     0.046 H 
BRANCH  46  49
ATOM     49  N   LIG d   1       7.365   1.118  -3.918  0.00  0.00    -0.315 N 
ATOM     50  H   LIG d   1       6.662   1.263  -3.266  0.00  0.00     0.149 HD
BRANCH  49  51
ATOM     51  C   LIG d   1       7.727  -0.168  -4.268  0.00  0.00     0.200 A 
ATOM     52  N   LIG d   1       7.078  -1.304  -3.869  0.00  0.00    -0.267 N 
ATOM     53  C   LIG d   1       7.740  -2.373  -4.427  0.00  0.00     0.169 A 
ATOM     54  C   LIG d   1       8.808  -1.832  -5.161  0.00  0.00     0.149 A 
ATOM     55  N   LIG d   1       7.577  -3.691  -4.399  0.00  0.00    -0.216 NA
ATOM     56  N   LIG d   1       8.747  -0.483  -5.026  0.00  0.00    -0.209 NA
ATOM     57  C   LIG d   1       9.661  -2.717  -5.839  0.00  0.00     0.147 A 
ATOM     58  N   LIG d   1       9.421  -4.021  -5.753  0.00  0.00    -0.219 NA
ATOM     59  C   LIG d   1       8.402  -4.483  -5.050  0.00  0.00     0.120 A 
ATOM     60  H   LIG d   1       8.242  -5.551  -5.007  0.00  0.00     0.105 H 
BRANCH  52  61
ATOM     61  C1* LIG d   1       5.894  -1.369  -3.008  0.00  0.00     0.168 C 
ATOM     62  H1* LIG d   1       6.044  -2.089  -2.204  0.00  0.00     0.087 H 
ATOM     63  O4* LIG d   1       5.585  -0.065  -2.470  0.00  0.00    -0.346 OA
ATOM     64  C4* LIG d   1       4.197  -0.088  -2.090  0.00  0.00     0.113 C 
ATOM     65  C3* LIG d   1       3.497  -1.141  -2.971  0.00  0.00     0.114 C 
ATOM     66  H4* LIG d   1       4.108  -0.365  -1.040  0.00  0.00     0.065 H 
ATOM     67  C2* LIG d   1       4.636  -1.730  -3.837  0.00  0.00     0.129 C 
ATOM     68  H3* LIG d   1       3.046  -1.917  -2.352  0.00  0.00     0.065 H 
ATOM     69  H2* LIG d   1       4.666  -1.253  -4.817  0.00  0.00     0.067 H 
BRANCH  64  70
ATOM     70  C5* LIG d   1       3.567   1.287  -2.321  0.00  0.00     0.073 C 
ATOM     71 1H5* LIG d   1       2.513   1.167  -2.573  0.00  0.00     0.058 H 
ATOM     72 2H5* LIG d   1       3.657   1.885  -1.415  0.00  0.00     0.058 H 
BRANCH  70  73
ATOM     73  O5* LIG d   1       4.241   1.945  -3.396  0.00  0.00    -0.392 OA
ATOM     74  H5* LIG d   1       4.508   2.853  -3.196  0.00  0.00     0.209 HD
ENDBRANCH  70  73
ENDBRANCH  64  70
BRANCH  65  75
ATOM     75  O3* LIG d   1       2.506  -0.524  -3.798  0.00  0.00    -0.386 OA
ATOM     76  H3* LIG d   1       2.210   0.339  -3.480  0.00  0.00     0.210 HD
ENDBRANCH  65  75
BRANCH  67  77
ATOM     77  O2* LIG d   1       4.499  -3.146  -3.966  0.00  0.00    -0.385 OA
ATOM     78  H2* LIG d   1       5.247  -3.648  -3.613  0.00  0.00     0.210 HD
ENDBRANCH  67  77
ENDBRANCH  52  61
BRANCH  57  79
ATOM     79  N   LIG d   1      10.732  -2.241  -6.579  0.00  0.00    -0.341 N 
ATOM     80  H   LIG d   1      11.626  -2.257  -6.204  0.00  0.00     0.144 HD
ATOM     81  H   LIG d   1      10.587  -1.892  -7.471  0.00  0.00     0.144 HD
ENDBRANCH  57  79
ENDBRANCH  49  51
ENDBRANCH  46  49
ENDBRANCH  43  46
ENDBRANCH   1  43
TORSDOF 20
ENDMDL
MODEL 2
REMARK VINA RESULT:      -7.4      2.291      3.944
REMARK  20 active torsions:
REMARK  status: ('A' for Active; 'I' for Inactive)
REMARK    1  A    between atoms: C_3  and  N_53 
REMARK    2  A    between atoms: N_7  and  C1*_40 
REMARK    3  A    between atoms: C_8  and  N_10 
REMARK    4  A    between atoms: N_10  and  C_11 
REMARK    5  A    between atoms: C_11  and  C_12 
REMARK    6  A    between atoms: C_12  and  C_13 
REMARK    7  A    between atoms: C_13  and  C_14 
REMARK    8  A    between atoms: C_14  and  C_15 
REMARK    9  A    between atoms: C_15  and  N_16 
REMARK   10  A    between atoms: N_16  and  C_17 
REMARK   11  A    between atoms: C_20  and  N_39 
REMARK   12  A    between atoms: N_25  and  C1*_26 
REMARK   13  A    between atoms: C2*_28  and  O2*_38 
REMARK   14  A    between atoms: C3*_30  and  O3*_37 
REMARK   15  A    between atoms: C4*_32  and  C5*_35 
REMARK   16  A    between atoms: C5*_35  and  O5*_36 
REMARK   17  A    between atoms: C2*_42  and  O2*_52 
REMARK   18  A    between atoms: C3*_44  and  O3*_51 
REMARK   19  A    between atoms: C4*_46  and  C5*_49 
REMARK   20  A    between atoms: C5*_49  and  O5*_50 
ROOT
ATOM      1  C   LIG d   1       9.569   4.577  -4.954  0.00  0.00    -0.050 C 
ATOM      2  H   LIG d   1       8.819   4.000  -5.495  0.00  0.00     0.027 H 
ATOM      3  H   LIG d   1      10.537   4.464  -5.442  0.00  0.00     0.027 H 
ENDROOT
BRANCH   1   4
ATOM      4  C   LIG d   1       9.169   6.055  -4.950  0.00  0.00    -0.037 C 
ATOM      5  H   LIG d   1       8.206   6.169  -4.455  0.00  0.00     0.028 H 
ATOM      6  H   LIG d   1       9.096   6.415  -5.977  0.00  0.00     0.028 H 
BRANCH   4   7
ATOM      7  C   LIG d   1      10.228   6.866  -4.199  0.00  0.00     0.012 C 
ATOM      8  H   LIG d   1      10.792   7.471  -4.908  0.00  0.00     0.046 H 
ATOM      9  H   LIG d   1      10.904   6.188  -3.679  0.00  0.00     0.046 H 
BRANCH   7  10
ATOM     10  N   LIG d   1       9.569   7.742  -3.225  0.00  0.00    -0.315 N 
ATOM     11  H   LIG d   1       8.795   8.263  -3.488  0.00  0.00     0.149 HD
BRANCH  10  12
ATOM     12  C   LIG d   1      10.053   7.825  -1.935  0.00  0.00     0.200 A 
ATOM     13  N   LIG d   1      10.475   8.974  -1.326  0.00  0.00    -0.267 N 
ATOM     14  C   LIG d   1      10.879   8.641  -0.053  0.00  0.00     0.169 A 
ATOM     15  C   LIG d   1      10.680   7.257   0.070  0.00  0.00     0.149 A 
ATOM     16  N   LIG d   1      11.372   9.317   0.979  0.00  0.00    -0.216 NA
ATOM     17  C   LIG d   1      11.014   6.644   1.289  0.00  0.00     0.147 A 
ATOM     18  N   LIG d   1      10.174   6.815  -1.110  0.00  0.00    -0.209 NA
ATOM     19  N   LIG d   1      11.501   7.401   2.267  0.00  0.00    -0.219 NA
ATOM     20  C   LIG d   1      11.671   8.701   2.103  0.00  0.00     0.120 A 
ATOM     21  H   LIG d   1      12.065   9.281   2.925  0.00  0.00     0.105 H 
BRANCH  13  22
ATOM     22  C1* LIG d   1      10.497  10.313  -1.919  0.00  0.00     0.168 C 
ATOM     23  H1* LIG d   1      11.345  10.882  -1.538  0.00  0.00     0.087 H 
ATOM     24  O4* LIG d   1      10.558  10.225  -3.359  0.00  0.00    -0.346 OA
ATOM     25  C4* LIG d   1      10.082  11.501  -3.839  0.00  0.00     0.113 C 
ATOM     26  C3* LIG d   1       8.894  11.855  -2.915  0.00  0.00     0.114 C 
ATOM     27  H4* LIG d   1      10.865  12.254  -3.754  0.00  0.00     0.065 H 
ATOM     28  C2* LIG d   1       9.174  11.055  -1.623  0.00  0.00     0.129 C 
ATOM     29  H3* LIG d   1       8.878  12.924  -2.706  0.00  0.00     0.065 H 
ATOM     30  H2* LIG d   1       9.296  11.728  -0.775  0.00  0.00     0.067 H 
BRANCH  25  31
ATOM     31  C5* LIG d   1       9.611  11.386  -5.290  0.00  0.00     0.073 C 
ATOM     32 1H5* LIG d   1       8.746  12.031  -5.444  0.00  0.00     0.058 H 
ATOM     33 2H5* LIG d   1      10.417  11.693  -5.958  0.00  0.00     0.058 H 
BRANCH  31  34
ATOM     34  O5* LIG d   1       9.252  10.032  -5.569  0.00  0.00    -0.392 OA
ATOM     35  H5* LIG d   1       9.259   9.455  -4.793  0.00  0.00     0.209 HD
ENDBRANCH  31  34
ENDBRANCH  25  31
BRANCH  26  36
ATOM     36  O3* LIG d   1       7.659  11.441  -3.502  0.00  0.00    -0.386 OA
ATOM     37  H3* LIG d   1       6.948  11.295  -2.862  0.00  0.00     0.210 HD
ENDBRANCH  26  36
BRANCH  28  38
ATOM     38  O2* LIG d   1       8.122  10.121  -1.372  0.00  0.00    -0.385 OA
ATOM     39  H2* LIG d   1       7.235  10.488  -1.484  0.00  0.00     0.210 HD
ENDBRANCH  28  38
ENDBRANCH  13  22
BRANCH  17  40
ATOM     40  N   LIG d   1      10.840   5.281   1.469  0.00  0.00    -0.341 N 
ATOM     41  H   LIG d   1      10.284   4.778   0.853  0.00  0.00     0.144 HD
ATOM     42  H   LIG d   1      11.272   4.830   2.211  0.00  0.00     0.144 HD
ENDBRANCH  17  40
ENDBRANCH  10  12
ENDBRANCH   7  10
ENDBRANCH   4   7
ENDBRANCH   1   4
BRANCH   1  43
ATOM     43  C   LIG d   1       9.661   4.071  -3.514  0.00  0.00    -0.037 C 
ATOM     44  H   LIG d   1      10.548   4.488  -3.038  0.00  0.00     0.028 H 
ATOM     45  H   LIG d   1       8.773   4.380  -2.961  0.00  0.00     0.028 H 
BRANCH  43  46
ATOM     46  C   LIG d   1       9.754   2.543  -3.515  0.00  0.00     0.012 C 
ATOM     47  H   LIG d   1      10.773   2.242  -3.754  0.00  0.00     0.046 H 
ATOM     48  H   LIG d   1       9.484   2.162  -2.530  0.00  0.00     0.046 H 
BRANCH  46  49
ATOM     49  N   LIG d   1       8.835   1.999  -4.518  0.00  0.00    -0.315 N 
ATOM     50  H   LIG d   1       8.925   2.255  -5.449  0.00  0.00     0.149 HD
BRANCH  49  51
ATOM     51  C   LIG d   1       7.841   1.120  -4.138  0.00  0.00     0.200 A 
ATOM     52  N   LIG d   1       7.686  -0.150  -4.621  0.00  0.00    -0.267 N 
ATOM     53  C   LIG d   1       6.590  -0.698  -3.995  0.00  0.00     0.169 A 
ATOM     54  C   LIG d   1       6.096   0.294  -3.133  0.00  0.00     0.149 A 
ATOM     55  N   LIG d   1       5.970  -1.871  -4.053  0.00  0.00    -0.216 NA
ATOM     56  N   LIG d   1       6.900   1.379  -3.264  0.00  0.00    -0.209 NA
ATOM     57  C   LIG d   1       4.959  -0.003  -2.364  0.00  0.00     0.147 A 
ATOM     58  N   LIG d   1       4.406  -1.205  -2.488  0.00  0.00    -0.219 NA
ATOM     59  C   LIG d   1       4.907  -2.106  -3.313  0.00  0.00     0.120 A 
ATOM     60  H   LIG d   1       4.426  -3.071  -3.384  0.00  0.00     0.105 H 
BRANCH  52  61
ATOM     61  C1* LIG d   1       8.534  -0.807  -5.620  0.00  0.00     0.168 C 
ATOM     62  H1* LIG d   1       8.024  -1.670  -6.046  0.00  0.00     0.087 H 
ATOM     63  O4* LIG d   1       8.910   0.125  -6.658  0.00  0.00    -0.346 OA
ATOM     64  C4* LIG d   1      10.097  -0.400  -7.280  0.00  0.00     0.113 C 
ATOM     65  C3* LIG d   1      10.815  -1.275  -6.235  0.00  0.00     0.114 C 
ATOM     66  H4* LIG d   1       9.823  -1.005  -8.144  0.00  0.00     0.065 H 
ATOM     67  C2* LIG d   1       9.889  -1.224  -4.995  0.00  0.00     0.129 C 
ATOM     68  H3* LIG d   1      10.913  -2.299  -6.596  0.00  0.00     0.065 H 
ATOM     69  H2* LIG d   1      10.235  -0.477  -4.281  0.00  0.00     0.067 H 
BRANCH  64  70
ATOM     70  C5* LIG d   1      11.012   0.747  -7.715  0.00  0.00     0.073 C 
ATOM     71 1H5* LIG d   1      12.045   0.400  -7.735  0.00  0.00     0.058 H 
ATOM     72 2H5* LIG d   1      10.723   1.084  -8.710  0.00  0.00     0.058 H 
BRANCH  70  73
ATOM     73  O5* LIG d   1      10.891   1.830  -6.791  0.00  0.00    -0.392 OA
ATOM     74  H5* LIG d   1      10.327   1.637  -6.030  0.00  0.00     0.209 HD
ENDBRANCH  70  73
ENDBRANCH  64  70
BRANCH  65  75
ATOM     75  O3* LIG d   1      12.100  -0.732  -5.922  0.00  0.00    -0.386 OA
ATOM     76  H3* LIG d   1      12.091   0.216  -5.734  0.00  0.00     0.210 HD
ENDBRANCH  65  75
BRANCH  67  77
ATOM     77  O2* LIG d   1       9.791  -2.509  -4.378  0.00  0.00    -0.385 OA
ATOM     78  H2* LIG d   1       9.281  -2.513  -3.555  0.00  0.00     0.210 HD
ENDBRANCH  67  77
ENDBRANCH  52  61
BRANCH  57  79
ATOM     79  N   LIG d   1       4.426   0.936  -1.495  0.00  0.00    -0.341 N 
ATOM     80  H   LIG d   1       3.821   0.657  -0.791  0.00  0.00     0.144 HD
ATOM     81  H   LIG d   1       4.658   1.873  -1.593  0.00  0.00     0.144 HD
ENDBRANCH  57  79
ENDBRANCH  49  51
ENDBRANCH  46  49
ENDBRANCH  43  46
ENDBRANCH   1  43
TORSDOF 20
ENDMDL
MODEL 3
REMARK VINA RESULT:      -7.4      2.005     11.244
REMARK  20 active torsions:
REMARK  status: ('A' for Active; 'I' for Inactive)
REMARK    1  A    between atoms: C_3  and  N_53 
REMARK    2  A    between atoms: N_7  and  C1*_40 
REMARK    3  A    between atoms: C_8  and  N_10 
REMARK    4  A    between atoms: N_10  and  C_11 
REMARK    5  A    between atoms: C_11  and  C_12 
REMARK    6  A    between atoms: C_12  and  C_13 
REMARK    7  A    between atoms: C_13  and  C_14 
REMARK    8  A    between atoms: C_14  and  C_15 
REMARK    9  A    between atoms: C_15  and  N_16 
REMARK   10  A    between atoms: N_16  and  C_17 
REMARK   11  A    between atoms: C_20  and  N_39 
REMARK   12  A    between atoms: N_25  and  C1*_26 
REMARK   13  A    between atoms: C2*_28  and  O2*_38 
REMARK   14  A    between atoms: C3*_30  and  O3*_37 
REMARK   15  A    between atoms: C4*_32  and  C5*_35 
REMARK   16  A    between atoms: C5*_35  and  O5*_36 
REMARK   17  A    between atoms: C2*_42  and  O2*_52 
REMARK   18  A    between atoms: C3*_44  and  O3*_51 
REMARK   19  A    between atoms: C4*_46  and  C5*_49 
REMARK   20  A    between atoms: C5*_49  and  O5*_50 
ROOT
ATOM      1  C   LIG d   1       9.803   4.153  -5.449  0.00  0.00    -0.050 C 
ATOM      2  H   LIG d   1      10.779   3.937  -5.015  0.00  0.00     0.027 H 
ATOM      3  H   LIG d   1       9.920   4.406  -6.502  0.00  0.00     0.027 H 
ENDROOT
BRANCH   1   4
ATOM      4  C   LIG d   1       8.902   2.922  -5.317  0.00  0.00    -0.037 C 
ATOM      5  H   LIG d   1       9.268   2.133  -5.972  0.00  0.00     0.028 H 
ATOM      6  H   LIG d   1       7.883   3.186  -5.598  0.00  0.00     0.028 H 
BRANCH   4   7
ATOM      7  C   LIG d   1       8.921   2.432  -3.867  0.00  0.00     0.012 C 
ATOM      8  H   LIG d   1       8.126   2.923  -3.307  0.00  0.00     0.046 H 
ATOM      9  H   LIG d   1       9.884   2.668  -3.416  0.00  0.00     0.046 H 
BRANCH   7  10
ATOM     10  N   LIG d   1       8.711   0.981  -3.841  0.00  0.00    -0.315 N 
ATOM     11  H   LIG d   1       9.471   0.381  -3.887  0.00  0.00     0.149 HD
BRANCH  10  12
ATOM     12  C   LIG d   1       7.432   0.472  -3.750  0.00  0.00     0.200 A 
ATOM     13  N   LIG d   1       7.029  -0.734  -4.253  0.00  0.00    -0.267 N 
ATOM     14  C   LIG d   1       5.692  -0.878  -3.959  0.00  0.00     0.169 A 
ATOM     15  C   LIG d   1       5.319   0.284  -3.264  0.00  0.00     0.149 A 
ATOM     16  N   LIG d   1       4.779  -1.815  -4.186  0.00  0.00    -0.216 NA
ATOM     17  C   LIG d   1       3.986   0.402  -2.837  0.00  0.00     0.147 A 
ATOM     18  N   LIG d   1       6.422   1.069  -3.167  0.00  0.00    -0.209 NA
ATOM     19  N   LIG d   1       3.143  -0.588  -3.110  0.00  0.00    -0.219 NA
ATOM     20  C   LIG d   1       3.541  -1.662  -3.768  0.00  0.00     0.120 A 
ATOM     21  H   LIG d   1       2.824  -2.446  -3.964  0.00  0.00     0.105 H 
BRANCH  13  22
ATOM     22  C1* LIG d   1       7.865  -1.697  -4.975  0.00  0.00     0.168 C 
ATOM     23  H1* LIG d   1       7.361  -2.030  -5.882  0.00  0.00     0.087 H 
ATOM     24  O4* LIG d   1       9.144  -1.109  -5.298  0.00  0.00    -0.346 OA
ATOM     25  C4* LIG d   1      10.028  -2.227  -5.532  0.00  0.00     0.113 C 
ATOM     26  C3* LIG d   1       9.656  -3.261  -4.445  0.00  0.00     0.114 C 
ATOM     27  H4* LIG d   1       9.857  -2.643  -6.525  0.00  0.00     0.065 H 
ATOM     28  C2* LIG d   1       8.200  -2.904  -4.071  0.00  0.00     0.129 C 
ATOM     29  H3* LIG d   1       9.709  -4.273  -4.847  0.00  0.00     0.065 H 
ATOM     30  H2* LIG d   1       7.534  -3.739  -4.287  0.00  0.00     0.067 H 
BRANCH  25  31
ATOM     31  C5* LIG d   1      11.488  -1.797  -5.380  0.00  0.00     0.073 C 
ATOM     32 1H5* LIG d   1      12.068  -2.619  -4.963  0.00  0.00     0.058 H 
ATOM     33 2H5* LIG d   1      11.891  -1.527  -6.357  0.00  0.00     0.058 H 
BRANCH  31  34
ATOM     34  O5* LIG d   1      11.564  -0.669  -4.506  0.00  0.00    -0.392 OA
ATOM     35  H5* LIG d   1      11.481  -0.892  -3.569  0.00  0.00     0.209 HD
ENDBRANCH  31  34
ENDBRANCH  25  31
BRANCH  26  36
ATOM     36  O3* LIG d   1      10.512  -3.128  -3.310  0.00  0.00    -0.386 OA
ATOM     37  H3* LIG d   1      11.448  -3.279  -3.503  0.00  0.00     0.210 HD
ENDBRANCH  26  36
BRANCH  28  38
ATOM     38  O2* LIG d   1       8.111  -2.537  -2.693  0.00  0.00    -0.385 OA
ATOM     39  H2* LIG d   1       7.207  -2.394  -2.382  0.00  0.00     0.210 HD
ENDBRANCH  28  38
ENDBRANCH  13  22
BRANCH  17  40
ATOM     40  N   LIG d   1       3.560   1.526  -2.147  0.00  0.00    -0.341 N 
ATOM     41  H   LIG d   1       4.210   2.151  -1.789  0.00  0.00     0.144 HD
ATOM     42  H   LIG d   1       2.612   1.687  -2.021  0.00  0.00     0.144 HD
ENDBRANCH  17  40
ENDBRANCH  10  12
ENDBRANCH   7  10
ENDBRANCH   4   7
ENDBRANCH   1   4
BRANCH   1  43
ATOM     43  C   LIG d   1       9.166   5.331  -4.708  0.00  0.00    -0.037 C 
ATOM     44  H   LIG d   1       8.679   5.991  -5.427  0.00  0.00     0.028 H 
ATOM     45  H   LIG d   1       8.427   4.959  -3.999  0.00  0.00     0.028 H 
BRANCH  43  46
ATOM     46  C   LIG d   1      10.250   6.106  -3.956  0.00  0.00     0.012 C 
ATOM     47  H   LIG d   1      10.829   5.417  -3.343  0.00  0.00     0.046 H 
ATOM     48  H   LIG d   1      10.909   6.597  -4.673  0.00  0.00     0.046 H 
BRANCH  46  49
ATOM     49  N   LIG d   1       9.622   7.115  -3.099  0.00  0.00    -0.315 N 
ATOM     50  H   LIG d   1       8.891   7.654  -3.439  0.00  0.00     0.149 HD
BRANCH  49  51
ATOM     51  C   LIG d   1      10.071   7.298  -1.807  0.00  0.00     0.200 A 
ATOM     52  N   LIG d   1      10.485   8.491  -1.279  0.00  0.00    -0.267 N 
ATOM     53  C   LIG d   1      10.849   8.258   0.028  0.00  0.00     0.169 A 
ATOM     54  C   LIG d   1      10.647   6.887   0.252  0.00  0.00     0.149 A 
ATOM     55  N   LIG d   1      11.316   9.013   1.016  0.00  0.00    -0.216 NA
ATOM     56  N   LIG d   1      10.172   6.355  -0.903  0.00  0.00    -0.209 NA
ATOM     57  C   LIG d   1      10.949   6.372   1.522  0.00  0.00     0.147 A 
ATOM     58  N   LIG d   1      11.412   7.203   2.450  0.00  0.00    -0.219 NA
ATOM     59  C   LIG d   1      11.586   8.487   2.192  0.00  0.00     0.120 A 
ATOM     60  H   LIG d   1      11.964   9.128   2.975  0.00  0.00     0.105 H 
BRANCH  52  61
ATOM     61  C1* LIG d   1      10.529   9.779  -1.976  0.00  0.00     0.168 C 
ATOM     62  H1* LIG d   1      11.403  10.351  -1.668  0.00  0.00     0.087 H 
ATOM     63  O4* LIG d   1      10.529   9.582  -3.407  0.00  0.00    -0.346 OA
ATOM     64  C4* LIG d   1      10.064  10.808  -3.998  0.00  0.00     0.113 C 
ATOM     65  C3* LIG d   1       9.172  11.511  -2.956  0.00  0.00     0.114 C 
ATOM     66  H4* LIG d   1      10.914  11.443  -4.247  0.00  0.00     0.065 H 
ATOM     67  C2* LIG d   1       9.229  10.582  -1.719  0.00  0.00     0.129 C 
ATOM     68  H3* LIG d   1       9.572  12.496  -2.713  0.00  0.00     0.065 H 
ATOM     69  H2* LIG d   1       8.363   9.922  -1.688  0.00  0.00     0.067 H 
BRANCH  64  70
ATOM     70  C5* LIG d   1       9.252  10.508  -5.260  0.00  0.00     0.073 C 
ATOM     71 1H5* LIG d   1       9.689   9.655  -5.780  0.00  0.00     0.058 H 
ATOM     72 2H5* LIG d   1       8.224  10.277  -4.983  0.00  0.00     0.058 H 
BRANCH  70  73
ATOM     73  O5* LIG d   1       9.269  11.650  -6.120  0.00  0.00    -0.392 OA
ATOM     74  H5* LIG d   1       8.991  11.464  -7.027  0.00  0.00     0.209 HD
ENDBRANCH  70  73
ENDBRANCH  64  70
BRANCH  65  75
ATOM     75  O3* LIG d   1       7.831  11.623  -3.437  0.00  0.00    -0.386 OA
ATOM     76  H3* LIG d   1       7.402  12.461  -3.217  0.00  0.00     0.210 HD
ENDBRANCH  65  75
BRANCH  67  77
ATOM     77  O2* LIG d   1       9.331  11.343  -0.514  0.00  0.00    -0.385 OA
ATOM     78  H2* LIG d   1       9.996  11.012   0.107  0.00  0.00     0.210 HD
ENDBRANCH  67  77
ENDBRANCH  52  61
BRANCH  57  79
ATOM     79  N   LIG d   1      10.770   5.026   1.802  0.00  0.00    -0.341 N 
ATOM     80  H   LIG d   1      11.247   4.617   2.541  0.00  0.00     0.144 HD
ATOM     81  H   LIG d   1      10.169   4.494   1.258  0.00  0.00     0.144 HD
ENDBRANCH  57  79
ENDBRANCH  49  51
ENDBRANCH  46  49
ENDBRANCH  43  46
ENDBRANCH   1  43
TORSDOF 20
ENDMDL
MODEL 4
REMARK VINA RESULT:      -7.2      2.141      2.280
REMARK  20 active torsions:
REMARK  status: ('A' for Active; 'I' for Inactive)
REMARK    1  A    between atoms: C_3  and  N_53 
REMARK    2  A    between atoms: N_7  and  C1*_40 
REMARK    3  A    between atoms: C_8  and  N_10 
REMARK    4  A    between atoms: N_10  and  C_11 
REMARK    5  A    between atoms: C_11  and  C_12 
REMARK    6  A    between atoms: C_12  and  C_13 
REMARK    7  A    between atoms: C_13  and  C_14 
REMARK    8  A    between atoms: C_14  and  C_15 
REMARK    9  A    between atoms: C_15  and  N_16 
REMARK   10  A    between atoms: N_16  and  C_17 
REMARK   11  A    between atoms: C_20  and  N_39 
REMARK   12  A    between atoms: N_25  and  C1*_26 
REMARK   13  A    between atoms: C2*_28  and  O2*_38 
REMARK   14  A    between atoms: C3*_30  and  O3*_37 
REMARK   15  A    between atoms: C4*_32  and  C5*_35 
REMARK   16  A    between atoms: C5*_35  and  O5*_36 
REMARK   17  A    between atoms: C2*_42  and  O2*_52 
REMARK   18  A    between atoms: C3*_44  and  O3*_51 
REMARK   19  A    between atoms: C4*_46  and  C5*_49 
REMARK   20  A    between atoms: C5*_49  and  O5*_50 
ROOT
ATOM      1  C   LIG d   1      10.093   4.092  -3.783  0.00  0.00    -0.050 C 
ATOM      2  H   LIG d   1      10.900   3.919  -4.496  0.00  0.00     0.027 H 
ATOM      3  H   LIG d   1      10.513   4.260  -2.792  0.00  0.00     0.027 H 
ENDROOT
BRANCH   1   4
ATOM      4  C   LIG d   1       9.288   5.321  -4.212  0.00  0.00    -0.037 C 
ATOM      5  H   LIG d   1       8.395   5.404  -3.595  0.00  0.00     0.028 H 
ATOM      6  H   LIG d   1       9.000   5.219  -5.259  0.00  0.00     0.028 H 
BRANCH   4   7
ATOM      7  C   LIG d   1      10.146   6.576  -4.040  0.00  0.00     0.012 C 
ATOM      8  H   LIG d   1      10.249   7.081  -5.001  0.00  0.00     0.046 H 
ATOM      9  H   LIG d   1      11.131   6.295  -3.669  0.00  0.00     0.046 H 
BRANCH   7  10
ATOM     10  N   LIG d   1       9.502   7.479  -3.082  0.00  0.00    -0.315 N 
ATOM     11  H   LIG d   1       8.726   7.996  -3.349  0.00  0.00     0.149 HD
BRANCH  10  12
ATOM     12  C   LIG d   1       9.999   7.592  -1.799  0.00  0.00     0.200 A 
ATOM     13  N   LIG d   1      10.454   8.750  -1.232  0.00  0.00    -0.267 N 
ATOM     14  C   LIG d   1      10.862   8.450   0.048  0.00  0.00     0.169 A 
ATOM     15  C   LIG d   1      10.633   7.075   0.217  0.00  0.00     0.149 A 
ATOM     16  N   LIG d   1      11.381   9.147   1.053  0.00  0.00    -0.216 NA
ATOM     17  C   LIG d   1      10.965   6.495   1.453  0.00  0.00     0.147 A 
ATOM     18  N   LIG d   1      10.106   6.607  -0.942  0.00  0.00    -0.209 NA
ATOM     19  N   LIG d   1      11.479   7.272   2.401  0.00  0.00    -0.219 NA
ATOM     20  C   LIG d   1      11.677   8.561   2.194  0.00  0.00     0.120 A 
ATOM     21  H   LIG d   1      12.092   9.158   2.992  0.00  0.00     0.105 H 
BRANCH  13  22
ATOM     22  C1* LIG d   1      10.500  10.069  -1.869  0.00  0.00     0.168 C 
ATOM     23  H1* LIG d   1      11.385  10.615  -1.542  0.00  0.00     0.087 H 
ATOM     24  O4* LIG d   1      10.494   9.934  -3.306  0.00  0.00    -0.346 OA
ATOM     25  C4* LIG d   1      10.046  11.213  -3.807  0.00  0.00     0.113 C 
ATOM     26  C3* LIG d   1       8.915  11.641  -2.844  0.00  0.00     0.114 C 
ATOM     27  H4* LIG d   1      10.861  11.936  -3.779  0.00  0.00     0.065 H 
ATOM     28  C2* LIG d   1       9.221  10.871  -1.540  0.00  0.00     0.129 C 
ATOM     29  H3* LIG d   1       8.949  12.716  -2.670  0.00  0.00     0.065 H 
ATOM     30  H2* LIG d   1       9.406  11.565  -0.721  0.00  0.00     0.067 H 
BRANCH  25  31
ATOM     31  C5* LIG d   1       9.508  11.072  -5.232  0.00  0.00     0.073 C 
ATOM     32 1H5* LIG d   1       8.644  11.723  -5.360  0.00  0.00     0.058 H 
ATOM     33 2H5* LIG d   1      10.285  11.355  -5.943  0.00  0.00     0.058 H 
BRANCH  31  34
ATOM     34  O5* LIG d   1       9.122   9.716  -5.464  0.00  0.00    -0.392 OA
ATOM     35  H5* LIG d   1       9.782   9.195  -5.940  0.00  0.00     0.209 HD
ENDBRANCH  31  34
ENDBRANCH  25  31
BRANCH  26  36
ATOM     36  O3* LIG d   1       7.640  11.259  -3.364  0.00  0.00    -0.386 OA
ATOM     37  H3* LIG d   1       7.536  11.423  -4.312  0.00  0.00     0.210 HD
ENDBRANCH  26  36
BRANCH  28  38
ATOM     38  O2* LIG d   1       8.146   9.987  -1.214  0.00  0.00    -0.385 OA
ATOM     39  H2* LIG d   1       7.353  10.436  -0.891  0.00  0.00     0.210 HD
ENDBRANCH  28  38
ENDBRANCH  13  22
BRANCH  17  40
ATOM     40  N   LIG d   1      10.761   5.143   1.678  0.00  0.00    -0.341 N 
ATOM     41  H   LIG d   1      10.051   4.852   2.271  0.00  0.00     0.144 HD
ATOM     42  H   LIG d   1      11.330   4.487   1.244  0.00  0.00     0.144 HD
ENDBRANCH  17  40
ENDBRANCH  10  12
ENDBRANCH   7  10
ENDBRANCH   4   7
ENDBRANCH   1   4
BRANCH   1  43
ATOM     43  C   LIG d   1       9.174   2.869  -3.747  0.00  0.00    -0.037 C 
ATOM     44  H   LIG d   1       9.768   1.973  -3.565  0.00  0.00     0.028 H 
ATOM     45  H   LIG d   1       8.442   2.987  -2.948  0.00  0.00     0.028 H 
BRANCH  43  46
ATOM     46  C   LIG d   1       8.449   2.736  -5.088  0.00  0.00     0.012 C 
ATOM     47  H   LIG d   1       7.778   3.584  -5.223  0.00  0.00     0.046 H 
ATOM     48  H   LIG d   1       9.181   2.719  -5.896  0.00  0.00     0.046 H 
BRANCH  46  49
ATOM     49  N   LIG d   1       7.674   1.493  -5.103  0.00  0.00    -0.315 N 
ATOM     50  H   LIG d   1       7.287   1.152  -4.282  0.00  0.00     0.149 HD
BRANCH  49  51
ATOM     51  C   LIG d   1       7.496   0.807  -6.287  0.00  0.00     0.200 A 
ATOM     52  N   LIG d   1       6.665  -0.268  -6.457  0.00  0.00    -0.267 N 
ATOM     53  C   LIG d   1       6.765  -0.662  -7.772  0.00  0.00     0.169 A 
ATOM     54  C   LIG d   1       7.690   0.208  -8.371  0.00  0.00     0.149 A 
ATOM     55  N   LIG d   1       6.210  -1.620  -8.504  0.00  0.00    -0.216 NA
ATOM     56  N   LIG d   1       8.100   1.081  -7.416  0.00  0.00    -0.209 NA
ATOM     57  C   LIG d   1       7.987   0.024  -9.731  0.00  0.00     0.147 A 
ATOM     58  N   LIG d   1       7.383  -0.963 -10.384  0.00  0.00    -0.219 NA
ATOM     59  C   LIG d   1       6.519  -1.756  -9.777  0.00  0.00     0.120 A 
ATOM     60  H   LIG d   1       6.049  -2.545 -10.345  0.00  0.00     0.105 H 
BRANCH  52  61
ATOM     61  C1* LIG d   1       5.822  -0.882  -5.428  0.00  0.00     0.168 C 
ATOM     62  H1* LIG d   1       5.906  -1.968  -5.463  0.00  0.00     0.087 H 
ATOM     63  O4* LIG d   1       6.177  -0.387  -4.119  0.00  0.00    -0.346 OA
ATOM     64  C4* LIG d   1       5.039  -0.607  -3.266  0.00  0.00     0.113 C 
ATOM     65  C3* LIG d   1       3.787  -0.624  -4.165  0.00  0.00     0.114 C 
ATOM     66  H4* LIG d   1       5.141  -1.564  -2.755  0.00  0.00     0.065 H 
ATOM     67  C2* LIG d   1       4.347  -0.442  -5.598  0.00  0.00     0.129 C 
ATOM     68  H3* LIG d   1       3.266  -1.577  -4.077  0.00  0.00     0.065 H 
ATOM     69  H2* LIG d   1       4.285   0.601  -5.910  0.00  0.00     0.067 H 
BRANCH  64  70
ATOM     70  C5* LIG d   1       4.926   0.522  -2.239  0.00  0.00     0.073 C 
ATOM     71 1H5* LIG d   1       3.877   0.688  -1.994  0.00  0.00     0.058 H 
ATOM     72 2H5* LIG d   1       5.471   0.247  -1.336  0.00  0.00     0.058 H 
BRANCH  70  73
ATOM     73  O5* LIG d   1       5.482   1.720  -2.785  0.00  0.00    -0.392 OA
ATOM     74  H5* LIG d   1       4.953   2.113  -3.492  0.00  0.00     0.209 HD
ENDBRANCH  70  73
ENDBRANCH  64  70
BRANCH  65  75
ATOM     75  O3* LIG d   1       2.913   0.456  -3.829  0.00  0.00    -0.386 OA
ATOM     76  H3* LIG d   1       2.240   0.228  -3.173  0.00  0.00     0.210 HD
ENDBRANCH  65  75
BRANCH  67  77
ATOM     77  O2* LIG d   1       3.665  -1.290  -6.523  0.00  0.00    -0.385 OA
ATOM     78  H2* LIG d   1       3.951  -1.183  -7.441  0.00  0.00     0.210 HD
ENDBRANCH  67  77
ENDBRANCH  52  61
BRANCH  57  79
ATOM     79  N   LIG d   1       8.892   0.851 -10.377  0.00  0.00    -0.341 N 
ATOM     80  H   LIG d   1       9.376   0.529 -11.153  0.00  0.00     0.144 HD
ATOM     81  H   LIG d   1       9.043   1.752 -10.051  0.00  0.00     0.144 HD
ENDBRANCH  57  79
ENDBRANCH  49  51
ENDBRANCH  46  49
ENDBRANCH  43  46
ENDBRANCH   1  43
TORSDOF 20
ENDMDL
MODEL 5
REMARK VINA RESULT:      -7.0      1.951      3.687
REMARK  20 active torsions:
REMARK  status: ('A' for Active; 'I' for Inactive)
REMARK    1  A    between atoms: C_3  and  N_53 
REMARK    2  A    between atoms: N_7  and  C1*_40 
REMARK    3  A    between atoms: C_8  and  N_10 
REMARK    4  A    between atoms: N_10  and  C_11 
REMARK    5  A    between atoms: C_11  and  C_12 
REMARK    6  A    between atoms: C_12  and  C_13 
REMARK    7  A    between atoms: C_13  and  C_14 
REMARK    8  A    between atoms: C_14  and  C_15 
REMARK    9  A    between atoms: C_15  and  N_16 
REMARK   10  A    between atoms: N_16  and  C_17 
REMARK   11  A    between atoms: C_20  and  N_39 
REMARK   12  A    between atoms: N_25  and  C1*_26 
REMARK   13  A    between atoms: C2*_28  and  O2*_38 
REMARK   14  A    between atoms: C3*_30  and  O3*_37 
REMARK   15  A    between atoms: C4*_32  and  C5*_35 
REMARK   16  A    between atoms: C5*_35  and  O5*_36 
REMARK   17  A    between atoms: C2*_42  and  O2*_52 
REMARK   18  A    between atoms: C3*_44  and  O3*_51 
REMARK   19  A    between atoms: C4*_46  and  C5*_49 
REMARK   20  A    between atoms: C5*_49  and  O5*_50 
ROOT
ATOM      1  C   LIG d   1      10.597   4.296  -4.458  0.00  0.00    -0.050 C 
ATOM      2  H   LIG d   1      10.764   3.891  -5.456  0.00  0.00     0.027 H 
ATOM      3  H   LIG d   1      11.427   4.017  -3.809  0.00  0.00     0.027 H 
ENDROOT
BRANCH   1   4
ATOM      4  C   LIG d   1      10.500   5.821  -4.536  0.00  0.00    -0.037 C 
ATOM      5  H   LIG d   1      10.442   6.128  -5.579  0.00  0.00     0.028 H 
ATOM      6  H   LIG d   1      11.382   6.266  -4.074  0.00  0.00     0.028 H 
BRANCH   4   7
ATOM      7  C   LIG d   1       9.245   6.290  -3.796  0.00  0.00     0.012 C 
ATOM      8  H   LIG d   1       9.000   5.576  -3.009  0.00  0.00     0.046 H 
ATOM      9  H   LIG d   1       8.414   6.358  -4.497  0.00  0.00     0.046 H 
BRANCH   7  10
ATOM     10  N   LIG d   1       9.493   7.606  -3.202  0.00  0.00    -0.315 N 
ATOM     11  H   LIG d   1       9.302   8.411  -3.708  0.00  0.00     0.149 HD
BRANCH  10  12
ATOM     12  C   LIG d   1       9.998   7.700  -1.921  0.00  0.00     0.200 A 
ATOM     13  N   LIG d   1      10.469   8.846  -1.343  0.00  0.00    -0.267 N 
ATOM     14  C   LIG d   1      10.879   8.527  -0.069  0.00  0.00     0.169 A 
ATOM     15  C   LIG d   1      10.634   7.154   0.088  0.00  0.00     0.149 A 
ATOM     16  N   LIG d   1      11.411   9.208   0.941  0.00  0.00    -0.216 NA
ATOM     17  C   LIG d   1      10.965   6.557   1.316  0.00  0.00     0.147 A 
ATOM     18  N   LIG d   1      10.096   6.705  -1.074  0.00  0.00    -0.209 NA
ATOM     19  N   LIG d   1      11.492   7.317   2.269  0.00  0.00    -0.219 NA
ATOM     20  C   LIG d   1      11.705   8.607   2.074  0.00  0.00     0.120 A 
ATOM     21  H   LIG d   1      12.132   9.190   2.877  0.00  0.00     0.105 H 
BRANCH  13  22
ATOM     22  C1* LIG d   1      10.528  10.171  -1.966  0.00  0.00     0.168 C 
ATOM     23  H1* LIG d   1      11.411  10.711  -1.622  0.00  0.00     0.087 H 
ATOM     24  O4* LIG d   1      10.544  10.049  -3.405  0.00  0.00    -0.346 OA
ATOM     25  C4* LIG d   1      10.107  11.334  -3.900  0.00  0.00     0.113 C 
ATOM     26  C3* LIG d   1       8.963  11.757  -2.950  0.00  0.00     0.114 C 
ATOM     27  H4* LIG d   1      10.923  12.055  -3.853  0.00  0.00     0.065 H 
ATOM     28  C2* LIG d   1       9.248  10.974  -1.649  0.00  0.00     0.129 C 
ATOM     29  H3* LIG d   1       8.998  12.830  -2.764  0.00  0.00     0.065 H 
ATOM     30  H2* LIG d   1       9.423  11.659  -0.820  0.00  0.00     0.067 H 
BRANCH  25  31
ATOM     31  C5* LIG d   1       9.589  11.209  -5.334  0.00  0.00     0.073 C 
ATOM     32 1H5* LIG d   1      10.349  10.736  -5.955  0.00  0.00     0.058 H 
ATOM     33 2H5* LIG d   1       8.683  10.600  -5.340  0.00  0.00     0.058 H 
BRANCH  31  34
ATOM     34  O5* LIG d   1       9.292  12.508  -5.849  0.00  0.00    -0.392 OA
ATOM     35  H5* LIG d   1       8.525  12.532  -6.438  0.00  0.00     0.209 HD
ENDBRANCH  31  34
ENDBRANCH  25  31
BRANCH  26  36
ATOM     36  O3* LIG d   1       7.695  11.384  -3.492  0.00  0.00    -0.386 OA
ATOM     37  H3* LIG d   1       6.964  11.954  -3.212  0.00  0.00     0.210 HD
ENDBRANCH  26  36
BRANCH  28  38
ATOM     38  O2* LIG d   1       8.166  10.091  -1.347  0.00  0.00    -0.385 OA
ATOM     39  H2* LIG d   1       8.334   9.168  -1.582  0.00  0.00     0.210 HD
ENDBRANCH  28  38
ENDBRANCH  13  22
BRANCH  17  40
ATOM     40  N   LIG d   1      10.745   5.205   1.528  0.00  0.00    -0.341 N 
ATOM     41  H   LIG d   1      10.196   4.914   2.272  0.00  0.00     0.144 HD
ATOM     42  H   LIG d   1      11.142   4.550   0.933  0.00  0.00     0.144 HD
ENDBRANCH  17  40
ENDBRANCH  10  12
ENDBRANCH   7  10
ENDBRANCH   4   7
ENDBRANCH   1   4
BRANCH   1  43
ATOM     43  C   LIG d   1       9.294   3.731  -3.890  0.00  0.00    -0.037 C 
ATOM     44  H   LIG d   1       9.449   3.432  -2.853  0.00  0.00     0.028 H 
ATOM     45  H   LIG d   1       8.516   4.494  -3.935  0.00  0.00     0.028 H 
BRANCH  43  46
ATOM     46  C   LIG d   1       8.863   2.515  -4.713  0.00  0.00     0.012 C 
ATOM     47  H   LIG d   1       7.922   2.732  -5.216  0.00  0.00     0.046 H 
ATOM     48  H   LIG d   1       9.630   2.289  -5.456  0.00  0.00     0.046 H 
BRANCH  46  49
ATOM     49  N   LIG d   1       8.689   1.362  -3.826  0.00  0.00    -0.315 N 
ATOM     50  H   LIG d   1       9.440   1.029  -3.310  0.00  0.00     0.149 HD
BRANCH  49  51
ATOM     51  C   LIG d   1       7.456   0.751  -3.723  0.00  0.00     0.200 A 
ATOM     52  N   LIG d   1       7.179  -0.532  -4.110  0.00  0.00    -0.267 N 
ATOM     53  C   LIG d   1       5.850  -0.765  -3.843  0.00  0.00     0.169 A 
ATOM     54  C   LIG d   1       5.347   0.426  -3.296  0.00  0.00     0.149 A 
ATOM     55  N   LIG d   1       5.033  -1.800  -3.998  0.00  0.00    -0.216 NA
ATOM     56  N   LIG d   1       6.374   1.313  -3.247  0.00  0.00    -0.209 NA
ATOM     57  C   LIG d   1       3.991   0.468  -2.931  0.00  0.00     0.147 A 
ATOM     58  N   LIG d   1       3.250  -0.618  -3.123  0.00  0.00    -0.219 NA
ATOM     59  C   LIG d   1       3.768  -1.716  -3.642  0.00  0.00     0.120 A 
ATOM     60  H   LIG d   1       3.130  -2.577  -3.781  0.00  0.00     0.105 H 
BRANCH  52  61
ATOM     61  C1* LIG d   1       8.126  -1.484  -4.698  0.00  0.00     0.168 C 
ATOM     62  H1* LIG d   1       9.151  -1.193  -4.471  0.00  0.00     0.087 H 
ATOM     63  O4* LIG d   1       7.861  -2.822  -4.224  0.00  0.00    -0.346 OA
ATOM     64  C4* LIG d   1       8.440  -3.727  -5.181  0.00  0.00     0.113 C 
ATOM     65  C3* LIG d   1       8.480  -2.997  -6.538  0.00  0.00     0.114 C 
ATOM     66  H4* LIG d   1       9.452  -3.991  -4.873  0.00  0.00     0.065 H 
ATOM     67  C2* LIG d   1       7.914  -1.589  -6.229  0.00  0.00     0.129 C 
ATOM     68  H3* LIG d   1       9.504  -2.925  -6.903  0.00  0.00     0.065 H 
ATOM     69  H2* LIG d   1       6.855  -1.532  -6.480  0.00  0.00     0.067 H 
BRANCH  64  70
ATOM     70  C5* LIG d   1       7.584  -4.990  -5.294  0.00  0.00     0.073 C 
ATOM     71 1H5* LIG d   1       7.761  -5.464  -6.260  0.00  0.00     0.058 H 
ATOM     72 2H5* LIG d   1       7.851  -5.682  -4.496  0.00  0.00     0.058 H 
BRANCH  70  73
ATOM     73  O5* LIG d   1       6.203  -4.641  -5.181  0.00  0.00    -0.392 OA
ATOM     74  H5* LIG d   1       5.865  -4.658  -4.276  0.00  0.00     0.209 HD
ENDBRANCH  70  73
ENDBRANCH  64  70
BRANCH  65  75
ATOM     75  O3* LIG d   1       7.656  -3.669  -7.493  0.00  0.00    -0.386 OA
ATOM     76  H3* LIG d   1       6.720  -3.432  -7.442  0.00  0.00     0.210 HD
ENDBRANCH  65  75
BRANCH  67  77
ATOM     77  O2* LIG d   1       8.654  -0.579  -6.917  0.00  0.00    -0.385 OA
ATOM     78  H2* LIG d   1       8.134  -0.081  -7.562  0.00  0.00     0.210 HD
ENDBRANCH  67  77
ENDBRANCH  52  61
BRANCH  57  79
ATOM     79  N   LIG d   1       3.439   1.616  -2.386  0.00  0.00    -0.341 N 
ATOM     80  H   LIG d   1       3.632   1.858  -1.467  0.00  0.00     0.144 HD
ATOM     81  H   LIG d   1       2.859   2.177  -2.923  0.00  0.00     0.144 HD
ENDBRANCH  57  79
ENDBRANCH  49  51
ENDBRANCH  46  49
ENDBRANCH  43  46
ENDBRANCH   1  43
TORSDOF 20
ENDMDL
MODEL 6
REMARK VINA RESULT:      -7.0      2.024      3.994
REMARK  20 active torsions:
REMARK  status: ('A' for Active; 'I' for Inactive)
REMARK    1  A    between atoms: C_3  and  N_53 
REMARK    2  A    between atoms: N_7  and  C1*_40 
REMARK    3  A    between atoms: C_8  and  N_10 
REMARK    4  A    between atoms: N_10  and  C_11 
REMARK    5  A    between atoms: C_11  and  C_12 
REMARK    6  A    between atoms: C_12  and  C_13 
REMARK    7  A    between atoms: C_13  and  C_14 
REMARK    8  A    between atoms: C_14  and  C_15 
REMARK    9  A    between atoms: C_15  and  N_16 
REMARK   10  A    between atoms: N_16  and  C_17 
REMARK   11  A    between atoms: C_20  and  N_39 
REMARK   12  A    between atoms: N_25  and  C1*_26 
REMARK   13  A    between atoms: C2*_28  and  O2*_38 
REMARK   14  A    between atoms: C3*_30  and  O3*_37 
REMARK   15  A    between atoms: C4*_32  and  C5*_35 
REMARK   16  A    between atoms: C5*_35  and  O5*_36 
REMARK   17  A    between atoms: C2*_42  and  O2*_52 
REMARK   18  A    between atoms: C3*_44  and  O3*_51 
REMARK   19  A    between atoms: C4*_46  and  C5*_49 
REMARK   20  A    between atoms: C5*_49  and  O5*_50 
ROOT
ATOM      1  C   LIG d   1       9.885   2.824  -4.388  0.00  0.00    -0.050 C 
ATOM      2  H   LIG d   1      10.530   2.211  -5.017  0.00  0.00     0.027 H 
ATOM      3  H   LIG d   1       9.985   2.510  -3.349  0.00  0.00     0.027 H 
ENDROOT
BRANCH   1   4
ATOM      4  C   LIG d   1      10.292   4.294  -4.519  0.00  0.00    -0.037 C 
ATOM      5  H   LIG d   1       9.811   4.727  -5.394  0.00  0.00     0.028 H 
ATOM      6  H   LIG d   1      11.375   4.363  -4.626  0.00  0.00     0.028 H 
BRANCH   4   7
ATOM      7  C   LIG d   1       9.854   5.056  -3.266  0.00  0.00     0.012 C 
ATOM      8  H   LIG d   1       9.858   4.381  -2.410  0.00  0.00     0.046 H 
ATOM      9  H   LIG d   1       8.850   5.452  -3.414  0.00  0.00     0.046 H 
BRANCH   7  10
ATOM     10  N   LIG d   1      10.784   6.162  -3.019  0.00  0.00    -0.315 N 
ATOM     11  H   LIG d   1      11.642   5.990  -2.601  0.00  0.00     0.149 HD
BRANCH  10  12
ATOM     12  C   LIG d   1      10.438   7.448  -3.382  0.00  0.00     0.200 A 
ATOM     13  N   LIG d   1      10.327   8.504  -2.521  0.00  0.00    -0.267 N 
ATOM     14  C   LIG d   1       9.967   9.605  -3.264  0.00  0.00     0.169 A 
ATOM     15  C   LIG d   1       9.870   9.164  -4.594  0.00  0.00     0.149 A 
ATOM     16  N   LIG d   1       9.718  10.881  -2.988  0.00  0.00    -0.216 NA
ATOM     17  C   LIG d   1       9.513  10.099  -5.579  0.00  0.00     0.147 A 
ATOM     18  N   LIG d   1      10.169   7.840  -4.602  0.00  0.00    -0.209 NA
ATOM     19  N   LIG d   1       9.284  11.354  -5.208  0.00  0.00    -0.219 NA
ATOM     20  C   LIG d   1       9.386  11.723  -3.944  0.00  0.00     0.120 A 
ATOM     21  H   LIG d   1       9.196  12.754  -3.686  0.00  0.00     0.105 H 
BRANCH  13  22
ATOM     22  C1* LIG d   1      10.547   8.471  -1.073  0.00  0.00     0.168 C 
ATOM     23  H1* LIG d   1       9.941   9.232  -0.581  0.00  0.00     0.087 H 
ATOM     24  O4* LIG d   1      10.236   7.163  -0.547  0.00  0.00    -0.346 OA
ATOM     25  C4* LIG d   1      10.934   7.085   0.716  0.00  0.00     0.113 C 
ATOM     26  C3* LIG d   1      12.304   7.751   0.453  0.00  0.00     0.114 C 
ATOM     27  H4* LIG d   1      10.388   7.633   1.484  0.00  0.00     0.065 H 
ATOM     28  C2* LIG d   1      12.043   8.683  -0.751  0.00  0.00     0.129 C 
ATOM     29  H3* LIG d   1      12.621   8.328   1.321  0.00  0.00     0.065 H 
ATOM     30  H2* LIG d   1      12.231   9.721  -0.479  0.00  0.00     0.067 H 
BRANCH  25  31
ATOM     31  C5* LIG d   1      11.122   5.626   1.135  0.00  0.00     0.073 C 
ATOM     32 1H5* LIG d   1      11.987   5.546   1.793  0.00  0.00     0.058 H 
ATOM     33 2H5* LIG d   1      10.231   5.282   1.662  0.00  0.00     0.058 H 
BRANCH  31  34
ATOM     34  O5* LIG d   1      11.330   4.820  -0.026  0.00  0.00    -0.392 OA
ATOM     35  H5* LIG d   1      10.646   4.920  -0.702  0.00  0.00     0.209 HD
ENDBRANCH  31  34
ENDBRANCH  25  31
BRANCH  26  36
ATOM     36  O3* LIG d   1      13.286   6.767   0.121  0.00  0.00    -0.386 OA
ATOM     37  H3* LIG d   1      13.079   5.879   0.446  0.00  0.00     0.210 HD
ENDBRANCH  26  36
BRANCH  28  38
ATOM     38  O2* LIG d   1      12.853   8.305  -1.865  0.00  0.00    -0.385 OA
ATOM     39  H2* LIG d   1      13.553   8.937  -2.076  0.00  0.00     0.210 HD
ENDBRANCH  28  38
ENDBRANCH  13  22
BRANCH  17  40
ATOM     40  N   LIG d   1       9.402   9.721  -6.908  0.00  0.00    -0.341 N 
ATOM     41  H   LIG d   1       8.633   9.210  -7.204  0.00  0.00     0.144 HD
ATOM     42  H   LIG d   1      10.094   9.967  -7.541  0.00  0.00     0.144 HD
ENDBRANCH  17  40
ENDBRANCH  10  12
ENDBRANCH   7  10
ENDBRANCH   4   7
ENDBRANCH   1   4
BRANCH   1  43
ATOM     43  C   LIG d   1       8.431   2.657  -4.833  0.00  0.00    -0.037 C 
ATOM     44  H   LIG d   1       7.949   3.635  -4.874  0.00  0.00     0.028 H 
ATOM     45  H   LIG d   1       8.403   2.197  -5.821  0.00  0.00     0.028 H 
BRANCH  43  46
ATOM     46  C   LIG d   1       7.690   1.766  -3.833  0.00  0.00     0.012 C 
ATOM     47  H   LIG d   1       8.412   1.265  -3.190  0.00  0.00     0.046 H 
ATOM     48  H   LIG d   1       7.025   2.379  -3.224  0.00  0.00     0.046 H 
BRANCH  46  49
ATOM     49  N   LIG d   1       6.904   0.766  -4.559  0.00  0.00    -0.315 N 
ATOM     50  H   LIG d   1       6.033   0.998  -4.916  0.00  0.00     0.149 HD
BRANCH  49  51
ATOM     51  C   LIG d   1       7.405  -0.508  -4.736  0.00  0.00     0.200 A 
ATOM     52  N   LIG d   1       6.846  -1.650  -4.230  0.00  0.00    -0.267 N 
ATOM     53  C   LIG d   1       7.635  -2.705  -4.629  0.00  0.00     0.169 A 
ATOM     54  C   LIG d   1       8.684  -2.149  -5.377  0.00  0.00     0.149 A 
ATOM     55  N   LIG d   1       7.596  -4.020  -4.449  0.00  0.00    -0.216 NA
ATOM     56  N   LIG d   1       8.489  -0.806  -5.408  0.00  0.00    -0.209 NA
ATOM     57  C   LIG d   1       9.652  -3.016  -5.908  0.00  0.00     0.147 A 
ATOM     58  N   LIG d   1       9.532  -4.319  -5.676  0.00  0.00    -0.219 NA
ATOM     59  C   LIG d   1       8.526  -4.796  -4.965  0.00  0.00     0.120 A 
ATOM     60  H   LIG d   1       8.466  -5.862  -4.801  0.00  0.00     0.105 H 
BRANCH  52  61
ATOM     61  C1* LIG d   1       5.629  -1.734  -3.418  0.00  0.00     0.168 C 
ATOM     62  H1* LIG d   1       5.669  -2.600  -2.758  0.00  0.00     0.087 H 
ATOM     63  O4* LIG d   1       5.445  -0.522  -2.654  0.00  0.00    -0.346 OA
ATOM     64  C4* LIG d   1       4.050  -0.453  -2.309  0.00  0.00     0.113 C 
ATOM     65  C3* LIG d   1       3.272  -1.241  -3.382  0.00  0.00     0.114 C 
ATOM     66  H4* LIG d   1       3.890  -0.905  -1.330  0.00  0.00     0.065 H 
ATOM     67  C2* LIG d   1       4.373  -1.791  -4.322  0.00  0.00     0.129 C 
ATOM     68  H3* LIG d   1       2.716  -2.060  -2.925  0.00  0.00     0.065 H 
ATOM     69  H2* LIG d   1       4.492  -1.151  -5.196  0.00  0.00     0.067 H 
BRANCH  64  70
ATOM     70  C5* LIG d   1       3.583   1.003  -2.294  0.00  0.00     0.073 C 
ATOM     71 1H5* LIG d   1       2.509   1.044  -2.476  0.00  0.00     0.058 H 
ATOM     72 2H5* LIG d   1       3.804   1.445  -1.323  0.00  0.00     0.058 H 
BRANCH  70  73
ATOM     73  O5* LIG d   1       4.267   1.733  -3.315  0.00  0.00    -0.392 OA
ATOM     74  H5* LIG d   1       4.947   1.223  -3.776  0.00  0.00     0.209 HD
ENDBRANCH  70  73
ENDBRANCH  64  70
BRANCH  65  75
ATOM     75  O3* LIG d   1       2.388  -0.376  -4.098  0.00  0.00    -0.386 OA
ATOM     76  H3* LIG d   1       2.799   0.447  -4.395  0.00  0.00     0.210 HD
ENDBRANCH  65  75
BRANCH  67  77
ATOM     77  O2* LIG d   1       4.086  -3.135  -4.712  0.00  0.00    -0.385 OA
ATOM     78  H2* LIG d   1       4.871  -3.662  -4.915  0.00  0.00     0.210 HD
ENDBRANCH  67  77
ENDBRANCH  52  61
BRANCH  57  79
ATOM     79  N   LIG d   1      10.711  -2.524  -6.655  0.00  0.00    -0.341 N 
ATOM     80  H   LIG d   1      11.478  -2.131  -6.210  0.00  0.00     0.144 HD
ATOM     81  H   LIG d   1      10.683  -2.571  -7.623  0.00  0.00     0.144 HD
ENDBRANCH  57  79
ENDBRANCH  49  51
ENDBRANCH  46  49
ENDBRANCH  43  46
ENDBRANCH   1  43
TORSDOF 20
ENDMDL
MODEL 7
REMARK VINA RESULT:      -7.0      3.710     11.231
REMARK  20 active torsions:
REMARK  status: ('A' for Active; 'I' for Inactive)
REMARK    1  A    between atoms: C_3  and  N_53 
REMARK    2  A    between atoms: N_7  and  C1*_40 
REMARK    3  A    between atoms: C_8  and  N_10 
REMARK    4  A    between atoms: N_10  and  C_11 
REMARK    5  A    between atoms: C_11  and  C_12 
REMARK    6  A    between atoms: C_12  and  C_13 
REMARK    7  A    between atoms: C_13  and  C_14 
REMARK    8  A    between atoms: C_14  and  C_15 
REMARK    9  A    between atoms: C_15  and  N_16 
REMARK   10  A    between atoms: N_16  and  C_17 
REMARK   11  A    between atoms: C_20  and  N_39 
REMARK   12  A    between atoms: N_25  and  C1*_26 
REMARK   13  A    between atoms: C2*_28  and  O2*_38 
REMARK   14  A    between atoms: C3*_30  and  O3*_37 
REMARK   15  A    between atoms: C4*_32  and  C5*_35 
REMARK   16  A    between atoms: C5*_35  and  O5*_36 
REMARK   17  A    between atoms: C2*_42  and  O2*_52 
REMARK   18  A    between atoms: C3*_44  and  O3*_51 
REMARK   19  A    between atoms: C4*_46  and  C5*_49 
REMARK   20  A    between atoms: C5*_49  and  O5*_50 
ROOT
ATOM      1  C   LIG d   1       8.479   1.632  -4.928  0.00  0.00    -0.050 C 
ATOM      2  H   LIG d   1       7.516   1.129  -4.830  0.00  0.00     0.027 H 
ATOM      3  H   LIG d   1       9.281   0.900  -4.838  0.00  0.00     0.027 H 
ENDROOT
BRANCH   1   4
ATOM      4  C   LIG d   1       8.560   2.315  -6.294  0.00  0.00    -0.037 C 
ATOM      5  H   LIG d   1       9.604   2.485  -6.554  0.00  0.00     0.028 H 
ATOM      6  H   LIG d   1       8.034   3.270  -6.255  0.00  0.00     0.028 H 
BRANCH   4   7
ATOM      7  C   LIG d   1       7.911   1.418  -7.352  0.00  0.00     0.012 C 
ATOM      8  H   LIG d   1       8.634   0.676  -7.691  0.00  0.00     0.046 H 
ATOM      9  H   LIG d   1       7.590   2.027  -8.196  0.00  0.00     0.046 H 
BRANCH   7  10
ATOM     10  N   LIG d   1       6.751   0.739  -6.768  0.00  0.00    -0.315 N 
ATOM     11  H   LIG d   1       6.748   0.507  -5.826  0.00  0.00     0.149 HD
BRANCH  10  12
ATOM     12  C   LIG d   1       5.664   0.430  -7.559  0.00  0.00     0.200 A 
ATOM     13  N   LIG d   1       4.492  -0.112  -7.108  0.00  0.00    -0.267 N 
ATOM     14  C   LIG d   1       3.664  -0.269  -8.197  0.00  0.00     0.169 A 
ATOM     15  C   LIG d   1       4.387   0.199  -9.306  0.00  0.00     0.149 A 
ATOM     16  N   LIG d   1       2.433  -0.734  -8.377  0.00  0.00    -0.216 NA
ATOM     17  C   LIG d   1       3.768   0.154 -10.567  0.00  0.00     0.147 A 
ATOM     18  N   LIG d   1       5.598   0.612  -8.855  0.00  0.00    -0.209 NA
ATOM     19  N   LIG d   1       2.533  -0.327 -10.651  0.00  0.00    -0.219 NA
ATOM     20  C   LIG d   1       1.893  -0.757  -9.577  0.00  0.00     0.120 A 
ATOM     21  H   LIG d   1       0.888  -1.136  -9.689  0.00  0.00     0.105 H 
BRANCH  13  22
ATOM     22  C1* LIG d   1       4.175  -0.463  -5.722  0.00  0.00     0.168 C 
ATOM     23  H1* LIG d   1       4.032  -1.540  -5.628  0.00  0.00     0.087 H 
ATOM     24  O4* LIG d   1       5.226  -0.017  -4.837  0.00  0.00    -0.346 OA
ATOM     25  C4* LIG d   1       4.618   0.050  -3.528  0.00  0.00     0.113 C 
ATOM     26  C3* LIG d   1       3.209   0.636  -3.774  0.00  0.00     0.114 C 
ATOM     27  H4* LIG d   1       4.543  -0.948  -3.096  0.00  0.00     0.065 H 
ATOM     28  C2* LIG d   1       2.912   0.291  -5.250  0.00  0.00     0.129 C 
ATOM     29  H3* LIG d   1       2.479   0.165  -3.117  0.00  0.00     0.065 H 
ATOM     30  H2* LIG d   1       2.035  -0.351  -5.324  0.00  0.00     0.067 H 
BRANCH  25  31
ATOM     31  C5* LIG d   1       5.425   0.969  -2.609  0.00  0.00     0.073 C 
ATOM     32 1H5* LIG d   1       6.422   0.554  -2.464  0.00  0.00     0.058 H 
ATOM     33 2H5* LIG d   1       5.505   1.957  -3.064  0.00  0.00     0.058 H 
BRANCH  31  34
ATOM     34  O5* LIG d   1       4.766   1.078  -1.346  0.00  0.00    -0.392 OA
ATOM     35  H5* LIG d   1       3.803   1.001  -1.397  0.00  0.00     0.209 HD
ENDBRANCH  31  34
ENDBRANCH  25  31
BRANCH  26  36
ATOM     36  O3* LIG d   1       3.213   2.052  -3.582  0.00  0.00    -0.386 OA
ATOM     37  H3* LIG d   1       3.392   2.325  -2.671  0.00  0.00     0.210 HD
ENDBRANCH  26  36
BRANCH  28  38
ATOM     38  O2* LIG d   1       2.724   1.482  -6.017  0.00  0.00    -0.385 OA
ATOM     39  H2* LIG d   1       3.268   2.226  -5.726  0.00  0.00     0.210 HD
ENDBRANCH  28  38
ENDBRANCH  13  22
BRANCH  17  40
ATOM     40  N   LIG d   1       4.432   0.602 -11.698  0.00  0.00    -0.341 N 
ATOM     41  H   LIG d   1       3.937   0.780 -12.513  0.00  0.00     0.144 HD
ATOM     42  H   LIG d   1       5.393   0.737 -11.675  0.00  0.00     0.144 HD
ENDBRANCH  17  40
ENDBRANCH  10  12
ENDBRANCH   7  10
ENDBRANCH   4   7
ENDBRANCH   1   4
BRANCH   1  43
ATOM     43  C   LIG d   1       8.620   2.682  -3.824  0.00  0.00    -0.037 C 
ATOM     44  H   LIG d   1       7.818   3.414  -3.915  0.00  0.00     0.028 H 
ATOM     45  H   LIG d   1       8.561   2.197  -2.850  0.00  0.00     0.028 H 
BRANCH  43  46
ATOM     46  C   LIG d   1       9.972   3.387  -3.962  0.00  0.00     0.012 C 
ATOM     47  H   LIG d   1      10.745   2.787  -3.483  0.00  0.00     0.046 H 
ATOM     48  H   LIG d   1      10.211   3.511  -5.019  0.00  0.00     0.046 H 
BRANCH  46  49
ATOM     49  N   LIG d   1       9.904   4.702  -3.319  0.00  0.00    -0.315 N 
ATOM     50  H   LIG d   1       9.907   4.769  -2.351  0.00  0.00     0.149 HD
BRANCH  49  51
ATOM     51  C   LIG d   1       9.838   5.844  -4.091  0.00  0.00     0.200 A 
ATOM     52  N   LIG d   1       9.944   7.122  -3.614  0.00  0.00    -0.267 N 
ATOM     53  C   LIG d   1       9.831   7.973  -4.691  0.00  0.00     0.169 A 
ATOM     54  C   LIG d   1       9.645   7.156  -5.817  0.00  0.00     0.149 A 
ATOM     55  N   LIG d   1       9.857   9.291  -4.846  0.00  0.00    -0.216 NA
ATOM     56  N   LIG d   1       9.658   5.868  -5.387  0.00  0.00    -0.209 NA
ATOM     57  C   LIG d   1       9.493   7.776  -7.067  0.00  0.00     0.147 A 
ATOM     58  N   LIG d   1       9.533   9.102  -7.126  0.00  0.00    -0.219 NA
ATOM     59  C   LIG d   1       9.711   9.830  -6.038  0.00  0.00     0.120 A 
ATOM     60  H   LIG d   1       9.737  10.906  -6.131  0.00  0.00     0.105 H 
BRANCH  52  61
ATOM     61  C1* LIG d   1      10.145   7.513  -2.216  0.00  0.00     0.168 C 
ATOM     62  H1* LIG d   1       9.483   8.337  -1.951  0.00  0.00     0.087 H 
ATOM     63  O4* LIG d   1       9.931   6.386  -1.339  0.00  0.00    -0.346 OA
ATOM     64  C4* LIG d   1      10.617   6.678  -0.108  0.00  0.00     0.113 C 
ATOM     65  C3* LIG d   1      11.770   7.645  -0.444  0.00  0.00     0.114 C 
ATOM     66  H4* LIG d   1       9.930   7.150   0.594  0.00  0.00     0.065 H 
ATOM     67  C2* LIG d   1      11.625   7.896  -1.965  0.00  0.00     0.129 C 
ATOM     68  H3* LIG d   1      11.660   8.577   0.110  0.00  0.00     0.065 H 
ATOM     69  H2* LIG d   1      12.296   7.251  -2.531  0.00  0.00     0.067 H 
BRANCH  64  70
ATOM     70  C5* LIG d   1      11.178   5.390   0.498  0.00  0.00     0.073 C 
ATOM     71 1H5* LIG d   1      12.096   5.614   1.043  0.00  0.00     0.058 H 
ATOM     72 2H5* LIG d   1      10.446   4.962   1.182  0.00  0.00     0.058 H 
BRANCH  70  73
ATOM     73  O5* LIG d   1      11.460   4.455  -0.545  0.00  0.00    -0.392 OA
ATOM     74  H5* LIG d   1      12.327   4.034  -0.474  0.00  0.00     0.209 HD
ENDBRANCH  70  73
ENDBRANCH  64  70
BRANCH  65  75
ATOM     75  O3* LIG d   1      13.033   7.040  -0.155  0.00  0.00    -0.386 OA
ATOM     76  H3* LIG d   1      13.697   7.656   0.180  0.00  0.00     0.210 HD
ENDBRANCH  65  75
BRANCH  67  77
ATOM     77  O2* LIG d   1      11.855   9.271  -2.279  0.00  0.00    -0.385 OA
ATOM     78  H2* LIG d   1      11.079   9.731  -2.626  0.00  0.00     0.210 HD
ENDBRANCH  67  77
ENDBRANCH  52  61
BRANCH  57  79
ATOM     79  N   LIG d   1       9.306   7.020  -8.214  0.00  0.00    -0.341 N 
ATOM     80  H   LIG d   1       9.160   6.064  -8.147  0.00  0.00     0.144 HD
ATOM     81  H   LIG d   1       9.322   7.448  -9.084  0.00  0.00     0.144 HD
ENDBRANCH  57  79
ENDBRANCH  49  51
ENDBRANCH  46  49
ENDBRANCH  43  46
ENDBRANCH   1  43
TORSDOF 20
ENDMDL
MODEL 8
REMARK VINA RESULT:      -6.9      7.118     10.892
REMARK  20 active torsions:
REMARK  status: ('A' for Active; 'I' for Inactive)
REMARK    1  A    between atoms: C_3  and  N_53 
REMARK    2  A    between atoms: N_7  and  C1*_40 
REMARK    3  A    between atoms: C_8  and  N_10 
REMARK    4  A    between atoms: N_10  and  C_11 
REMARK    5  A    between atoms: C_11  and  C_12 
REMARK    6  A    between atoms: C_12  and  C_13 
REMARK    7  A    between atoms: C_13  and  C_14 
REMARK    8  A    between atoms: C_14  and  C_15 
REMARK    9  A    between atoms: C_15  and  N_16 
REMARK   10  A    between atoms: N_16  and  C_17 
REMARK   11  A    between atoms: C_20  and  N_39 
REMARK   12  A    between atoms: N_25  and  C1*_26 
REMARK   13  A    between atoms: C2*_28  and  O2*_38 
REMARK   14  A    between atoms: C3*_30  and  O3*_37 
REMARK   15  A    between atoms: C4*_32  and  C5*_35 
REMARK   16  A    between atoms: C5*_35  and  O5*_36 
REMARK   17  A    between atoms: C2*_42  and  O2*_52 
REMARK   18  A    between atoms: C3*_44  and  O3*_51 
REMARK   19  A    between atoms: C4*_46  and  C5*_49 
REMARK   20  A    between atoms: C5*_49  and  O5*_50 
ROOT
ATOM      1  C   LIG d   1       5.554  -6.383  -7.827  0.00  0.00    -0.050 C 
ATOM      2  H   LIG d   1       6.133  -5.502  -8.104  0.00  0.00     0.027 H 
ATOM      3  H   LIG d   1       5.997  -7.268  -8.283  0.00  0.00     0.027 H 
ENDROOT
BRANCH   1   4
ATOM      4  C   LIG d   1       5.557  -6.537  -6.304  0.00  0.00    -0.037 C 
ATOM      5  H   LIG d   1       5.723  -7.582  -6.045  0.00  0.00     0.028 H 
ATOM      6  H   LIG d   1       4.597  -6.210  -5.903  0.00  0.00     0.028 H 
BRANCH   4   7
ATOM      7  C   LIG d   1       6.676  -5.680  -5.708  0.00  0.00     0.012 C 
ATOM      8  H   LIG d   1       7.377  -5.401  -6.494  0.00  0.00     0.046 H 
ATOM      9  H   LIG d   1       7.199  -6.248  -4.939  0.00  0.00     0.046 H 
BRANCH   7  10
ATOM     10  N   LIG d   1       6.100  -4.470  -5.115  0.00  0.00    -0.315 N 
ATOM     11  H   LIG d   1       5.518  -4.538  -4.343  0.00  0.00     0.149 HD
BRANCH  10  12
ATOM     12  C   LIG d   1       6.386  -3.233  -5.657  0.00  0.00     0.200 A 
ATOM     13  N   LIG d   1       6.263  -2.040  -5.001  0.00  0.00    -0.267 N 
ATOM     14  C   LIG d   1       6.643  -1.048  -5.876  0.00  0.00     0.169 A 
ATOM     15  C   LIG d   1       6.996  -1.695  -7.071  0.00  0.00     0.149 A 
ATOM     16  N   LIG d   1       6.730   0.276  -5.809  0.00  0.00    -0.216 NA
ATOM     17  C   LIG d   1       7.429  -0.907  -8.150  0.00  0.00     0.147 A 
ATOM     18  N   LIG d   1       6.819  -3.027  -6.876  0.00  0.00    -0.209 NA
ATOM     19  N   LIG d   1       7.485   0.411  -7.990  0.00  0.00    -0.219 NA
ATOM     20  C   LIG d   1       7.142   0.975  -6.846  0.00  0.00     0.120 A 
ATOM     21  H   LIG d   1       7.206   2.049  -6.756  0.00  0.00     0.105 H 
BRANCH  13  22
ATOM     22  C1* LIG d   1       5.808  -1.851  -3.622  0.00  0.00     0.168 C 
ATOM     23  H1* LIG d   1       6.493  -2.338  -2.928  0.00  0.00     0.087 H 
ATOM     24  O4* LIG d   1       5.700  -0.443  -3.317  0.00  0.00    -0.346 OA
ATOM     25  C4* LIG d   1       4.808  -0.368  -2.183  0.00  0.00     0.113 C 
ATOM     26  C3* LIG d   1       3.704  -1.409  -2.477  0.00  0.00     0.114 C 
ATOM     27  H4* LIG d   1       5.338  -0.627  -1.267  0.00  0.00     0.065 H 
ATOM     28  C2* LIG d   1       4.377  -2.406  -3.445  0.00  0.00     0.129 C 
ATOM     29  H3* LIG d   1       3.400  -1.912  -1.560  0.00  0.00     0.065 H 
ATOM     30  H2* LIG d   1       4.407  -3.404  -3.007  0.00  0.00     0.067 H 
BRANCH  25  31
ATOM     31  C5* LIG d   1       4.202   1.033  -2.070  0.00  0.00     0.073 C 
ATOM     32 1H5* LIG d   1       3.154   0.954  -1.784  0.00  0.00     0.058 H 
ATOM     33 2H5* LIG d   1       4.744   1.602  -1.313  0.00  0.00     0.058 H 
BRANCH  31  34
ATOM     34  O5* LIG d   1       4.304   1.699  -3.330  0.00  0.00    -0.392 OA
ATOM     35  H5* LIG d   1       5.108   1.488  -3.823  0.00  0.00     0.209 HD
ENDBRANCH  31  34
ENDBRANCH  25  31
BRANCH  26  36
ATOM     36  O3* LIG d   1       2.579  -0.787  -3.101  0.00  0.00    -0.386 OA
ATOM     37  H3* LIG d   1       2.797   0.016  -3.596  0.00  0.00     0.210 HD
ENDBRANCH  26  36
BRANCH  28  38
ATOM     38  O2* LIG d   1       3.692  -2.431  -4.699  0.00  0.00    -0.385 OA
ATOM     39  H2* LIG d   1       3.840  -3.237  -5.212  0.00  0.00     0.210 HD
ENDBRANCH  28  38
ENDBRANCH  13  22
BRANCH  17  40
ATOM     40  N   LIG d   1       7.791  -1.490  -9.354  0.00  0.00    -0.341 N 
ATOM     41  H   LIG d   1       7.454  -2.369  -9.587  0.00  0.00     0.144 HD
ATOM     42  H   LIG d   1       8.382  -1.020  -9.963  0.00  0.00     0.144 HD
ENDBRANCH  17  40
ENDBRANCH  10  12
ENDBRANCH   7  10
ENDBRANCH   4   7
ENDBRANCH   1   4
BRANCH   1  43
ATOM     43  C   LIG d   1       4.114  -6.222  -8.319  0.00  0.00    -0.037 C 
ATOM     44  H   LIG d   1       4.091  -6.298  -9.406  0.00  0.00     0.028 H 
ATOM     45  H   LIG d   1       3.491  -7.005  -7.887  0.00  0.00     0.028 H 
BRANCH  43  46
ATOM     46  C   LIG d   1       3.579  -4.852  -7.892  0.00  0.00     0.012 C 
ATOM     47  H   LIG d   1       2.565  -4.962  -7.511  0.00  0.00     0.046 H 
ATOM     48  H   LIG d   1       4.219  -4.441  -7.110  0.00  0.00     0.046 H 
BRANCH  46  49
ATOM     49  N   LIG d   1       3.575  -3.949  -9.045  0.00  0.00    -0.315 N 
ATOM     50  H   LIG d   1       3.686  -4.305  -9.941  0.00  0.00     0.149 HD
BRANCH  49  51
ATOM     51  C   LIG d   1       3.412  -2.592  -8.857  0.00  0.00     0.200 A 
ATOM     52  N   LIG d   1       3.090  -1.694  -9.839  0.00  0.00    -0.267 N 
ATOM     53  C   LIG d   1       3.017  -0.452  -9.252  0.00  0.00     0.169 A 
ATOM     54  C   LIG d   1       3.317  -0.642  -7.894  0.00  0.00     0.149 A 
ATOM     55  N   LIG d   1       2.748   0.773  -9.689  0.00  0.00    -0.216 NA
ATOM     56  N   LIG d   1       3.548  -1.967  -7.714  0.00  0.00    -0.209 NA
ATOM     57  C   LIG d   1       3.318   0.481  -7.052  0.00  0.00     0.147 A 
ATOM     58  N   LIG d   1       3.038   1.669  -7.578  0.00  0.00    -0.219 NA
ATOM     59  C   LIG d   1       2.761   1.798  -8.863  0.00  0.00     0.120 A 
ATOM     60  H   LIG d   1       2.538   2.782  -9.250  0.00  0.00     0.105 H 
BRANCH  52  61
ATOM     61  C1* LIG d   1       2.861  -2.002 -11.253  0.00  0.00     0.168 C 
ATOM     62  H1* LIG d   1       3.036  -1.120 -11.869  0.00  0.00     0.087 H 
ATOM     63  O4* LIG d   1       3.704  -3.094 -11.678  0.00  0.00    -0.346 OA
ATOM     64  C4* LIG d   1       3.092  -3.664 -12.849  0.00  0.00     0.113 C 
ATOM     65  C3* LIG d   1       1.581  -3.369 -12.768  0.00  0.00     0.114 C 
ATOM     66  H4* LIG d   1       3.511  -3.204 -13.744  0.00  0.00     0.065 H 
ATOM     67  C2* LIG d   1       1.425  -2.543 -11.468  0.00  0.00     0.129 C 
ATOM     68  H3* LIG d   1       1.259  -2.787 -13.632  0.00  0.00     0.065 H 
ATOM     69  H2* LIG d   1       1.120  -3.179 -10.637  0.00  0.00     0.067 H 
BRANCH  64  70
ATOM     70  C5* LIG d   1       3.326  -5.175 -12.883  0.00  0.00     0.073 C 
ATOM     71 1H5* LIG d   1       2.578  -5.646 -13.522  0.00  0.00     0.058 H 
ATOM     72 2H5* LIG d   1       4.321  -5.380 -13.276  0.00  0.00     0.058 H 
BRANCH  70  73
ATOM     73  O5* LIG d   1       3.219  -5.703 -11.558  0.00  0.00    -0.392 OA
ATOM     74  H5* LIG d   1       3.744  -6.501 -11.409  0.00  0.00     0.209 HD
ENDBRANCH  70  73
ENDBRANCH  64  70
BRANCH  65  75
ATOM     75  O3* LIG d   1       0.837  -4.586 -12.680  0.00  0.00    -0.386 OA
ATOM     76  H3* LIG d   1       0.023  -4.513 -12.164  0.00  0.00     0.210 HD
ENDBRANCH  65  75
BRANCH  67  77
ATOM     77  O2* LIG d   1       0.499  -1.471 -11.653  0.00  0.00    -0.385 OA
ATOM     78  H2* LIG d   1       0.907  -0.594 -11.662  0.00  0.00     0.210 HD
ENDBRANCH  67  77
ENDBRANCH  52  61
BRANCH  57  79
ATOM     79  N   LIG d   1       3.607   0.355  -5.702  0.00  0.00    -0.341 N 
ATOM     80  H   LIG d   1       3.885   1.131  -5.191  0.00  0.00     0.144 HD
ATOM     81  H   LIG d   1       3.533  -0.510  -5.270  0.00  0.00     0.144 HD
ENDBRANCH  57  79
ENDBRANCH  49  51
ENDBRANCH  46  49
ENDBRANCH  43  46
ENDBRANCH   1  43
TORSDOF 20
ENDMDL
MODEL 9
REMARK VINA RESULT:      -6.9      1.195     11.564
REMARK  20 active torsions:
REMARK  status: ('A' for Active; 'I' for Inactive)
REMARK    1  A    between atoms: C_3  and  N_53 
REMARK    2  A    between atoms: N_7  and  C1*_40 
REMARK    3  A    between atoms: C_8  and  N_10 
REMARK    4  A    between atoms: N_10  and  C_11 
REMARK    5  A    between atoms: C_11  and  C_12 
REMARK    6  A    between atoms: C_12  and  C_13 
REMARK    7  A    between atoms: C_13  and  C_14 
REMARK    8  A    between atoms: C_14  and  C_15 
REMARK    9  A    between atoms: C_15  and  N_16 
REMARK   10  A    between atoms: N_16  and  C_17 
REMARK   11  A    between atoms: C_20  and  N_39 
REMARK   12  A    between atoms: N_25  and  C1*_26 
REMARK   13  A    between atoms: C2*_28  and  O2*_38 
REMARK   14  A    between atoms: C3*_30  and  O3*_37 
REMARK   15  A    between atoms: C4*_32  and  C5*_35 
REMARK   16  A    between atoms: C5*_35  and  O5*_36 
REMARK   17  A    between atoms: C2*_42  and  O2*_52 
REMARK   18  A    between atoms: C3*_44  and  O3*_51 
REMARK   19  A    between atoms: C4*_46  and  C5*_49 
REMARK   20  A    between atoms: C5*_49  and  O5*_50 
ROOT
ATOM      1  C   LIG d   1       8.822   3.233  -4.645  0.00  0.00    -0.050 C 
ATOM      2  H   LIG d   1       9.014   3.095  -5.709  0.00  0.00     0.027 H 
ATOM      3  H   LIG d   1       7.831   3.665  -4.507  0.00  0.00     0.027 H 
ENDROOT
BRANCH   1   4
ATOM      4  C   LIG d   1       8.892   1.880  -3.933  0.00  0.00    -0.037 C 
ATOM      5  H   LIG d   1       8.534   1.989  -2.911  0.00  0.00     0.028 H 
ATOM      6  H   LIG d   1       9.924   1.528  -3.923  0.00  0.00     0.028 H 
BRANCH   4   7
ATOM      7  C   LIG d   1       8.016   0.869  -4.676  0.00  0.00     0.012 C 
ATOM      8  H   LIG d   1       8.522   0.550  -5.587  0.00  0.00     0.046 H 
ATOM      9  H   LIG d   1       7.063   1.332  -4.931  0.00  0.00     0.046 H 
BRANCH   7  10
ATOM     10  N   LIG d   1       7.780  -0.295  -3.817  0.00  0.00    -0.315 N 
ATOM     11  H   LIG d   1       7.652  -0.175  -2.863  0.00  0.00     0.149 HD
BRANCH  10  12
ATOM     12  C   LIG d   1       7.739  -1.560  -4.366  0.00  0.00     0.200 A 
ATOM     13  N   LIG d   1       6.661  -2.400  -4.328  0.00  0.00    -0.267 N 
ATOM     14  C   LIG d   1       7.016  -3.558  -4.981  0.00  0.00     0.169 A 
ATOM     15  C   LIG d   1       8.342  -3.374  -5.407  0.00  0.00     0.149 A 
ATOM     16  N   LIG d   1       6.402  -4.703  -5.258  0.00  0.00    -0.216 NA
ATOM     17  C   LIG d   1       8.963  -4.418  -6.112  0.00  0.00     0.147 A 
ATOM     18  N   LIG d   1       8.728  -2.137  -5.003  0.00  0.00    -0.209 NA
ATOM     19  N   LIG d   1       8.269  -5.528  -6.343  0.00  0.00    -0.219 NA
ATOM     20  C   LIG d   1       7.023  -5.655  -5.921  0.00  0.00     0.120 A 
ATOM     21  H   LIG d   1       6.494  -6.571  -6.134  0.00  0.00     0.105 H 
BRANCH  13  22
ATOM     22  C1* LIG d   1       5.364  -2.120  -3.705  0.00  0.00     0.168 C 
ATOM     23  H1* LIG d   1       4.935  -3.035  -3.299  0.00  0.00     0.087 H 
ATOM     24  O4* LIG d   1       5.510  -1.129  -2.665  0.00  0.00    -0.346 OA
ATOM     25  C4* LIG d   1       4.188  -0.577  -2.478  0.00  0.00     0.113 C 
ATOM     26  C3* LIG d   1       3.609  -0.443  -3.905  0.00  0.00     0.114 C 
ATOM     27  H4* LIG d   1       3.576  -1.255  -1.883  0.00  0.00     0.065 H 
ATOM     28  C2* LIG d   1       4.401  -1.481  -4.730  0.00  0.00     0.129 C 
ATOM     29  H3* LIG d   1       2.546  -0.682  -3.909  0.00  0.00     0.065 H 
ATOM     30  H2* LIG d   1       3.730  -2.234  -5.143  0.00  0.00     0.067 H 
BRANCH  25  31
ATOM     31  C5* LIG d   1       4.270   0.795  -1.806  0.00  0.00     0.073 C 
ATOM     32 1H5* LIG d   1       3.423   1.404  -2.119  0.00  0.00     0.058 H 
ATOM     33 2H5* LIG d   1       4.247   0.670  -0.722  0.00  0.00     0.058 H 
BRANCH  31  34
ATOM     34  O5* LIG d   1       5.487   1.440  -2.184  0.00  0.00    -0.392 OA
ATOM     35  H5* LIG d   1       5.883   1.976  -1.484  0.00  0.00     0.209 HD
ENDBRANCH  31  34
ENDBRANCH  25  31
BRANCH  26  36
ATOM     36  O3* LIG d   1       3.827   0.874  -4.415  0.00  0.00    -0.386 OA
ATOM     37  H3* LIG d   1       4.004   0.903  -5.366  0.00  0.00     0.210 HD
ENDBRANCH  26  36
BRANCH  28  38
ATOM     38  O2* LIG d   1       5.135  -0.840  -5.775  0.00  0.00    -0.385 OA
ATOM     39  H2* LIG d   1       6.062  -1.109  -5.826  0.00  0.00     0.210 HD
ENDBRANCH  28  38
ENDBRANCH  13  22
BRANCH  17  40
ATOM     40  N   LIG d   1      10.269  -4.294  -6.557  0.00  0.00    -0.341 N 
ATOM     41  H   LIG d   1      10.540  -4.714  -7.389  0.00  0.00     0.144 HD
ATOM     42  H   LIG d   1      10.913  -3.789  -6.036  0.00  0.00     0.144 HD
ENDBRANCH  17  40
ENDBRANCH  10  12
ENDBRANCH   7  10
ENDBRANCH   4   7
ENDBRANCH   1   4
BRANCH   1  43
ATOM     43  C   LIG d   1       9.875   4.174  -4.056  0.00  0.00    -0.037 C 
ATOM     44  H   LIG d   1      10.304   3.723  -3.161  0.00  0.00     0.028 H 
ATOM     45  H   LIG d   1      10.663   4.344  -4.790  0.00  0.00     0.028 H 
BRANCH  43  46
ATOM     46  C   LIG d   1       9.220   5.508  -3.691  0.00  0.00     0.012 C 
ATOM     47  H   LIG d   1       8.610   5.853  -4.524  0.00  0.00     0.046 H 
ATOM     48  H   LIG d   1       8.591   5.375  -2.810  0.00  0.00     0.046 H 
BRANCH  46  49
ATOM     49  N   LIG d   1      10.260   6.499  -3.403  0.00  0.00    -0.315 N 
ATOM     50  H   LIG d   1      10.750   6.914  -4.130  0.00  0.00     0.149 HD
BRANCH  49  51
ATOM     51  C   LIG d   1      10.542   6.843  -2.096  0.00  0.00     0.200 A 
ATOM     52  N   LIG d   1      10.860   8.102  -1.665  0.00  0.00    -0.267 N 
ATOM     53  C   LIG d   1      11.066   8.031  -0.306  0.00  0.00     0.169 A 
ATOM     54  C   LIG d   1      10.869   6.688   0.050  0.00  0.00     0.149 A 
ATOM     55  N   LIG d   1      11.390   8.909   0.637  0.00  0.00    -0.216 NA
ATOM     56  N   LIG d   1      10.552   6.012  -1.084  0.00  0.00    -0.209 NA
ATOM     57  C   LIG d   1      11.024   6.330   1.399  0.00  0.00     0.147 A 
ATOM     58  N   LIG d   1      11.350   7.277   2.273  0.00  0.00    -0.219 NA
ATOM     59  C   LIG d   1      11.524   8.529   1.890  0.00  0.00     0.120 A 
ATOM     60  H   LIG d   1      11.788   9.267   2.633  0.00  0.00     0.105 H 
BRANCH  52  61
ATOM     61  C1* LIG d   1      10.960   9.304  -2.497  0.00  0.00     0.168 C 
ATOM     62  H1* LIG d   1      11.880   9.845  -2.278  0.00  0.00     0.087 H 
ATOM     63  O4* LIG d   1      10.895   8.958  -3.897  0.00  0.00    -0.346 OA
ATOM     64  C4* LIG d   1      10.487  10.145  -4.602  0.00  0.00     0.113 C 
ATOM     65  C3* LIG d   1       9.682  11.012  -3.614  0.00  0.00     0.114 C 
ATOM     66  H4* LIG d   1      11.366  10.692  -4.943  0.00  0.00     0.065 H 
ATOM     67  C2* LIG d   1       9.725  10.216  -2.287  0.00  0.00     0.129 C 
ATOM     68  H3* LIG d   1      10.153  11.987  -3.491  0.00  0.00     0.065 H 
ATOM     69  H2* LIG d   1       8.820   9.622  -2.160  0.00  0.00     0.067 H 
BRANCH  64  70
ATOM     70  C5* LIG d   1       9.611   9.770  -5.799  0.00  0.00     0.073 C 
ATOM     71 1H5* LIG d   1       8.878  10.558  -5.975  0.00  0.00     0.058 H 
ATOM     72 2H5* LIG d   1      10.236   9.651  -6.683  0.00  0.00     0.058 H 
BRANCH  70  73
ATOM     73  O5* LIG d   1       8.932   8.542  -5.526  0.00  0.00    -0.392 OA
ATOM     74  H5* LIG d   1       7.969   8.620  -5.510  0.00  0.00     0.209 HD
ENDBRANCH  70  73
ENDBRANCH  64  70
BRANCH  65  75
ATOM     75  O3* LIG d   1       8.333  11.163  -4.063  0.00  0.00    -0.386 OA
ATOM     76  H3* LIG d   1       7.989  12.062  -3.981  0.00  0.00     0.210 HD
ENDBRANCH  65  75
BRANCH  67  77
ATOM     77  O2* LIG d   1       9.920  11.090  -1.174  0.00  0.00    -0.385 OA
ATOM     78  H2* LIG d   1       9.524  10.773  -0.350  0.00  0.00     0.210 HD
ENDBRANCH  67  77
ENDBRANCH  52  61
BRANCH  57  79
ATOM     79  N   LIG d   1      10.843   5.019   1.810  0.00  0.00    -0.341 N 
ATOM     80  H   LIG d   1      10.430   4.376   1.212  0.00  0.00     0.144 HD
ATOM     81  H   LIG d   1      11.127   4.744   2.695  0.00  0.00     0.144 HD
ENDBRANCH  57  79
ENDBRANCH  49  51
ENDBRANCH  46  49
ENDBRANCH  43  46
ENDBRANCH   1  43
TORSDOF 20
ENDMDL
