MODEL 1
REMARK VINA RESULT:      -5.9      0.000      0.000
REMARK  9 active torsions:
REMARK  status: ('A' for Active; 'I' for Inactive)
REMARK    1  A    between atoms: C_1  and  C_2 
REMARK    2  A    between atoms: C_2  and  C_3 
REMARK    3  A    between atoms: C_2  and  C_4 
REMARK    4  A    between atoms: C_4  and  C_5 
REMARK       I    between atoms: C_5  and  N_7 
REMARK    5  A    between atoms: N_7  and  C_8 
REMARK    6  A    between atoms: C_8  and  C_9 
REMARK    7  A    between atoms: C_12  and  O_18 
REMARK    8  A    between atoms: O_18  and  C_19 
REMARK    9  A    between atoms: C_23  and  N_50 
ROOT
ATOM      1  C   LIG d   1       3.738  -0.225  -7.890  0.00  0.00     0.019 A 
ATOM      2  C   LIG d   1       3.346  -0.754  -9.110  0.00  0.00    -0.022 A 
ATOM      3  C   LIG d   1       4.281  -1.335  -9.940  0.00  0.00     0.046 A 
ATOM      4  C   LIG d   1       5.616  -1.385  -9.552  0.00  0.00     0.174 A 
ATOM      5  C   LIG d   1       6.010  -0.860  -8.329  0.00  0.00     0.208 A 
ATOM      6  C   LIG d   1       5.064  -0.274  -7.495  0.00  0.00     0.175 A 
ATOM      7  O   LIG d   1       5.691   0.167  -6.365  0.00  0.00    -0.452 OA
ATOM      8  C   LIG d   1       6.957  -0.519  -6.336  0.00  0.00     0.233 C 
ATOM      9  O   LIG d   1       7.232  -0.787  -7.723  0.00  0.00    -0.449 OA
ATOM     10  C   LIG d   1       3.903  -1.919 -11.277  0.00  0.00    -0.002 C 
ATOM     11  C   LIG d   1       1.727  -0.923 -10.991  0.00  0.00    -0.028 C 
ATOM     12  C   LIG d   1       1.889  -0.679  -9.490  0.00  0.00     0.014 C 
ATOM     13  H   LIG d   1       6.876  -1.449  -5.774  0.00  0.00     0.117 H 
ATOM     14  H   LIG d   1       7.731   0.119  -5.908  0.00  0.00     0.117 H 
ATOM     15  H   LIG d   1       4.195  -1.227 -12.068  0.00  0.00     0.087 H 
ATOM     16  H   LIG d   1       4.426  -2.864 -11.417  0.00  0.00     0.087 H 
ATOM     17  H   LIG d   1       0.672  -1.042 -11.231  0.00  0.00     0.082 H 
ATOM     18  H   LIG d   1       2.136  -0.077 -11.546  0.00  0.00     0.082 H 
ATOM     19  H   LIG d   1       1.331  -1.436  -8.939  0.00  0.00     0.036 H 
ATOM     20  H   LIG d   1       1.501   0.309  -9.242  0.00  0.00     0.036 H 
ATOM     21  N   LIG d   1       2.452  -2.164 -11.327  0.00  0.00     0.237 N 
ATOM     22  H   LIG d   1       2.212  -2.889 -10.642  0.00  0.00     0.203 HD
ENDROOT
BRANCH   1  23
ATOM     23  C   LIG d   1       2.711   0.410  -6.987  0.00  0.00     0.041 C 
ATOM     24  H   LIG d   1       2.943   1.468  -6.862  0.00  0.00     0.051 H 
ATOM     25  H   LIG d   1       1.721   0.306  -7.432  0.00  0.00     0.051 H 
BRANCH  23  26
ATOM     26  N   LIG d   1       2.733  -0.252  -5.681  0.00  0.00    -0.311 N 
ATOM     27  C   LIG d   1       2.730   0.483  -4.551  0.00  0.00     0.213 C 
ATOM     28  O   LIG d   1       2.709   1.694  -4.617  0.00  0.00    -0.276 OA
ATOM     29  H   LIG d   1       2.749  -1.221  -5.629  0.00  0.00     0.149 HD
BRANCH  27  30
ATOM     30  C   LIG d   1       2.753  -0.199  -3.208  0.00  0.00     0.026 C 
ATOM     31  H   LIG d   1       2.168   0.382  -2.496  0.00  0.00     0.036 H 
ATOM     32  H   LIG d   1       2.327  -1.198  -3.300  0.00  0.00     0.036 H 
BRANCH  30  33
ATOM     33  C   LIG d   1       4.197  -0.306  -2.715  0.00  0.00    -0.038 C 
ATOM     34  H   LIG d   1       4.877  -0.236  -3.564  0.00  0.00     0.030 H 
BRANCH  33  35
ATOM     35  C   LIG d   1       4.487   0.834  -1.736  0.00  0.00    -0.062 C 
ATOM     36  H   LIG d   1       4.219   1.785  -2.197  0.00  0.00     0.023 H 
ATOM     37  H   LIG d   1       3.899   0.692  -0.829  0.00  0.00     0.023 H 
ATOM     38  H   LIG d   1       5.547   0.837  -1.484  0.00  0.00     0.023 H 
ENDBRANCH  33  35
BRANCH  33  39
ATOM     39  C   LIG d   1       4.398  -1.648  -2.009  0.00  0.00    -0.062 C 
ATOM     40  H   LIG d   1       5.327  -1.625  -1.441  0.00  0.00     0.023 H 
ATOM     41  H   LIG d   1       3.562  -1.831  -1.333  0.00  0.00     0.023 H 
ATOM     42  H   LIG d   1       4.445  -2.445  -2.752  0.00  0.00     0.023 H 
ENDBRANCH  33  39
ENDBRANCH  30  33
ENDBRANCH  27  30
ENDBRANCH  23  26
ENDBRANCH   1  23
BRANCH   4  43
ATOM     43  O   LIG d   1       6.537  -1.959 -10.370  0.00  0.00    -0.491 OA
BRANCH  43  44
ATOM     44  C   LIG d   1       7.382  -1.078 -11.115  0.00  0.00     0.079 C 
ATOM     45  H   LIG d   1       7.268  -0.062 -10.739  0.00  0.00     0.066 H 
ATOM     46  H   LIG d   1       8.420  -1.392 -11.007  0.00  0.00     0.066 H 
ATOM     47  H   LIG d   1       7.100  -1.110 -12.168  0.00  0.00     0.066 H 
ENDBRANCH  43  44
ENDBRANCH   4  43
BRANCH  21  48
ATOM     48  C   LIG d   1       2.064  -2.630 -12.678  0.00  0.00    -0.043 C 
ATOM     49  H   LIG d   1       1.194  -2.077 -13.032  0.00  0.00     0.078 H 
ATOM     50  H   LIG d   1       2.897  -2.476 -13.363  0.00  0.00     0.078 H 
ATOM     51  H   LIG d   1       1.824  -3.692 -12.631  0.00  0.00     0.078 H 
ENDBRANCH  21  48
TORSDOF 9
ENDMDL
MODEL 2
REMARK VINA RESULT:      -5.9      2.189      2.474
REMARK  9 active torsions:
REMARK  status: ('A' for Active; 'I' for Inactive)
REMARK    1  A    between atoms: C_1  and  C_2 
REMARK    2  A    between atoms: C_2  and  C_3 
REMARK    3  A    between atoms: C_2  and  C_4 
REMARK    4  A    between atoms: C_4  and  C_5 
REMARK       I    between atoms: C_5  and  N_7 
REMARK    5  A    between atoms: N_7  and  C_8 
REMARK    6  A    between atoms: C_8  and  C_9 
REMARK    7  A    between atoms: C_12  and  O_18 
REMARK    8  A    between atoms: O_18  and  C_19 
REMARK    9  A    between atoms: C_23  and  N_50 
ROOT
ATOM      1  C   LIG d   1       3.621  -1.491  -7.786  0.00  0.00     0.019 A 
ATOM      2  C   LIG d   1       2.867  -1.617  -8.943  0.00  0.00    -0.022 A 
ATOM      3  C   LIG d   1       2.935  -2.776  -9.685  0.00  0.00     0.046 A 
ATOM      4  C   LIG d   1       3.762  -3.816  -9.272  0.00  0.00     0.174 A 
ATOM      5  C   LIG d   1       4.514  -3.694  -8.113  0.00  0.00     0.208 A 
ATOM      6  C   LIG d   1       4.445  -2.522  -7.367  0.00  0.00     0.175 A 
ATOM      7  O   LIG d   1       5.270  -2.642  -6.286  0.00  0.00    -0.452 OA
ATOM      8  C   LIG d   1       5.532  -4.052  -6.157  0.00  0.00     0.233 C 
ATOM      9  O   LIG d   1       5.384  -4.551  -7.499  0.00  0.00    -0.449 OA
ATOM     10  C   LIG d   1       2.138  -2.958 -10.951  0.00  0.00    -0.002 C 
ATOM     11  C   LIG d   1       1.572  -0.618 -10.817  0.00  0.00    -0.028 C 
ATOM     12  C   LIG d   1       1.984  -0.466  -9.352  0.00  0.00     0.014 C 
ATOM     13  H   LIG d   1       4.805  -4.518  -5.493  0.00  0.00     0.117 H 
ATOM     14  H   LIG d   1       6.546  -4.224  -5.794  0.00  0.00     0.117 H 
ATOM     15  H   LIG d   1       2.793  -2.823 -11.812  0.00  0.00     0.087 H 
ATOM     16  H   LIG d   1       1.719  -3.963 -10.972  0.00  0.00     0.087 H 
ATOM     17  H   LIG d   1       0.800   0.111 -11.058  0.00  0.00     0.082 H 
ATOM     18  H   LIG d   1       2.440  -0.460 -11.459  0.00  0.00     0.082 H 
ATOM     19  H   LIG d   1       1.091  -0.454  -8.726  0.00  0.00     0.036 H 
ATOM     20  H   LIG d   1       2.527   0.470  -9.226  0.00  0.00     0.036 H 
ATOM     21  N   LIG d   1       1.036  -1.982 -10.995  0.00  0.00     0.237 N 
ATOM     22  H   LIG d   1       0.377  -2.186 -10.235  0.00  0.00     0.203 HD
ENDROOT
BRANCH   1  23
ATOM     23  C   LIG d   1       3.545  -0.220  -6.979  0.00  0.00     0.041 C 
ATOM     24  H   LIG d   1       4.439   0.378  -7.158  0.00  0.00     0.051 H 
ATOM     25  H   LIG d   1       2.663   0.347  -7.277  0.00  0.00     0.051 H 
BRANCH  23  26
ATOM     26  N   LIG d   1       3.455  -0.550  -5.555  0.00  0.00    -0.311 N 
ATOM     27  C   LIG d   1       2.927   0.338  -4.689  0.00  0.00     0.213 C 
ATOM     28  O   LIG d   1       2.527   1.410  -5.089  0.00  0.00    -0.276 OA
ATOM     29  H   LIG d   1       3.775  -1.408  -5.235  0.00  0.00     0.149 HD
BRANCH  27  30
ATOM     30  C   LIG d   1       2.836  -0.002  -3.224  0.00  0.00     0.026 C 
ATOM     31  H   LIG d   1       2.374   0.826  -2.687  0.00  0.00     0.036 H 
ATOM     32  H   LIG d   1       2.232  -0.901  -3.096  0.00  0.00     0.036 H 
BRANCH  30  33
ATOM     33  C   LIG d   1       4.240  -0.249  -2.669  0.00  0.00    -0.038 C 
ATOM     34  H   LIG d   1       4.964  -0.216  -3.484  0.00  0.00     0.030 H 
BRANCH  33  35
ATOM     35  C   LIG d   1       4.580   0.833  -1.642  0.00  0.00    -0.062 C 
ATOM     36  H   LIG d   1       4.499   0.417  -0.637  0.00  0.00     0.023 H 
ATOM     37  H   LIG d   1       5.599   1.184  -1.808  0.00  0.00     0.023 H 
ATOM     38  H   LIG d   1       3.887   1.666  -1.748  0.00  0.00     0.023 H 
ENDBRANCH  33  35
BRANCH  33  39
ATOM     39  C   LIG d   1       4.289  -1.623  -1.998  0.00  0.00    -0.062 C 
ATOM     40  H   LIG d   1       3.278  -2.014  -1.896  0.00  0.00     0.023 H 
ATOM     41  H   LIG d   1       4.883  -2.304  -2.608  0.00  0.00     0.023 H 
ATOM     42  H   LIG d   1       4.744  -1.530  -1.011  0.00  0.00     0.023 H 
ENDBRANCH  33  39
ENDBRANCH  30  33
ENDBRANCH  27  30
ENDBRANCH  23  26
ENDBRANCH   1  23
BRANCH   4  43
ATOM     43  O   LIG d   1       3.827  -4.960 -10.003  0.00  0.00    -0.491 OA
BRANCH  43  44
ATOM     44  C   LIG d   1       3.082  -6.081  -9.522  0.00  0.00     0.079 C 
ATOM     45  H   LIG d   1       2.406  -5.755  -8.731  0.00  0.00     0.066 H 
ATOM     46  H   LIG d   1       2.504  -6.511 -10.340  0.00  0.00     0.066 H 
ATOM     47  H   LIG d   1       3.768  -6.831  -9.127  0.00  0.00     0.066 H 
ENDBRANCH  43  44
ENDBRANCH   4  43
BRANCH  21  48
ATOM     48  C   LIG d   1       0.322  -2.083 -12.289  0.00  0.00    -0.043 C 
ATOM     49  H   LIG d   1       0.710  -1.345 -12.992  0.00  0.00     0.078 H 
ATOM     50  H   LIG d   1       0.462  -3.082 -12.698  0.00  0.00     0.078 H 
ATOM     51  H   LIG d   1      -0.740  -1.903 -12.123  0.00  0.00     0.078 H 
ENDBRANCH  21  48
TORSDOF 9
ENDMDL
MODEL 3
REMARK VINA RESULT:      -5.5      2.727      3.580
REMARK  9 active torsions:
REMARK  status: ('A' for Active; 'I' for Inactive)
REMARK    1  A    between atoms: C_1  and  C_2 
REMARK    2  A    between atoms: C_2  and  C_3 
REMARK    3  A    between atoms: C_2  and  C_4 
REMARK    4  A    between atoms: C_4  and  C_5 
REMARK       I    between atoms: C_5  and  N_7 
REMARK    5  A    between atoms: N_7  and  C_8 
REMARK    6  A    between atoms: C_8  and  C_9 
REMARK    7  A    between atoms: C_12  and  O_18 
REMARK    8  A    between atoms: O_18  and  C_19 
REMARK    9  A    between atoms: C_23  and  N_50 
ROOT
ATOM      1  C   LIG d   1       4.187  -1.806  -7.478  0.00  0.00     0.019 A 
ATOM      2  C   LIG d   1       3.838  -2.963  -8.158  0.00  0.00    -0.022 A 
ATOM      3  C   LIG d   1       2.925  -2.908  -9.188  0.00  0.00     0.046 A 
ATOM      4  C   LIG d   1       2.352  -1.690  -9.541  0.00  0.00     0.174 A 
ATOM      5  C   LIG d   1       2.703  -0.529  -8.866  0.00  0.00     0.208 A 
ATOM      6  C   LIG d   1       3.625  -0.589  -7.826  0.00  0.00     0.175 A 
ATOM      7  O   LIG d   1       3.798   0.668  -7.323  0.00  0.00    -0.452 OA
ATOM      8  C   LIG d   1       3.285   1.560  -8.330  0.00  0.00     0.233 C 
ATOM      9  O   LIG d   1       2.298   0.767  -9.016  0.00  0.00    -0.449 OA
ATOM     10  C   LIG d   1       2.511  -4.139  -9.951  0.00  0.00    -0.002 C 
ATOM     11  C   LIG d   1       3.690  -5.442  -8.301  0.00  0.00    -0.028 C 
ATOM     12  C   LIG d   1       4.483  -4.261  -7.742  0.00  0.00     0.014 C 
ATOM     13  H   LIG d   1       4.077   1.862  -9.014  0.00  0.00     0.117 H 
ATOM     14  H   LIG d   1       2.823   2.434  -7.871  0.00  0.00     0.117 H 
ATOM     15  H   LIG d   1       1.528  -4.463  -9.609  0.00  0.00     0.087 H 
ATOM     16  H   LIG d   1       2.462  -3.904 -11.014  0.00  0.00     0.087 H 
ATOM     17  H   LIG d   1       4.250  -6.364  -8.150  0.00  0.00     0.082 H 
ATOM     18  H   LIG d   1       2.727  -5.510  -7.792  0.00  0.00     0.082 H 
ATOM     19  H   LIG d   1       5.504  -4.297  -8.125  0.00  0.00     0.036 H 
ATOM     20  H   LIG d   1       4.504  -4.323  -6.654  0.00  0.00     0.036 H 
ATOM     21  N   LIG d   1       3.499  -5.212  -9.747  0.00  0.00     0.237 N 
ATOM     22  H   LIG d   1       4.393  -4.928 -10.163  0.00  0.00     0.203 HD
ENDROOT
BRANCH   1  23
ATOM     23  C   LIG d   1       5.186  -1.873  -6.351  0.00  0.00     0.041 C 
ATOM     24  H   LIG d   1       5.348  -2.914  -6.071  0.00  0.00     0.051 H 
ATOM     25  H   LIG d   1       6.130  -1.433  -6.675  0.00  0.00     0.051 H 
BRANCH  23  26
ATOM     26  N   LIG d   1       4.671  -1.131  -5.198  0.00  0.00    -0.311 N 
ATOM     27  C   LIG d   1       4.177  -1.797  -4.134  0.00  0.00     0.213 C 
ATOM     28  O   LIG d   1       4.160  -3.010  -4.133  0.00  0.00    -0.276 OA
ATOM     29  H   LIG d   1       4.685  -0.161  -5.199  0.00  0.00     0.149 HD
BRANCH  27  30
ATOM     30  C   LIG d   1       3.647  -1.034  -2.948  0.00  0.00     0.026 C 
ATOM     31  H   LIG d   1       2.559  -0.991  -3.000  0.00  0.00     0.036 H 
ATOM     32  H   LIG d   1       3.949  -1.535  -2.029  0.00  0.00     0.036 H 
BRANCH  30  33
ATOM     33  C   LIG d   1       4.213   0.388  -2.962  0.00  0.00    -0.038 C 
ATOM     34  H   LIG d   1       5.069   0.431  -3.636  0.00  0.00     0.030 H 
BRANCH  33  35
ATOM     35  C   LIG d   1       3.136   1.362  -3.443  0.00  0.00    -0.062 C 
ATOM     36  H   LIG d   1       3.554   2.014  -4.210  0.00  0.00     0.023 H 
ATOM     37  H   LIG d   1       2.299   0.801  -3.860  0.00  0.00     0.023 H 
ATOM     38  H   LIG d   1       2.788   1.963  -2.604  0.00  0.00     0.023 H 
ENDBRANCH  33  35
BRANCH  33  39
ATOM     39  C   LIG d   1       4.657   0.774  -1.549  0.00  0.00    -0.062 C 
ATOM     40  H   LIG d   1       5.332   1.628  -1.601  0.00  0.00     0.023 H 
ATOM     41  H   LIG d   1       3.782   1.037  -0.954  0.00  0.00     0.023 H 
ATOM     42  H   LIG d   1       5.171  -0.068  -1.087  0.00  0.00     0.023 H 
ENDBRANCH  33  39
ENDBRANCH  30  33
ENDBRANCH  27  30
ENDBRANCH  23  26
ENDBRANCH   1  23
BRANCH   4  43
ATOM     43  O   LIG d   1       1.453  -1.634 -10.558  0.00  0.00    -0.491 OA
BRANCH  43  44
ATOM     44  C   LIG d   1       1.907  -1.084 -11.797  0.00  0.00     0.079 C 
ATOM     45  H   LIG d   1       1.875   0.004 -11.745  0.00  0.00     0.066 H 
ATOM     46  H   LIG d   1       2.930  -1.410 -11.986  0.00  0.00     0.066 H 
ATOM     47  H   LIG d   1       1.261  -1.428 -12.606  0.00  0.00     0.066 H 
ENDBRANCH  43  44
ENDBRANCH   4  43
BRANCH  21  48
ATOM     48  C   LIG d   1       3.036  -6.457 -10.403  0.00  0.00    -0.043 C 
ATOM     49  H   LIG d   1       3.813  -6.849 -11.059  0.00  0.00     0.078 H 
ATOM     50  H   LIG d   1       2.798  -7.196  -9.639  0.00  0.00     0.078 H 
ATOM     51  H   LIG d   1       2.143  -6.238 -10.988  0.00  0.00     0.078 H 
ENDBRANCH  21  48
TORSDOF 9
ENDMDL
MODEL 4
REMARK VINA RESULT:      -5.5      2.604      3.852
REMARK  9 active torsions:
REMARK  status: ('A' for Active; 'I' for Inactive)
REMARK    1  A    between atoms: C_1  and  C_2 
REMARK    2  A    between atoms: C_2  and  C_3 
REMARK    3  A    between atoms: C_2  and  C_4 
REMARK    4  A    between atoms: C_4  and  C_5 
REMARK       I    between atoms: C_5  and  N_7 
REMARK    5  A    between atoms: N_7  and  C_8 
REMARK    6  A    between atoms: C_8  and  C_9 
REMARK    7  A    between atoms: C_12  and  O_18 
REMARK    8  A    between atoms: O_18  and  C_19 
REMARK    9  A    between atoms: C_23  and  N_50 
ROOT
ATOM      1  C   LIG d   1       4.938  -0.757  -7.671  0.00  0.00     0.019 A 
ATOM      2  C   LIG d   1       4.666  -2.087  -7.954  0.00  0.00    -0.022 A 
ATOM      3  C   LIG d   1       3.535  -2.422  -8.668  0.00  0.00     0.046 A 
ATOM      4  C   LIG d   1       2.669  -1.423  -9.101  0.00  0.00     0.174 A 
ATOM      5  C   LIG d   1       2.941  -0.091  -8.823  0.00  0.00     0.208 A 
ATOM      6  C   LIG d   1       4.082   0.243  -8.101  0.00  0.00     0.175 A 
ATOM      7  O   LIG d   1       4.125   1.599  -7.955  0.00  0.00    -0.452 OA
ATOM      8  C   LIG d   1       3.217   2.122  -8.943  0.00  0.00     0.233 C 
ATOM      9  O   LIG d   1       2.267   1.057  -9.130  0.00  0.00    -0.449 OA
ATOM     10  C   LIG d   1       3.196  -3.853  -8.995  0.00  0.00    -0.002 C 
ATOM     11  C   LIG d   1       4.972  -4.514  -7.506  0.00  0.00    -0.028 C 
ATOM     12  C   LIG d   1       5.633  -3.136  -7.467  0.00  0.00     0.014 C 
ATOM     13  H   LIG d   1       3.744   2.334  -9.873  0.00  0.00     0.117 H 
ATOM     14  H   LIG d   1       2.720   3.019  -8.573  0.00  0.00     0.117 H 
ATOM     15  H   LIG d   1       2.409  -4.199  -8.325  0.00  0.00     0.087 H 
ATOM     16  H   LIG d   1       2.844  -3.913 -10.024  0.00  0.00     0.087 H 
ATOM     17  H   LIG d   1       5.720  -5.285  -7.323  0.00  0.00     0.082 H 
ATOM     18  H   LIG d   1       4.195  -4.570  -6.742  0.00  0.00     0.082 H 
ATOM     19  H   LIG d   1       6.516  -3.140  -8.107  0.00  0.00     0.036 H 
ATOM     20  H   LIG d   1       5.929  -2.908  -6.443  0.00  0.00     0.036 H 
ATOM     21  N   LIG d   1       4.393  -4.699  -8.851  0.00  0.00     0.237 N 
ATOM     22  H   LIG d   1       5.085  -4.421  -9.556  0.00  0.00     0.203 HD
ENDROOT
BRANCH   1  23
ATOM     23  C   LIG d   1       6.174  -0.397  -6.888  0.00  0.00     0.041 C 
ATOM     24  H   LIG d   1       6.767  -1.295  -6.713  0.00  0.00     0.051 H 
ATOM     25  H   LIG d   1       6.766   0.324  -7.454  0.00  0.00     0.051 H 
BRANCH  23  26
ATOM     26  N   LIG d   1       5.786   0.190  -5.604  0.00  0.00    -0.311 N 
ATOM     27  C   LIG d   1       6.315  -0.284  -4.458  0.00  0.00     0.213 C 
ATOM     28  O   LIG d   1       7.114  -1.196  -4.492  0.00  0.00    -0.276 OA
ATOM     29  H   LIG d   1       5.147   0.920  -5.578  0.00  0.00     0.149 HD
BRANCH  27  30
ATOM     30  C   LIG d   1       5.915   0.320  -3.137  0.00  0.00     0.026 C 
ATOM     31  H   LIG d   1       6.530  -0.104  -2.343  0.00  0.00     0.036 H 
ATOM     32  H   LIG d   1       6.059   1.400  -3.172  0.00  0.00     0.036 H 
BRANCH  30  33
ATOM     33  C   LIG d   1       4.442   0.012  -2.861  0.00  0.00    -0.038 C 
ATOM     34  H   LIG d   1       3.931  -0.194  -3.803  0.00  0.00     0.030 H 
BRANCH  33  35
ATOM     35  C   LIG d   1       4.339  -1.212  -1.948  0.00  0.00    -0.062 C 
ATOM     36  H   LIG d   1       4.408  -0.894  -0.908  0.00  0.00     0.023 H 
ATOM     37  H   LIG d   1       3.383  -1.709  -2.114  0.00  0.00     0.023 H 
ATOM     38  H   LIG d   1       5.151  -1.902  -2.172  0.00  0.00     0.023 H 
ENDBRANCH  33  35
BRANCH  33  39
ATOM     39  C   LIG d   1       3.788   1.215  -2.178  0.00  0.00    -0.062 C 
ATOM     40  H   LIG d   1       3.547   1.970  -2.926  0.00  0.00     0.023 H 
ATOM     41  H   LIG d   1       2.874   0.895  -1.677  0.00  0.00     0.023 H 
ATOM     42  H   LIG d   1       4.476   1.635  -1.445  0.00  0.00     0.023 H 
ENDBRANCH  33  39
ENDBRANCH  30  33
ENDBRANCH  27  30
ENDBRANCH  23  26
ENDBRANCH   1  23
BRANCH   4  43
ATOM     43  O   LIG d   1       1.555  -1.753  -9.806  0.00  0.00    -0.491 OA
BRANCH  43  44
ATOM     44  C   LIG d   1       1.566  -1.467 -11.207  0.00  0.00     0.079 C 
ATOM     45  H   LIG d   1       2.583  -1.558 -11.588  0.00  0.00     0.066 H 
ATOM     46  H   LIG d   1       0.917  -2.172 -11.727  0.00  0.00     0.066 H 
ATOM     47  H   LIG d   1       1.206  -0.451 -11.373  0.00  0.00     0.066 H 
ENDBRANCH  43  44
ENDBRANCH   4  43
BRANCH  21  48
ATOM     48  C   LIG d   1       4.036  -6.121  -9.061  0.00  0.00    -0.043 C 
ATOM     49  H   LIG d   1       3.493  -6.504  -8.197  0.00  0.00     0.078 H 
ATOM     50  H   LIG d   1       3.412  -6.206  -9.949  0.00  0.00     0.078 H 
ATOM     51  H   LIG d   1       4.950  -6.698  -9.201  0.00  0.00     0.078 H 
ENDBRANCH  21  48
TORSDOF 9
ENDMDL
MODEL 5
REMARK VINA RESULT:      -5.3      5.263      7.855
REMARK  9 active torsions:
REMARK  status: ('A' for Active; 'I' for Inactive)
REMARK    1  A    between atoms: C_1  and  C_2 
REMARK    2  A    between atoms: C_2  and  C_3 
REMARK    3  A    between atoms: C_2  and  C_4 
REMARK    4  A    between atoms: C_4  and  C_5 
REMARK       I    between atoms: C_5  and  N_7 
REMARK    5  A    between atoms: N_7  and  C_8 
REMARK    6  A    between atoms: C_8  and  C_9 
REMARK    7  A    between atoms: C_12  and  O_18 
REMARK    8  A    between atoms: O_18  and  C_19 
REMARK    9  A    between atoms: C_23  and  N_50 
ROOT
ATOM      1  C   LIG d   1       8.848   2.623  -4.939  0.00  0.00     0.019 A 
ATOM      2  C   LIG d   1       9.538   3.796  -4.671  0.00  0.00    -0.022 A 
ATOM      3  C   LIG d   1      10.023   4.562  -5.709  0.00  0.00     0.046 A 
ATOM      4  C   LIG d   1       9.819   4.155  -7.024  0.00  0.00     0.174 A 
ATOM      5  C   LIG d   1       9.124   2.985  -7.295  0.00  0.00     0.208 A 
ATOM      6  C   LIG d   1       8.638   2.213  -6.244  0.00  0.00     0.175 A 
ATOM      7  O   LIG d   1       8.001   1.122  -6.762  0.00  0.00    -0.452 OA
ATOM      8  C   LIG d   1       7.748   1.443  -8.142  0.00  0.00     0.233 C 
ATOM      9  O   LIG d   1       8.792   2.377  -8.473  0.00  0.00    -0.449 OA
ATOM     10  C   LIG d   1      10.783   5.840  -5.467  0.00  0.00    -0.002 C 
ATOM     11  C   LIG d   1      10.839   5.252  -3.130  0.00  0.00    -0.028 C 
ATOM     12  C   LIG d   1       9.735   4.199  -3.232  0.00  0.00     0.014 C 
ATOM     13  H   LIG d   1       6.768   1.908  -8.254  0.00  0.00     0.117 H 
ATOM     14  H   LIG d   1       7.820   0.551  -8.765  0.00  0.00     0.117 H 
ATOM     15  H   LIG d   1      11.848   5.659  -5.612  0.00  0.00     0.087 H 
ATOM     16  H   LIG d   1      10.448   6.597  -6.175  0.00  0.00     0.087 H 
ATOM     17  H   LIG d   1      10.859   5.667  -2.123  0.00  0.00     0.082 H 
ATOM     18  H   LIG d   1      11.804   4.794  -3.357  0.00  0.00     0.082 H 
ATOM     19  H   LIG d   1       8.805   4.612  -2.841  0.00  0.00     0.036 H 
ATOM     20  H   LIG d   1      10.017   3.324  -2.646  0.00  0.00     0.036 H 
ATOM     21  N   LIG d   1      10.532   6.323  -4.098  0.00  0.00     0.237 N 
ATOM     22  H   LIG d   1       9.542   6.580  -4.011  0.00  0.00     0.203 HD
ENDROOT
BRANCH   1  23
ATOM     23  C   LIG d   1       8.322   1.788  -3.799  0.00  0.00     0.041 C 
ATOM     24  H   LIG d   1       8.880   0.853  -3.747  0.00  0.00     0.051 H 
ATOM     25  H   LIG d   1       8.442   2.335  -2.863  0.00  0.00     0.051 H 
BRANCH  23  26
ATOM     26  N   LIG d   1       6.904   1.499  -4.019  0.00  0.00    -0.311 N 
ATOM     27  C   LIG d   1       6.412   0.278  -3.731  0.00  0.00     0.213 C 
ATOM     28  O   LIG d   1       7.145  -0.582  -3.289  0.00  0.00    -0.276 OA
ATOM     29  H   LIG d   1       6.318   2.187  -4.372  0.00  0.00     0.149 HD
BRANCH  27  30
ATOM     30  C   LIG d   1       4.952  -0.019  -3.958  0.00  0.00     0.026 C 
ATOM     31  H   LIG d   1       4.468   0.854  -4.395  0.00  0.00     0.036 H 
ATOM     32  H   LIG d   1       4.854  -0.868  -4.635  0.00  0.00     0.036 H 
BRANCH  30  33
ATOM     33  C   LIG d   1       4.286  -0.355  -2.621  0.00  0.00    -0.038 C 
ATOM     34  H   LIG d   1       4.810  -1.191  -2.155  0.00  0.00     0.030 H 
BRANCH  33  35
ATOM     35  C   LIG d   1       4.349   0.864  -1.699  0.00  0.00    -0.062 C 
ATOM     36  H   LIG d   1       3.597   1.590  -2.007  0.00  0.00     0.023 H 
ATOM     37  H   LIG d   1       4.155   0.553  -0.672  0.00  0.00     0.023 H 
ATOM     38  H   LIG d   1       5.338   1.316  -1.761  0.00  0.00     0.023 H 
ENDBRANCH  33  35
BRANCH  33  39
ATOM     39  C   LIG d   1       2.825  -0.739  -2.861  0.00  0.00    -0.062 C 
ATOM     40  H   LIG d   1       2.286  -0.730  -1.914  0.00  0.00     0.023 H 
ATOM     41  H   LIG d   1       2.369  -0.022  -3.546  0.00  0.00     0.023 H 
ATOM     42  H   LIG d   1       2.778  -1.737  -3.297  0.00  0.00     0.023 H 
ENDBRANCH  33  39
ENDBRANCH  30  33
ENDBRANCH  27  30
ENDBRANCH  23  26
ENDBRANCH   1  23
BRANCH   4  43
ATOM     43  O   LIG d   1      10.294   4.911  -8.048  0.00  0.00    -0.491 OA
BRANCH  43  44
ATOM     44  C   LIG d   1       9.344   5.699  -8.769  0.00  0.00     0.079 C 
ATOM     45  H   LIG d   1       9.504   5.572  -9.839  0.00  0.00     0.066 H 
ATOM     46  H   LIG d   1       8.335   5.377  -8.511  0.00  0.00     0.066 H 
ATOM     47  H   LIG d   1       9.469   6.750  -8.505  0.00  0.00     0.066 H 
ENDBRANCH  43  44
ENDBRANCH   4  43
BRANCH  21  48
ATOM     48  C   LIG d   1      11.366   7.515  -3.821  0.00  0.00    -0.043 C 
ATOM     49  H   LIG d   1      11.880   7.401  -2.866  0.00  0.00     0.078 H 
ATOM     50  H   LIG d   1      12.100   7.631  -4.617  0.00  0.00     0.078 H 
ATOM     51  H   LIG d   1      10.724   8.395  -3.786  0.00  0.00     0.078 H 
ENDBRANCH  21  48
TORSDOF 9
ENDMDL
MODEL 6
REMARK VINA RESULT:      -5.2      3.377      4.361
REMARK  9 active torsions:
REMARK  status: ('A' for Active; 'I' for Inactive)
REMARK    1  A    between atoms: C_1  and  C_2 
REMARK    2  A    between atoms: C_2  and  C_3 
REMARK    3  A    between atoms: C_2  and  C_4 
REMARK    4  A    between atoms: C_4  and  C_5 
REMARK       I    between atoms: C_5  and  N_7 
REMARK    5  A    between atoms: N_7  and  C_8 
REMARK    6  A    between atoms: C_8  and  C_9 
REMARK    7  A    between atoms: C_12  and  O_18 
REMARK    8  A    between atoms: O_18  and  C_19 
REMARK    9  A    between atoms: C_23  and  N_50 
ROOT
ATOM      1  C   LIG d   1       3.942  -2.765  -8.058  0.00  0.00     0.019 A 
ATOM      2  C   LIG d   1       3.882  -4.110  -8.388  0.00  0.00    -0.022 A 
ATOM      3  C   LIG d   1       3.016  -4.540  -9.370  0.00  0.00     0.046 A 
ATOM      4  C   LIG d   1       2.202  -3.621 -10.026  0.00  0.00     0.174 A 
ATOM      5  C   LIG d   1       2.265  -2.274  -9.701  0.00  0.00     0.208 A 
ATOM      6  C   LIG d   1       3.139  -1.844  -8.708  0.00  0.00     0.175 A 
ATOM      7  O   LIG d   1       3.013  -0.492  -8.571  0.00  0.00    -0.452 OA
ATOM      8  C   LIG d   1       2.352  -0.043  -9.769  0.00  0.00     0.233 C 
ATOM      9  O   LIG d   1       1.589  -1.189 -10.188  0.00  0.00    -0.449 OA
ATOM     10  C   LIG d   1       2.911  -5.992  -9.758  0.00  0.00    -0.002 C 
ATOM     11  C   LIG d   1       4.288  -6.504  -7.848  0.00  0.00    -0.028 C 
ATOM     12  C   LIG d   1       4.781  -5.070  -7.652  0.00  0.00     0.014 C 
ATOM     13  H   LIG d   1       3.082   0.231 -10.530  0.00  0.00     0.117 H 
ATOM     14  H   LIG d   1       1.693   0.798  -9.553  0.00  0.00     0.117 H 
ATOM     15  H   LIG d   1       2.012  -6.420  -9.315  0.00  0.00     0.087 H 
ATOM     16  H   LIG d   1       2.849  -6.070 -10.843  0.00  0.00     0.087 H 
ATOM     17  H   LIG d   1       5.031  -7.203  -7.466  0.00  0.00     0.082 H 
ATOM     18  H   LIG d   1       3.347  -6.643  -7.314  0.00  0.00     0.082 H 
ATOM     19  H   LIG d   1       5.798  -4.982  -8.037  0.00  0.00     0.036 H 
ATOM     20  H   LIG d   1       4.776  -4.829  -6.589  0.00  0.00     0.036 H 
ATOM     21  N   LIG d   1       4.103  -6.723  -9.296  0.00  0.00     0.237 N 
ATOM     22  H   LIG d   1       4.927  -6.372  -9.797  0.00  0.00     0.203 HD
ENDROOT
BRANCH   1  23
ATOM     23  C   LIG d   1       4.890  -2.301  -6.981  0.00  0.00     0.041 C 
ATOM     24  H   LIG d   1       5.559  -3.118  -6.711  0.00  0.00     0.051 H 
ATOM     25  H   LIG d   1       5.477  -1.459  -7.351  0.00  0.00     0.051 H 
BRANCH  23  26
ATOM     26  N   LIG d   1       4.126  -1.885  -5.804  0.00  0.00    -0.311 N 
ATOM     27  C   LIG d   1       4.353  -0.679  -5.244  0.00  0.00     0.213 C 
ATOM     28  O   LIG d   1       5.190   0.060  -5.717  0.00  0.00    -0.276 OA
ATOM     29  H   LIG d   1       3.456  -2.476  -5.426  0.00  0.00     0.149 HD
BRANCH  27  30
ATOM     30  C   LIG d   1       3.566  -0.252  -4.032  0.00  0.00     0.026 C 
ATOM     31  H   LIG d   1       3.167   0.749  -4.193  0.00  0.00     0.036 H 
ATOM     32  H   LIG d   1       2.746  -0.949  -3.866  0.00  0.00     0.036 H 
BRANCH  30  33
ATOM     33  C   LIG d   1       4.483  -0.243  -2.806  0.00  0.00    -0.038 C 
ATOM     34  H   LIG d   1       5.523  -0.187  -3.131  0.00  0.00     0.030 H 
BRANCH  33  35
ATOM     35  C   LIG d   1       4.155   0.969  -1.933  0.00  0.00    -0.062 C 
ATOM     36  H   LIG d   1       4.654   0.866  -0.969  0.00  0.00     0.023 H 
ATOM     37  H   LIG d   1       4.502   1.877  -2.426  0.00  0.00     0.023 H 
ATOM     38  H   LIG d   1       3.078   1.028  -1.781  0.00  0.00     0.023 H 
ENDBRANCH  33  35
BRANCH  33  39
ATOM     39  C   LIG d   1       4.269  -1.526  -2.000  0.00  0.00    -0.062 C 
ATOM     40  H   LIG d   1       4.639  -1.383  -0.986  0.00  0.00     0.023 H 
ATOM     41  H   LIG d   1       3.205  -1.763  -1.970  0.00  0.00     0.023 H 
ATOM     42  H   LIG d   1       4.810  -2.346  -2.473  0.00  0.00     0.023 H 
ENDBRANCH  33  39
ENDBRANCH  30  33
ENDBRANCH  27  30
ENDBRANCH  23  26
ENDBRANCH   1  23
BRANCH   4  43
ATOM     43  O   LIG d   1       1.349  -4.044 -10.996  0.00  0.00    -0.491 OA
BRANCH  43  44
ATOM     44  C   LIG d   1      -0.020  -4.222 -10.624  0.00  0.00     0.079 C 
ATOM     45  H   LIG d   1      -0.502  -4.900 -11.328  0.00  0.00     0.066 H 
ATOM     46  H   LIG d   1      -0.072  -4.643  -9.619  0.00  0.00     0.066 H 
ATOM     47  H   LIG d   1      -0.529  -3.258 -10.641  0.00  0.00     0.066 H 
ENDBRANCH  43  44
ENDBRANCH   4  43
BRANCH  21  48
ATOM     48  C   LIG d   1       3.949  -8.169  -9.576  0.00  0.00    -0.043 C 
ATOM     49  H   LIG d   1       4.480  -8.434 -10.490  0.00  0.00     0.078 H 
ATOM     50  H   LIG d   1       4.354  -8.740  -8.741  0.00  0.00     0.078 H 
ATOM     51  H   LIG d   1       2.889  -8.397  -9.693  0.00  0.00     0.078 H 
ENDBRANCH  21  48
TORSDOF 9
ENDMDL
MODEL 7
REMARK VINA RESULT:      -5.2      5.470      7.396
REMARK  9 active torsions:
REMARK  status: ('A' for Active; 'I' for Inactive)
REMARK    1  A    between atoms: C_1  and  C_2 
REMARK    2  A    between atoms: C_2  and  C_3 
REMARK    3  A    between atoms: C_2  and  C_4 
REMARK    4  A    between atoms: C_4  and  C_5 
REMARK       I    between atoms: C_5  and  N_7 
REMARK    5  A    between atoms: N_7  and  C_8 
REMARK    6  A    between atoms: C_8  and  C_9 
REMARK    7  A    between atoms: C_12  and  O_18 
REMARK    8  A    between atoms: O_18  and  C_19 
REMARK    9  A    between atoms: C_23  and  N_50 
ROOT
ATOM      1  C   LIG d   1       9.286   2.739  -5.163  0.00  0.00     0.019 A 
ATOM      2  C   LIG d   1       9.343   3.167  -6.481  0.00  0.00    -0.022 A 
ATOM      3  C   LIG d   1       9.683   4.472  -6.766  0.00  0.00     0.046 A 
ATOM      4  C   LIG d   1       9.965   5.357  -5.730  0.00  0.00     0.174 A 
ATOM      5  C   LIG d   1       9.913   4.930  -4.411  0.00  0.00     0.208 A 
ATOM      6  C   LIG d   1       9.568   3.612  -4.126  0.00  0.00     0.175 A 
ATOM      7  O   LIG d   1       9.582   3.440  -2.772  0.00  0.00    -0.452 OA
ATOM      8  C   LIG d   1      10.335   4.551  -2.251  0.00  0.00     0.233 C 
ATOM      9  O   LIG d   1      10.143   5.584  -3.233  0.00  0.00    -0.449 OA
ATOM     10  C   LIG d   1       9.754   4.984  -8.182  0.00  0.00    -0.002 C 
ATOM     11  C   LIG d   1       8.744   2.910  -8.881  0.00  0.00    -0.028 C 
ATOM     12  C   LIG d   1       9.031   2.175  -7.572  0.00  0.00     0.014 C 
ATOM     13  H   LIG d   1      11.390   4.293  -2.166  0.00  0.00     0.117 H 
ATOM     14  H   LIG d   1       9.939   4.863  -1.284  0.00  0.00     0.117 H 
ATOM     15  H   LIG d   1       8.862   5.574  -8.396  0.00  0.00     0.087 H 
ATOM     16  H   LIG d   1      10.636   5.614  -8.293  0.00  0.00     0.087 H 
ATOM     17  H   LIG d   1       8.693   2.194  -9.700  0.00  0.00     0.082 H 
ATOM     18  H   LIG d   1       7.796   3.444  -8.801  0.00  0.00     0.082 H 
ATOM     19  H   LIG d   1       9.883   1.509  -7.710  0.00  0.00     0.036 H 
ATOM     20  H   LIG d   1       8.157   1.589  -7.289  0.00  0.00     0.036 H 
ATOM     21  N   LIG d   1       9.854   3.854  -9.120  0.00  0.00     0.237 N 
ATOM     22  H   LIG d   1      10.745   3.370  -8.967  0.00  0.00     0.203 HD
ENDROOT
BRANCH   1  23
ATOM     23  C   LIG d   1       8.911   1.311  -4.857  0.00  0.00     0.041 C 
ATOM     24  H   LIG d   1       8.381   0.885  -5.709  0.00  0.00     0.051 H 
ATOM     25  H   LIG d   1       9.815   0.732  -4.665  0.00  0.00     0.051 H 
BRANCH  23  26
ATOM     26  N   LIG d   1       8.047   1.276  -3.675  0.00  0.00    -0.311 N 
ATOM     27  C   LIG d   1       6.767   0.870  -3.788  0.00  0.00     0.213 C 
ATOM     28  O   LIG d   1       6.331   0.534  -4.869  0.00  0.00    -0.276 OA
ATOM     29  H   LIG d   1       8.397   1.544  -2.811  0.00  0.00     0.149 HD
BRANCH  27  30
ATOM     30  C   LIG d   1       5.878   0.834  -2.572  0.00  0.00     0.026 C 
ATOM     31  H   LIG d   1       6.357   0.244  -1.790  0.00  0.00     0.036 H 
ATOM     32  H   LIG d   1       5.712   1.849  -2.213  0.00  0.00     0.036 H 
BRANCH  30  33
ATOM     33  C   LIG d   1       4.536   0.197  -2.940  0.00  0.00    -0.038 C 
ATOM     34  H   LIG d   1       4.545  -0.087  -3.993  0.00  0.00     0.030 H 
BRANCH  33  35
ATOM     35  C   LIG d   1       4.308  -1.046  -2.079  0.00  0.00    -0.062 C 
ATOM     36  H   LIG d   1       5.235  -1.615  -2.012  0.00  0.00     0.023 H 
ATOM     37  H   LIG d   1       3.994  -0.744  -1.080  0.00  0.00     0.023 H 
ATOM     38  H   LIG d   1       3.533  -1.665  -2.531  0.00  0.00     0.023 H 
ENDBRANCH  33  35
BRANCH  33  39
ATOM     39  C   LIG d   1       3.410   1.203  -2.693  0.00  0.00    -0.062 C 
ATOM     40  H   LIG d   1       3.008   1.059  -1.690  0.00  0.00     0.023 H 
ATOM     41  H   LIG d   1       3.801   2.217  -2.786  0.00  0.00     0.023 H 
ATOM     42  H   LIG d   1       2.619   1.051  -3.427  0.00  0.00     0.023 H 
ENDBRANCH  33  39
ENDBRANCH  30  33
ENDBRANCH  27  30
ENDBRANCH  23  26
ENDBRANCH   1  23
BRANCH   4  43
ATOM     43  O   LIG d   1      10.302   6.643  -6.011  0.00  0.00    -0.491 OA
BRANCH  43  44
ATOM     44  C   LIG d   1       9.324   7.647  -5.729  0.00  0.00     0.079 C 
ATOM     45  H   LIG d   1       8.998   8.109  -6.661  0.00  0.00     0.066 H 
ATOM     46  H   LIG d   1       8.468   7.191  -5.231  0.00  0.00     0.066 H 
ATOM     47  H   LIG d   1       9.760   8.407  -5.080  0.00  0.00     0.066 H 
ENDBRANCH  43  44
ENDBRANCH   4  43
BRANCH  21  48
ATOM     48  C   LIG d   1       9.808   4.350 -10.515  0.00  0.00    -0.043 C 
ATOM     49  H   LIG d   1       9.150   5.216 -10.586  0.00  0.00     0.078 H 
ATOM     50  H   LIG d   1      10.813   4.630 -10.828  0.00  0.00     0.078 H 
ATOM     51  H   LIG d   1       9.434   3.555 -11.161  0.00  0.00     0.078 H 
ENDBRANCH  21  48
TORSDOF 9
ENDMDL
MODEL 8
REMARK VINA RESULT:      -5.1     10.742     14.395
REMARK  9 active torsions:
REMARK  status: ('A' for Active; 'I' for Inactive)
REMARK    1  A    between atoms: C_1  and  C_2 
REMARK    2  A    between atoms: C_2  and  C_3 
REMARK    3  A    between atoms: C_2  and  C_4 
REMARK    4  A    between atoms: C_4  and  C_5 
REMARK       I    between atoms: C_5  and  N_7 
REMARK    5  A    between atoms: N_7  and  C_8 
REMARK    6  A    between atoms: C_8  and  C_9 
REMARK    7  A    between atoms: C_12  and  O_18 
REMARK    8  A    between atoms: O_18  and  C_19 
REMARK    9  A    between atoms: C_23  and  N_50 
ROOT
ATOM      1  C   LIG d   1      10.095   8.996  -1.388  0.00  0.00     0.019 A 
ATOM      2  C   LIG d   1      10.727   9.520  -0.270  0.00  0.00    -0.022 A 
ATOM      3  C   LIG d   1      11.278   8.675   0.668  0.00  0.00     0.046 A 
ATOM      4  C   LIG d   1      11.196   7.297   0.493  0.00  0.00     0.174 A 
ATOM      5  C   LIG d   1      10.568   6.770  -0.627  0.00  0.00     0.208 A 
ATOM      6  C   LIG d   1      10.012   7.627  -1.572  0.00  0.00     0.175 A 
ATOM      7  O   LIG d   1       9.455   6.877  -2.567  0.00  0.00    -0.452 OA
ATOM      8  C   LIG d   1      10.032   5.565  -2.429  0.00  0.00     0.233 C 
ATOM      9  O   LIG d   1      10.360   5.481  -1.030  0.00  0.00    -0.449 OA
ATOM     10  C   LIG d   1      11.970   9.198   1.901  0.00  0.00    -0.002 C 
ATOM     11  C   LIG d   1      11.139  11.386   1.323  0.00  0.00    -0.028 C 
ATOM     12  C   LIG d   1      10.794  11.019  -0.121  0.00  0.00     0.014 C 
ATOM     13  H   LIG d   1      10.930   5.475  -3.039  0.00  0.00     0.117 H 
ATOM     14  H   LIG d   1       9.308   4.795  -2.700  0.00  0.00     0.117 H 
ATOM     15  H   LIG d   1      11.305   9.094   2.759  0.00  0.00     0.087 H 
ATOM     16  H   LIG d   1      12.876   8.620   2.077  0.00  0.00     0.087 H 
ATOM     17  H   LIG d   1      11.358  12.450   1.388  0.00  0.00     0.082 H 
ATOM     18  H   LIG d   1      10.297  11.144   1.973  0.00  0.00     0.082 H 
ATOM     19  H   LIG d   1      11.560  11.416  -0.788  0.00  0.00     0.036 H 
ATOM     20  H   LIG d   1       9.828  11.452  -0.381  0.00  0.00     0.036 H 
ATOM     21  N   LIG d   1      12.335  10.612   1.710  0.00  0.00     0.237 N 
ATOM     22  H   LIG d   1      13.035  10.679   0.963  0.00  0.00     0.203 HD
ENDROOT
BRANCH   1  23
ATOM     23  C   LIG d   1       9.493   9.926  -2.410  0.00  0.00     0.041 C 
ATOM     24  H   LIG d   1       8.406   9.884  -2.343  0.00  0.00     0.051 H 
ATOM     25  H   LIG d   1       9.829  10.945  -2.218  0.00  0.00     0.051 H 
BRANCH  23  26
ATOM     26  N   LIG d   1       9.916   9.517  -3.751  0.00  0.00    -0.311 N 
ATOM     27  C   LIG d   1       9.455  10.175  -4.834  0.00  0.00     0.213 C 
ATOM     28  O   LIG d   1       8.690  11.106  -4.697  0.00  0.00    -0.276 OA
ATOM     29  H   LIG d   1      10.528   8.772  -3.861  0.00  0.00     0.149 HD
BRANCH  27  30
ATOM     30  C   LIG d   1       9.890   9.753  -6.214  0.00  0.00     0.026 C 
ATOM     31  H   LIG d   1       9.663  10.547  -6.924  0.00  0.00     0.036 H 
ATOM     32  H   LIG d   1      10.963   9.561  -6.214  0.00  0.00     0.036 H 
BRANCH  30  33
ATOM     33  C   LIG d   1       9.145   8.479  -6.617  0.00  0.00    -0.038 C 
ATOM     34  H   LIG d   1       8.197   8.427  -6.078  0.00  0.00     0.030 H 
BRANCH  33  35
ATOM     35  C   LIG d   1       8.874   8.501  -8.122  0.00  0.00    -0.062 C 
ATOM     36  H   LIG d   1       9.735   8.926  -8.639  0.00  0.00     0.023 H 
ATOM     37  H   LIG d   1       8.705   7.484  -8.476  0.00  0.00     0.023 H 
ATOM     38  H   LIG d   1       7.992   9.108  -8.325  0.00  0.00     0.023 H 
ENDBRANCH  33  35
BRANCH  33  39
ATOM     39  C   LIG d   1       9.997   7.257  -6.268  0.00  0.00    -0.062 C 
ATOM     40  H   LIG d   1      11.009   7.401  -6.645  0.00  0.00     0.023 H 
ATOM     41  H   LIG d   1      10.026   7.132  -5.186  0.00  0.00     0.023 H 
ATOM     42  H   LIG d   1       9.561   6.369  -6.726  0.00  0.00     0.023 H 
ENDBRANCH  33  39
ENDBRANCH  30  33
ENDBRANCH  27  30
ENDBRANCH  23  26
ENDBRANCH   1  23
BRANCH   4  43
ATOM     43  O   LIG d   1      11.741   6.463   1.417  0.00  0.00    -0.491 OA
BRANCH  43  44
ATOM     44  C   LIG d   1      10.834   5.690   2.208  0.00  0.00     0.079 C 
ATOM     45  H   LIG d   1      10.485   4.836   1.628  0.00  0.00     0.066 H 
ATOM     46  H   LIG d   1      11.344   5.337   3.104  0.00  0.00     0.066 H 
ATOM     47  H   LIG d   1       9.983   6.309   2.493  0.00  0.00     0.066 H 
ENDBRANCH  43  44
ENDBRANCH   4  43
BRANCH  21  48
ATOM     48  C   LIG d   1      12.912  11.158   2.961  0.00  0.00    -0.043 C 
ATOM     49  H   LIG d   1      13.983  10.960   3.000  0.00  0.00     0.078 H 
ATOM     50  H   LIG d   1      12.739  12.233   2.995  0.00  0.00     0.078 H 
ATOM     51  H   LIG d   1      12.423  10.684   3.812  0.00  0.00     0.078 H 
ENDBRANCH  21  48
TORSDOF 9
ENDMDL
MODEL 9
REMARK VINA RESULT:      -4.9      4.576      5.467
REMARK  9 active torsions:
REMARK  status: ('A' for Active; 'I' for Inactive)
REMARK    1  A    between atoms: C_1  and  C_2 
REMARK    2  A    between atoms: C_2  and  C_3 
REMARK    3  A    between atoms: C_2  and  C_4 
REMARK    4  A    between atoms: C_4  and  C_5 
REMARK       I    between atoms: C_5  and  N_7 
REMARK    5  A    between atoms: N_7  and  C_8 
REMARK    6  A    between atoms: C_8  and  C_9 
REMARK    7  A    between atoms: C_12  and  O_18 
REMARK    8  A    between atoms: O_18  and  C_19 
REMARK    9  A    between atoms: C_23  and  N_50 
ROOT
ATOM      1  C   LIG d   1       5.789  -3.729  -5.899  0.00  0.00     0.019 A 
ATOM      2  C   LIG d   1       5.659  -5.110  -5.896  0.00  0.00    -0.022 A 
ATOM      3  C   LIG d   1       6.731  -5.901  -5.544  0.00  0.00     0.046 A 
ATOM      4  C   LIG d   1       7.942  -5.311  -5.192  0.00  0.00     0.174 A 
ATOM      5  C   LIG d   1       8.072  -3.930  -5.189  0.00  0.00     0.208 A 
ATOM      6  C   LIG d   1       6.989  -3.134  -5.548  0.00  0.00     0.175 A 
ATOM      7  O   LIG d   1       7.364  -1.824  -5.471  0.00  0.00    -0.452 OA
ATOM      8  C   LIG d   1       8.561  -1.813  -4.670  0.00  0.00     0.233 C 
ATOM      9  O   LIG d   1       9.129  -3.118  -4.887  0.00  0.00    -0.449 OA
ATOM     10  C   LIG d   1       6.640  -7.405  -5.532  0.00  0.00    -0.002 C 
ATOM     11  C   LIG d   1       4.499  -7.188  -6.618  0.00  0.00    -0.028 C 
ATOM     12  C   LIG d   1       4.330  -5.706  -6.283  0.00  0.00     0.014 C 
ATOM     13  H   LIG d   1       8.316  -1.672  -3.618  0.00  0.00     0.117 H 
ATOM     14  H   LIG d   1       9.245  -1.035  -5.011  0.00  0.00     0.117 H 
ATOM     15  H   LIG d   1       7.131  -7.803  -6.420  0.00  0.00     0.087 H 
ATOM     16  H   LIG d   1       7.140  -7.789  -4.643  0.00  0.00     0.087 H 
ATOM     17  H   LIG d   1       3.520  -7.654  -6.724  0.00  0.00     0.082 H 
ATOM     18  H   LIG d   1       5.058  -7.292  -7.549  0.00  0.00     0.082 H 
ATOM     19  H   LIG d   1       3.631  -5.601  -5.453  0.00  0.00     0.036 H 
ATOM     20  H   LIG d   1       3.938  -5.183  -7.155  0.00  0.00     0.036 H 
ATOM     21  N   LIG d   1       5.228  -7.822  -5.502  0.00  0.00     0.237 N 
ATOM     22  H   LIG d   1       4.809  -7.523  -4.614  0.00  0.00     0.203 HD
ENDROOT
BRANCH   1  23
ATOM     23  C   LIG d   1       4.614  -2.869  -6.287  0.00  0.00     0.041 C 
ATOM     24  H   LIG d   1       4.941  -2.103  -6.991  0.00  0.00     0.051 H 
ATOM     25  H   LIG d   1       3.849  -3.489  -6.756  0.00  0.00     0.051 H 
BRANCH  23  26
ATOM     26  N   LIG d   1       4.059  -2.230  -5.092  0.00  0.00    -0.311 N 
ATOM     27  C   LIG d   1       4.023  -0.886  -5.001  0.00  0.00     0.213 C 
ATOM     28  O   LIG d   1       4.449  -0.205  -5.911  0.00  0.00    -0.276 OA
ATOM     29  H   LIG d   1       3.719  -2.775  -4.365  0.00  0.00     0.149 HD
BRANCH  27  30
ATOM     30  C   LIG d   1       3.453  -0.229  -3.771  0.00  0.00     0.026 C 
ATOM     31  H   LIG d   1       3.167   0.796  -4.006  0.00  0.00     0.036 H 
ATOM     32  H   LIG d   1       2.577  -0.783  -3.435  0.00  0.00     0.036 H 
BRANCH  30  33
ATOM     33  C   LIG d   1       4.507  -0.222  -2.662  0.00  0.00    -0.038 C 
ATOM     34  H   LIG d   1       5.503  -0.224  -3.107  0.00  0.00     0.030 H 
BRANCH  33  35
ATOM     35  C   LIG d   1       4.336   1.032  -1.802  0.00  0.00    -0.062 C 
ATOM     36  H   LIG d   1       3.383   1.506  -2.040  0.00  0.00     0.023 H 
ATOM     37  H   LIG d   1       4.351   0.754  -0.748  0.00  0.00     0.023 H 
ATOM     38  H   LIG d   1       5.149   1.727  -2.006  0.00  0.00     0.023 H 
ENDBRANCH  33  35
BRANCH  33  39
ATOM     39  C   LIG d   1       4.337  -1.467  -1.789  0.00  0.00    -0.062 C 
ATOM     40  H   LIG d   1       3.384  -1.943  -2.017  0.00  0.00     0.023 H 
ATOM     41  H   LIG d   1       5.150  -2.165  -1.990  0.00  0.00     0.023 H 
ATOM     42  H   LIG d   1       4.358  -1.179  -0.738  0.00  0.00     0.023 H 
ENDBRANCH  33  39
ENDBRANCH  30  33
ENDBRANCH  27  30
ENDBRANCH  23  26
ENDBRANCH   1  23
BRANCH   4  43
ATOM     43  O   LIG d   1       8.998  -6.091  -4.842  0.00  0.00    -0.491 OA
BRANCH  43  44
ATOM     44  C   LIG d   1      10.036  -6.251  -5.813  0.00  0.00     0.079 C 
ATOM     45  H   LIG d   1       9.685  -5.897  -6.782  0.00  0.00     0.066 H 
ATOM     46  H   LIG d   1      10.910  -5.674  -5.509  0.00  0.00     0.066 H 
ATOM     47  H   LIG d   1      10.304  -7.306  -5.887  0.00  0.00     0.066 H 
ENDBRANCH  43  44
ENDBRANCH   4  43
BRANCH  21  48
ATOM     48  C   LIG d   1       5.134  -9.297  -5.605  0.00  0.00    -0.043 C 
ATOM     49  H   LIG d   1       5.065  -9.741  -4.612  0.00  0.00     0.078 H 
ATOM     50  H   LIG d   1       4.249  -9.559  -6.183  0.00  0.00     0.078 H 
ATOM     51  H   LIG d   1       6.024  -9.674  -6.110  0.00  0.00     0.078 H 
ENDBRANCH  21  48
TORSDOF 9
ENDMDL
MODEL 10
REMARK VINA RESULT:      -4.9      5.811      7.248
REMARK  9 active torsions:
REMARK  status: ('A' for Active; 'I' for Inactive)
REMARK    1  A    between atoms: C_1  and  C_2 
REMARK    2  A    between atoms: C_2  and  C_3 
REMARK    3  A    between atoms: C_2  and  C_4 
REMARK    4  A    between atoms: C_4  and  C_5 
REMARK       I    between atoms: C_5  and  N_7 
REMARK    5  A    between atoms: N_7  and  C_8 
REMARK    6  A    between atoms: C_8  and  C_9 
REMARK    7  A    between atoms: C_12  and  O_18 
REMARK    8  A    between atoms: O_18  and  C_19 
REMARK    9  A    between atoms: C_23  and  N_50 
ROOT
ATOM      1  C   LIG d   1       6.689  -5.004  -5.706  0.00  0.00     0.019 A 
ATOM      2  C   LIG d   1       7.170  -6.232  -5.276  0.00  0.00    -0.022 A 
ATOM      3  C   LIG d   1       6.412  -7.369  -5.457  0.00  0.00     0.046 A 
ATOM      4  C   LIG d   1       5.166  -7.281  -6.069  0.00  0.00     0.174 A 
ATOM      5  C   LIG d   1       4.685  -6.054  -6.504  0.00  0.00     0.208 A 
ATOM      6  C   LIG d   1       5.452  -4.909  -6.318  0.00  0.00     0.175 A 
ATOM      7  O   LIG d   1       4.768  -3.839  -6.821  0.00  0.00    -0.452 OA
ATOM      8  C   LIG d   1       3.758  -4.399  -7.682  0.00  0.00     0.233 C 
ATOM      9  O   LIG d   1       3.519  -5.704  -7.124  0.00  0.00    -0.449 OA
ATOM     10  C   LIG d   1       6.890  -8.724  -5.002  0.00  0.00    -0.002 C 
ATOM     11  C   LIG d   1       8.693  -7.600  -3.863  0.00  0.00    -0.028 C 
ATOM     12  C   LIG d   1       8.526  -6.282  -4.619  0.00  0.00     0.014 C 
ATOM     13  H   LIG d   1       4.128  -4.480  -8.704  0.00  0.00     0.117 H 
ATOM     14  H   LIG d   1       2.850  -3.796  -7.652  0.00  0.00     0.117 H 
ATOM     15  H   LIG d   1       6.380  -8.995  -4.078  0.00  0.00     0.087 H 
ATOM     16  H   LIG d   1       6.660  -9.463  -5.769  0.00  0.00     0.087 H 
ATOM     17  H   LIG d   1       9.727  -7.709  -3.540  0.00  0.00     0.082 H 
ATOM     18  H   LIG d   1       8.034  -7.609  -2.993  0.00  0.00     0.082 H 
ATOM     19  H   LIG d   1       9.301  -6.202  -5.382  0.00  0.00     0.036 H 
ATOM     20  H   LIG d   1       8.620  -5.451  -3.920  0.00  0.00     0.036 H 
ATOM     21  N   LIG d   1       8.347  -8.697  -4.788  0.00  0.00     0.237 N 
ATOM     22  H   LIG d   1       8.815  -8.538  -5.688  0.00  0.00     0.203 HD
ENDROOT
BRANCH   1  23
ATOM     23  C   LIG d   1       7.521  -3.764  -5.504  0.00  0.00     0.041 C 
ATOM     24  H   LIG d   1       8.578  -4.031  -5.511  0.00  0.00     0.051 H 
ATOM     25  H   LIG d   1       7.320  -3.056  -6.308  0.00  0.00     0.051 H 
BRANCH  23  26
ATOM     26  N   LIG d   1       7.181  -3.152  -4.218  0.00  0.00    -0.311 N 
ATOM     27  C   LIG d   1       6.565  -1.953  -4.183  0.00  0.00     0.213 C 
ATOM     28  O   LIG d   1       6.293  -1.382  -5.218  0.00  0.00    -0.276 OA
ATOM     29  H   LIG d   1       7.398  -3.609  -3.390  0.00  0.00     0.149 HD
BRANCH  27  30
ATOM     30  C   LIG d   1       6.215  -1.324  -2.860  0.00  0.00     0.026 C 
ATOM     31  H   LIG d   1       6.411  -2.034  -2.057  0.00  0.00     0.036 H 
ATOM     32  H   LIG d   1       6.819  -0.429  -2.711  0.00  0.00     0.036 H 
BRANCH  30  33
ATOM     33  C   LIG d   1       4.732  -0.943  -2.852  0.00  0.00    -0.038 C 
ATOM     34  H   LIG d   1       4.440  -0.602  -3.846  0.00  0.00     0.030 H 
BRANCH  33  35
ATOM     35  C   LIG d   1       3.895  -2.164  -2.466  0.00  0.00    -0.062 C 
ATOM     36  H   LIG d   1       2.956  -2.149  -3.021  0.00  0.00     0.023 H 
ATOM     37  H   LIG d   1       4.445  -3.073  -2.707  0.00  0.00     0.023 H 
ATOM     38  H   LIG d   1       3.685  -2.138  -1.398  0.00  0.00     0.023 H 
ENDBRANCH  33  35
BRANCH  33  39
ATOM     39  C   LIG d   1       4.499   0.178  -1.838  0.00  0.00    -0.062 C 
ATOM     40  H   LIG d   1       5.267   0.137  -1.067  0.00  0.00     0.023 H 
ATOM     41  H   LIG d   1       4.544   1.142  -2.346  0.00  0.00     0.023 H 
ATOM     42  H   LIG d   1       3.517   0.054  -1.380  0.00  0.00     0.023 H 
ENDBRANCH  33  39
ENDBRANCH  30  33
ENDBRANCH  27  30
ENDBRANCH  23  26
ENDBRANCH   1  23
BRANCH   4  43
ATOM     43  O   LIG d   1       4.419  -8.403  -6.249  0.00  0.00    -0.491 OA
BRANCH  43  44
ATOM     44  C   LIG d   1       4.422  -8.981  -7.557  0.00  0.00     0.079 C 
ATOM     45  H   LIG d   1       3.520  -8.681  -8.088  0.00  0.00     0.066 H 
ATOM     46  H   LIG d   1       5.299  -8.635  -8.105  0.00  0.00     0.066 H 
ATOM     47  H   LIG d   1       4.450 -10.068  -7.473  0.00  0.00     0.066 H 
ENDBRANCH  43  44
ENDBRANCH   4  43
BRANCH  21  48
ATOM     48  C   LIG d   1       8.801  -9.993  -4.233  0.00  0.00    -0.043 C 
ATOM     49  H   LIG d   1       8.370 -10.151  -3.244  0.00  0.00     0.078 H 
ATOM     50  H   LIG d   1       8.489 -10.797  -4.898  0.00  0.00     0.078 H 
ATOM     51  H   LIG d   1       9.889  -9.985  -4.158  0.00  0.00     0.078 H 
ENDBRANCH  21  48
TORSDOF 9
ENDMDL
