MODEL 1
REMARK VINA RESULT:      -6.6      0.000      0.000
REMARK  13 active torsions:
REMARK  status: ('A' for Active; 'I' for Inactive)
REMARK    1  A    between atoms: C_1  and  C_2 
REMARK    2  A    between atoms: C_19  and  C_21 
REMARK    3  A    between atoms: C_21  and  N_22 
REMARK    4  A    between atoms: N_22  and  C_23 
REMARK    5  A    between atoms: N_22  and  C_32 
REMARK    6  A    between atoms: C_23  and  C_24 
REMARK    7  A    between atoms: C_24  and  C_25 
REMARK    8  A    between atoms: C_25  and  N_26 
REMARK    9  A    between atoms: C_32  and  C_33 
REMARK   10  A    between atoms: C_37  and  O_41 
REMARK   11  A    between atoms: C_38  and  O_39 
REMARK   12  A    between atoms: O_39  and  C_40 
REMARK   13  A    between atoms: O_41  and  C_42 
ROOT
ATOM      1  N   LIG d   1       5.838  -3.138  -8.599  0.00  0.00    -0.297 N 
ENDROOT
BRANCH   1   2
ATOM      2  C   LIG d   1       5.378  -4.222  -7.722  0.00  0.00     0.013 C 
ATOM      3  H   LIG d   1       6.240  -4.723  -7.280  0.00  0.00     0.043 H 
ATOM      4  H   LIG d   1       4.801  -4.941  -8.305  0.00  0.00     0.043 H 
BRANCH   2   5
ATOM      5  C   LIG d   1       4.500  -3.642  -6.611  0.00  0.00     0.075 C 
ATOM      6  C   LIG d   1       5.160  -2.369  -6.000  0.00  0.00     0.011 C 
ATOM      7  C   LIG d   1       4.013  -1.440  -5.593  0.00  0.00    -0.039 C 
ATOM      8  H   LIG d   1       5.865  -1.889  -6.678  0.00  0.00     0.035 H 
ATOM      9  C   LIG d   1       5.844  -2.979  -4.762  0.00  0.00     0.107 C 
ATOM     10  C   LIG d   1       4.500  -0.402  -4.584  0.00  0.00    -0.014 C 
ATOM     11  H   LIG d   1       3.215  -2.029  -5.145  0.00  0.00     0.028 H 
ATOM     12  H   LIG d   1       3.632  -0.931  -6.477  0.00  0.00     0.028 H 
ATOM     13  C   LIG d   1       4.956  -1.143  -3.319  0.00  0.00    -0.022 C 
ATOM     14  C   LIG d   1       3.357   0.514  -4.212  0.00  0.00    -0.073 C 
ATOM     15  H   LIG d   1       5.328   0.171  -5.000  0.00  0.00     0.035 H 
ATOM     16  C   LIG d   1       6.172  -1.993  -3.687  0.00  0.00    -0.009 C 
ATOM     17  C   LIG d   1       5.313  -0.122  -2.240  0.00  0.00    -0.047 C 
ATOM     18  H   LIG d   1       6.968  -1.341  -4.045  0.00  0.00     0.031 H 
ATOM     19  H   LIG d   1       6.518  -2.524  -2.800  0.00  0.00     0.031 H 
ATOM     20  C   LIG d   1       4.064   0.669  -1.845  0.00  0.00    -0.049 C 
ATOM     21  H   LIG d   1       5.706  -0.641  -1.366  0.00  0.00     0.027 H 
ATOM     22  H   LIG d   1       6.070   0.563  -2.626  0.00  0.00     0.027 H 
ATOM     23  C   LIG d   1       3.557   1.465  -3.051  0.00  0.00    -0.032 C 
ATOM     24  H   LIG d   1       3.289  -0.021  -1.513  0.00  0.00     0.027 H 
ATOM     25  H   LIG d   1       4.311   1.356  -1.035  0.00  0.00     0.027 H 
ATOM     26  H   LIG d   1       2.609   1.942  -2.802  0.00  0.00     0.031 H 
ATOM     27  H   LIG d   1       4.290   2.224  -3.323  0.00  0.00     0.031 H 
ATOM     28  C   LIG d   1       2.227   0.486  -4.874  0.00  0.00    -0.099 C 
ATOM     29  H   LIG d   1       1.420   1.148  -4.594  0.00  0.00     0.053 H 
ATOM     30  H   LIG d   1       2.102  -0.199  -5.699  0.00  0.00     0.053 H 
ATOM     31  H   LIG d   1       6.765  -3.473  -5.075  0.00  0.00     0.074 H 
ATOM     32  O   LIG d   1       4.914  -3.972  -4.314  0.00  0.00    -0.461 OA
ATOM     33  C   LIG d   1       4.431  -4.600  -5.409  0.00  0.00     0.312 C 
ATOM     34  O   LIG d   1       4.011  -5.732  -5.440  0.00  0.00    -0.251 OA
ATOM     35  H   LIG d   1       3.504  -3.413  -6.990  0.00  0.00     0.043 H 
BRANCH  13  36
ATOM     36  C   LIG d   1       3.829  -2.048  -2.817  0.00  0.00    -0.059 C 
ATOM     37  H   LIG d   1       2.952  -1.444  -2.588  0.00  0.00     0.024 H 
ATOM     38  H   LIG d   1       3.578  -2.776  -3.589  0.00  0.00     0.024 H 
ATOM     39  H   LIG d   1       4.156  -2.570  -1.917  0.00  0.00     0.024 H 
ENDBRANCH  13  36
ENDBRANCH   2   5
ENDBRANCH   1   2
BRANCH   1  40
ATOM     40  C   LIG d   1       7.237  -3.342  -8.999  0.00  0.00     0.000 C 
ATOM     41  H   LIG d   1       7.341  -4.318  -9.474  0.00  0.00     0.043 H 
ATOM     42  H   LIG d   1       7.531  -2.563  -9.703  0.00  0.00     0.043 H 
BRANCH  40  43
ATOM     43  C   LIG d   1       8.136  -3.277  -7.763  0.00  0.00    -0.027 C 
ATOM     44  H   LIG d   1       7.519  -3.259  -6.865  0.00  0.00     0.029 H 
ATOM     45  H   LIG d   1       8.786  -4.152  -7.741  0.00  0.00     0.029 H 
BRANCH  43  46
ATOM     46  C   LIG d   1       8.991  -2.009  -7.821  0.00  0.00     0.000 C 
ATOM     47  H   LIG d   1       9.880  -2.142  -7.203  0.00  0.00     0.043 H 
ATOM     48  H   LIG d   1       9.290  -1.820  -8.852  0.00  0.00     0.043 H 
BRANCH  46  49
ATOM     49  N   LIG d   1       8.212  -0.870  -7.319  0.00  0.00    -0.298 N 
ATOM     50  C   LIG d   1       8.695  -0.441  -5.998  0.00  0.00     0.022 C 
ATOM     51  C   LIG d   1       7.820   0.706  -5.488  0.00  0.00     0.060 C 
ATOM     52  H   LIG d   1       8.641  -1.278  -5.302  0.00  0.00     0.045 H 
ATOM     53  H   LIG d   1       9.729  -0.102  -6.081  0.00  0.00     0.045 H 
ATOM     54  O   LIG d   1       7.836   1.771  -6.442  0.00  0.00    -0.377 OA
ATOM     55  H   LIG d   1       8.210   1.065  -4.535  0.00  0.00     0.057 H 
ATOM     56  H   LIG d   1       6.798   0.352  -5.354  0.00  0.00     0.057 H 
ATOM     57  C   LIG d   1       7.371   1.390  -7.739  0.00  0.00     0.060 C 
ATOM     58  C   LIG d   1       8.241   0.249  -8.272  0.00  0.00     0.022 C 
ATOM     59  H   LIG d   1       7.434   2.243  -8.414  0.00  0.00     0.057 H 
ATOM     60  H   LIG d   1       6.335   1.056  -7.671  0.00  0.00     0.057 H 
ATOM     61  H   LIG d   1       9.267   0.599  -8.392  0.00  0.00     0.045 H 
ATOM     62  H   LIG d   1       7.855  -0.083  -9.236  0.00  0.00     0.045 H 
ENDBRANCH  46  49
ENDBRANCH  43  46
ENDBRANCH  40  43
ENDBRANCH   1  40
BRANCH   1  63
ATOM     63  C   LIG d   1       4.968  -3.007  -9.776  0.00  0.00     0.028 C 
ATOM     64  H   LIG d   1       5.581  -2.939 -10.675  0.00  0.00     0.048 H 
ATOM     65  H   LIG d   1       4.316  -3.878  -9.844  0.00  0.00     0.048 H 
BRANCH  63  66
ATOM     66  C   LIG d   1       4.129  -1.761  -9.644  0.00  0.00     0.012 A 
ATOM     67  C   LIG d   1       4.648  -0.534 -10.024  0.00  0.00     0.166 A 
ATOM     68  C   LIG d   1       3.869   0.614  -9.908  0.00  0.00     0.162 A 
ATOM     69  C   LIG d   1       2.583   0.525  -9.399  0.00  0.00    -0.016 A 
ATOM     70  C   LIG d   1       2.074  -0.701  -9.015  0.00  0.00    -0.058 A 
ATOM     71  H   LIG d   1       1.978   1.415  -9.304  0.00  0.00     0.066 H 
ATOM     72  C   LIG d   1       2.846  -1.842  -9.137  0.00  0.00    -0.054 A 
ATOM     73  H   LIG d   1       1.072  -0.770  -8.619  0.00  0.00     0.062 H 
ATOM     74  H   LIG d   1       2.445  -2.799  -8.837  0.00  0.00     0.062 H 
BRANCH  67  75
ATOM     75  O   LIG d   1       5.913  -0.452 -10.517  0.00  0.00    -0.491 OA
BRANCH  75  76
ATOM     76  C   LIG d   1       6.076  -0.658 -11.922  0.00  0.00     0.079 C 
ATOM     77  H   LIG d   1       6.749  -1.499 -12.090  0.00  0.00     0.066 H 
ATOM     78  H   LIG d   1       5.107  -0.870 -12.373  0.00  0.00     0.066 H 
ATOM     79  H   LIG d   1       6.498   0.240 -12.373  0.00  0.00     0.066 H 
ENDBRANCH  75  76
ENDBRANCH  67  75
BRANCH  68  80
ATOM     80  O   LIG d   1       4.371   1.819 -10.286  0.00  0.00    -0.491 OA
BRANCH  80  81
ATOM     81  C   LIG d   1       4.382   2.855  -9.300  0.00  0.00     0.079 C 
ATOM     82  H   LIG d   1       3.508   2.753  -8.657  0.00  0.00     0.066 H 
ATOM     83  H   LIG d   1       5.287   2.776  -8.699  0.00  0.00     0.066 H 
ATOM     84  H   LIG d   1       4.358   3.827  -9.795  0.00  0.00     0.066 H 
ENDBRANCH  80  81
ENDBRANCH  68  80
ENDBRANCH  63  66
ENDBRANCH   1  63
TORSDOF 13
ENDMDL
MODEL 2
REMARK VINA RESULT:      -6.6      1.831      2.652
REMARK  13 active torsions:
REMARK  status: ('A' for Active; 'I' for Inactive)
REMARK    1  A    between atoms: C_1  and  C_2 
REMARK    2  A    between atoms: C_19  and  C_21 
REMARK    3  A    between atoms: C_21  and  N_22 
REMARK    4  A    between atoms: N_22  and  C_23 
REMARK    5  A    between atoms: N_22  and  C_32 
REMARK    6  A    between atoms: C_23  and  C_24 
REMARK    7  A    between atoms: C_24  and  C_25 
REMARK    8  A    between atoms: C_25  and  N_26 
REMARK    9  A    between atoms: C_32  and  C_33 
REMARK   10  A    between atoms: C_37  and  O_41 
REMARK   11  A    between atoms: C_38  and  O_39 
REMARK   12  A    between atoms: O_39  and  C_40 
REMARK   13  A    between atoms: O_41  and  C_42 
ROOT
ATOM      1  N   LIG d   1       6.139  -3.197  -8.315  0.00  0.00    -0.297 N 
ENDROOT
BRANCH   1   2
ATOM      2  C   LIG d   1       5.445  -4.269  -7.590  0.00  0.00     0.013 C 
ATOM      3  H   LIG d   1       6.180  -4.924  -7.121  0.00  0.00     0.043 H 
ATOM      4  H   LIG d   1       4.839  -4.847  -8.289  0.00  0.00     0.043 H 
BRANCH   2   5
ATOM      5  C   LIG d   1       4.544  -3.659  -6.515  0.00  0.00     0.075 C 
ATOM      6  C   LIG d   1       5.203  -2.385  -5.907  0.00  0.00     0.011 C 
ATOM      7  C   LIG d   1       4.058  -1.434  -5.548  0.00  0.00    -0.039 C 
ATOM      8  H   LIG d   1       5.933  -1.925  -6.573  0.00  0.00     0.035 H 
ATOM      9  C   LIG d   1       5.845  -2.981  -4.641  0.00  0.00     0.107 C 
ATOM     10  C   LIG d   1       4.529  -0.385  -4.544  0.00  0.00    -0.014 C 
ATOM     11  H   LIG d   1       3.240  -2.006  -5.113  0.00  0.00     0.028 H 
ATOM     12  H   LIG d   1       3.708  -0.936  -6.451  0.00  0.00     0.028 H 
ATOM     13  C   LIG d   1       4.940  -1.109  -3.254  0.00  0.00    -0.022 C 
ATOM     14  C   LIG d   1       3.389   0.552  -4.220  0.00  0.00    -0.073 C 
ATOM     15  H   LIG d   1       5.376   0.171  -4.946  0.00  0.00     0.035 H 
ATOM     16  C   LIG d   1       6.155  -1.981  -3.573  0.00  0.00    -0.009 C 
ATOM     17  C   LIG d   1       5.280  -0.074  -2.183  0.00  0.00    -0.047 C 
ATOM     18  H   LIG d   1       6.969  -1.345  -3.919  0.00  0.00     0.031 H 
ATOM     19  H   LIG d   1       6.469  -2.500  -2.668  0.00  0.00     0.031 H 
ATOM     20  C   LIG d   1       4.031   0.739  -1.837  0.00  0.00    -0.049 C 
ATOM     21  H   LIG d   1       5.642  -0.583  -1.290  0.00  0.00     0.027 H 
ATOM     22  H   LIG d   1       6.056   0.594  -2.559  0.00  0.00     0.027 H 
ATOM     23  C   LIG d   1       3.568   1.520  -3.070  0.00  0.00    -0.032 C 
ATOM     24  H   LIG d   1       3.238   0.064  -1.515  0.00  0.00     0.027 H 
ATOM     25  H   LIG d   1       4.264   1.436  -1.032  0.00  0.00     0.027 H 
ATOM     26  H   LIG d   1       2.620   2.013  -2.856  0.00  0.00     0.031 H 
ATOM     27  H   LIG d   1       4.318   2.265  -3.334  0.00  0.00     0.031 H 
ATOM     28  C   LIG d   1       2.277   0.526  -4.912  0.00  0.00    -0.099 C 
ATOM     29  H   LIG d   1       1.471   1.203  -4.667  0.00  0.00     0.053 H 
ATOM     30  H   LIG d   1       2.166  -0.171  -5.729  0.00  0.00     0.053 H 
ATOM     31  H   LIG d   1       6.768  -3.491  -4.919  0.00  0.00     0.074 H 
ATOM     32  O   LIG d   1       4.890  -3.955  -4.201  0.00  0.00    -0.461 OA
ATOM     33  C   LIG d   1       4.430  -4.596  -5.299  0.00  0.00     0.312 C 
ATOM     34  O   LIG d   1       3.997  -5.723  -5.323  0.00  0.00    -0.251 OA
ATOM     35  H   LIG d   1       3.562  -3.425  -6.925  0.00  0.00     0.043 H 
BRANCH  13  36
ATOM     36  C   LIG d   1       3.788  -1.992  -2.769  0.00  0.00    -0.059 C 
ATOM     37  H   LIG d   1       4.101  -2.543  -1.883  0.00  0.00     0.024 H 
ATOM     38  H   LIG d   1       2.930  -1.367  -2.525  0.00  0.00     0.024 H 
ATOM     39  H   LIG d   1       3.515  -2.695  -3.557  0.00  0.00     0.024 H 
ENDBRANCH  13  36
ENDBRANCH   2   5
ENDBRANCH   1   2
BRANCH   1  40
ATOM     40  C   LIG d   1       7.538  -3.558  -8.579  0.00  0.00     0.000 C 
ATOM     41  H   LIG d   1       7.593  -4.159  -9.487  0.00  0.00     0.043 H 
ATOM     42  H   LIG d   1       8.129  -2.650  -8.707  0.00  0.00     0.043 H 
BRANCH  40  43
ATOM     43  C   LIG d   1       8.088  -4.361  -7.400  0.00  0.00    -0.027 C 
ATOM     44  H   LIG d   1       7.262  -4.741  -6.800  0.00  0.00     0.029 H 
ATOM     45  H   LIG d   1       8.680  -5.197  -7.775  0.00  0.00     0.029 H 
BRANCH  43  46
ATOM     46  C   LIG d   1       8.973  -3.459  -6.536  0.00  0.00     0.000 C 
ATOM     47  H   LIG d   1       9.816  -3.103  -7.129  0.00  0.00     0.043 H 
ATOM     48  H   LIG d   1       8.390  -2.608  -6.185  0.00  0.00     0.043 H 
BRANCH  46  49
ATOM     49  N   LIG d   1       9.471  -4.221  -5.384  0.00  0.00    -0.298 N 
ATOM     50  C   LIG d   1       9.647  -3.349  -4.212  0.00  0.00     0.022 C 
ATOM     51  C   LIG d   1      10.222  -4.169  -3.054  0.00  0.00     0.060 C 
ATOM     52  H   LIG d   1      10.332  -2.539  -4.461  0.00  0.00     0.045 H 
ATOM     53  H   LIG d   1       8.682  -2.934  -3.920  0.00  0.00     0.045 H 
ATOM     54  O   LIG d   1       9.356  -5.273  -2.782  0.00  0.00    -0.377 OA
ATOM     55  H   LIG d   1      10.300  -3.540  -2.167  0.00  0.00     0.057 H 
ATOM     56  H   LIG d   1      11.210  -4.540  -3.327  0.00  0.00     0.057 H 
ATOM     57  C   LIG d   1       9.162  -6.144  -3.901  0.00  0.00     0.060 C 
ATOM     58  C   LIG d   1       8.577  -5.343  -5.068  0.00  0.00     0.022 C 
ATOM     59  H   LIG d   1       8.476  -6.943  -3.625  0.00  0.00     0.057 H 
ATOM     60  H   LIG d   1      10.120  -6.572  -4.198  0.00  0.00     0.057 H 
ATOM     61  H   LIG d   1       7.595  -4.960  -4.789  0.00  0.00     0.045 H 
ATOM     62  H   LIG d   1       8.481  -5.990  -5.940  0.00  0.00     0.045 H 
ENDBRANCH  46  49
ENDBRANCH  43  46
ENDBRANCH  40  43
ENDBRANCH   1  40
BRANCH   1  63
ATOM     63  C   LIG d   1       5.436  -2.864  -9.562  0.00  0.00     0.028 C 
ATOM     64  H   LIG d   1       6.159  -2.528 -10.307  0.00  0.00     0.048 H 
ATOM     65  H   LIG d   1       4.916  -3.748  -9.932  0.00  0.00     0.048 H 
BRANCH  63  66
ATOM     66  C   LIG d   1       4.437  -1.766  -9.300  0.00  0.00     0.012 A 
ATOM     67  C   LIG d   1       4.877  -0.497  -8.960  0.00  0.00     0.166 A 
ATOM     68  C   LIG d   1       3.952   0.516  -8.724  0.00  0.00     0.162 A 
ATOM     69  C   LIG d   1       2.596   0.247  -8.818  0.00  0.00    -0.016 A 
ATOM     70  C   LIG d   1       2.164  -1.023  -9.151  0.00  0.00    -0.058 A 
ATOM     71  H   LIG d   1       1.877   1.031  -8.632  0.00  0.00     0.066 H 
ATOM     72  C   LIG d   1       3.083  -2.028  -9.391  0.00  0.00    -0.054 A 
ATOM     73  H   LIG d   1       1.107  -1.231  -9.224  0.00  0.00     0.062 H 
ATOM     74  H   LIG d   1       2.742  -3.019  -9.652  0.00  0.00     0.062 H 
BRANCH  67  75
ATOM     75  O   LIG d   1       6.209  -0.241  -8.864  0.00  0.00    -0.491 OA
BRANCH  75  76
ATOM     76  C   LIG d   1       6.857   0.270 -10.030  0.00  0.00     0.079 C 
ATOM     77  H   LIG d   1       6.540   1.298 -10.201  0.00  0.00     0.066 H 
ATOM     78  H   LIG d   1       7.937   0.241  -9.888  0.00  0.00     0.066 H 
ATOM     79  H   LIG d   1       6.588  -0.341 -10.892  0.00  0.00     0.066 H 
ENDBRANCH  75  76
ENDBRANCH  67  75
BRANCH  68  80
ATOM     80  O   LIG d   1       4.379   1.765  -8.397  0.00  0.00    -0.491 OA
BRANCH  80  81
ATOM     81  C   LIG d   1       4.101   2.810  -9.332  0.00  0.00     0.079 C 
ATOM     82  H   LIG d   1       4.446   3.761  -8.927  0.00  0.00     0.066 H 
ATOM     83  H   LIG d   1       4.618   2.606 -10.270  0.00  0.00     0.066 H 
ATOM     84  H   LIG d   1       3.027   2.860  -9.513  0.00  0.00     0.066 H 
ENDBRANCH  80  81
ENDBRANCH  68  80
ENDBRANCH  63  66
ENDBRANCH   1  63
TORSDOF 13
ENDMDL
MODEL 3
REMARK VINA RESULT:      -6.5      1.988      2.815
REMARK  13 active torsions:
REMARK  status: ('A' for Active; 'I' for Inactive)
REMARK    1  A    between atoms: C_1  and  C_2 
REMARK    2  A    between atoms: C_19  and  C_21 
REMARK    3  A    between atoms: C_21  and  N_22 
REMARK    4  A    between atoms: N_22  and  C_23 
REMARK    5  A    between atoms: N_22  and  C_32 
REMARK    6  A    between atoms: C_23  and  C_24 
REMARK    7  A    between atoms: C_24  and  C_25 
REMARK    8  A    between atoms: C_25  and  N_26 
REMARK    9  A    between atoms: C_32  and  C_33 
REMARK   10  A    between atoms: C_37  and  O_41 
REMARK   11  A    between atoms: C_38  and  O_39 
REMARK   12  A    between atoms: O_39  and  C_40 
REMARK   13  A    between atoms: O_41  and  C_42 
ROOT
ATOM      1  N   LIG d   1       4.975  -3.545  -9.049  0.00  0.00    -0.297 N 
ENDROOT
BRANCH   1   2
ATOM      2  C   LIG d   1       5.338  -4.202  -7.787  0.00  0.00     0.013 C 
ATOM      3  H   LIG d   1       6.393  -4.024  -7.575  0.00  0.00     0.043 H 
ATOM      4  H   LIG d   1       5.161  -5.275  -7.873  0.00  0.00     0.043 H 
BRANCH   2   5
ATOM      5  C   LIG d   1       4.485  -3.633  -6.651  0.00  0.00     0.075 C 
ATOM      6  C   LIG d   1       5.159  -2.366  -6.044  0.00  0.00     0.011 C 
ATOM      7  C   LIG d   1       4.022  -1.442  -5.601  0.00  0.00    -0.039 C 
ATOM      8  H   LIG d   1       5.848  -1.879  -6.733  0.00  0.00     0.035 H 
ATOM      9  C   LIG d   1       5.872  -2.987  -4.828  0.00  0.00     0.107 C 
ATOM     10  C   LIG d   1       4.531  -0.413  -4.595  0.00  0.00    -0.014 C 
ATOM     11  H   LIG d   1       3.234  -2.036  -5.140  0.00  0.00     0.028 H 
ATOM     12  H   LIG d   1       3.620  -0.924  -6.472  0.00  0.00     0.028 H 
ATOM     13  C   LIG d   1       5.017  -1.165  -3.347  0.00  0.00    -0.022 C 
ATOM     14  C   LIG d   1       3.397   0.499  -4.187  0.00  0.00    -0.073 C 
ATOM     15  H   LIG d   1       5.349   0.165  -5.023  0.00  0.00     0.035 H 
ATOM     16  C   LIG d   1       6.224  -2.011  -3.751  0.00  0.00    -0.009 C 
ATOM     17  C   LIG d   1       5.398  -0.154  -2.267  0.00  0.00    -0.047 C 
ATOM     18  H   LIG d   1       7.012  -1.355  -4.121  0.00  0.00     0.031 H 
ATOM     19  H   LIG d   1       6.591  -2.549  -2.878  0.00  0.00     0.031 H 
ATOM     20  C   LIG d   1       4.158   0.632  -1.836  0.00  0.00    -0.049 C 
ATOM     21  H   LIG d   1       5.812  -0.681  -1.407  0.00  0.00     0.027 H 
ATOM     22  H   LIG d   1       6.145   0.535  -2.664  0.00  0.00     0.027 H 
ATOM     23  C   LIG d   1       3.623   1.439  -3.023  0.00  0.00    -0.032 C 
ATOM     24  H   LIG d   1       3.391  -0.061  -1.492  0.00  0.00     0.027 H 
ATOM     25  H   LIG d   1       4.424   1.311  -1.025  0.00  0.00     0.027 H 
ATOM     26  H   LIG d   1       2.681   1.913  -2.747  0.00  0.00     0.031 H 
ATOM     27  H   LIG d   1       4.349   2.202  -3.304  0.00  0.00     0.031 H 
ATOM     28  C   LIG d   1       2.252   0.476  -4.823  0.00  0.00    -0.099 C 
ATOM     29  H   LIG d   1       1.451   1.135  -4.518  0.00  0.00     0.053 H 
ATOM     30  H   LIG d   1       2.108  -0.201  -5.651  0.00  0.00     0.053 H 
ATOM     31  H   LIG d   1       6.786  -3.477  -5.166  0.00  0.00     0.074 H 
ATOM     32  O   LIG d   1       4.953  -3.985  -4.367  0.00  0.00    -0.461 OA
ATOM     33  C   LIG d   1       4.445  -4.603  -5.457  0.00  0.00     0.312 C 
ATOM     34  O   LIG d   1       4.026  -5.735  -5.489  0.00  0.00    -0.251 OA
ATOM     35  H   LIG d   1       3.481  -3.402  -7.005  0.00  0.00     0.043 H 
BRANCH  13  36
ATOM     36  C   LIG d   1       3.902  -2.076  -2.828  0.00  0.00    -0.059 C 
ATOM     37  H   LIG d   1       4.154  -2.426  -1.828  0.00  0.00     0.024 H 
ATOM     38  H   LIG d   1       2.966  -1.520  -2.794  0.00  0.00     0.024 H 
ATOM     39  H   LIG d   1       3.793  -2.931  -3.496  0.00  0.00     0.024 H 
ENDBRANCH  13  36
ENDBRANCH   2   5
ENDBRANCH   1   2
BRANCH   1  40
ATOM     40  C   LIG d   1       6.060  -3.660 -10.034  0.00  0.00     0.000 C 
ATOM     41  H   LIG d   1       6.716  -4.484  -9.757  0.00  0.00     0.043 H 
ATOM     42  H   LIG d   1       5.636  -3.849 -11.021  0.00  0.00     0.043 H 
BRANCH  40  43
ATOM     43  C   LIG d   1       6.860  -2.357 -10.065  0.00  0.00    -0.027 C 
ATOM     44  H   LIG d   1       6.980  -1.978  -9.051  0.00  0.00     0.029 H 
ATOM     45  H   LIG d   1       7.842  -2.544 -10.502  0.00  0.00     0.029 H 
BRANCH  43  46
ATOM     46  C   LIG d   1       6.116  -1.321 -10.912  0.00  0.00     0.000 C 
ATOM     47  H   LIG d   1       6.766  -0.976 -11.717  0.00  0.00     0.043 H 
ATOM     48  H   LIG d   1       5.221  -1.776 -11.337  0.00  0.00     0.043 H 
BRANCH  46  49
ATOM     49  N   LIG d   1       5.734  -0.182 -10.067  0.00  0.00    -0.298 N 
ATOM     50  C   LIG d   1       6.916   0.594  -9.662  0.00  0.00     0.022 C 
ATOM     51  C   LIG d   1       6.480   1.733  -8.737  0.00  0.00     0.060 C 
ATOM     52  H   LIG d   1       7.614  -0.057  -9.135  0.00  0.00     0.045 H 
ATOM     53  H   LIG d   1       7.401   1.007 -10.547  0.00  0.00     0.045 H 
ATOM     54  O   LIG d   1       5.508   2.539  -9.409  0.00  0.00    -0.377 OA
ATOM     55  H   LIG d   1       7.345   2.344  -8.481  0.00  0.00     0.057 H 
ATOM     56  H   LIG d   1       6.044   1.317  -7.830  0.00  0.00     0.057 H 
ATOM     57  C   LIG d   1       4.343   1.817  -9.817  0.00  0.00     0.060 C 
ATOM     58  C   LIG d   1       4.758   0.677 -10.753  0.00  0.00     0.022 C 
ATOM     59  H   LIG d   1       3.664   2.488 -10.340  0.00  0.00     0.057 H 
ATOM     60  H   LIG d   1       3.845   1.404  -8.940  0.00  0.00     0.057 H 
ATOM     61  H   LIG d   1       5.208   1.093 -11.655  0.00  0.00     0.045 H 
ATOM     62  H   LIG d   1       3.880   0.090 -11.021  0.00  0.00     0.045 H 
ENDBRANCH  46  49
ENDBRANCH  43  46
ENDBRANCH  40  43
ENDBRANCH   1  40
BRANCH   1  63
ATOM     63  C   LIG d   1       3.719  -4.087  -9.584  0.00  0.00     0.028 C 
ATOM     64  H   LIG d   1       3.937  -4.751 -10.420  0.00  0.00     0.048 H 
ATOM     65  H   LIG d   1       3.202  -4.643  -8.802  0.00  0.00     0.048 H 
BRANCH  63  66
ATOM     66  C   LIG d   1       2.843  -2.954 -10.057  0.00  0.00     0.012 A 
ATOM     67  C   LIG d   1       2.357  -2.951 -11.354  0.00  0.00     0.166 A 
ATOM     68  C   LIG d   1       1.544  -1.906 -11.786  0.00  0.00     0.162 A 
ATOM     69  C   LIG d   1       1.236  -0.870 -10.920  0.00  0.00    -0.016 A 
ATOM     70  C   LIG d   1       1.730  -0.876  -9.629  0.00  0.00    -0.058 A 
ATOM     71  H   LIG d   1       0.608  -0.057 -11.254  0.00  0.00     0.066 H 
ATOM     72  C   LIG d   1       2.532  -1.916  -9.198  0.00  0.00    -0.054 A 
ATOM     73  H   LIG d   1       1.489  -0.068  -8.955  0.00  0.00     0.062 H 
ATOM     74  H   LIG d   1       2.916  -1.919  -8.188  0.00  0.00     0.062 H 
BRANCH  67  75
ATOM     75  O   LIG d   1       2.668  -3.968 -12.201  0.00  0.00    -0.491 OA
BRANCH  75  76
ATOM     76  C   LIG d   1       3.786  -3.770 -13.069  0.00  0.00     0.079 C 
ATOM     77  H   LIG d   1       3.628  -4.322 -13.995  0.00  0.00     0.066 H 
ATOM     78  H   LIG d   1       3.890  -2.708 -13.291  0.00  0.00     0.066 H 
ATOM     79  H   LIG d   1       4.692  -4.130 -12.582  0.00  0.00     0.066 H 
ENDBRANCH  75  76
ENDBRANCH  67  75
BRANCH  68  80
ATOM     80  O   LIG d   1       1.059  -1.902 -13.056  0.00  0.00    -0.491 OA
BRANCH  80  81
ATOM     81  C   LIG d   1      -0.306  -2.289 -13.229  0.00  0.00     0.079 C 
ATOM     82  H   LIG d   1      -0.359  -3.145 -13.902  0.00  0.00     0.066 H 
ATOM     83  H   LIG d   1      -0.734  -2.558 -12.264  0.00  0.00     0.066 H 
ATOM     84  H   LIG d   1      -0.868  -1.457 -13.656  0.00  0.00     0.066 H 
ENDBRANCH  80  81
ENDBRANCH  68  80
ENDBRANCH  63  66
ENDBRANCH   1  63
TORSDOF 13
ENDMDL
MODEL 4
REMARK VINA RESULT:      -6.3      5.403      8.009
REMARK  13 active torsions:
REMARK  status: ('A' for Active; 'I' for Inactive)
REMARK    1  A    between atoms: C_1  and  C_2 
REMARK    2  A    between atoms: C_19  and  C_21 
REMARK    3  A    between atoms: C_21  and  N_22 
REMARK    4  A    between atoms: N_22  and  C_23 
REMARK    5  A    between atoms: N_22  and  C_32 
REMARK    6  A    between atoms: C_23  and  C_24 
REMARK    7  A    between atoms: C_24  and  C_25 
REMARK    8  A    between atoms: C_25  and  N_26 
REMARK    9  A    between atoms: C_32  and  C_33 
REMARK   10  A    between atoms: C_37  and  O_41 
REMARK   11  A    between atoms: C_38  and  O_39 
REMARK   12  A    between atoms: O_39  and  C_40 
REMARK   13  A    between atoms: O_41  and  C_42 
ROOT
ATOM      1  N   LIG d   1       9.813   4.246  -4.199  0.00  0.00    -0.297 N 
ENDROOT
BRANCH   1   2
ATOM      2  C   LIG d   1       9.807   2.899  -4.784  0.00  0.00     0.013 C 
ATOM      3  H   LIG d   1      10.376   2.224  -4.145  0.00  0.00     0.043 H 
ATOM      4  H   LIG d   1      10.263   2.932  -5.774  0.00  0.00     0.043 H 
BRANCH   2   5
ATOM      5  C   LIG d   1       8.366   2.399  -4.901  0.00  0.00     0.075 C 
ATOM      6  C   LIG d   1       8.120   1.208  -3.928  0.00  0.00     0.011 C 
ATOM      7  C   LIG d   1       6.660   1.312  -3.477  0.00  0.00    -0.039 C 
ATOM      8  H   LIG d   1       8.815   1.194  -3.088  0.00  0.00     0.035 H 
ATOM      9  C   LIG d   1       8.319   0.020  -4.887  0.00  0.00     0.107 C 
ATOM     10  C   LIG d   1       6.179  -0.022  -2.913  0.00  0.00    -0.014 C 
ATOM     11  H   LIG d   1       6.040   1.586  -4.329  0.00  0.00     0.028 H 
ATOM     12  H   LIG d   1       6.575   2.079  -2.708  0.00  0.00     0.028 H 
ATOM     13  C   LIG d   1       6.234  -1.065  -4.039  0.00  0.00    -0.022 C 
ATOM     14  C   LIG d   1       4.744   0.110  -2.458  0.00  0.00    -0.073 C 
ATOM     15  H   LIG d   1       6.814  -0.335  -2.084  0.00  0.00     0.035 H 
ATOM     16  C   LIG d   1       7.700  -1.261  -4.425  0.00  0.00    -0.009 C 
ATOM     17  C   LIG d   1       5.623  -2.374  -3.542  0.00  0.00    -0.047 C 
ATOM     18  H   LIG d   1       8.252  -1.620  -3.557  0.00  0.00     0.031 H 
ATOM     19  H   LIG d   1       7.764  -2.003  -5.219  0.00  0.00     0.031 H 
ATOM     20  C   LIG d   1       4.140  -2.164  -3.227  0.00  0.00    -0.049 C 
ATOM     21  H   LIG d   1       5.726  -3.137  -4.314  0.00  0.00     0.027 H 
ATOM     22  H   LIG d   1       6.144  -2.697  -2.640  0.00  0.00     0.027 H 
ATOM     23  C   LIG d   1       3.996  -1.153  -2.086  0.00  0.00    -0.032 C 
ATOM     24  H   LIG d   1       3.631  -1.788  -4.113  0.00  0.00     0.027 H 
ATOM     25  H   LIG d   1       3.695  -3.114  -2.928  0.00  0.00     0.027 H 
ATOM     26  H   LIG d   1       2.942  -0.922  -1.933  0.00  0.00     0.031 H 
ATOM     27  H   LIG d   1       4.417  -1.570  -1.171  0.00  0.00     0.031 H 
ATOM     28  C   LIG d   1       4.163   1.282  -2.389  0.00  0.00    -0.099 C 
ATOM     29  H   LIG d   1       3.136   1.359  -2.062  0.00  0.00     0.053 H 
ATOM     30  H   LIG d   1       4.712   2.173  -2.659  0.00  0.00     0.053 H 
ATOM     31  H   LIG d   1       9.388  -0.142  -5.031  0.00  0.00     0.074 H 
ATOM     32  O   LIG d   1       7.748   0.477  -6.119  0.00  0.00    -0.461 OA
ATOM     33  C   LIG d   1       8.116   1.767  -6.282  0.00  0.00     0.312 C 
ATOM     34  O   LIG d   1       8.229   2.336  -7.342  0.00  0.00    -0.251 OA
ATOM     35  H   LIG d   1       7.662   3.208  -4.705  0.00  0.00     0.043 H 
BRANCH  13  36
ATOM     36  C   LIG d   1       5.448  -0.557  -5.250  0.00  0.00    -0.059 C 
ATOM     37  H   LIG d   1       5.729  -1.131  -6.132  0.00  0.00     0.024 H 
ATOM     38  H   LIG d   1       4.380  -0.674  -5.065  0.00  0.00     0.024 H 
ATOM     39  H   LIG d   1       5.675   0.496  -5.414  0.00  0.00     0.024 H 
ENDBRANCH  13  36
ENDBRANCH   2   5
ENDBRANCH   1   2
BRANCH   1  40
ATOM     40  C   LIG d   1       9.932   4.185  -2.736  0.00  0.00     0.000 C 
ATOM     41  H   LIG d   1       8.995   4.507  -2.281  0.00  0.00     0.043 H 
ATOM     42  H   LIG d   1      10.150   3.160  -2.432  0.00  0.00     0.043 H 
BRANCH  40  43
ATOM     43  C   LIG d   1      11.065   5.104  -2.277  0.00  0.00    -0.027 C 
ATOM     44  H   LIG d   1      11.987   4.529  -2.190  0.00  0.00     0.029 H 
ATOM     45  H   LIG d   1      11.203   5.902  -3.007  0.00  0.00     0.029 H 
BRANCH  43  46
ATOM     46  C   LIG d   1      10.711   5.712  -0.918  0.00  0.00     0.000 C 
ATOM     47  H   LIG d   1       9.717   5.378  -0.619  0.00  0.00     0.043 H 
ATOM     48  H   LIG d   1      11.442   5.390  -0.176  0.00  0.00     0.043 H 
BRANCH  46  49
ATOM     49  N   LIG d   1      10.726   7.177  -1.019  0.00  0.00    -0.298 N 
ATOM     50  C   LIG d   1      11.673   7.625  -2.051  0.00  0.00     0.022 C 
ATOM     51  C   LIG d   1      11.700   9.156  -2.081  0.00  0.00     0.060 C 
ATOM     52  H   LIG d   1      12.669   7.247  -1.818  0.00  0.00     0.045 H 
ATOM     53  H   LIG d   1      11.358   7.247  -3.023  0.00  0.00     0.045 H 
ATOM     54  O   LIG d   1      10.377   9.646  -2.312  0.00  0.00    -0.377 OA
ATOM     55  H   LIG d   1      12.358   9.491  -2.883  0.00  0.00     0.057 H 
ATOM     56  H   LIG d   1      12.067   9.531  -1.126  0.00  0.00     0.057 H 
ATOM     57  C   LIG d   1       9.428   9.230  -1.326  0.00  0.00     0.060 C 
ATOM     58  C   LIG d   1       9.378   7.699  -1.287  0.00  0.00     0.022 C 
ATOM     59  H   LIG d   1       8.444   9.620  -1.581  0.00  0.00     0.057 H 
ATOM     60  H   LIG d   1       9.729   9.608  -0.349  0.00  0.00     0.057 H 
ATOM     61  H   LIG d   1       9.026   7.323  -2.248  0.00  0.00     0.045 H 
ATOM     62  H   LIG d   1       8.699   7.378  -0.499  0.00  0.00     0.045 H 
ENDBRANCH  46  49
ENDBRANCH  43  46
ENDBRANCH  40  43
ENDBRANCH   1  40
BRANCH   1  63
ATOM     63  C   LIG d   1      10.882   5.070  -4.781  0.00  0.00     0.028 C 
ATOM     64  H   LIG d   1      11.414   5.589  -3.983  0.00  0.00     0.048 H 
ATOM     65  H   LIG d   1      11.576   4.430  -5.326  0.00  0.00     0.048 H 
BRANCH  63  66
ATOM     66  C   LIG d   1      10.282   6.080  -5.725  0.00  0.00     0.012 A 
ATOM     67  C   LIG d   1      10.271   5.833  -7.088  0.00  0.00     0.166 A 
ATOM     68  C   LIG d   1       9.710   6.765  -7.956  0.00  0.00     0.162 A 
ATOM     69  C   LIG d   1       9.177   7.941  -7.454  0.00  0.00    -0.016 A 
ATOM     70  C   LIG d   1       9.197   8.184  -6.094  0.00  0.00    -0.058 A 
ATOM     71  H   LIG d   1       8.744   8.667  -8.127  0.00  0.00     0.066 H 
ATOM     72  C   LIG d   1       9.748   7.256  -5.231  0.00  0.00    -0.054 A 
ATOM     73  H   LIG d   1       8.781   9.101  -5.704  0.00  0.00     0.062 H 
ATOM     74  H   LIG d   1       9.761   7.448  -4.168  0.00  0.00     0.062 H 
BRANCH  67  75
ATOM     75  O   LIG d   1      10.801   4.679  -7.575  0.00  0.00    -0.491 OA
BRANCH  75  76
ATOM     76  C   LIG d   1      12.148   4.733  -8.046  0.00  0.00     0.079 C 
ATOM     77  H   LIG d   1      12.621   5.649  -7.692  0.00  0.00     0.066 H 
ATOM     78  H   LIG d   1      12.700   3.871  -7.672  0.00  0.00     0.066 H 
ATOM     79  H   LIG d   1      12.153   4.721  -9.136  0.00  0.00     0.066 H 
ENDBRANCH  75  76
ENDBRANCH  67  75
BRANCH  68  80
ATOM     80  O   LIG d   1       9.691   6.523  -9.294  0.00  0.00    -0.491 OA
BRANCH  80  81
ATOM     81  C   LIG d   1       8.491   5.965  -9.835  0.00  0.00     0.079 C 
ATOM     82  H   LIG d   1       7.707   5.988  -9.080  0.00  0.00     0.066 H 
ATOM     83  H   LIG d   1       8.178   6.547 -10.702  0.00  0.00     0.066 H 
ATOM     84  H   LIG d   1       8.675   4.933 -10.137  0.00  0.00     0.066 H 
ENDBRANCH  80  81
ENDBRANCH  68  80
ENDBRANCH  63  66
ENDBRANCH   1  63
TORSDOF 13
ENDMDL
MODEL 5
REMARK VINA RESULT:      -6.2      5.701      8.324
REMARK  13 active torsions:
REMARK  status: ('A' for Active; 'I' for Inactive)
REMARK    1  A    between atoms: C_1  and  C_2 
REMARK    2  A    between atoms: C_19  and  C_21 
REMARK    3  A    between atoms: C_21  and  N_22 
REMARK    4  A    between atoms: N_22  and  C_23 
REMARK    5  A    between atoms: N_22  and  C_32 
REMARK    6  A    between atoms: C_23  and  C_24 
REMARK    7  A    between atoms: C_24  and  C_25 
REMARK    8  A    between atoms: C_25  and  N_26 
REMARK    9  A    between atoms: C_32  and  C_33 
REMARK   10  A    between atoms: C_37  and  O_41 
REMARK   11  A    between atoms: C_38  and  O_39 
REMARK   12  A    between atoms: O_39  and  C_40 
REMARK   13  A    between atoms: O_41  and  C_42 
ROOT
ATOM      1  N   LIG d   1       9.981   4.057  -4.504  0.00  0.00    -0.297 N 
ENDROOT
BRANCH   1   2
ATOM      2  C   LIG d   1       9.883   2.704  -5.068  0.00  0.00     0.013 C 
ATOM      3  H   LIG d   1      10.472   2.015  -4.461  0.00  0.00     0.043 H 
ATOM      4  H   LIG d   1      10.268   2.708  -6.089  0.00  0.00     0.043 H 
BRANCH   2   5
ATOM      5  C   LIG d   1       8.420   2.258  -5.075  0.00  0.00     0.075 C 
ATOM      6  C   LIG d   1       8.210   1.058  -4.103  0.00  0.00     0.011 C 
ATOM      7  C   LIG d   1       6.796   1.205  -3.534  0.00  0.00    -0.039 C 
ATOM      8  H   LIG d   1       8.970   1.004  -3.324  0.00  0.00     0.035 H 
ATOM      9  C   LIG d   1       8.287  -0.119  -5.094  0.00  0.00     0.107 C 
ATOM     10  C   LIG d   1       6.314  -0.121  -2.953  0.00  0.00    -0.014 C 
ATOM     11  H   LIG d   1       6.119   1.517  -4.328  0.00  0.00     0.028 H 
ATOM     12  H   LIG d   1       6.802   1.960  -2.748  0.00  0.00     0.028 H 
ATOM     13  C   LIG d   1       6.238  -1.145  -4.095  0.00  0.00    -0.022 C 
ATOM     14  C   LIG d   1       4.926   0.053  -2.380  0.00  0.00    -0.073 C 
ATOM     15  H   LIG d   1       7.002  -0.472  -2.183  0.00  0.00     0.035 H 
ATOM     16  C   LIG d   1       7.660  -1.385  -4.603  0.00  0.00    -0.009 C 
ATOM     17  C   LIG d   1       5.622  -2.440  -3.570  0.00  0.00    -0.047 C 
ATOM     18  H   LIG d   1       8.268  -1.779  -3.788  0.00  0.00     0.031 H 
ATOM     19  H   LIG d   1       7.632  -2.114  -5.411  0.00  0.00     0.031 H 
ATOM     20  C   LIG d   1       4.179  -2.184  -3.132  0.00  0.00    -0.049 C 
ATOM     21  H   LIG d   1       5.634  -3.192  -4.360  0.00  0.00     0.027 H 
ATOM     22  H   LIG d   1       6.203  -2.798  -2.719  0.00  0.00     0.027 H 
ATOM     23  C   LIG d   1       4.165  -1.189  -1.967  0.00  0.00    -0.032 C 
ATOM     24  H   LIG d   1       3.614  -1.773  -3.968  0.00  0.00     0.027 H 
ATOM     25  H   LIG d   1       3.725  -3.122  -2.813  0.00  0.00     0.027 H 
ATOM     26  H   LIG d   1       3.136  -0.923  -1.726  0.00  0.00     0.031 H 
ATOM     27  H   LIG d   1       4.643  -1.638  -1.097  0.00  0.00     0.031 H 
ATOM     28  C   LIG d   1       4.397   1.244  -2.246  0.00  0.00    -0.099 C 
ATOM     29  H   LIG d   1       3.403   1.351  -1.835  0.00  0.00     0.053 H 
ATOM     30  H   LIG d   1       4.954   2.119  -2.545  0.00  0.00     0.053 H 
ATOM     31  H   LIG d   1       9.334  -0.316  -5.327  0.00  0.00     0.074 H 
ATOM     32  O   LIG d   1       7.635   0.381  -6.268  0.00  0.00    -0.461 OA
ATOM     33  C   LIG d   1       8.035   1.661  -6.441  0.00  0.00     0.312 C 
ATOM     34  O   LIG d   1       8.084   2.244  -7.497  0.00  0.00    -0.251 OA
ATOM     35  H   LIG d   1       7.765   3.087  -4.809  0.00  0.00     0.043 H 
BRANCH  13  36
ATOM     36  C   LIG d   1       5.376  -0.587  -5.230  0.00  0.00    -0.059 C 
ATOM     37  H   LIG d   1       6.017  -0.128  -5.982  0.00  0.00     0.024 H 
ATOM     38  H   LIG d   1       4.806  -1.397  -5.684  0.00  0.00     0.024 H 
ATOM     39  H   LIG d   1       4.691   0.161  -4.830  0.00  0.00     0.024 H 
ENDBRANCH  13  36
ENDBRANCH   2   5
ENDBRANCH   1   2
BRANCH   1  40
ATOM     40  C   LIG d   1      10.211   4.008  -3.054  0.00  0.00     0.000 C 
ATOM     41  H   LIG d   1       9.607   3.214  -2.617  0.00  0.00     0.043 H 
ATOM     42  H   LIG d   1      11.267   3.810  -2.861  0.00  0.00     0.043 H 
BRANCH  40  43
ATOM     43  C   LIG d   1       9.822   5.349  -2.430  0.00  0.00    -0.027 C 
ATOM     44  H   LIG d   1       9.970   6.146  -3.159  0.00  0.00     0.029 H 
ATOM     45  H   LIG d   1       8.774   5.319  -2.131  0.00  0.00     0.029 H 
BRANCH  43  46
ATOM     46  C   LIG d   1      10.696   5.613  -1.202  0.00  0.00     0.000 C 
ATOM     47  H   LIG d   1      10.462   4.883  -0.426  0.00  0.00     0.043 H 
ATOM     48  H   LIG d   1      11.747   5.525  -1.478  0.00  0.00     0.043 H 
BRANCH  46  49
ATOM     49  N   LIG d   1      10.433   6.966  -0.696  0.00  0.00    -0.298 N 
ATOM     50  C   LIG d   1      11.635   7.808  -0.793  0.00  0.00     0.022 C 
ATOM     51  C   LIG d   1      11.334   9.188  -0.201  0.00  0.00     0.060 C 
ATOM     52  H   LIG d   1      12.450   7.343  -0.237  0.00  0.00     0.045 H 
ATOM     53  H   LIG d   1      11.921   7.915  -1.839  0.00  0.00     0.045 H 
ATOM     54  O   LIG d   1      10.217   9.760  -0.885  0.00  0.00    -0.377 OA
ATOM     55  H   LIG d   1      12.205   9.833  -0.323  0.00  0.00     0.057 H 
ATOM     56  H   LIG d   1      11.101   9.086   0.858  0.00  0.00     0.057 H 
ATOM     57  C   LIG d   1       9.028   8.967  -0.811  0.00  0.00     0.060 C 
ATOM     58  C   LIG d   1       9.306   7.585  -1.408  0.00  0.00     0.022 C 
ATOM     59  H   LIG d   1       8.231   9.453  -1.372  0.00  0.00     0.057 H 
ATOM     60  H   LIG d   1       8.727   8.859   0.232  0.00  0.00     0.057 H 
ATOM     61  H   LIG d   1       9.554   7.689  -2.464  0.00  0.00     0.045 H 
ATOM     62  H   LIG d   1       8.420   6.959  -1.301  0.00  0.00     0.045 H 
ENDBRANCH  46  49
ENDBRANCH  43  46
ENDBRANCH  40  43
ENDBRANCH   1  40
BRANCH   1  63
ATOM     63  C   LIG d   1      11.029   4.835  -5.179  0.00  0.00     0.028 C 
ATOM     64  H   LIG d   1      11.545   5.457  -4.448  0.00  0.00     0.048 H 
ATOM     65  H   LIG d   1      11.741   4.155  -5.647  0.00  0.00     0.048 H 
BRANCH  63  66
ATOM     66  C   LIG d   1      10.404   5.712  -6.234  0.00  0.00     0.012 A 
ATOM     67  C   LIG d   1      10.117   7.038  -5.951  0.00  0.00     0.166 A 
ATOM     68  C   LIG d   1       9.546   7.847  -6.930  0.00  0.00     0.162 A 
ATOM     69  C   LIG d   1       9.255   7.318  -8.176  0.00  0.00    -0.016 A 
ATOM     70  C   LIG d   1       9.537   5.993  -8.450  0.00  0.00    -0.058 A 
ATOM     71  H   LIG d   1       8.808   7.944  -8.936  0.00  0.00     0.066 H 
ATOM     72  C   LIG d   1      10.110   5.192  -7.480  0.00  0.00    -0.054 A 
ATOM     73  H   LIG d   1       9.309   5.583  -9.422  0.00  0.00     0.062 H 
ATOM     74  H   LIG d   1      10.330   4.156  -7.697  0.00  0.00     0.062 H 
BRANCH  67  75
ATOM     75  O   LIG d   1      10.400   7.549  -4.723  0.00  0.00    -0.491 OA
BRANCH  75  76
ATOM     76  C   LIG d   1      11.676   8.169  -4.557  0.00  0.00     0.079 C 
ATOM     77  H   LIG d   1      12.248   7.627  -3.804  0.00  0.00     0.066 H 
ATOM     78  H   LIG d   1      12.214   8.153  -5.505  0.00  0.00     0.066 H 
ATOM     79  H   LIG d   1      11.539   9.202  -4.235  0.00  0.00     0.066 H 
ENDBRANCH  75  76
ENDBRANCH  67  75
BRANCH  68  80
ATOM     80  O   LIG d   1       9.269   9.150  -6.659  0.00  0.00    -0.491 OA
BRANCH  80  81
ATOM     81  C   LIG d   1      10.040  10.134  -7.353  0.00  0.00     0.079 C 
ATOM     82  H   LIG d   1       9.371  10.831  -7.856  0.00  0.00     0.066 H 
ATOM     83  H   LIG d   1      10.663  10.676  -6.642  0.00  0.00     0.066 H 
ATOM     84  H   LIG d   1      10.675   9.643  -8.091  0.00  0.00     0.066 H 
ENDBRANCH  80  81
ENDBRANCH  68  80
ENDBRANCH  63  66
ENDBRANCH   1  63
TORSDOF 13
ENDMDL
MODEL 6
REMARK VINA RESULT:      -6.0      4.702      7.768
REMARK  13 active torsions:
REMARK  status: ('A' for Active; 'I' for Inactive)
REMARK    1  A    between atoms: C_1  and  C_2 
REMARK    2  A    between atoms: C_19  and  C_21 
REMARK    3  A    between atoms: C_21  and  N_22 
REMARK    4  A    between atoms: N_22  and  C_23 
REMARK    5  A    between atoms: N_22  and  C_32 
REMARK    6  A    between atoms: C_23  and  C_24 
REMARK    7  A    between atoms: C_24  and  C_25 
REMARK    8  A    between atoms: C_25  and  N_26 
REMARK    9  A    between atoms: C_32  and  C_33 
REMARK   10  A    between atoms: C_37  and  O_41 
REMARK   11  A    between atoms: C_38  and  O_39 
REMARK   12  A    between atoms: O_39  and  C_40 
REMARK   13  A    between atoms: O_41  and  C_42 
ROOT
ATOM      1  N   LIG d   1      10.333   3.102  -5.563  0.00  0.00    -0.297 N 
ENDROOT
BRANCH   1   2
ATOM      2  C   LIG d   1       9.900   1.746  -5.924  0.00  0.00     0.013 C 
ATOM      3  H   LIG d   1      10.460   1.017  -5.337  0.00  0.00     0.043 H 
ATOM      4  H   LIG d   1      10.085   1.576  -6.985  0.00  0.00     0.043 H 
BRANCH   2   5
ATOM      5  C   LIG d   1       8.405   1.594  -5.635  0.00  0.00     0.075 C 
ATOM      6  C   LIG d   1       8.151   0.382  -4.688  0.00  0.00     0.011 C 
ATOM      7  C   LIG d   1       6.943   0.754  -3.824  0.00  0.00    -0.039 C 
ATOM      8  H   LIG d   1       9.025   0.119  -4.092  0.00  0.00     0.035 H 
ATOM      9  C   LIG d   1       7.782  -0.702  -5.717  0.00  0.00     0.107 C 
ATOM     10  C   LIG d   1       6.324  -0.496  -3.205  0.00  0.00    -0.014 C 
ATOM     11  H   LIG d   1       6.200   1.255  -4.442  0.00  0.00     0.028 H 
ATOM     12  H   LIG d   1       7.263   1.427  -3.029  0.00  0.00     0.028 H 
ATOM     13  C   LIG d   1       5.810  -1.389  -4.344  0.00  0.00    -0.022 C 
ATOM     14  C   LIG d   1       5.147  -0.103  -2.343  0.00  0.00    -0.073 C 
ATOM     15  H   LIG d   1       7.065  -1.035  -2.615  0.00  0.00     0.035 H 
ATOM     16  C   LIG d   1       7.020  -1.858  -5.153  0.00  0.00    -0.009 C 
ATOM     17  C   LIG d   1       5.058  -2.579  -3.751  0.00  0.00    -0.047 C 
ATOM     18  H   LIG d   1       7.684  -2.428  -4.503  0.00  0.00     0.031 H 
ATOM     19  H   LIG d   1       6.679  -2.501  -5.964  0.00  0.00     0.031 H 
ATOM     20  C   LIG d   1       3.818  -2.084  -3.004  0.00  0.00    -0.049 C 
ATOM     21  H   LIG d   1       4.756  -3.252  -4.553  0.00  0.00     0.027 H 
ATOM     22  H   LIG d   1       5.712  -3.111  -3.058  0.00  0.00     0.027 H 
ATOM     23  C   LIG d   1       4.245  -1.204  -1.825  0.00  0.00    -0.032 C 
ATOM     24  H   LIG d   1       3.193  -1.505  -3.683  0.00  0.00     0.027 H 
ATOM     25  H   LIG d   1       3.254  -2.940  -2.632  0.00  0.00     0.027 H 
ATOM     26  H   LIG d   1       3.363  -0.764  -1.360  0.00  0.00     0.031 H 
ATOM     27  H   LIG d   1       4.785  -1.806  -1.095  0.00  0.00     0.031 H 
ATOM     28  C   LIG d   1       4.913   1.152  -2.052  0.00  0.00    -0.099 C 
ATOM     29  H   LIG d   1       4.067   1.416  -1.435  0.00  0.00     0.053 H 
ATOM     30  H   LIG d   1       5.567   1.924  -2.430  0.00  0.00     0.053 H 
ATOM     31  H   LIG d   1       8.697  -1.079  -6.176  0.00  0.00     0.074 H 
ATOM     32  O   LIG d   1       7.025   0.008  -6.704  0.00  0.00    -0.461 OA
ATOM     33  C   LIG d   1       7.638   1.196  -6.909  0.00  0.00     0.312 C 
ATOM     34  O   LIG d   1       7.592   1.842  -7.928  0.00  0.00    -0.251 OA
ATOM     35  H   LIG d   1       8.002   2.510  -5.203  0.00  0.00     0.043 H 
BRANCH  13  36
ATOM     36  C   LIG d   1       4.871  -0.585  -5.246  0.00  0.00    -0.059 C 
ATOM     37  H   LIG d   1       4.508  -1.220  -6.052  0.00  0.00     0.024 H 
ATOM     38  H   LIG d   1       4.027  -0.223  -4.659  0.00  0.00     0.024 H 
ATOM     39  H   LIG d   1       5.412   0.263  -5.667  0.00  0.00     0.024 H 
ENDBRANCH  13  36
ENDBRANCH   2   5
ENDBRANCH   1   2
BRANCH   1  40
ATOM     40  C   LIG d   1      10.896   3.802  -6.725  0.00  0.00     0.000 C 
ATOM     41  H   LIG d   1      11.624   4.540  -6.388  0.00  0.00     0.043 H 
ATOM     42  H   LIG d   1      11.387   3.081  -7.381  0.00  0.00     0.043 H 
BRANCH  40  43
ATOM     43  C   LIG d   1       9.774   4.504  -7.491  0.00  0.00    -0.027 C 
ATOM     44  H   LIG d   1       8.811   4.108  -7.170  0.00  0.00     0.029 H 
ATOM     45  H   LIG d   1       9.812   5.575  -7.291  0.00  0.00     0.029 H 
BRANCH  43  46
ATOM     46  C   LIG d   1       9.950   4.260  -8.992  0.00  0.00     0.000 C 
ATOM     47  H   LIG d   1      10.987   3.991  -9.197  0.00  0.00     0.043 H 
ATOM     48  H   LIG d   1       9.295   3.448  -9.307  0.00  0.00     0.043 H 
BRANCH  46  49
ATOM     49  N   LIG d   1       9.607   5.483  -9.730  0.00  0.00    -0.298 N 
ATOM     50  C   LIG d   1      10.423   6.619  -9.276  0.00  0.00     0.022 C 
ATOM     51  C   LIG d   1       9.991   7.882 -10.027  0.00  0.00     0.060 C 
ATOM     52  H   LIG d   1      10.279   6.765  -8.205  0.00  0.00     0.045 H 
ATOM     53  H   LIG d   1      11.474   6.416  -9.479  0.00  0.00     0.045 H 
ATOM     54  O   LIG d   1      10.111   7.657 -11.434  0.00  0.00    -0.377 OA
ATOM     55  H   LIG d   1      10.632   8.714  -9.736  0.00  0.00     0.057 H 
ATOM     56  H   LIG d   1       8.956   8.114  -9.782  0.00  0.00     0.057 H 
ATOM     57  C   LIG d   1       9.330   6.558 -11.911  0.00  0.00     0.060 C 
ATOM     58  C   LIG d   1       9.753   5.282 -11.178  0.00  0.00     0.022 C 
ATOM     59  H   LIG d   1       9.490   6.435 -12.981  0.00  0.00     0.057 H 
ATOM     60  H   LIG d   1       8.274   6.753 -11.721  0.00  0.00     0.057 H 
ATOM     61  H   LIG d   1      10.795   5.058 -11.412  0.00  0.00     0.045 H 
ATOM     62  H   LIG d   1       9.122   4.454 -11.497  0.00  0.00     0.045 H 
ENDBRANCH  46  49
ENDBRANCH  43  46
ENDBRANCH  40  43
ENDBRANCH   1  40
BRANCH   1  63
ATOM     63  C   LIG d   1       9.228   3.868  -4.971  0.00  0.00     0.028 C 
ATOM     64  H   LIG d   1       8.849   4.582  -5.703  0.00  0.00     0.048 H 
ATOM     65  H   LIG d   1       8.429   3.187  -4.679  0.00  0.00     0.048 H 
BRANCH  63  66
ATOM     66  C   LIG d   1       9.725   4.610  -3.756  0.00  0.00     0.012 A 
ATOM     67  C   LIG d   1       9.502   5.972  -3.637  0.00  0.00     0.166 A 
ATOM     68  C   LIG d   1       9.956   6.653  -2.511  0.00  0.00     0.162 A 
ATOM     69  C   LIG d   1      10.640   5.967  -1.521  0.00  0.00    -0.016 A 
ATOM     70  C   LIG d   1      10.865   4.609  -1.649  0.00  0.00    -0.058 A 
ATOM     71  H   LIG d   1      10.997   6.494  -0.648  0.00  0.00     0.066 H 
ATOM     72  C   LIG d   1      10.408   3.932  -2.764  0.00  0.00    -0.054 A 
ATOM     73  H   LIG d   1      11.398   4.076  -0.876  0.00  0.00     0.062 H 
ATOM     74  H   LIG d   1      10.585   2.870  -2.860  0.00  0.00     0.062 H 
BRANCH  67  75
ATOM     75  O   LIG d   1       8.835   6.641  -4.616  0.00  0.00    -0.491 OA
BRANCH  75  76
ATOM     76  C   LIG d   1       9.616   7.454  -5.494  0.00  0.00     0.079 C 
ATOM     77  H   LIG d   1       8.969   7.893  -6.253  0.00  0.00     0.066 H 
ATOM     78  H   LIG d   1      10.098   8.247  -4.922  0.00  0.00     0.066 H 
ATOM     79  H   LIG d   1      10.377   6.840  -5.976  0.00  0.00     0.066 H 
ENDBRANCH  75  76
ENDBRANCH  67  75
BRANCH  68  80
ATOM     80  O   LIG d   1       9.734   7.989  -2.388  0.00  0.00    -0.491 OA
BRANCH  80  81
ATOM     81  C   LIG d   1      10.880   8.819  -2.185  0.00  0.00     0.079 C 
ATOM     82  H   LIG d   1      10.600   9.864  -2.318  0.00  0.00     0.066 H 
ATOM     83  H   LIG d   1      11.263   8.671  -1.176  0.00  0.00     0.066 H 
ATOM     84  H   LIG d   1      11.652   8.556  -2.909  0.00  0.00     0.066 H 
ENDBRANCH  80  81
ENDBRANCH  68  80
ENDBRANCH  63  66
ENDBRANCH   1  63
TORSDOF 13
ENDMDL
MODEL 7
REMARK VINA RESULT:      -6.0      2.039      3.037
REMARK  13 active torsions:
REMARK  status: ('A' for Active; 'I' for Inactive)
REMARK    1  A    between atoms: C_1  and  C_2 
REMARK    2  A    between atoms: C_19  and  C_21 
REMARK    3  A    between atoms: C_21  and  N_22 
REMARK    4  A    between atoms: N_22  and  C_23 
REMARK    5  A    between atoms: N_22  and  C_32 
REMARK    6  A    between atoms: C_23  and  C_24 
REMARK    7  A    between atoms: C_24  and  C_25 
REMARK    8  A    between atoms: C_25  and  N_26 
REMARK    9  A    between atoms: C_32  and  C_33 
REMARK   10  A    between atoms: C_37  and  O_41 
REMARK   11  A    between atoms: C_38  and  O_39 
REMARK   12  A    between atoms: O_39  and  C_40 
REMARK   13  A    between atoms: O_41  and  C_42 
ROOT
ATOM      1  N   LIG d   1       7.603   0.223  -9.001  0.00  0.00    -0.297 N 
ENDROOT
BRANCH   1   2
ATOM      2  C   LIG d   1       7.587  -1.231  -8.796  0.00  0.00     0.013 C 
ATOM      3  H   LIG d   1       8.508  -1.538  -8.300  0.00  0.00     0.043 H 
ATOM      4  H   LIG d   1       7.510  -1.733  -9.762  0.00  0.00     0.043 H 
BRANCH   2   5
ATOM      5  C   LIG d   1       6.387  -1.611  -7.926  0.00  0.00     0.075 C 
ATOM      6  C   LIG d   1       6.453  -0.875  -6.553  0.00  0.00     0.011 C 
ATOM      7  C   LIG d   1       5.004  -0.607  -6.137  0.00  0.00    -0.039 C 
ATOM      8  H   LIG d   1       7.052   0.034  -6.586  0.00  0.00     0.035 H 
ATOM      9  C   LIG d   1       7.084  -1.975  -5.680  0.00  0.00     0.107 C 
ATOM     10  C   LIG d   1       4.922  -0.326  -4.639  0.00  0.00    -0.014 C 
ATOM     11  H   LIG d   1       4.395  -1.478  -6.372  0.00  0.00     0.028 H 
ATOM     12  H   LIG d   1       4.626   0.255  -6.685  0.00  0.00     0.028 H 
ATOM     13  C   LIG d   1       5.384  -1.584  -3.890  0.00  0.00    -0.022 C 
ATOM     14  C   LIG d   1       3.488  -0.045  -4.255  0.00  0.00    -0.073 C 
ATOM     15  H   LIG d   1       5.559   0.519  -4.376  0.00  0.00     0.035 H 
ATOM     16  C   LIG d   1       6.863  -1.803  -4.211  0.00  0.00    -0.009 C 
ATOM     17  C   LIG d   1       5.177  -1.381  -2.390  0.00  0.00    -0.047 C 
ATOM     18  H   LIG d   1       7.433  -0.938  -3.873  0.00  0.00     0.031 H 
ATOM     19  H   LIG d   1       7.215  -2.689  -3.683  0.00  0.00     0.031 H 
ATOM     20  C   LIG d   1       3.684  -1.231  -2.091  0.00  0.00    -0.049 C 
ATOM     21  H   LIG d   1       5.571  -2.243  -1.851  0.00  0.00     0.027 H 
ATOM     22  H   LIG d   1       5.704  -0.482  -2.070  0.00  0.00     0.027 H 
ATOM     23  C   LIG d   1       3.146   0.026  -2.782  0.00  0.00    -0.032 C 
ATOM     24  H   LIG d   1       3.151  -2.106  -2.462  0.00  0.00     0.027 H 
ATOM     25  H   LIG d   1       3.537  -1.145  -1.015  0.00  0.00     0.027 H 
ATOM     26  H   LIG d   1       2.064   0.075  -2.660  0.00  0.00     0.031 H 
ATOM     27  H   LIG d   1       3.606   0.910  -2.342  0.00  0.00     0.031 H 
ATOM     28  C   LIG d   1       2.567   0.132  -5.170  0.00  0.00    -0.099 C 
ATOM     29  H   LIG d   1       1.546   0.331  -4.878  0.00  0.00     0.053 H 
ATOM     30  H   LIG d   1       2.829   0.078  -6.216  0.00  0.00     0.053 H 
ATOM     31  H   LIG d   1       8.158  -2.004  -5.869  0.00  0.00     0.074 H 
ATOM     32  O   LIG d   1       6.493  -3.183  -6.173  0.00  0.00    -0.461 OA
ATOM     33  C   LIG d   1       6.451  -3.094  -7.521  0.00  0.00     0.312 C 
ATOM     34  O   LIG d   1       6.460  -4.028  -8.286  0.00  0.00    -0.251 OA
ATOM     35  H   LIG d   1       5.453  -1.382  -8.440  0.00  0.00     0.043 H 
BRANCH  13  36
ATOM     36  C   LIG d   1       4.572  -2.792  -4.363  0.00  0.00    -0.059 C 
ATOM     37  H   LIG d   1       3.870  -3.085  -3.584  0.00  0.00     0.024 H 
ATOM     38  H   LIG d   1       4.024  -2.528  -5.267  0.00  0.00     0.024 H 
ATOM     39  H   LIG d   1       5.247  -3.622  -4.575  0.00  0.00     0.024 H 
ENDBRANCH  13  36
ENDBRANCH   2   5
ENDBRANCH   1   2
BRANCH   1  40
ATOM     40  C   LIG d   1       8.978   0.742  -8.985  0.00  0.00     0.000 C 
ATOM     41  H   LIG d   1       9.606   0.088  -8.380  0.00  0.00     0.043 H 
ATOM     42  H   LIG d   1       9.365   0.777 -10.004  0.00  0.00     0.043 H 
BRANCH  40  43
ATOM     43  C   LIG d   1       8.984   2.151  -8.390  0.00  0.00    -0.027 C 
ATOM     44  H   LIG d   1       9.248   2.871  -9.163  0.00  0.00     0.029 H 
ATOM     45  H   LIG d   1       7.993   2.384  -7.998  0.00  0.00     0.029 H 
BRANCH  43  46
ATOM     46  C   LIG d   1      10.009   2.221  -7.255  0.00  0.00     0.000 C 
ATOM     47  H   LIG d   1      10.470   1.242  -7.122  0.00  0.00     0.043 H 
ATOM     48  H   LIG d   1      10.777   2.954  -7.505  0.00  0.00     0.043 H 
BRANCH  46  49
ATOM     49  N   LIG d   1       9.336   2.619  -6.012  0.00  0.00    -0.298 N 
ATOM     50  C   LIG d   1       8.793   1.447  -5.308  0.00  0.00     0.022 C 
ATOM     51  C   LIG d   1       8.051   1.912  -4.052  0.00  0.00     0.060 C 
ATOM     52  H   LIG d   1       8.103   0.917  -5.964  0.00  0.00     0.045 H 
ATOM     53  H   LIG d   1       9.610   0.783  -5.024  0.00  0.00     0.045 H 
ATOM     54  O   LIG d   1       8.943   2.671  -3.232  0.00  0.00    -0.377 OA
ATOM     55  H   LIG d   1       7.697   1.043  -3.497  0.00  0.00     0.057 H 
ATOM     56  H   LIG d   1       7.203   2.533  -4.340  0.00  0.00     0.057 H 
ATOM     57  C   LIG d   1       9.490   3.820  -3.885  0.00  0.00     0.060 C 
ATOM     58  C   LIG d   1      10.246   3.375  -5.140  0.00  0.00     0.022 C 
ATOM     59  H   LIG d   1      10.174   4.331  -3.209  0.00  0.00     0.057 H 
ATOM     60  H   LIG d   1       8.683   4.496  -4.167  0.00  0.00     0.057 H 
ATOM     61  H   LIG d   1      11.086   2.741  -4.852  0.00  0.00     0.045 H 
ATOM     62  H   LIG d   1      10.616   4.251  -5.671  0.00  0.00     0.045 H 
ENDBRANCH  46  49
ENDBRANCH  43  46
ENDBRANCH  40  43
ENDBRANCH   1  40
BRANCH   1  63
ATOM     63  C   LIG d   1       6.917   0.587 -10.248  0.00  0.00     0.028 C 
ATOM     64  H   LIG d   1       7.401   1.461 -10.686  0.00  0.00     0.048 H 
ATOM     65  H   LIG d   1       6.969  -0.247 -10.948  0.00  0.00     0.048 H 
BRANCH  63  66
ATOM     66  C   LIG d   1       5.474   0.906  -9.954  0.00  0.00     0.012 A 
ATOM     67  C   LIG d   1       4.466   0.137 -10.513  0.00  0.00     0.166 A 
ATOM     68  C   LIG d   1       3.134   0.431 -10.234  0.00  0.00     0.162 A 
ATOM     69  C   LIG d   1       2.823   1.498  -9.408  0.00  0.00    -0.016 A 
ATOM     70  C   LIG d   1       3.832   2.266  -8.858  0.00  0.00    -0.058 A 
ATOM     71  H   LIG d   1       1.790   1.730  -9.193  0.00  0.00     0.066 H 
ATOM     72  C   LIG d   1       5.155   1.970  -9.130  0.00  0.00    -0.054 A 
ATOM     73  H   LIG d   1       3.589   3.097  -8.214  0.00  0.00     0.062 H 
ATOM     74  H   LIG d   1       5.942   2.571  -8.698  0.00  0.00     0.062 H 
BRANCH  67  75
ATOM     75  O   LIG d   1       4.779  -0.906 -11.328  0.00  0.00    -0.491 OA
BRANCH  75  76
ATOM     76  C   LIG d   1       4.764  -0.656 -12.735  0.00  0.00     0.079 C 
ATOM     77  H   LIG d   1       4.714   0.418 -12.913  0.00  0.00     0.066 H 
ATOM     78  H   LIG d   1       5.672  -1.058 -13.185  0.00  0.00     0.066 H 
ATOM     79  H   LIG d   1       3.894  -1.139 -13.180  0.00  0.00     0.066 H 
ENDBRANCH  75  76
ENDBRANCH  67  75
BRANCH  68  80
ATOM     80  O   LIG d   1       2.143  -0.325 -10.776  0.00  0.00    -0.491 OA
BRANCH  80  81
ATOM     81  C   LIG d   1       1.576  -1.342  -9.945  0.00  0.00     0.079 C 
ATOM     82  H   LIG d   1       2.343  -1.735  -9.278  0.00  0.00     0.066 H 
ATOM     83  H   LIG d   1       0.763  -0.919  -9.357  0.00  0.00     0.066 H 
ATOM     84  H   LIG d   1       1.191  -2.148 -10.571  0.00  0.00     0.066 H 
ENDBRANCH  80  81
ENDBRANCH  68  80
ENDBRANCH  63  66
ENDBRANCH   1  63
TORSDOF 13
ENDMDL
MODEL 8
REMARK VINA RESULT:      -5.7      2.639      4.544
REMARK  13 active torsions:
REMARK  status: ('A' for Active; 'I' for Inactive)
REMARK    1  A    between atoms: C_1  and  C_2 
REMARK    2  A    between atoms: C_19  and  C_21 
REMARK    3  A    between atoms: C_21  and  N_22 
REMARK    4  A    between atoms: N_22  and  C_23 
REMARK    5  A    between atoms: N_22  and  C_32 
REMARK    6  A    between atoms: C_23  and  C_24 
REMARK    7  A    between atoms: C_24  and  C_25 
REMARK    8  A    between atoms: C_25  and  N_26 
REMARK    9  A    between atoms: C_32  and  C_33 
REMARK   10  A    between atoms: C_37  and  O_41 
REMARK   11  A    between atoms: C_38  and  O_39 
REMARK   12  A    between atoms: O_39  and  C_40 
REMARK   13  A    between atoms: O_41  and  C_42 
ROOT
ATOM      1  N   LIG d   1       4.545  -4.349  -8.917  0.00  0.00    -0.297 N 
ENDROOT
BRANCH   1   2
ATOM      2  C   LIG d   1       5.342  -4.182  -7.695  0.00  0.00     0.013 C 
ATOM      3  H   LIG d   1       6.185  -3.522  -7.898  0.00  0.00     0.043 H 
ATOM      4  H   LIG d   1       5.712  -5.154  -7.367  0.00  0.00     0.043 H 
BRANCH   2   5
ATOM      5  C   LIG d   1       4.469  -3.571  -6.596  0.00  0.00     0.075 C 
ATOM      6  C   LIG d   1       5.169  -2.328  -5.970  0.00  0.00     0.011 C 
ATOM      7  C   LIG d   1       4.053  -1.356  -5.577  0.00  0.00    -0.039 C 
ATOM      8  H   LIG d   1       5.903  -1.873  -6.635  0.00  0.00     0.035 H 
ATOM      9  C   LIG d   1       5.809  -2.968  -4.724  0.00  0.00     0.107 C 
ATOM     10  C   LIG d   1       4.563  -0.341  -4.557  0.00  0.00    -0.014 C 
ATOM     11  H   LIG d   1       3.225  -1.915  -5.144  0.00  0.00     0.028 H 
ATOM     12  H   LIG d   1       3.706  -0.829  -6.465  0.00  0.00     0.028 H 
ATOM     13  C   LIG d   1       4.970  -1.103  -3.287  0.00  0.00    -0.022 C 
ATOM     14  C   LIG d   1       3.452   0.618  -4.199  0.00  0.00    -0.073 C 
ATOM     15  H   LIG d   1       5.420   0.201  -4.957  0.00  0.00     0.035 H 
ATOM     16  C   LIG d   1       6.158  -1.999  -3.639  0.00  0.00    -0.009 C 
ATOM     17  C   LIG d   1       5.350  -0.100  -2.199  0.00  0.00    -0.047 C 
ATOM     18  H   LIG d   1       6.984  -1.377  -3.982  0.00  0.00     0.031 H 
ATOM     19  H   LIG d   1       6.468  -2.545  -2.749  0.00  0.00     0.031 H 
ATOM     20  C   LIG d   1       4.126   0.737  -1.821  0.00  0.00    -0.049 C 
ATOM     21  H   LIG d   1       5.708  -0.637  -1.321  0.00  0.00     0.027 H 
ATOM     22  H   LIG d   1       6.138   0.556  -2.570  0.00  0.00     0.027 H 
ATOM     23  C   LIG d   1       3.670   1.557  -3.032  0.00  0.00    -0.032 C 
ATOM     24  H   LIG d   1       3.319   0.077  -1.503  0.00  0.00     0.027 H 
ATOM     25  H   LIG d   1       4.387   1.411  -1.004  0.00  0.00     0.027 H 
ATOM     26  H   LIG d   1       2.738   2.069  -2.796  0.00  0.00     0.031 H 
ATOM     27  H   LIG d   1       4.436   2.288  -3.289  0.00  0.00     0.031 H 
ATOM     28  C   LIG d   1       2.332   0.636  -4.878  0.00  0.00    -0.099 C 
ATOM     29  H   LIG d   1       1.547   1.329  -4.609  0.00  0.00     0.053 H 
ATOM     30  H   LIG d   1       2.193  -0.040  -5.708  0.00  0.00     0.053 H 
ATOM     31  H   LIG d   1       6.714  -3.496  -5.024  0.00  0.00     0.074 H 
ATOM     32  O   LIG d   1       4.834  -3.925  -4.294  0.00  0.00    -0.461 OA
ATOM     33  C   LIG d   1       4.344  -4.530  -5.399  0.00  0.00     0.312 C 
ATOM     34  O   LIG d   1       3.881  -5.645  -5.441  0.00  0.00    -0.251 OA
ATOM     35  H   LIG d   1       3.489  -3.303  -6.990  0.00  0.00     0.043 H 
BRANCH  13  36
ATOM     36  C   LIG d   1       3.801  -1.965  -2.807  0.00  0.00    -0.059 C 
ATOM     37  H   LIG d   1       3.837  -2.935  -3.303  0.00  0.00     0.024 H 
ATOM     38  H   LIG d   1       3.872  -2.105  -1.729  0.00  0.00     0.024 H 
ATOM     39  H   LIG d   1       2.861  -1.468  -3.049  0.00  0.00     0.024 H 
ENDBRANCH  13  36
ENDBRANCH   2   5
ENDBRANCH   1   2
BRANCH   1  40
ATOM     40  C   LIG d   1       4.328  -5.772  -9.214  0.00  0.00     0.000 C 
ATOM     41  H   LIG d   1       3.792  -6.237  -8.387  0.00  0.00     0.043 H 
ATOM     42  H   LIG d   1       3.738  -5.866 -10.127  0.00  0.00     0.043 H 
BRANCH  40  43
ATOM     43  C   LIG d   1       5.677  -6.465  -9.404  0.00  0.00    -0.027 C 
ATOM     44  H   LIG d   1       5.916  -6.511 -10.466  0.00  0.00     0.029 H 
ATOM     45  H   LIG d   1       6.451  -5.902  -8.882  0.00  0.00     0.029 H 
BRANCH  43  46
ATOM     46  C   LIG d   1       5.607  -7.884  -8.835  0.00  0.00     0.000 C 
ATOM     47  H   LIG d   1       4.710  -8.380  -9.206  0.00  0.00     0.043 H 
ATOM     48  H   LIG d   1       6.488  -8.444  -9.146  0.00  0.00     0.043 H 
BRANCH  46  49
ATOM     49  N   LIG d   1       5.559  -7.820  -7.368  0.00  0.00    -0.298 N 
ATOM     50  C   LIG d   1       4.911  -9.016  -6.809  0.00  0.00     0.022 C 
ATOM     51  C   LIG d   1       4.829  -8.881  -5.286  0.00  0.00     0.060 C 
ATOM     52  H   LIG d   1       3.906  -9.110  -7.221  0.00  0.00     0.045 H 
ATOM     53  H   LIG d   1       5.495  -9.900  -7.066  0.00  0.00     0.045 H 
ATOM     54  O   LIG d   1       6.143  -8.683  -4.760  0.00  0.00    -0.377 OA
ATOM     55  H   LIG d   1       4.401  -9.791  -4.864  0.00  0.00     0.057 H 
ATOM     56  H   LIG d   1       4.201  -8.028  -5.030  0.00  0.00     0.057 H 
ATOM     57  C   LIG d   1       6.805  -7.527  -5.281  0.00  0.00     0.060 C 
ATOM     58  C   LIG d   1       6.906  -7.647  -6.805  0.00  0.00     0.022 C 
ATOM     59  H   LIG d   1       7.804  -7.455  -4.854  0.00  0.00     0.057 H 
ATOM     60  H   LIG d   1       6.234  -6.634  -5.024  0.00  0.00     0.057 H 
ATOM     61  H   LIG d   1       7.522  -8.510  -7.061  0.00  0.00     0.045 H 
ATOM     62  H   LIG d   1       7.357  -6.743  -7.211  0.00  0.00     0.045 H 
ENDBRANCH  46  49
ENDBRANCH  43  46
ENDBRANCH  40  43
ENDBRANCH   1  40
BRANCH   1  63
ATOM     63  C   LIG d   1       3.268  -3.630  -8.816  0.00  0.00     0.028 C 
ATOM     64  H   LIG d   1       2.447  -4.321  -9.013  0.00  0.00     0.048 H 
ATOM     65  H   LIG d   1       3.163  -3.216  -7.814  0.00  0.00     0.048 H 
BRANCH  63  66
ATOM     66  C   LIG d   1       3.238  -2.513  -9.828  0.00  0.00     0.012 A 
ATOM     67  C   LIG d   1       2.594  -2.695 -11.041  0.00  0.00     0.166 A 
ATOM     68  C   LIG d   1       2.563  -1.659 -11.971  0.00  0.00     0.162 A 
ATOM     69  C   LIG d   1       3.187  -0.457 -11.683  0.00  0.00    -0.016 A 
ATOM     70  C   LIG d   1       3.833  -0.284 -10.474  0.00  0.00    -0.058 A 
ATOM     71  H   LIG d   1       3.167   0.347 -12.405  0.00  0.00     0.066 H 
ATOM     72  C   LIG d   1       3.859  -1.310  -9.548  0.00  0.00    -0.054 A 
ATOM     73  H   LIG d   1       4.319   0.654 -10.251  0.00  0.00     0.062 H 
ATOM     74  H   LIG d   1       4.364  -1.172  -8.603  0.00  0.00     0.062 H 
BRANCH  67  75
ATOM     75  O   LIG d   1       1.988  -3.881 -11.320  0.00  0.00    -0.491 OA
BRANCH  75  76
ATOM     76  C   LIG d   1       0.602  -3.993 -10.993  0.00  0.00     0.079 C 
ATOM     77  H   LIG d   1       0.032  -3.266 -11.572  0.00  0.00     0.066 H 
ATOM     78  H   LIG d   1       0.254  -4.999 -11.228  0.00  0.00     0.066 H 
ATOM     79  H   LIG d   1       0.463  -3.799  -9.929  0.00  0.00     0.066 H 
ENDBRANCH  75  76
ENDBRANCH  67  75
BRANCH  68  80
ATOM     80  O   LIG d   1       1.927  -1.831 -13.160  0.00  0.00    -0.491 OA
BRANCH  80  81
ATOM     81  C   LIG d   1       2.750  -2.032 -14.312  0.00  0.00     0.079 C 
ATOM     82  H   LIG d   1       2.127  -2.322 -15.158  0.00  0.00     0.066 H 
ATOM     83  H   LIG d   1       3.277  -1.108 -14.548  0.00  0.00     0.066 H 
ATOM     84  H   LIG d   1       3.474  -2.822 -14.107  0.00  0.00     0.066 H 
ENDBRANCH  80  81
ENDBRANCH  68  80
ENDBRANCH  63  66
ENDBRANCH   1  63
TORSDOF 13
ENDMDL
MODEL 9
REMARK VINA RESULT:      -5.6      5.298      8.621
REMARK  13 active torsions:
REMARK  status: ('A' for Active; 'I' for Inactive)
REMARK    1  A    between atoms: C_1  and  C_2 
REMARK    2  A    between atoms: C_19  and  C_21 
REMARK    3  A    between atoms: C_21  and  N_22 
REMARK    4  A    between atoms: N_22  and  C_23 
REMARK    5  A    between atoms: N_22  and  C_32 
REMARK    6  A    between atoms: C_23  and  C_24 
REMARK    7  A    between atoms: C_24  and  C_25 
REMARK    8  A    between atoms: C_25  and  N_26 
REMARK    9  A    between atoms: C_32  and  C_33 
REMARK   10  A    between atoms: C_37  and  O_41 
REMARK   11  A    between atoms: C_38  and  O_39 
REMARK   12  A    between atoms: O_39  and  C_40 
REMARK   13  A    between atoms: O_41  and  C_42 
ROOT
ATOM      1  N   LIG d   1      10.494   2.790  -4.740  0.00  0.00    -0.297 N 
ENDROOT
BRANCH   1   2
ATOM      2  C   LIG d   1       9.957   1.768  -5.647  0.00  0.00     0.013 C 
ATOM      3  H   LIG d   1      10.452   0.815  -5.456  0.00  0.00     0.043 H 
ATOM      4  H   LIG d   1      10.137   2.069  -6.680  0.00  0.00     0.043 H 
BRANCH   2   5
ATOM      5  C   LIG d   1       8.452   1.618  -5.414  0.00  0.00     0.075 C 
ATOM      6  C   LIG d   1       8.159   0.375  -4.520  0.00  0.00     0.011 C 
ATOM      7  C   LIG d   1       6.925   0.726  -3.683  0.00  0.00    -0.039 C 
ATOM      8  H   LIG d   1       9.010   0.083  -3.905  0.00  0.00     0.035 H 
ATOM      9  C   LIG d   1       7.817  -0.669  -5.599  0.00  0.00     0.107 C 
ATOM     10  C   LIG d   1       6.277  -0.541  -3.131  0.00  0.00    -0.014 C 
ATOM     11  H   LIG d   1       6.206   1.254  -4.307  0.00  0.00     0.028 H 
ATOM     12  H   LIG d   1       7.224   1.367  -2.855  0.00  0.00     0.028 H 
ATOM     13  C   LIG d   1       5.795  -1.388  -4.318  0.00  0.00    -0.022 C 
ATOM     14  C   LIG d   1       5.075  -0.170  -2.294  0.00  0.00    -0.073 C 
ATOM     15  H   LIG d   1       6.995  -1.107  -2.537  0.00  0.00     0.035 H 
ATOM     16  C   LIG d   1       7.028  -1.838  -5.103  0.00  0.00    -0.009 C 
ATOM     17  C   LIG d   1       5.016  -2.592  -3.793  0.00  0.00    -0.047 C 
ATOM     18  H   LIG d   1       7.666  -2.436  -4.452  0.00  0.00     0.031 H 
ATOM     19  H   LIG d   1       6.710  -2.448  -5.948  0.00  0.00     0.031 H 
ATOM     20  C   LIG d   1       3.755  -2.115  -3.070  0.00  0.00    -0.049 C 
ATOM     21  H   LIG d   1       4.735  -3.234  -4.628  0.00  0.00     0.027 H 
ATOM     22  H   LIG d   1       5.642  -3.154  -3.099  0.00  0.00     0.027 H 
ATOM     23  C   LIG d   1       4.149  -1.280  -1.847  0.00  0.00    -0.032 C 
ATOM     24  H   LIG d   1       3.157  -1.506  -3.748  0.00  0.00     0.027 H 
ATOM     25  H   LIG d   1       3.173  -2.978  -2.748  0.00  0.00     0.027 H 
ATOM     26  H   LIG d   1       3.255  -0.851  -1.395  0.00  0.00     0.031 H 
ATOM     27  H   LIG d   1       4.660  -1.913  -1.122  0.00  0.00     0.031 H 
ATOM     28  C   LIG d   1       4.841   1.076  -1.966  0.00  0.00    -0.099 C 
ATOM     29  H   LIG d   1       3.976   1.325  -1.368  0.00  0.00     0.053 H 
ATOM     30  H   LIG d   1       5.512   1.856  -2.294  0.00  0.00     0.053 H 
ATOM     31  H   LIG d   1       8.743  -1.036  -6.042  0.00  0.00     0.074 H 
ATOM     32  O   LIG d   1       7.098   0.083  -6.585  0.00  0.00    -0.461 OA
ATOM     33  C   LIG d   1       7.725   1.272  -6.726  0.00  0.00     0.312 C 
ATOM     34  O   LIG d   1       7.718   1.955  -7.721  0.00  0.00    -0.251 OA
ATOM     35  H   LIG d   1       8.042   2.521  -4.963  0.00  0.00     0.043 H 
BRANCH  13  36
ATOM     36  C   LIG d   1       4.893  -0.544  -5.220  0.00  0.00    -0.059 C 
ATOM     37  H   LIG d   1       4.472  -1.172  -6.005  0.00  0.00     0.024 H 
ATOM     38  H   LIG d   1       4.086  -0.115  -4.627  0.00  0.00     0.024 H 
ATOM     39  H   LIG d   1       5.479   0.257  -5.671  0.00  0.00     0.024 H 
ENDBRANCH  13  36
ENDBRANCH   2   5
ENDBRANCH   1   2
BRANCH   1  40
ATOM     40  C   LIG d   1       9.490   3.824  -4.457  0.00  0.00     0.000 C 
ATOM     41  H   LIG d   1       9.631   4.664  -5.137  0.00  0.00     0.043 H 
ATOM     42  H   LIG d   1       8.491   3.408  -4.596  0.00  0.00     0.043 H 
BRANCH  40  43
ATOM     43  C   LIG d   1       9.645   4.304  -3.013  0.00  0.00    -0.027 C 
ATOM     44  H   LIG d   1       8.746   4.058  -2.449  0.00  0.00     0.029 H 
ATOM     45  H   LIG d   1      10.505   3.812  -2.557  0.00  0.00     0.029 H 
BRANCH  43  46
ATOM     46  C   LIG d   1       9.858   5.819  -2.999  0.00  0.00     0.000 C 
ATOM     47  H   LIG d   1      10.755   6.065  -3.569  0.00  0.00     0.043 H 
ATOM     48  H   LIG d   1       8.996   6.311  -3.449  0.00  0.00     0.043 H 
BRANCH  46  49
ATOM     49  N   LIG d   1      10.018   6.278  -1.613  0.00  0.00    -0.298 N 
ATOM     50  C   LIG d   1      11.075   5.521  -0.925  0.00  0.00     0.022 C 
ATOM     51  C   LIG d   1      11.166   5.990   0.529  0.00  0.00     0.060 C 
ATOM     52  H   LIG d   1      10.835   4.458  -0.951  0.00  0.00     0.045 H 
ATOM     53  H   LIG d   1      12.029   5.692  -1.424  0.00  0.00     0.045 H 
ATOM     54  O   LIG d   1      11.406   7.399   0.556  0.00  0.00    -0.377 OA
ATOM     55  H   LIG d   1      11.987   5.472   1.027  0.00  0.00     0.057 H 
ATOM     56  H   LIG d   1      10.230   5.770   1.042  0.00  0.00     0.057 H 
ATOM     57  C   LIG d   1      10.397   8.168  -0.104  0.00  0.00     0.060 C 
ATOM     58  C   LIG d   1      10.296   7.721  -1.565  0.00  0.00     0.022 C 
ATOM     59  H   LIG d   1      10.659   9.224  -0.063  0.00  0.00     0.057 H 
ATOM     60  H   LIG d   1       9.438   8.011   0.391  0.00  0.00     0.057 H 
ATOM     61  H   LIG d   1      11.238   7.928  -2.074  0.00  0.00     0.045 H 
ATOM     62  H   LIG d   1       9.490   8.264  -2.056  0.00  0.00     0.045 H 
ENDBRANCH  46  49
ENDBRANCH  43  46
ENDBRANCH  40  43
ENDBRANCH   1  40
BRANCH   1  63
ATOM     63  C   LIG d   1      10.990   2.183  -3.497  0.00  0.00     0.028 C 
ATOM     64  H   LIG d   1      10.953   2.919  -2.694  0.00  0.00     0.048 H 
ATOM     65  H   LIG d   1      10.366   1.328  -3.236  0.00  0.00     0.048 H 
BRANCH  63  66
ATOM     66  C   LIG d   1      12.413   1.725  -3.694  0.00  0.00     0.012 A 
ATOM     67  C   LIG d   1      13.454   2.632  -3.584  0.00  0.00     0.166 A 
ATOM     68  C   LIG d   1      14.767   2.204  -3.760  0.00  0.00     0.162 A 
ATOM     69  C   LIG d   1      15.025   0.876  -4.057  0.00  0.00    -0.016 A 
ATOM     70  C   LIG d   1      13.981  -0.022  -4.173  0.00  0.00    -0.058 A 
ATOM     71  H   LIG d   1      16.043   0.543  -4.198  0.00  0.00     0.066 H 
ATOM     72  C   LIG d   1      12.678   0.401  -3.991  0.00  0.00    -0.054 A 
ATOM     73  H   LIG d   1      14.184  -1.057  -4.404  0.00  0.00     0.062 H 
ATOM     74  H   LIG d   1      11.864  -0.304  -4.081  0.00  0.00     0.062 H 
BRANCH  67  75
ATOM     75  O   LIG d   1      13.194   3.936  -3.298  0.00  0.00    -0.491 OA
BRANCH  75  76
ATOM     76  C   LIG d   1      13.238   4.860  -4.386  0.00  0.00     0.079 C 
ATOM     77  H   LIG d   1      13.654   5.807  -4.042  0.00  0.00     0.066 H 
ATOM     78  H   LIG d   1      13.864   4.455  -5.181  0.00  0.00     0.066 H 
ATOM     79  H   LIG d   1      12.229   5.023  -4.766  0.00  0.00     0.066 H 
ENDBRANCH  75  76
ENDBRANCH  67  75
BRANCH  68  80
ATOM     80  O   LIG d   1      15.792   3.090  -3.646  0.00  0.00    -0.491 OA
BRANCH  80  81
ATOM     81  C   LIG d   1      16.668   3.214  -4.769  0.00  0.00     0.079 C 
ATOM     82  H   LIG d   1      16.835   2.232  -5.211  0.00  0.00     0.066 H 
ATOM     83  H   LIG d   1      16.218   3.874  -5.511  0.00  0.00     0.066 H 
ATOM     84  H   LIG d   1      17.621   3.632  -4.442  0.00  0.00     0.066 H 
ENDBRANCH  80  81
ENDBRANCH  68  80
ENDBRANCH  63  66
ENDBRANCH   1  63
TORSDOF 13
ENDMDL
