MODEL 1
REMARK VINA RESULT:      -5.8      0.000      0.000
REMARK  8 active torsions:
REMARK  status: ('A' for Active; 'I' for Inactive)
REMARK    1  A    between atoms: C_1  and  C_2 
REMARK    2  A    between atoms: C_2  and  C_3 
REMARK    3  A    between atoms: C_3  and  O_4 
REMARK    4  A    between atoms: O_4  and  C_5 
REMARK    5  A    between atoms: C_5  and  C_6 
REMARK    6  A    between atoms: C_11  and  C_15 
REMARK    7  A    between atoms: C_11  and  C_16 
REMARK    8  A    between atoms: C_19  and  N_21 
ROOT
ATOM      1  C   LIG d   1       3.411  -0.283  -5.830  0.00  0.00     0.128 C 
ATOM      2  H   LIG d   1       3.419  -1.368  -5.723  0.00  0.00     0.076 H 
ATOM      3  C   LIG d   1       2.670   0.126  -7.125  0.00  0.00     0.013 C 
ATOM      4  C   LIG d   1       3.822   0.214  -8.136  0.00  0.00     0.171 C 
ATOM      5  C   LIG d   1       3.800  -0.987  -9.094  0.00  0.00     0.019 C 
ATOM      6  C   LIG d   1       3.273  -0.342 -10.398  0.00  0.00     0.154 C 
ATOM      7  O   LIG d   1       3.663   1.061 -10.296  0.00  0.00    -0.451 OA
ATOM      8  C   LIG d   1       3.697   1.433  -9.005  0.00  0.00     0.325 C 
ATOM      9  O   LIG d   1       3.637   2.572  -8.606  0.00  0.00    -0.250 OA
ATOM     10  C   LIG d   1       5.083   0.235  -7.315  0.00  0.00     0.325 C 
ATOM     11  O   LIG d   1       6.206   0.257  -7.762  0.00  0.00    -0.250 OA
ATOM     12  O   LIG d   1       4.768   0.224  -6.009  0.00  0.00    -0.458 OA
ATOM     13  H   LIG d   1       1.950  -0.638  -7.420  0.00  0.00     0.032 H 
ATOM     14  H   LIG d   1       2.182   1.094  -7.007  0.00  0.00     0.032 H 
ATOM     15  H   LIG d   1       4.801  -1.392  -9.236  0.00  0.00     0.032 H 
ATOM     16  H   LIG d   1       3.116  -1.757  -8.736  0.00  0.00     0.032 H 
ENDROOT
BRANCH   1  17
ATOM     17  C   LIG d   1       2.754   0.368  -4.611  0.00  0.00     0.085 C 
ATOM     18  H   LIG d   1       1.939   1.014  -4.938  0.00  0.00     0.060 H 
ATOM     19  H   LIG d   1       2.362  -0.407  -3.952  0.00  0.00     0.060 H 
BRANCH  17  20
ATOM     20  O   LIG d   1       3.724   1.145  -3.906  0.00  0.00    -0.376 OA
BRANCH  20  21
ATOM     21  C   LIG d   1       3.572   1.115  -2.485  0.00  0.00     0.048 C 
ATOM     22  H   LIG d   1       3.578   2.134  -2.098  0.00  0.00     0.056 H 
ATOM     23  H   LIG d   1       2.628   0.635  -2.230  0.00  0.00     0.056 H 
BRANCH  21  24
ATOM     24  C   LIG d   1       4.729   0.328  -1.866  0.00  0.00    -0.032 C 
ATOM     25  H   LIG d   1       5.625   0.463  -2.470  0.00  0.00     0.029 H 
ATOM     26  H   LIG d   1       4.915   0.690  -0.854  0.00  0.00     0.029 H 
BRANCH  24  27
ATOM     27  C   LIG d   1       4.366  -1.158  -1.818  0.00  0.00    -0.063 C 
ATOM     28  H   LIG d   1       3.297  -1.276  -1.999  0.00  0.00     0.023 H 
ATOM     29  H   LIG d   1       4.926  -1.694  -2.583  0.00  0.00     0.023 H 
ATOM     30  H   LIG d   1       4.614  -1.561  -0.836  0.00  0.00     0.023 H 
ENDBRANCH  24  27
ENDBRANCH  21  24
ENDBRANCH  20  21
ENDBRANCH  17  20
ENDBRANCH   1  17
BRANCH   6  31
ATOM     31  C   LIG d   1       1.750  -0.468 -10.479  0.00  0.00    -0.019 C 
ATOM     32  H   LIG d   1       1.362   0.263 -11.189  0.00  0.00     0.027 H 
ATOM     33  H   LIG d   1       1.485  -1.472 -10.810  0.00  0.00     0.027 H 
ATOM     34  H   LIG d   1       1.317  -0.284  -9.496  0.00  0.00     0.027 H 
ENDBRANCH   6  31
BRANCH   6  35
ATOM     35  C   LIG d   1       3.919  -0.982 -11.600  0.00  0.00     0.094 A 
ATOM     36  N   LIG d   1       4.257  -0.257 -12.650  0.00  0.00    -0.226 NA
ATOM     37  C   LIG d   1       4.824  -0.809 -13.707  0.00  0.00     0.156 A 
ATOM     38  S   LIG d   1       4.913  -2.480 -13.242  0.00  0.00    -0.061 SA
ATOM     39  C   LIG d   1       4.171  -2.313 -11.625  0.00  0.00     0.004 A 
ATOM     40  H   LIG d   1       3.977  -3.065 -10.875  0.00  0.00     0.071 H 
BRANCH  37  41
ATOM     41  N   LIG d   1       5.240  -0.208 -14.884  0.00  0.00    -0.338 N 
ATOM     42  H   LIG d   1       4.895   0.663 -15.133  0.00  0.00     0.144 HD
ATOM     43  H   LIG d   1       5.878  -0.659 -15.459  0.00  0.00     0.144 HD
ENDBRANCH  37  41
ENDBRANCH   6  35
TORSDOF 8
ENDMDL
MODEL 2
REMARK VINA RESULT:      -5.3      1.520      2.130
REMARK  8 active torsions:
REMARK  status: ('A' for Active; 'I' for Inactive)
REMARK    1  A    between atoms: C_1  and  C_2 
REMARK    2  A    between atoms: C_2  and  C_3 
REMARK    3  A    between atoms: C_3  and  O_4 
REMARK    4  A    between atoms: O_4  and  C_5 
REMARK    5  A    between atoms: C_5  and  C_6 
REMARK    6  A    between atoms: C_11  and  C_15 
REMARK    7  A    between atoms: C_11  and  C_16 
REMARK    8  A    between atoms: C_19  and  N_21 
ROOT
ATOM      1  C   LIG d   1       6.890   0.059  -6.624  0.00  0.00     0.128 C 
ATOM      2  H   LIG d   1       7.654  -0.597  -7.041  0.00  0.00     0.076 H 
ATOM      3  C   LIG d   1       5.478  -0.508  -6.906  0.00  0.00     0.013 C 
ATOM      4  C   LIG d   1       5.111   0.196  -8.220  0.00  0.00     0.171 C 
ATOM      5  C   LIG d   1       5.197  -0.780  -9.404  0.00  0.00     0.019 C 
ATOM      6  C   LIG d   1       3.702  -1.041  -9.709  0.00  0.00     0.154 C 
ATOM      7  O   LIG d   1       3.017   0.158  -9.234  0.00  0.00    -0.451 OA
ATOM      8  C   LIG d   1       3.692   0.689  -8.199  0.00  0.00     0.325 C 
ATOM      9  O   LIG d   1       3.228   1.447  -7.381  0.00  0.00    -0.250 OA
ATOM     10  C   LIG d   1       6.096   1.323  -8.369  0.00  0.00     0.325 C 
ATOM     11  O   LIG d   1       6.152   2.082  -9.307  0.00  0.00    -0.250 OA
ATOM     12  O   LIG d   1       6.904   1.355  -7.295  0.00  0.00    -0.458 OA
ATOM     13  H   LIG d   1       5.512  -1.590  -7.039  0.00  0.00     0.032 H 
ATOM     14  H   LIG d   1       4.782  -0.237  -6.112  0.00  0.00     0.032 H 
ATOM     15  H   LIG d   1       5.694  -0.318 -10.256  0.00  0.00     0.032 H 
ATOM     16  H   LIG d   1       5.701  -1.702  -9.112  0.00  0.00     0.032 H 
ENDROOT
BRANCH   1  17
ATOM     17  C   LIG d   1       7.103   0.235  -5.119  0.00  0.00     0.085 C 
ATOM     18  H   LIG d   1       7.445  -0.706  -4.687  0.00  0.00     0.060 H 
ATOM     19  H   LIG d   1       7.852   1.007  -4.945  0.00  0.00     0.060 H 
BRANCH  17  20
ATOM     20  O   LIG d   1       5.871   0.621  -4.505  0.00  0.00    -0.376 OA
BRANCH  20  21
ATOM     21  C   LIG d   1       6.013   1.101  -3.167  0.00  0.00     0.048 C 
ATOM     22  H   LIG d   1       7.010   0.858  -2.799  0.00  0.00     0.056 H 
ATOM     23  H   LIG d   1       5.874   2.181  -3.151  0.00  0.00     0.056 H 
BRANCH  21  24
ATOM     24  C   LIG d   1       4.964   0.438  -2.273  0.00  0.00    -0.032 C 
ATOM     25  H   LIG d   1       4.784  -0.580  -2.617  0.00  0.00     0.029 H 
ATOM     26  H   LIG d   1       5.325   0.415  -1.244  0.00  0.00     0.029 H 
BRANCH  24  27
ATOM     27  C   LIG d   1       3.660   1.236  -2.339  0.00  0.00    -0.063 C 
ATOM     28  H   LIG d   1       3.569   1.701  -3.321  0.00  0.00     0.023 H 
ATOM     29  H   LIG d   1       2.816   0.568  -2.173  0.00  0.00     0.023 H 
ATOM     30  H   LIG d   1       3.669   2.010  -1.571  0.00  0.00     0.023 H 
ENDBRANCH  24  27
ENDBRANCH  21  24
ENDBRANCH  20  21
ENDBRANCH  17  20
ENDBRANCH   1  17
BRANCH   6  31
ATOM     31  C   LIG d   1       3.208  -2.274  -8.951  0.00  0.00    -0.019 C 
ATOM     32  H   LIG d   1       2.230  -2.568  -9.332  0.00  0.00     0.027 H 
ATOM     33  H   LIG d   1       3.913  -3.093  -9.089  0.00  0.00     0.027 H 
ATOM     34  H   LIG d   1       3.129  -2.040  -7.889  0.00  0.00     0.027 H 
ENDBRANCH   6  31
BRANCH   6  35
ATOM     35  C   LIG d   1       3.491  -1.214 -11.192  0.00  0.00     0.094 A 
ATOM     36  N   LIG d   1       4.222  -0.541 -12.060  0.00  0.00    -0.226 NA
ATOM     37  C   LIG d   1       4.043  -0.687 -13.360  0.00  0.00     0.156 A 
ATOM     38  S   LIG d   1       2.756  -1.850 -13.423  0.00  0.00    -0.061 SA
ATOM     39  C   LIG d   1       2.549  -2.067 -11.662  0.00  0.00     0.004 A 
ATOM     40  H   LIG d   1       1.863  -2.701 -11.121  0.00  0.00     0.071 H 
BRANCH  37  41
ATOM     41  N   LIG d   1       4.712  -0.069 -14.405  0.00  0.00    -0.338 N 
ATOM     42  H   LIG d   1       4.269   0.618 -14.926  0.00  0.00     0.144 HD
ATOM     43  H   LIG d   1       5.623  -0.325 -14.615  0.00  0.00     0.144 HD
ENDBRANCH  37  41
ENDBRANCH   6  35
TORSDOF 8
ENDMDL
MODEL 3
REMARK VINA RESULT:      -5.2      5.886      7.541
REMARK  8 active torsions:
REMARK  status: ('A' for Active; 'I' for Inactive)
REMARK    1  A    between atoms: C_1  and  C_2 
REMARK    2  A    between atoms: C_2  and  C_3 
REMARK    3  A    between atoms: C_3  and  O_4 
REMARK    4  A    between atoms: O_4  and  C_5 
REMARK    5  A    between atoms: C_5  and  C_6 
REMARK    6  A    between atoms: C_11  and  C_15 
REMARK    7  A    between atoms: C_11  and  C_16 
REMARK    8  A    between atoms: C_19  and  N_21 
ROOT
ATOM      1  C   LIG d   1       5.438  -1.066  -5.891  0.00  0.00     0.128 C 
ATOM      2  H   LIG d   1       5.782  -1.830  -6.588  0.00  0.00     0.076 H 
ATOM      3  C   LIG d   1       6.361   0.175  -5.949  0.00  0.00     0.013 C 
ATOM      4  C   LIG d   1       7.374  -0.131  -4.836  0.00  0.00     0.171 C 
ATOM      5  C   LIG d   1       8.727  -0.549  -5.431  0.00  0.00     0.019 C 
ATOM      6  C   LIG d   1       9.588   0.712  -5.178  0.00  0.00     0.154 C 
ATOM      7  O   LIG d   1       8.970   1.349  -4.018  0.00  0.00    -0.451 OA
ATOM      8  C   LIG d   1       7.652   1.085  -4.000  0.00  0.00     0.325 C 
ATOM      9  O   LIG d   1       6.822   1.728  -3.402  0.00  0.00    -0.250 OA
ATOM     10  C   LIG d   1       6.765  -1.244  -4.026  0.00  0.00     0.325 C 
ATOM     11  O   LIG d   1       7.289  -1.787  -3.082  0.00  0.00    -0.250 OA
ATOM     12  O   LIG d   1       5.549  -1.540  -4.515  0.00  0.00    -0.458 OA
ATOM     13  H   LIG d   1       6.856   0.247  -6.918  0.00  0.00     0.032 H 
ATOM     14  H   LIG d   1       5.805   1.086  -5.729  0.00  0.00     0.032 H 
ATOM     15  H   LIG d   1       9.135  -1.412  -4.905  0.00  0.00     0.032 H 
ATOM     16  H   LIG d   1       8.638  -0.752  -6.498  0.00  0.00     0.032 H 
ENDROOT
BRANCH   1  17
ATOM     17  C   LIG d   1       3.993  -0.671  -6.204  0.00  0.00     0.085 C 
ATOM     18  H   LIG d   1       3.913  -0.384  -7.253  0.00  0.00     0.060 H 
ATOM     19  H   LIG d   1       3.334  -1.516  -6.007  0.00  0.00     0.060 H 
BRANCH  17  20
ATOM     20  O   LIG d   1       3.612   0.433  -5.379  0.00  0.00    -0.376 OA
BRANCH  20  21
ATOM     21  C   LIG d   1       2.410   0.216  -4.636  0.00  0.00     0.048 C 
ATOM     22  H   LIG d   1       1.857   1.153  -4.561  0.00  0.00     0.056 H 
ATOM     23  H   LIG d   1       1.797  -0.527  -5.145  0.00  0.00     0.056 H 
BRANCH  21  24
ATOM     24  C   LIG d   1       2.761  -0.285  -3.234  0.00  0.00    -0.032 C 
ATOM     25  H   LIG d   1       1.845  -0.505  -2.687  0.00  0.00     0.029 H 
ATOM     26  H   LIG d   1       3.364  -1.189  -3.311  0.00  0.00     0.029 H 
BRANCH  24  27
ATOM     27  C   LIG d   1       3.552   0.795  -2.491  0.00  0.00    -0.063 C 
ATOM     28  H   LIG d   1       4.563   0.846  -2.896  0.00  0.00     0.023 H 
ATOM     29  H   LIG d   1       3.059   1.758  -2.618  0.00  0.00     0.023 H 
ATOM     30  H   LIG d   1       3.598   0.546  -1.431  0.00  0.00     0.023 H 
ENDBRANCH  24  27
ENDBRANCH  21  24
ENDBRANCH  20  21
ENDBRANCH  17  20
ENDBRANCH   1  17
BRANCH   6  31
ATOM     31  C   LIG d   1       9.538   1.645  -6.389  0.00  0.00    -0.019 C 
ATOM     32  H   LIG d   1       9.070   2.587  -6.104  0.00  0.00     0.027 H 
ATOM     33  H   LIG d   1      10.551   1.836  -6.743  0.00  0.00     0.027 H 
ATOM     34  H   LIG d   1       8.958   1.177  -7.185  0.00  0.00     0.027 H 
ENDBRANCH   6  31
BRANCH   6  35
ATOM     35  C   LIG d   1      11.011   0.324  -4.868  0.00  0.00     0.094 A 
ATOM     36  N   LIG d   1      11.758   1.074  -4.080  0.00  0.00    -0.226 NA
ATOM     37  C   LIG d   1      13.005   0.741  -3.803  0.00  0.00     0.156 A 
ATOM     38  S   LIG d   1      13.197  -0.734  -4.699  0.00  0.00    -0.061 SA
ATOM     39  C   LIG d   1      11.551  -0.804  -5.390  0.00  0.00     0.004 A 
ATOM     40  H   LIG d   1      11.108  -1.541  -6.044  0.00  0.00     0.071 H 
BRANCH  37  41
ATOM     41  N   LIG d   1      13.925   1.402  -3.004  0.00  0.00    -0.338 N 
ATOM     42  H   LIG d   1      14.734   0.949  -2.720  0.00  0.00     0.144 HD
ATOM     43  H   LIG d   1      13.759   2.316  -2.729  0.00  0.00     0.144 HD
ENDBRANCH  37  41
ENDBRANCH   6  35
TORSDOF 8
ENDMDL
MODEL 4
REMARK VINA RESULT:      -5.2      5.560      7.545
REMARK  8 active torsions:
REMARK  status: ('A' for Active; 'I' for Inactive)
REMARK    1  A    between atoms: C_1  and  C_2 
REMARK    2  A    between atoms: C_2  and  C_3 
REMARK    3  A    between atoms: C_3  and  O_4 
REMARK    4  A    between atoms: O_4  and  C_5 
REMARK    5  A    between atoms: C_5  and  C_6 
REMARK    6  A    between atoms: C_11  and  C_15 
REMARK    7  A    between atoms: C_11  and  C_16 
REMARK    8  A    between atoms: C_19  and  N_21 
ROOT
ATOM      1  C   LIG d   1       4.128  -0.359  -3.969  0.00  0.00     0.128 C 
ATOM      2  H   LIG d   1       3.933  -0.760  -2.974  0.00  0.00     0.076 H 
ATOM      3  C   LIG d   1       4.799  -1.432  -4.861  0.00  0.00     0.013 C 
ATOM      4  C   LIG d   1       6.290  -1.135  -4.644  0.00  0.00     0.171 C 
ATOM      5  C   LIG d   1       6.932  -2.199  -3.741  0.00  0.00     0.019 C 
ATOM      6  C   LIG d   1       7.757  -3.022  -4.759  0.00  0.00     0.154 C 
ATOM      7  O   LIG d   1       8.044  -2.085  -5.841  0.00  0.00    -0.451 OA
ATOM      8  C   LIG d   1       7.052  -1.184  -5.939  0.00  0.00     0.325 C 
ATOM      9  O   LIG d   1       6.811  -0.516  -6.916  0.00  0.00    -0.250 OA
ATOM     10  C   LIG d   1       6.347   0.228  -4.009  0.00  0.00     0.325 C 
ATOM     11  O   LIG d   1       7.355   0.788  -3.650  0.00  0.00    -0.250 OA
ATOM     12  O   LIG d   1       5.103   0.724  -3.904  0.00  0.00    -0.458 OA
ATOM     13  H   LIG d   1       4.548  -2.436  -4.520  0.00  0.00     0.032 H 
ATOM     14  H   LIG d   1       4.524  -1.297  -5.907  0.00  0.00     0.032 H 
ATOM     15  H   LIG d   1       7.579  -1.739  -2.995  0.00  0.00     0.032 H 
ATOM     16  H   LIG d   1       6.170  -2.818  -3.267  0.00  0.00     0.032 H 
ENDROOT
BRANCH   1  17
ATOM     17  C   LIG d   1       2.828   0.130  -4.611  0.00  0.00     0.085 C 
ATOM     18  H   LIG d   1       2.216  -0.727  -4.894  0.00  0.00     0.060 H 
ATOM     19  H   LIG d   1       2.280   0.747  -3.898  0.00  0.00     0.060 H 
BRANCH  17  20
ATOM     20  O   LIG d   1       3.132   0.902  -5.774  0.00  0.00    -0.376 OA
BRANCH  20  21
ATOM     21  C   LIG d   1       2.737   0.285  -7.001  0.00  0.00     0.048 C 
ATOM     22  H   LIG d   1       2.890  -0.792  -6.931  0.00  0.00     0.056 H 
ATOM     23  H   LIG d   1       1.683   0.490  -7.189  0.00  0.00     0.056 H 
BRANCH  21  24
ATOM     24  C   LIG d   1       3.579   0.847  -8.148  0.00  0.00    -0.032 C 
ATOM     25  H   LIG d   1       4.565   1.119  -7.775  0.00  0.00     0.029 H 
ATOM     26  H   LIG d   1       3.681   0.091  -8.928  0.00  0.00     0.029 H 
BRANCH  24  27
ATOM     27  C   LIG d   1       2.891   2.086  -8.726  0.00  0.00    -0.063 C 
ATOM     28  H   LIG d   1       3.228   2.242  -9.751  0.00  0.00     0.023 H 
ATOM     29  H   LIG d   1       1.812   1.941  -8.715  0.00  0.00     0.023 H 
ATOM     30  H   LIG d   1       3.148   2.957  -8.123  0.00  0.00     0.023 H 
ENDBRANCH  24  27
ENDBRANCH  21  24
ENDBRANCH  20  21
ENDBRANCH  17  20
ENDBRANCH   1  17
BRANCH   6  31
ATOM     31  C   LIG d   1       6.939  -4.205  -5.280  0.00  0.00    -0.019 C 
ATOM     32  H   LIG d   1       7.600  -4.913  -5.780  0.00  0.00     0.027 H 
ATOM     33  H   LIG d   1       6.442  -4.700  -4.445  0.00  0.00     0.027 H 
ATOM     34  H   LIG d   1       6.190  -3.846  -5.986  0.00  0.00     0.027 H 
ENDBRANCH   6  31
BRANCH   6  35
ATOM     35  C   LIG d   1       9.039  -3.505  -4.129  0.00  0.00     0.094 A 
ATOM     36  N   LIG d   1       9.023  -4.444  -3.202  0.00  0.00    -0.226 NA
ATOM     37  C   LIG d   1      10.140  -4.873  -2.645  0.00  0.00     0.156 A 
ATOM     38  S   LIG d   1      11.341  -3.911  -3.450  0.00  0.00    -0.061 SA
ATOM     39  C   LIG d   1      10.233  -2.987  -4.504  0.00  0.00     0.004 A 
ATOM     40  H   LIG d   1      10.454  -2.225  -5.237  0.00  0.00     0.071 H 
BRANCH  37  41
ATOM     41  N   LIG d   1      10.310  -5.842  -1.669  0.00  0.00    -0.338 N 
ATOM     42  H   LIG d   1      11.055  -5.783  -1.051  0.00  0.00     0.144 HD
ATOM     43  H   LIG d   1       9.684  -6.578  -1.604  0.00  0.00     0.144 HD
ENDBRANCH  37  41
ENDBRANCH   6  35
TORSDOF 8
ENDMDL
MODEL 5
REMARK VINA RESULT:      -5.0      7.585      9.372
REMARK  8 active torsions:
REMARK  status: ('A' for Active; 'I' for Inactive)
REMARK    1  A    between atoms: C_1  and  C_2 
REMARK    2  A    between atoms: C_2  and  C_3 
REMARK    3  A    between atoms: C_3  and  O_4 
REMARK    4  A    between atoms: O_4  and  C_5 
REMARK    5  A    between atoms: C_5  and  C_6 
REMARK    6  A    between atoms: C_11  and  C_15 
REMARK    7  A    between atoms: C_11  and  C_16 
REMARK    8  A    between atoms: C_19  and  N_21 
ROOT
ATOM      1  C   LIG d   1       7.671   1.667  -4.421  0.00  0.00     0.128 C 
ATOM      2  H   LIG d   1       6.767   2.270  -4.337  0.00  0.00     0.076 H 
ATOM      3  C   LIG d   1       8.829   2.314  -3.623  0.00  0.00     0.013 C 
ATOM      4  C   LIG d   1       9.514   3.170  -4.699  0.00  0.00     0.171 C 
ATOM      5  C   LIG d   1       9.201   4.659  -4.491  0.00  0.00     0.019 C 
ATOM      6  C   LIG d   1      10.541   5.190  -3.928  0.00  0.00     0.154 C 
ATOM      7  O   LIG d   1      11.548   4.272  -4.453  0.00  0.00    -0.451 OA
ATOM      8  C   LIG d   1      11.010   3.052  -4.620  0.00  0.00     0.325 C 
ATOM      9  O   LIG d   1      11.635   2.020  -4.697  0.00  0.00    -0.250 OA
ATOM     10  C   LIG d   1       8.979   2.676  -6.015  0.00  0.00     0.325 C 
ATOM     11  O   LIG d   1       9.256   3.137  -7.098  0.00  0.00    -0.250 OA
ATOM     12  O   LIG d   1       8.146   1.644  -5.801  0.00  0.00    -0.458 OA
ATOM     13  H   LIG d   1       8.445   2.937  -2.815  0.00  0.00     0.032 H 
ATOM     14  H   LIG d   1       9.510   1.555  -3.238  0.00  0.00     0.032 H 
ATOM     15  H   LIG d   1       8.957   5.142  -5.437  0.00  0.00     0.032 H 
ATOM     16  H   LIG d   1       8.395   4.791  -3.769  0.00  0.00     0.032 H 
ENDROOT
BRANCH   1  17
ATOM     17  C   LIG d   1       7.410   0.244  -3.923  0.00  0.00     0.085 C 
ATOM     18  H   LIG d   1       7.646  -0.468  -4.714  0.00  0.00     0.060 H 
ATOM     19  H   LIG d   1       8.037   0.042  -3.055  0.00  0.00     0.060 H 
BRANCH  17  20
ATOM     20  O   LIG d   1       6.035   0.112  -3.559  0.00  0.00    -0.376 OA
BRANCH  20  21
ATOM     21  C   LIG d   1       5.526   1.210  -2.799  0.00  0.00     0.048 C 
ATOM     22  H   LIG d   1       6.346   1.692  -2.265  0.00  0.00     0.056 H 
ATOM     23  H   LIG d   1       5.057   1.930  -3.469  0.00  0.00     0.056 H 
BRANCH  21  24
ATOM     24  C   LIG d   1       4.493   0.700  -1.793  0.00  0.00    -0.032 C 
ATOM     25  H   LIG d   1       4.808   0.963  -0.784  0.00  0.00     0.029 H 
ATOM     26  H   LIG d   1       3.525   1.156  -2.003  0.00  0.00     0.029 H 
BRANCH  24  27
ATOM     27  C   LIG d   1       4.376  -0.821  -1.911  0.00  0.00    -0.063 C 
ATOM     28  H   LIG d   1       5.155  -1.194  -2.577  0.00  0.00     0.023 H 
ATOM     29  H   LIG d   1       4.493  -1.272  -0.926  0.00  0.00     0.023 H 
ATOM     30  H   LIG d   1       3.398  -1.080  -2.316  0.00  0.00     0.023 H 
ENDBRANCH  24  27
ENDBRANCH  21  24
ENDBRANCH  20  21
ENDBRANCH  17  20
ENDBRANCH   1  17
BRANCH   6  31
ATOM     31  C   LIG d   1      10.530   5.152  -2.399  0.00  0.00    -0.019 C 
ATOM     32  H   LIG d   1      11.542   4.976  -2.032  0.00  0.00     0.027 H 
ATOM     33  H   LIG d   1      10.165   6.103  -2.013  0.00  0.00     0.027 H 
ATOM     34  H   LIG d   1       9.876   4.348  -2.059  0.00  0.00     0.027 H 
ENDBRANCH   6  31
BRANCH   6  35
ATOM     35  C   LIG d   1      10.800   6.592  -4.418  0.00  0.00     0.094 A 
ATOM     36  N   LIG d   1       9.856   7.512  -4.359  0.00  0.00    -0.226 NA
ATOM     37  C   LIG d   1      10.074   8.742  -4.786  0.00  0.00     0.156 A 
ATOM     38  S   LIG d   1      11.722   8.653  -5.326  0.00  0.00    -0.061 SA
ATOM     39  C   LIG d   1      12.008   6.935  -4.926  0.00  0.00     0.004 A 
ATOM     40  H   LIG d   1      12.897   6.337  -5.054  0.00  0.00     0.071 H 
BRANCH  37  41
ATOM     41  N   LIG d   1       9.210   9.825  -4.799  0.00  0.00    -0.338 N 
ATOM     42  H   LIG d   1       9.359  10.573  -4.201  0.00  0.00     0.144 HD
ATOM     43  H   LIG d   1       8.455   9.834  -5.408  0.00  0.00     0.144 HD
ENDBRANCH  37  41
ENDBRANCH   6  35
TORSDOF 8
ENDMDL
MODEL 6
REMARK VINA RESULT:      -5.0      1.438      2.138
REMARK  8 active torsions:
REMARK  status: ('A' for Active; 'I' for Inactive)
REMARK    1  A    between atoms: C_1  and  C_2 
REMARK    2  A    between atoms: C_2  and  C_3 
REMARK    3  A    between atoms: C_3  and  O_4 
REMARK    4  A    between atoms: O_4  and  C_5 
REMARK    5  A    between atoms: C_5  and  C_6 
REMARK    6  A    between atoms: C_11  and  C_15 
REMARK    7  A    between atoms: C_11  and  C_16 
REMARK    8  A    between atoms: C_19  and  N_21 
ROOT
ATOM      1  C   LIG d   1       3.496   0.417  -6.821  0.00  0.00     0.128 C 
ATOM      2  H   LIG d   1       4.561   0.482  -6.594  0.00  0.00     0.076 H 
ATOM      3  C   LIG d   1       3.219  -0.769  -7.776  0.00  0.00     0.013 C 
ATOM      4  C   LIG d   1       3.290  -0.091  -9.152  0.00  0.00     0.171 C 
ATOM      5  C   LIG d   1       4.594  -0.461  -9.875  0.00  0.00     0.019 C 
ATOM      6  C   LIG d   1       4.091  -1.455 -10.948  0.00  0.00     0.154 C 
ATOM      7  O   LIG d   1       2.699  -1.077 -11.175  0.00  0.00    -0.451 OA
ATOM      8  C   LIG d   1       2.178  -0.557 -10.050  0.00  0.00     0.325 C 
ATOM      9  O   LIG d   1       0.999  -0.477  -9.800  0.00  0.00    -0.250 OA
ATOM     10  C   LIG d   1       3.213   1.387  -8.883  0.00  0.00     0.325 C 
ATOM     11  O   LIG d   1       3.281   2.254  -9.723  0.00  0.00    -0.250 OA
ATOM     12  O   LIG d   1       3.059   1.595  -7.565  0.00  0.00    -0.458 OA
ATOM     13  H   LIG d   1       3.988  -1.536  -7.679  0.00  0.00     0.032 H 
ATOM     14  H   LIG d   1       2.228  -1.188  -7.600  0.00  0.00     0.032 H 
ATOM     15  H   LIG d   1       5.046   0.416 -10.338  0.00  0.00     0.032 H 
ATOM     16  H   LIG d   1       5.293  -0.944  -9.193  0.00  0.00     0.032 H 
ENDROOT
BRANCH   1  17
ATOM     17  C   LIG d   1       2.684   0.267  -5.533  0.00  0.00     0.085 C 
ATOM     18  H   LIG d   1       1.698   0.712  -5.670  0.00  0.00     0.060 H 
ATOM     19  H   LIG d   1       2.575  -0.790  -5.294  0.00  0.00     0.060 H 
BRANCH  17  20
ATOM     20  O   LIG d   1       3.361   0.930  -4.464  0.00  0.00    -0.376 OA
BRANCH  20  21
ATOM     21  C   LIG d   1       3.205   0.293  -3.193  0.00  0.00     0.048 C 
ATOM     22  H   LIG d   1       4.057   0.537  -2.559  0.00  0.00     0.056 H 
ATOM     23  H   LIG d   1       2.288   0.646  -2.721  0.00  0.00     0.056 H 
BRANCH  21  24
ATOM     24  C   LIG d   1       3.130  -1.222  -3.387  0.00  0.00    -0.032 C 
ATOM     25  H   LIG d   1       2.089  -1.541  -3.355  0.00  0.00     0.029 H 
ATOM     26  H   LIG d   1       3.562  -1.486  -4.353  0.00  0.00     0.029 H 
BRANCH  24  27
ATOM     27  C   LIG d   1       3.912  -1.918  -2.271  0.00  0.00    -0.063 C 
ATOM     28  H   LIG d   1       3.639  -2.973  -2.241  0.00  0.00     0.023 H 
ATOM     29  H   LIG d   1       4.980  -1.823  -2.462  0.00  0.00     0.023 H 
ATOM     30  H   LIG d   1       3.671  -1.453  -1.315  0.00  0.00     0.023 H 
ENDBRANCH  24  27
ENDBRANCH  21  24
ENDBRANCH  20  21
ENDBRANCH  17  20
ENDBRANCH   1  17
BRANCH   6  31
ATOM     31  C   LIG d   1       4.174  -2.892 -10.427  0.00  0.00    -0.019 C 
ATOM     32  H   LIG d   1       5.145  -3.316 -10.683  0.00  0.00     0.027 H 
ATOM     33  H   LIG d   1       4.052  -2.894  -9.344  0.00  0.00     0.027 H 
ATOM     34  H   LIG d   1       3.385  -3.490 -10.883  0.00  0.00     0.027 H 
ENDBRANCH   6  31
BRANCH   6  35
ATOM     35  C   LIG d   1       4.889  -1.308 -12.218  0.00  0.00     0.094 A 
ATOM     36  N   LIG d   1       4.425  -0.596 -13.227  0.00  0.00    -0.226 NA
ATOM     37  C   LIG d   1       5.118  -0.462 -14.343  0.00  0.00     0.156 A 
ATOM     38  S   LIG d   1       6.544  -1.391 -14.001  0.00  0.00    -0.061 SA
ATOM     39  C   LIG d   1       6.101  -1.900 -12.347  0.00  0.00     0.004 A 
ATOM     40  H   LIG d   1       6.648  -2.510 -11.644  0.00  0.00     0.071 H 
BRANCH  37  41
ATOM     41  N   LIG d   1       4.789   0.241 -15.492  0.00  0.00    -0.338 N 
ATOM     42  H   LIG d   1       4.525   1.172 -15.433  0.00  0.00     0.144 HD
ATOM     43  H   LIG d   1       4.824  -0.199 -16.355  0.00  0.00     0.144 HD
ENDBRANCH  37  41
ENDBRANCH   6  35
TORSDOF 8
ENDMDL
MODEL 7
REMARK VINA RESULT:      -5.0      8.068      9.757
REMARK  8 active torsions:
REMARK  status: ('A' for Active; 'I' for Inactive)
REMARK    1  A    between atoms: C_1  and  C_2 
REMARK    2  A    between atoms: C_2  and  C_3 
REMARK    3  A    between atoms: C_3  and  O_4 
REMARK    4  A    between atoms: O_4  and  C_5 
REMARK    5  A    between atoms: C_5  and  C_6 
REMARK    6  A    between atoms: C_11  and  C_15 
REMARK    7  A    between atoms: C_11  and  C_16 
REMARK    8  A    between atoms: C_19  and  N_21 
ROOT
ATOM      1  C   LIG d   1       8.463   2.492  -4.751  0.00  0.00     0.128 C 
ATOM      2  H   LIG d   1       7.420   2.799  -4.844  0.00  0.00     0.076 H 
ATOM      3  C   LIG d   1       9.235   3.474  -3.837  0.00  0.00     0.013 C 
ATOM      4  C   LIG d   1       9.806   4.472  -4.856  0.00  0.00     0.171 C 
ATOM      5  C   LIG d   1       9.041   5.803  -4.801  0.00  0.00     0.019 C 
ATOM      6  C   LIG d   1      10.058   6.723  -4.084  0.00  0.00     0.154 C 
ATOM      7  O   LIG d   1      11.360   6.138  -4.389  0.00  0.00    -0.451 OA
ATOM      8  C   LIG d   1      11.237   4.809  -4.549  0.00  0.00     0.325 C 
ATOM      9  O   LIG d   1      12.140   4.010  -4.460  0.00  0.00    -0.250 OA
ATOM     10  C   LIG d   1       9.659   3.812  -6.200  0.00  0.00     0.325 C 
ATOM     11  O   LIG d   1       9.960   4.310  -7.259  0.00  0.00    -0.250 OA
ATOM     12  O   LIG d   1       9.140   2.583  -6.040  0.00  0.00    -0.458 OA
ATOM     13  H   LIG d   1       8.561   3.971  -3.140  0.00  0.00     0.032 H 
ATOM     14  H   LIG d   1      10.036   2.962  -3.304  0.00  0.00     0.032 H 
ATOM     15  H   LIG d   1       8.824   6.170  -5.804  0.00  0.00     0.032 H 
ATOM     16  H   LIG d   1       8.126   5.703  -4.217  0.00  0.00     0.032 H 
ENDROOT
BRANCH   1  17
ATOM     17  C   LIG d   1       8.552   1.068  -4.199  0.00  0.00     0.085 C 
ATOM     18  H   LIG d   1       9.158   0.456  -4.868  0.00  0.00     0.060 H 
ATOM     19  H   LIG d   1       9.010   1.088  -3.211  0.00  0.00     0.060 H 
BRANCH  17  20
ATOM     20  O   LIG d   1       7.239   0.511  -4.104  0.00  0.00    -0.376 OA
BRANCH  20  21
ATOM     21  C   LIG d   1       6.344   1.269  -3.286  0.00  0.00     0.048 C 
ATOM     22  H   LIG d   1       6.917   1.838  -2.554  0.00  0.00     0.056 H 
ATOM     23  H   LIG d   1       5.772   1.953  -3.911  0.00  0.00     0.056 H 
BRANCH  21  24
ATOM     24  C   LIG d   1       5.389   0.320  -2.560  0.00  0.00    -0.032 C 
ATOM     25  H   LIG d   1       5.002  -0.415  -3.266  0.00  0.00     0.029 H 
ATOM     26  H   LIG d   1       5.924  -0.192  -1.759  0.00  0.00     0.029 H 
BRANCH  24  27
ATOM     27  C   LIG d   1       4.227   1.121  -1.968  0.00  0.00    -0.063 C 
ATOM     28  H   LIG d   1       4.079   0.829  -0.928  0.00  0.00     0.023 H 
ATOM     29  H   LIG d   1       4.457   2.185  -2.019  0.00  0.00     0.023 H 
ATOM     30  H   LIG d   1       3.319   0.917  -2.536  0.00  0.00     0.023 H 
ENDBRANCH  24  27
ENDBRANCH  21  24
ENDBRANCH  20  21
ENDBRANCH  17  20
ENDBRANCH   1  17
BRANCH   6  31
ATOM     31  C   LIG d   1       9.811   6.717  -2.574  0.00  0.00    -0.019 C 
ATOM     32  H   LIG d   1      10.741   6.484  -2.054  0.00  0.00     0.027 H 
ATOM     33  H   LIG d   1       9.456   7.698  -2.259  0.00  0.00     0.027 H 
ATOM     34  H   LIG d   1       9.060   5.965  -2.331  0.00  0.00     0.027 H 
ENDBRANCH   6  31
BRANCH   6  35
ATOM     35  C   LIG d   1       9.972   8.127  -4.626  0.00  0.00     0.094 A 
ATOM     36  N   LIG d   1       9.709   8.342  -5.902  0.00  0.00    -0.226 NA
ATOM     37  C   LIG d   1       9.632   9.567  -6.385  0.00  0.00     0.156 A 
ATOM     38  S   LIG d   1       9.946  10.535  -4.978  0.00  0.00    -0.061 SA
ATOM     39  C   LIG d   1      10.158   9.196  -3.815  0.00  0.00     0.004 A 
ATOM     40  H   LIG d   1      10.375   9.229  -2.758  0.00  0.00     0.071 H 
BRANCH  37  41
ATOM     41  N   LIG d   1       9.368   9.976  -7.683  0.00  0.00    -0.338 N 
ATOM     42  H   LIG d   1       9.607   9.406  -8.429  0.00  0.00     0.144 HD
ATOM     43  H   LIG d   1       8.943  10.832  -7.844  0.00  0.00     0.144 HD
ENDBRANCH  37  41
ENDBRANCH   6  35
TORSDOF 8
ENDMDL
MODEL 8
REMARK VINA RESULT:      -4.9     11.009     13.309
REMARK  8 active torsions:
REMARK  status: ('A' for Active; 'I' for Inactive)
REMARK    1  A    between atoms: C_1  and  C_2 
REMARK    2  A    between atoms: C_2  and  C_3 
REMARK    3  A    between atoms: C_3  and  O_4 
REMARK    4  A    between atoms: O_4  and  C_5 
REMARK    5  A    between atoms: C_5  and  C_6 
REMARK    6  A    between atoms: C_11  and  C_15 
REMARK    7  A    between atoms: C_11  and  C_16 
REMARK    8  A    between atoms: C_19  and  N_21 
ROOT
ATOM      1  C   LIG d   1      11.417   8.791   1.497  0.00  0.00     0.128 C 
ATOM      2  H   LIG d   1      10.424   9.209   1.328  0.00  0.00     0.076 H 
ATOM      3  C   LIG d   1      12.119   8.504   0.147  0.00  0.00     0.013 C 
ATOM      4  C   LIG d   1      11.739   7.037  -0.102  0.00  0.00     0.171 C 
ATOM      5  C   LIG d   1      10.672   6.930  -1.202  0.00  0.00     0.019 C 
ATOM      6  C   LIG d   1      11.500   6.396  -2.395  0.00  0.00     0.154 C 
ATOM      7  O   LIG d   1      12.614   5.682  -1.778  0.00  0.00    -0.451 OA
ATOM      8  C   LIG d   1      12.915   6.243  -0.594  0.00  0.00     0.325 C 
ATOM      9  O   LIG d   1      13.970   6.126  -0.016  0.00  0.00    -0.250 OA
ATOM     10  C   LIG d   1      11.222   6.521   1.213  0.00  0.00     0.325 C 
ATOM     11  O   LIG d   1      10.785   5.410   1.404  0.00  0.00    -0.250 OA
ATOM     12  O   LIG d   1      11.320   7.486   2.143  0.00  0.00    -0.458 OA
ATOM     13  H   LIG d   1      11.727   9.148  -0.640  0.00  0.00     0.032 H 
ATOM     14  H   LIG d   1      13.199   8.616   0.238  0.00  0.00     0.032 H 
ATOM     15  H   LIG d   1       9.892   6.224  -0.922  0.00  0.00     0.032 H 
ATOM     16  H   LIG d   1      10.248   7.908  -1.429  0.00  0.00     0.032 H 
ENDROOT
BRANCH   1  17
ATOM     17  C   LIG d   1      12.260   9.745   2.345  0.00  0.00     0.085 C 
ATOM     18  H   LIG d   1      13.181   9.986   1.814  0.00  0.00     0.060 H 
ATOM     19  H   LIG d   1      11.698  10.660   2.530  0.00  0.00     0.060 H 
BRANCH  17  20
ATOM     20  O   LIG d   1      12.577   9.122   3.590  0.00  0.00    -0.376 OA
BRANCH  20  21
ATOM     21  C   LIG d   1      12.647  10.028   4.694  0.00  0.00     0.048 C 
ATOM     22  H   LIG d   1      13.686  10.306   4.869  0.00  0.00     0.056 H 
ATOM     23  H   LIG d   1      12.065  10.921   4.468  0.00  0.00     0.056 H 
BRANCH  21  24
ATOM     24  C   LIG d   1      12.081   9.353   5.944  0.00  0.00    -0.032 C 
ATOM     25  H   LIG d   1      12.856   9.295   6.708  0.00  0.00     0.029 H 
ATOM     26  H   LIG d   1      11.241   9.935   6.323  0.00  0.00     0.029 H 
BRANCH  24  27
ATOM     27  C   LIG d   1      11.606   7.942   5.591  0.00  0.00    -0.063 C 
ATOM     28  H   LIG d   1      12.461   7.265   5.575  0.00  0.00     0.023 H 
ATOM     29  H   LIG d   1      10.887   7.603   6.336  0.00  0.00     0.023 H 
ATOM     30  H   LIG d   1      11.134   7.953   4.609  0.00  0.00     0.023 H 
ENDBRANCH  24  27
ENDBRANCH  21  24
ENDBRANCH  20  21
ENDBRANCH  17  20
ENDBRANCH   1  17
BRANCH   6  31
ATOM     31  C   LIG d   1      12.017   7.555  -3.249  0.00  0.00    -0.019 C 
ATOM     32  H   LIG d   1      11.701   8.501  -2.809  0.00  0.00     0.027 H 
ATOM     33  H   LIG d   1      13.106   7.520  -3.290  0.00  0.00     0.027 H 
ATOM     34  H   LIG d   1      11.614   7.471  -4.259  0.00  0.00     0.027 H 
ENDBRANCH   6  31
BRANCH   6  35
ATOM     35  C   LIG d   1      10.671   5.454  -3.231  0.00  0.00     0.094 A 
ATOM     36  N   LIG d   1      10.502   4.198  -2.865  0.00  0.00    -0.226 NA
ATOM     37  C   LIG d   1       9.777   3.367  -3.591  0.00  0.00     0.156 A 
ATOM     38  S   LIG d   1       9.269   4.380  -4.907  0.00  0.00    -0.061 SA
ATOM     39  C   LIG d   1      10.079   5.880  -4.373  0.00  0.00     0.004 A 
ATOM     40  H   LIG d   1      10.093   6.857  -4.834  0.00  0.00     0.071 H 
BRANCH  37  41
ATOM     41  N   LIG d   1       9.496   2.029  -3.361  0.00  0.00    -0.338 N 
ATOM     42  H   LIG d   1       8.669   1.776  -2.922  0.00  0.00     0.144 HD
ATOM     43  H   LIG d   1      10.126   1.347  -3.639  0.00  0.00     0.144 HD
ENDBRANCH  37  41
ENDBRANCH   6  35
TORSDOF 8
ENDMDL
MODEL 9
REMARK VINA RESULT:      -4.9      5.648      7.087
REMARK  8 active torsions:
REMARK  status: ('A' for Active; 'I' for Inactive)
REMARK    1  A    between atoms: C_1  and  C_2 
REMARK    2  A    between atoms: C_2  and  C_3 
REMARK    3  A    between atoms: C_3  and  O_4 
REMARK    4  A    between atoms: O_4  and  C_5 
REMARK    5  A    between atoms: C_5  and  C_6 
REMARK    6  A    between atoms: C_11  and  C_15 
REMARK    7  A    between atoms: C_11  and  C_16 
REMARK    8  A    between atoms: C_19  and  N_21 
ROOT
ATOM      1  C   LIG d   1       6.711   0.400  -3.829  0.00  0.00     0.128 C 
ATOM      2  H   LIG d   1       7.628   0.989  -3.800  0.00  0.00     0.076 H 
ATOM      3  C   LIG d   1       6.992  -1.059  -3.397  0.00  0.00     0.013 C 
ATOM      4  C   LIG d   1       7.262  -1.742  -4.746  0.00  0.00     0.171 C 
ATOM      5  C   LIG d   1       8.761  -2.030  -4.920  0.00  0.00     0.019 C 
ATOM      6  C   LIG d   1       8.817  -3.561  -4.702  0.00  0.00     0.154 C 
ATOM      7  O   LIG d   1       7.487  -4.033  -5.078  0.00  0.00    -0.451 OA
ATOM      8  C   LIG d   1       6.576  -3.076  -4.831  0.00  0.00     0.325 C 
ATOM      9  O   LIG d   1       5.390  -3.262  -4.698  0.00  0.00    -0.250 OA
ATOM     10  C   LIG d   1       6.764  -0.786  -5.795  0.00  0.00     0.325 C 
ATOM     11  O   LIG d   1       6.842  -0.956  -6.988  0.00  0.00    -0.250 OA
ATOM     12  O   LIG d   1       6.218   0.288  -5.199  0.00  0.00    -0.458 OA
ATOM     13  H   LIG d   1       7.868  -1.112  -2.751  0.00  0.00     0.032 H 
ATOM     14  H   LIG d   1       6.122  -1.496  -2.908  0.00  0.00     0.032 H 
ATOM     15  H   LIG d   1       9.095  -1.767  -5.923  0.00  0.00     0.032 H 
ATOM     16  H   LIG d   1       9.348  -1.507  -4.165  0.00  0.00     0.032 H 
ENDROOT
BRANCH   1  17
ATOM     17  C   LIG d   1       5.646   1.028  -2.928  0.00  0.00     0.085 C 
ATOM     18  H   LIG d   1       5.634   0.514  -1.967  0.00  0.00     0.060 H 
ATOM     19  H   LIG d   1       5.876   2.082  -2.773  0.00  0.00     0.060 H 
BRANCH  17  20
ATOM     20  O   LIG d   1       4.365   0.907  -3.549  0.00  0.00    -0.376 OA
BRANCH  20  21
ATOM     21  C   LIG d   1       3.339   0.426  -2.677  0.00  0.00     0.048 C 
ATOM     22  H   LIG d   1       3.711   0.416  -1.652  0.00  0.00     0.056 H 
ATOM     23  H   LIG d   1       2.470   1.080  -2.742  0.00  0.00     0.056 H 
BRANCH  21  24
ATOM     24  C   LIG d   1       2.943  -0.993  -3.089  0.00  0.00    -0.032 C 
ATOM     25  H   LIG d   1       1.870  -1.125  -2.954  0.00  0.00     0.029 H 
ATOM     26  H   LIG d   1       3.200  -1.152  -4.137  0.00  0.00     0.029 H 
BRANCH  24  27
ATOM     27  C   LIG d   1       3.695  -2.004  -2.221  0.00  0.00    -0.063 C 
ATOM     28  H   LIG d   1       4.764  -1.792  -2.259  0.00  0.00     0.023 H 
ATOM     29  H   LIG d   1       3.345  -1.930  -1.191  0.00  0.00     0.023 H 
ATOM     30  H   LIG d   1       3.512  -3.011  -2.595  0.00  0.00     0.023 H 
ENDBRANCH  24  27
ENDBRANCH  21  24
ENDBRANCH  20  21
ENDBRANCH  17  20
ENDBRANCH   1  17
BRANCH   6  31
ATOM     31  C   LIG d   1       9.102  -3.882  -3.234  0.00  0.00    -0.019 C 
ATOM     32  H   LIG d   1       8.168  -3.876  -2.672  0.00  0.00     0.027 H 
ATOM     33  H   LIG d   1       9.564  -4.866  -3.159  0.00  0.00     0.027 H 
ATOM     34  H   LIG d   1       9.778  -3.132  -2.822  0.00  0.00     0.027 H 
ENDBRANCH   6  31
BRANCH   6  35
ATOM     35  C   LIG d   1       9.865  -4.181  -5.590  0.00  0.00     0.094 A 
ATOM     36  N   LIG d   1      11.085  -4.406  -5.138  0.00  0.00    -0.226 NA
ATOM     37  C   LIG d   1      12.009  -4.949  -5.909  0.00  0.00     0.156 A 
ATOM     38  S   LIG d   1      11.150  -5.181  -7.400  0.00  0.00    -0.061 SA
ATOM     39  C   LIG d   1       9.576  -4.524  -6.868  0.00  0.00     0.004 A 
ATOM     40  H   LIG d   1       8.649  -4.427  -7.415  0.00  0.00     0.071 H 
BRANCH  37  41
ATOM     41  N   LIG d   1      13.326  -5.254  -5.605  0.00  0.00    -0.338 N 
ATOM     42  H   LIG d   1      14.003  -5.224  -6.298  0.00  0.00     0.144 HD
ATOM     43  H   LIG d   1      13.570  -5.497  -4.699  0.00  0.00     0.144 HD
ENDBRANCH  37  41
ENDBRANCH   6  35
TORSDOF 8
ENDMDL
