MODEL 1
REMARK VINA RESULT:      -8.0      0.000      0.000
REMARK  8 active torsions:
REMARK  status: ('A' for Active; 'I' for Inactive)
REMARK    1  A    between atoms: C_1  and  C_2 
REMARK    2  A    between atoms: C_9  and  O_20 
REMARK    3  A    between atoms: C_12  and  C_14 
REMARK    4  A    between atoms: C_23  and  O_40 
REMARK    5  A    between atoms: C_24  and  C_31 
REMARK    6  A    between atoms: C_27  and  O_30 
REMARK    7  A    between atoms: N_32  and  C_33 
REMARK    8  A    between atoms: C_33  and  C_34 
ROOT
ATOM      1  C   LIG d   1       5.239  -4.541  -6.998  0.00  0.00     0.004 C 
ATOM      2  C   LIG d   1       6.238  -3.381  -6.975  0.00  0.00    -0.044 C 
ATOM      3  C   LIG d   1       5.510  -2.041  -6.902  0.00  0.00    -0.048 C 
ATOM      4  C   LIG d   1       4.652  -1.881  -8.142  0.00  0.00    -0.022 C 
ATOM      5  H   LIG d   1       5.290  -1.957  -9.036  0.00  0.00     0.031 H 
ATOM      6  C   LIG d   1       3.595  -2.982  -8.172  0.00  0.00    -0.008 C 
ATOM      7  H   LIG d   1       2.975  -2.896  -7.268  0.00  0.00     0.033 H 
ATOM      8  C   LIG d   1       4.218  -4.356  -8.134  0.00  0.00     0.075 C 
ATOM      9  C   LIG d   1       5.048  -4.665  -9.395  0.00  0.00    -0.023 C 
ATOM     10  C   LIG d   1       5.917  -5.866  -8.975  0.00  0.00    -0.043 C 
ATOM     11  C   LIG d   1       6.030  -5.800  -7.441  0.00  0.00    -0.008 C 
ATOM     12  H   LIG d   1       7.079  -5.773  -7.110  0.00  0.00     0.035 H 
ATOM     13  C   LIG d   1       2.725  -2.824  -9.421  0.00  0.00    -0.045 C 
ATOM     14  C   LIG d   1       2.039  -1.456  -9.393  0.00  0.00    -0.023 C 
ATOM     15  C   LIG d   1       3.099  -0.353  -9.366  0.00  0.00     0.079 C 
ATOM     16  C   LIG d   1       3.968  -0.513  -8.116  0.00  0.00     0.038 C 
ATOM     17  C   LIG d   1       5.029   0.589  -8.089  0.00  0.00    -0.037 C 
ATOM     18  C   LIG d   1       5.906   0.485  -9.338  0.00  0.00    -0.026 C 
ATOM     19  C   LIG d   1       5.036   0.645 -10.586  0.00  0.00     0.058 C 
ATOM     20  H   LIG d   1       5.646   0.636 -11.502  0.00  0.00     0.059 H 
ATOM     21  C   LIG d   1       3.975  -0.457 -10.614  0.00  0.00     0.003 C 
ATOM     22  H   LIG d   1       6.892  -3.478  -6.096  0.00  0.00     0.027 H 
ATOM     23  H   LIG d   1       6.848  -3.404  -7.890  0.00  0.00     0.027 H 
ATOM     24  H   LIG d   1       4.874  -2.018  -6.004  0.00  0.00     0.027 H 
ATOM     25  H   LIG d   1       6.246  -1.226  -6.850  0.00  0.00     0.027 H 
ATOM     26  H   LIG d   1       4.372  -4.912 -10.227  0.00  0.00     0.029 H 
ATOM     27  H   LIG d   1       5.652  -3.786  -9.661  0.00  0.00     0.029 H 
ATOM     28  H   LIG d   1       5.433  -6.800  -9.296  0.00  0.00     0.027 H 
ATOM     29  H   LIG d   1       6.907  -5.784  -9.448  0.00  0.00     0.027 H 
ATOM     30  H   LIG d   1       3.356  -2.899 -10.318  0.00  0.00     0.027 H 
ATOM     31  H   LIG d   1       1.963  -3.616  -9.440  0.00  0.00     0.027 H 
ATOM     32  H   LIG d   1       1.414  -1.342 -10.292  0.00  0.00     0.029 H 
ATOM     33  H   LIG d   1       1.407  -1.381  -8.496  0.00  0.00     0.029 H 
ATOM     34  H   LIG d   1       4.535   1.573  -8.068  0.00  0.00     0.028 H 
ATOM     35  H   LIG d   1       5.654   0.474  -7.191  0.00  0.00     0.028 H 
ATOM     36  H   LIG d   1       6.669   1.277  -9.318  0.00  0.00     0.029 H 
ATOM     37  H   LIG d   1       6.399  -0.498  -9.358  0.00  0.00     0.029 H 
ATOM     38  H   LIG d   1       4.469  -1.440 -10.635  0.00  0.00     0.032 H 
ATOM     39  H   LIG d   1       3.350  -0.342 -11.512  0.00  0.00     0.032 H 
ENDROOT
BRANCH  16  40
ATOM     40  C   LIG d   1       3.102  -0.408  -6.887  0.00  0.00     0.009 C 
ATOM     41  N   LIG d   1       3.200   0.613  -6.122  0.00  0.00    -0.290 NA
ATOM     42  H   LIG d   1       2.388  -1.208  -6.648  0.00  0.00     0.079 H 
BRANCH  41  43
ATOM     43  C   LIG d   1       2.359   0.715  -4.927  0.00  0.00     0.064 C 
ATOM     44  H   LIG d   1       2.071   1.765  -4.770  0.00  0.00     0.056 H 
ATOM     45  H   LIG d   1       1.454   0.103  -5.061  0.00  0.00     0.056 H 
BRANCH  43  46
ATOM     46  C   LIG d   1       3.126   0.220  -3.728  0.00  0.00    -0.023 A 
ATOM     47  C   LIG d   1       3.198  -1.135  -3.441  0.00  0.00    -0.039 A 
ATOM     48  C   LIG d   1       3.910  -1.553  -2.332  0.00  0.00     0.028 A 
ATOM     49  H   LIG d   1       2.704  -1.855  -4.077  0.00  0.00     0.064 H 
ATOM     50  N   LIG d   1       4.516  -0.679  -1.552  0.00  0.00    -0.263 NA
ATOM     51  H   LIG d   1       3.971  -2.606  -2.102  0.00  0.00     0.083 H 
ATOM     52  C   LIG d   1       4.468   0.616  -1.794  0.00  0.00     0.028 A 
ATOM     53  C   LIG d   1       3.771   1.107  -2.881  0.00  0.00    -0.039 A 
ATOM     54  H   LIG d   1       4.977   1.302  -1.132  0.00  0.00     0.083 H 
ATOM     55  H   LIG d   1       3.733   2.171  -3.071  0.00  0.00     0.064 H 
ENDBRANCH  43  46
ENDBRANCH  41  43
ENDBRANCH  16  40
BRANCH  15  56
ATOM     56  O   LIG d   1       2.456   0.923  -9.340  0.00  0.00    -0.388 OA
ATOM     57  H   LIG d   1       1.763   1.172  -8.523  0.00  0.00     0.210 HD
ENDBRANCH  15  56
BRANCH   8  58
ATOM     58  O   LIG d   1       3.187  -5.337  -8.000  0.00  0.00    -0.388 OA
ATOM     59  H   LIG d   1       2.131  -5.028  -8.004  0.00  0.00     0.210 HD
ENDBRANCH   8  58
BRANCH  19  60
ATOM     60  O   LIG d   1       4.394   1.922 -10.560  0.00  0.00    -0.392 OA
ATOM     61  H   LIG d   1       4.225   2.433  -9.601  0.00  0.00     0.210 HD
ENDBRANCH  19  60
BRANCH   1  62
ATOM     62  C   LIG d   1       4.552  -4.720  -5.643  0.00  0.00    -0.056 C 
ATOM     63  H   LIG d   1       4.783  -5.718  -5.243  0.00  0.00     0.024 H 
ATOM     64  H   LIG d   1       3.463  -4.618  -5.768  0.00  0.00     0.024 H 
ATOM     65  H   LIG d   1       4.914  -3.951  -4.943  0.00  0.00     0.024 H 
ENDBRANCH   1  62
BRANCH  11  66
ATOM     66  C   LIG d   1       5.424  -7.035  -6.824  0.00  0.00    -0.022 A 
ATOM     67  C   LIG d   1       4.557  -8.055  -7.523  0.00  0.00     0.115 A 
ATOM     68  O   LIG d   1       4.223  -9.054  -6.518  0.00  0.00    -0.457 OA
ATOM     69  H   LIG d   1       3.652  -7.564  -7.910  0.00  0.00     0.075 H 
ATOM     70  H   LIG d   1       5.116  -8.503  -8.357  0.00  0.00     0.075 H 
ATOM     71  C   LIG d   1       4.806  -8.680  -5.364  0.00  0.00     0.332 A 
ATOM     72  C   LIG d   1       5.547  -7.431  -5.560  0.00  0.00     0.025 A 
ATOM     73  O   LIG d   1       4.730  -9.288  -4.315  0.00  0.00    -0.246 OA
ATOM     74  H   LIG d   1       6.140  -6.833  -4.852  0.00  0.00     0.069 H 
ENDBRANCH  11  66
TORSDOF 8
ENDMDL
MODEL 2
REMARK VINA RESULT:      -7.3      2.557      3.193
REMARK  8 active torsions:
REMARK  status: ('A' for Active; 'I' for Inactive)
REMARK    1  A    between atoms: C_1  and  C_2 
REMARK    2  A    between atoms: C_9  and  O_20 
REMARK    3  A    between atoms: C_12  and  C_14 
REMARK    4  A    between atoms: C_23  and  O_40 
REMARK    5  A    between atoms: C_24  and  C_31 
REMARK    6  A    between atoms: C_27  and  O_30 
REMARK    7  A    between atoms: N_32  and  C_33 
REMARK    8  A    between atoms: C_33  and  C_34 
ROOT
ATOM      1  C   LIG d   1       7.645  -2.351  -5.619  0.00  0.00     0.004 C 
ATOM      2  C   LIG d   1       7.805  -0.893  -6.059  0.00  0.00    -0.044 C 
ATOM      3  C   LIG d   1       6.447  -0.271  -6.375  0.00  0.00    -0.048 C 
ATOM      4  C   LIG d   1       5.815  -1.030  -7.526  0.00  0.00    -0.022 C 
ATOM      5  H   LIG d   1       6.494  -1.003  -8.392  0.00  0.00     0.031 H 
ATOM      6  C   LIG d   1       5.575  -2.478  -7.106  0.00  0.00    -0.008 C 
ATOM      7  H   LIG d   1       4.905  -2.483  -6.235  0.00  0.00     0.033 H 
ATOM      8  C   LIG d   1       6.853  -3.151  -6.667  0.00  0.00     0.075 C 
ATOM      9  C   LIG d   1       7.866  -3.308  -7.818  0.00  0.00    -0.023 C 
ATOM     10  C   LIG d   1       9.198  -3.589  -7.096  0.00  0.00    -0.043 C 
ATOM     11  C   LIG d   1       9.056  -2.993  -5.683  0.00  0.00    -0.008 C 
ATOM     12  H   LIG d   1       9.855  -2.268  -5.465  0.00  0.00     0.035 H 
ATOM     13  C   LIG d   1       4.936  -3.248  -8.264  0.00  0.00    -0.045 C 
ATOM     14  C   LIG d   1       3.603  -2.595  -8.635  0.00  0.00    -0.023 C 
ATOM     15  C   LIG d   1       3.844  -1.144  -9.057  0.00  0.00     0.079 C 
ATOM     16  C   LIG d   1       4.483  -0.376  -7.898  0.00  0.00     0.038 C 
ATOM     17  C   LIG d   1       4.725   1.074  -8.321  0.00  0.00    -0.037 C 
ATOM     18  C   LIG d   1       5.661   1.104  -9.530  0.00  0.00    -0.026 C 
ATOM     19  C   LIG d   1       5.020   0.337 -10.688  0.00  0.00     0.058 C 
ATOM     20  H   LIG d   1       5.641   0.390 -11.595  0.00  0.00     0.059 H 
ATOM     21  C   LIG d   1       4.778  -1.114 -10.267  0.00  0.00     0.003 C 
ATOM     22  H   LIG d   1       8.280  -0.317  -5.252  0.00  0.00     0.027 H 
ATOM     23  H   LIG d   1       8.433  -0.849  -6.961  0.00  0.00     0.027 H 
ATOM     24  H   LIG d   1       5.799  -0.336  -5.487  0.00  0.00     0.027 H 
ATOM     25  H   LIG d   1       6.583   0.784  -6.654  0.00  0.00     0.027 H 
ATOM     26  H   LIG d   1       7.559  -4.142  -8.465  0.00  0.00     0.029 H 
ATOM     27  H   LIG d   1       7.898  -2.380  -8.406  0.00  0.00     0.029 H 
ATOM     28  H   LIG d   1       9.369  -4.675  -7.052  0.00  0.00     0.027 H 
ATOM     29  H   LIG d   1      10.021  -3.110  -7.646  0.00  0.00     0.027 H 
ATOM     30  H   LIG d   1       5.609  -3.226  -9.134  0.00  0.00     0.027 H 
ATOM     31  H   LIG d   1       4.762  -4.290  -7.960  0.00  0.00     0.027 H 
ATOM     32  H   LIG d   1       3.143  -3.148  -9.468  0.00  0.00     0.029 H 
ATOM     33  H   LIG d   1       2.929  -2.617  -7.765  0.00  0.00     0.029 H 
ATOM     34  H   LIG d   1       3.767   1.545  -8.585  0.00  0.00     0.028 H 
ATOM     35  H   LIG d   1       5.186   1.626  -7.487  0.00  0.00     0.028 H 
ATOM     36  H   LIG d   1       5.835   2.148  -9.834  0.00  0.00     0.029 H 
ATOM     37  H   LIG d   1       6.619   0.635  -9.265  0.00  0.00     0.029 H 
ATOM     38  H   LIG d   1       5.737  -1.584 -10.002  0.00  0.00     0.032 H 
ATOM     39  H   LIG d   1       4.318  -1.666 -11.100  0.00  0.00     0.032 H 
ENDROOT
BRANCH  16  40
ATOM     40  C   LIG d   1       3.559  -0.405  -6.707  0.00  0.00     0.009 C 
ATOM     41  N   LIG d   1       3.244   0.685  -6.117  0.00  0.00    -0.290 NA
ATOM     42  H   LIG d   1       3.158  -1.363  -6.346  0.00  0.00     0.079 H 
BRANCH  41  43
ATOM     43  C   LIG d   1       2.347   0.657  -4.959  0.00  0.00     0.064 C 
ATOM     44  H   LIG d   1       1.942   1.664  -4.785  0.00  0.00     0.056 H 
ATOM     45  H   LIG d   1       1.519  -0.042  -5.153  0.00  0.00     0.056 H 
BRANCH  43  46
ATOM     46  C   LIG d   1       3.110   0.205  -3.742  0.00  0.00    -0.023 A 
ATOM     47  C   LIG d   1       3.169  -1.137  -3.399  0.00  0.00    -0.039 A 
ATOM     48  C   LIG d   1       3.879  -1.515  -2.274  0.00  0.00     0.028 A 
ATOM     49  H   LIG d   1       2.669  -1.879  -4.004  0.00  0.00     0.064 H 
ATOM     50  N   LIG d   1       4.495  -0.615  -1.531  0.00  0.00    -0.263 NA
ATOM     51  H   LIG d   1       3.930  -2.558  -2.000  0.00  0.00     0.083 H 
ATOM     52  C   LIG d   1       4.458   0.669  -1.826  0.00  0.00     0.028 A 
ATOM     53  C   LIG d   1       3.765   1.121  -2.933  0.00  0.00    -0.039 A 
ATOM     54  H   LIG d   1       4.974   1.377  -1.194  0.00  0.00     0.083 H 
ATOM     55  H   LIG d   1       3.736   2.176  -3.167  0.00  0.00     0.064 H 
ENDBRANCH  43  46
ENDBRANCH  41  43
ENDBRANCH  16  40
BRANCH  15  56
ATOM     56  O   LIG d   1       2.598  -0.536  -9.403  0.00  0.00    -0.388 OA
ATOM     57  H   LIG d   1       1.911  -1.047 -10.095  0.00  0.00     0.210 HD
ENDBRANCH  15  56
BRANCH   8  58
ATOM     58  O   LIG d   1       6.545  -4.442  -6.136  0.00  0.00    -0.388 OA
ATOM     59  H   LIG d   1       7.355  -5.102  -5.792  0.00  0.00     0.210 HD
ENDBRANCH   8  58
BRANCH  19  60
ATOM     60  O   LIG d   1       3.774   0.946 -11.033  0.00  0.00    -0.392 OA
ATOM     61  H   LIG d   1       2.861   0.335 -11.093  0.00  0.00     0.210 HD
ENDBRANCH  19  60
BRANCH   1  62
ATOM     62  C   LIG d   1       7.011  -2.454  -4.231  0.00  0.00    -0.056 C 
ATOM     63  H   LIG d   1       6.065  -1.893  -4.216  0.00  0.00     0.024 H 
ATOM     64  H   LIG d   1       7.699  -2.033  -3.482  0.00  0.00     0.024 H 
ATOM     65  H   LIG d   1       6.814  -3.511  -3.994  0.00  0.00     0.024 H 
ENDBRANCH   1  62
BRANCH  11  66
ATOM     66  C   LIG d   1       9.177  -4.081  -4.647  0.00  0.00    -0.022 A 
ATOM     67  C   LIG d   1       8.995  -5.563  -4.876  0.00  0.00     0.115 A 
ATOM     68  O   LIG d   1       9.214  -6.198  -3.586  0.00  0.00    -0.457 OA
ATOM     69  H   LIG d   1       7.977  -5.755  -5.246  0.00  0.00     0.075 H 
ATOM     70  H   LIG d   1       9.726  -5.912  -5.620  0.00  0.00     0.075 H 
ATOM     71  C   LIG d   1       9.483  -5.226  -2.695  0.00  0.00     0.332 A 
ATOM     72  C   LIG d   1       9.459  -3.919  -3.357  0.00  0.00     0.025 A 
ATOM     73  O   LIG d   1       9.714  -5.405  -1.514  0.00  0.00    -0.246 OA
ATOM     74  H   LIG d   1       9.631  -2.911  -2.955  0.00  0.00     0.069 H 
ENDBRANCH  11  66
TORSDOF 8
ENDMDL
MODEL 3
REMARK VINA RESULT:      -7.0      3.194      6.054
REMARK  8 active torsions:
REMARK  status: ('A' for Active; 'I' for Inactive)
REMARK    1  A    between atoms: C_1  and  C_2 
REMARK    2  A    between atoms: C_9  and  O_20 
REMARK    3  A    between atoms: C_12  and  C_14 
REMARK    4  A    between atoms: C_23  and  O_40 
REMARK    5  A    between atoms: C_24  and  C_31 
REMARK    6  A    between atoms: C_27  and  O_30 
REMARK    7  A    between atoms: N_32  and  C_33 
REMARK    8  A    between atoms: C_33  and  C_34 
ROOT
ATOM      1  C   LIG d   1       5.852  -1.683  -5.881  0.00  0.00     0.004 C 
ATOM      2  C   LIG d   1       6.928  -1.633  -6.969  0.00  0.00    -0.044 C 
ATOM      3  C   LIG d   1       6.310  -1.842  -8.350  0.00  0.00    -0.048 C 
ATOM      4  C   LIG d   1       5.673  -3.217  -8.400  0.00  0.00    -0.022 C 
ATOM      5  H   LIG d   1       6.434  -3.977  -8.168  0.00  0.00     0.031 H 
ATOM      6  C   LIG d   1       4.546  -3.290  -7.373  0.00  0.00    -0.008 C 
ATOM      7  H   LIG d   1       3.802  -2.517  -7.615  0.00  0.00     0.033 H 
ATOM      8  C   LIG d   1       5.040  -2.986  -5.979  0.00  0.00     0.075 C 
ATOM      9  C   LIG d   1       6.027  -4.047  -5.456  0.00  0.00    -0.023 C 
ATOM     10  C   LIG d   1       6.718  -3.349  -4.268  0.00  0.00    -0.043 C 
ATOM     11  C   LIG d   1       6.595  -1.836  -4.527  0.00  0.00    -0.008 C 
ATOM     12  H   LIG d   1       7.578  -1.342  -4.532  0.00  0.00     0.035 H 
ATOM     13  C   LIG d   1       3.898  -4.675  -7.420  0.00  0.00    -0.045 C 
ATOM     14  C   LIG d   1       3.332  -4.924  -8.820  0.00  0.00    -0.023 C 
ATOM     15  C   LIG d   1       4.462  -4.854  -9.848  0.00  0.00     0.079 C 
ATOM     16  C   LIG d   1       5.109  -3.467  -9.800  0.00  0.00     0.038 C 
ATOM     17  C   LIG d   1       6.240  -3.397 -10.827  0.00  0.00    -0.037 C 
ATOM     18  C   LIG d   1       7.290  -4.461 -10.505  0.00  0.00    -0.026 C 
ATOM     19  C   LIG d   1       6.642  -5.847 -10.556  0.00  0.00     0.058 C 
ATOM     20  H   LIG d   1       7.384  -6.641 -10.388  0.00  0.00     0.059 H 
ATOM     21  C   LIG d   1       5.511  -5.918  -9.527  0.00  0.00     0.003 C 
ATOM     22  H   LIG d   1       7.426  -0.653  -6.947  0.00  0.00     0.027 H 
ATOM     23  H   LIG d   1       7.669  -2.426  -6.788  0.00  0.00     0.027 H 
ATOM     24  H   LIG d   1       5.546  -1.071  -8.530  0.00  0.00     0.027 H 
ATOM     25  H   LIG d   1       7.095  -1.767  -9.117  0.00  0.00     0.027 H 
ATOM     26  H   LIG d   1       5.471  -4.943  -5.146  0.00  0.00     0.029 H 
ATOM     27  H   LIG d   1       6.736  -4.312  -6.253  0.00  0.00     0.029 H 
ATOM     28  H   LIG d   1       6.214  -3.632  -3.333  0.00  0.00     0.027 H 
ATOM     29  H   LIG d   1       7.773  -3.658  -4.225  0.00  0.00     0.027 H 
ATOM     30  H   LIG d   1       4.652  -5.440  -7.189  0.00  0.00     0.027 H 
ATOM     31  H   LIG d   1       3.085  -4.725  -6.681  0.00  0.00     0.027 H 
ATOM     32  H   LIG d   1       2.866  -5.921  -8.855  0.00  0.00     0.029 H 
ATOM     33  H   LIG d   1       2.576  -4.159  -9.051  0.00  0.00     0.029 H 
ATOM     34  H   LIG d   1       5.833  -3.574 -11.834  0.00  0.00     0.028 H 
ATOM     35  H   LIG d   1       6.706  -2.400 -10.791  0.00  0.00     0.028 H 
ATOM     36  H   LIG d   1       8.104  -4.410 -11.245  0.00  0.00     0.029 H 
ATOM     37  H   LIG d   1       7.697  -4.283  -9.499  0.00  0.00     0.029 H 
ATOM     38  H   LIG d   1       5.919  -5.740  -8.521  0.00  0.00     0.032 H 
ATOM     39  H   LIG d   1       5.046  -6.915  -9.563  0.00  0.00     0.032 H 
ENDROOT
BRANCH  16  40
ATOM     40  C   LIG d   1       4.074  -2.419 -10.119  0.00  0.00     0.009 C 
ATOM     41  N   LIG d   1       4.172  -1.730 -11.192  0.00  0.00    -0.290 NA
ATOM     42  H   LIG d   1       3.235  -2.247  -9.429  0.00  0.00     0.079 H 
BRANCH  41  43
ATOM     43  C   LIG d   1       3.166  -0.711 -11.502  0.00  0.00     0.064 C 
ATOM     44  H   LIG d   1       3.369  -0.287 -12.496  0.00  0.00     0.056 H 
ATOM     45  H   LIG d   1       2.166  -1.169 -11.495  0.00  0.00     0.056 H 
BRANCH  43  46
ATOM     46  C   LIG d   1       3.224   0.384 -10.468  0.00  0.00    -0.023 A 
ATOM     47  C   LIG d   1       2.447   0.320  -9.322  0.00  0.00    -0.039 A 
ATOM     48  C   LIG d   1       2.526   1.343  -8.396  0.00  0.00     0.028 A 
ATOM     49  H   LIG d   1       1.789  -0.521  -9.153  0.00  0.00     0.064 H 
ATOM     50  N   LIG d   1       3.328   2.372  -8.594  0.00  0.00    -0.263 NA
ATOM     51  H   LIG d   1       1.924   1.301  -7.501  0.00  0.00     0.083 H 
ATOM     52  C   LIG d   1       4.080   2.466  -9.673  0.00  0.00     0.028 A 
ATOM     53  C   LIG d   1       4.050   1.484 -10.644  0.00  0.00    -0.039 A 
ATOM     54  H   LIG d   1       4.724   3.324  -9.801  0.00  0.00     0.083 H 
ATOM     55  H   LIG d   1       4.666   1.569 -11.528  0.00  0.00     0.064 H 
ENDBRANCH  43  46
ENDBRANCH  41  43
ENDBRANCH  16  40
BRANCH  15  56
ATOM     56  O   LIG d   1       3.932  -5.086 -11.155  0.00  0.00    -0.388 OA
ATOM     57  H   LIG d   1       4.563  -4.921 -12.041  0.00  0.00     0.210 HD
ENDBRANCH  15  56
BRANCH   8  58
ATOM     58  O   LIG d   1       3.922  -2.909  -5.091  0.00  0.00    -0.388 OA
ATOM     59  H   LIG d   1       3.508  -3.826  -4.647  0.00  0.00     0.210 HD
ENDBRANCH   8  58
BRANCH  19  60
ATOM     60  O   LIG d   1       6.112  -6.079 -11.862  0.00  0.00    -0.392 OA
ATOM     61  H   LIG d   1       6.663  -6.707 -12.577  0.00  0.00     0.210 HD
ENDBRANCH  19  60
BRANCH   1  62
ATOM     62  C   LIG d   1       4.949  -0.449  -5.924  0.00  0.00    -0.056 C 
ATOM     63  H   LIG d   1       4.502  -0.285  -4.932  0.00  0.00     0.024 H 
ATOM     64  H   LIG d   1       4.150  -0.605  -6.665  0.00  0.00     0.024 H 
ATOM     65  H   LIG d   1       5.545   0.432  -6.208  0.00  0.00     0.024 H 
ENDBRANCH   1  62
BRANCH  11  66
ATOM     66  C   LIG d   1       5.800  -1.185  -3.424  0.00  0.00    -0.022 A 
ATOM     67  C   LIG d   1       4.793  -1.861  -2.523  0.00  0.00     0.115 A 
ATOM     68  O   LIG d   1       4.300  -0.827  -1.626  0.00  0.00    -0.457 OA
ATOM     69  H   LIG d   1       3.979  -2.281  -3.132  0.00  0.00     0.075 H 
ATOM     70  H   LIG d   1       5.286  -2.670  -1.964  0.00  0.00     0.075 H 
ATOM     71  C   LIG d   1       4.920   0.322  -1.950  0.00  0.00     0.332 A 
ATOM     72  C   LIG d   1       5.846   0.094  -3.063  0.00  0.00     0.025 A 
ATOM     73  O   LIG d   1       4.740   1.391  -1.401  0.00  0.00    -0.246 OA
ATOM     74  H   LIG d   1       6.517   0.790  -3.588  0.00  0.00     0.069 H 
ENDBRANCH  11  66
TORSDOF 8
ENDMDL
MODEL 4
REMARK VINA RESULT:      -6.7      3.163      4.600
REMARK  8 active torsions:
REMARK  status: ('A' for Active; 'I' for Inactive)
REMARK    1  A    between atoms: C_1  and  C_2 
REMARK    2  A    between atoms: C_9  and  O_20 
REMARK    3  A    between atoms: C_12  and  C_14 
REMARK    4  A    between atoms: C_23  and  O_40 
REMARK    5  A    between atoms: C_24  and  C_31 
REMARK    6  A    between atoms: C_27  and  O_30 
REMARK    7  A    between atoms: N_32  and  C_33 
REMARK    8  A    between atoms: C_33  and  C_34 
ROOT
ATOM      1  C   LIG d   1       2.232  -4.476 -10.965  0.00  0.00     0.004 C 
ATOM      2  C   LIG d   1       3.723  -4.257 -11.234  0.00  0.00    -0.044 C 
ATOM      3  C   LIG d   1       4.375  -3.500 -10.081  0.00  0.00    -0.048 C 
ATOM      4  C   LIG d   1       3.728  -2.134  -9.962  0.00  0.00    -0.022 C 
ATOM      5  H   LIG d   1       3.831  -1.600 -10.919  0.00  0.00     0.031 H 
ATOM      6  C   LIG d   1       2.247  -2.304  -9.626  0.00  0.00    -0.008 C 
ATOM      7  H   LIG d   1       2.166  -2.848  -8.674  0.00  0.00     0.033 H 
ATOM      8  C   LIG d   1       1.533  -3.140 -10.660  0.00  0.00     0.075 C 
ATOM      9  C   LIG d   1       1.479  -2.458 -12.040  0.00  0.00    -0.023 C 
ATOM     10  C   LIG d   1       1.128  -3.608 -13.003  0.00  0.00    -0.043 C 
ATOM     11  C   LIG d   1       1.594  -4.904 -12.313  0.00  0.00    -0.008 C 
ATOM     12  H   LIG d   1       2.293  -5.473 -12.944  0.00  0.00     0.035 H 
ATOM     13  C   LIG d   1       1.589  -0.928  -9.503  0.00  0.00    -0.045 C 
ATOM     14  C   LIG d   1       2.277  -0.132  -8.393  0.00  0.00    -0.023 C 
ATOM     15  C   LIG d   1       3.759   0.040  -8.730  0.00  0.00     0.079 C 
ATOM     16  C   LIG d   1       4.417  -1.337  -8.853  0.00  0.00     0.038 C 
ATOM     17  C   LIG d   1       5.899  -1.165  -9.192  0.00  0.00    -0.037 C 
ATOM     18  C   LIG d   1       6.036  -0.414 -10.517  0.00  0.00    -0.026 C 
ATOM     19  C   LIG d   1       5.379   0.962 -10.393  0.00  0.00     0.058 C 
ATOM     20  H   LIG d   1       5.514   1.554 -11.311  0.00  0.00     0.059 H 
ATOM     21  C   LIG d   1       3.897   0.792 -10.054  0.00  0.00     0.003 C 
ATOM     22  H   LIG d   1       4.221  -5.231 -11.347  0.00  0.00     0.027 H 
ATOM     23  H   LIG d   1       3.847  -3.673 -12.158  0.00  0.00     0.027 H 
ATOM     24  H   LIG d   1       4.233  -4.062  -9.146  0.00  0.00     0.027 H 
ATOM     25  H   LIG d   1       5.451  -3.386 -10.279  0.00  0.00     0.027 H 
ATOM     26  H   LIG d   1       0.708  -1.673 -12.031  0.00  0.00     0.029 H 
ATOM     27  H   LIG d   1       2.456  -2.008 -12.265  0.00  0.00     0.029 H 
ATOM     28  H   LIG d   1       0.043  -3.621 -13.179  0.00  0.00     0.027 H 
ATOM     29  H   LIG d   1       1.653  -3.459 -13.958  0.00  0.00     0.027 H 
ATOM     30  H   LIG d   1       1.687  -0.388 -10.456  0.00  0.00     0.027 H 
ATOM     31  H   LIG d   1       0.524  -1.052  -9.259  0.00  0.00     0.027 H 
ATOM     32  H   LIG d   1       1.804   0.858  -8.304  0.00  0.00     0.029 H 
ATOM     33  H   LIG d   1       2.178  -0.671  -7.439  0.00  0.00     0.029 H 
ATOM     34  H   LIG d   1       6.394  -0.594  -8.393  0.00  0.00     0.028 H 
ATOM     35  H   LIG d   1       6.371  -2.155  -9.281  0.00  0.00     0.028 H 
ATOM     36  H   LIG d   1       7.102  -0.291 -10.761  0.00  0.00     0.029 H 
ATOM     37  H   LIG d   1       5.541  -0.986 -11.316  0.00  0.00     0.029 H 
ATOM     38  H   LIG d   1       3.402   0.220 -10.854  0.00  0.00     0.032 H 
ATOM     39  H   LIG d   1       3.424   1.781  -9.966  0.00  0.00     0.032 H 
ENDROOT
BRANCH  16  40
ATOM     40  C   LIG d   1       4.282  -2.075  -7.546  0.00  0.00     0.009 C 
ATOM     41  N   LIG d   1       4.969  -1.707  -6.531  0.00  0.00    -0.290 NA
ATOM     42  H   LIG d   1       3.594  -2.929  -7.465  0.00  0.00     0.079 H 
BRANCH  41  43
ATOM     43  C   LIG d   1       4.839  -2.425  -5.260  0.00  0.00     0.064 C 
ATOM     44  H   LIG d   1       4.087  -3.221  -5.365  0.00  0.00     0.056 H 
ATOM     45  H   LIG d   1       5.808  -2.870  -4.989  0.00  0.00     0.056 H 
BRANCH  43  46
ATOM     46  C   LIG d   1       4.408  -1.466  -4.182  0.00  0.00    -0.023 A 
ATOM     47  C   LIG d   1       4.761  -1.679  -2.859  0.00  0.00    -0.039 A 
ATOM     48  C   LIG d   1       4.347  -0.778  -1.896  0.00  0.00     0.028 A 
ATOM     49  H   LIG d   1       5.355  -2.539  -2.583  0.00  0.00     0.064 H 
ATOM     50  N   LIG d   1       3.623   0.275  -2.225  0.00  0.00    -0.263 NA
ATOM     51  H   LIG d   1       4.619  -0.937  -0.863  0.00  0.00     0.083 H 
ATOM     52  C   LIG d   1       3.267   0.509  -3.472  0.00  0.00     0.028 A 
ATOM     53  C   LIG d   1       3.641  -0.352  -4.487  0.00  0.00    -0.039 A 
ATOM     54  H   LIG d   1       2.673   1.381  -3.704  0.00  0.00     0.083 H 
ATOM     55  H   LIG d   1       3.343  -0.156  -5.508  0.00  0.00     0.064 H 
ENDBRANCH  43  46
ENDBRANCH  41  43
ENDBRANCH  16  40
BRANCH  15  56
ATOM     56  O   LIG d   1       4.401   0.784  -7.692  0.00  0.00    -0.388 OA
ATOM     57  H   LIG d   1       4.581   0.316  -6.712  0.00  0.00     0.210 HD
ENDBRANCH  15  56
BRANCH   8  58
ATOM     58  O   LIG d   1       0.200  -3.400 -10.214  0.00  0.00    -0.388 OA
ATOM     59  H   LIG d   1      -0.651  -2.910 -10.710  0.00  0.00     0.210 HD
ENDBRANCH   8  58
BRANCH  19  60
ATOM     60  O   LIG d   1       6.021   1.705  -9.354  0.00  0.00    -0.392 OA
ATOM     61  H   LIG d   1       5.903   1.399  -8.305  0.00  0.00     0.210 HD
ENDBRANCH  19  60
BRANCH   1  62
ATOM     62  C   LIG d   1       2.005  -5.501  -9.852  0.00  0.00    -0.056 C 
ATOM     63  H   LIG d   1       2.532  -6.434 -10.099  0.00  0.00     0.024 H 
ATOM     64  H   LIG d   1       0.927  -5.703  -9.755  0.00  0.00     0.024 H 
ATOM     65  H   LIG d   1       2.390  -5.102  -8.901  0.00  0.00     0.024 H 
ENDBRANCH   1  62
BRANCH  11  66
ATOM     66  C   LIG d   1       0.415  -5.809 -12.064  0.00  0.00    -0.022 A 
ATOM     67  C   LIG d   1       0.468  -7.283 -11.734  0.00  0.00     0.115 A 
ATOM     68  O   LIG d   1      -0.915  -7.709 -11.582  0.00  0.00    -0.457 OA
ATOM     69  H   LIG d   1       0.963  -7.824 -12.553  0.00  0.00     0.075 H 
ATOM     70  H   LIG d   1       1.033  -7.430 -10.803  0.00  0.00     0.075 H 
ATOM     71  C   LIG d   1      -1.698  -6.636 -11.801  0.00  0.00     0.332 A 
ATOM     72  C   LIG d   1      -0.870  -5.465 -12.098  0.00  0.00     0.025 A 
ATOM     73  O   LIG d   1      -2.913  -6.638 -11.757  0.00  0.00    -0.246 OA
ATOM     74  H   LIG d   1      -1.154  -4.427 -12.325  0.00  0.00     0.069 H 
ENDBRANCH  11  66
TORSDOF 8
ENDMDL
MODEL 5
REMARK VINA RESULT:      -6.6      3.844      6.202
REMARK  8 active torsions:
REMARK  status: ('A' for Active; 'I' for Inactive)
REMARK    1  A    between atoms: C_1  and  C_2 
REMARK    2  A    between atoms: C_9  and  O_20 
REMARK    3  A    between atoms: C_12  and  C_14 
REMARK    4  A    between atoms: C_23  and  O_40 
REMARK    5  A    between atoms: C_24  and  C_31 
REMARK    6  A    between atoms: C_27  and  O_30 
REMARK    7  A    between atoms: N_32  and  C_33 
REMARK    8  A    between atoms: C_33  and  C_34 
ROOT
ATOM      1  C   LIG d   1       7.607  -4.228  -5.693  0.00  0.00     0.004 C 
ATOM      2  C   LIG d   1       6.195  -4.518  -5.176  0.00  0.00    -0.044 C 
ATOM      3  C   LIG d   1       5.297  -3.295  -5.340  0.00  0.00    -0.048 C 
ATOM      4  C   LIG d   1       5.861  -2.157  -4.511  0.00  0.00    -0.022 C 
ATOM      5  H   LIG d   1       5.937  -2.477  -3.462  0.00  0.00     0.031 H 
ATOM      6  C   LIG d   1       7.247  -1.788  -5.037  0.00  0.00    -0.008 C 
ATOM      7  H   LIG d   1       7.152  -1.482  -6.088  0.00  0.00     0.033 H 
ATOM      8  C   LIG d   1       8.184  -2.971  -5.019  0.00  0.00     0.075 C 
ATOM      9  C   LIG d   1       8.495  -3.459  -3.591  0.00  0.00    -0.023 C 
ATOM     10  C   LIG d   1       9.072  -4.872  -3.805  0.00  0.00    -0.043 C 
ATOM     11  C   LIG d   1       8.519  -5.362  -5.156  0.00  0.00    -0.008 C 
ATOM     12  H   LIG d   1       7.983  -6.317  -5.055  0.00  0.00     0.035 H 
ATOM     13  C   LIG d   1       7.821  -0.639  -4.205  0.00  0.00    -0.045 C 
ATOM     14  C   LIG d   1       6.895   0.575  -4.308  0.00  0.00    -0.023 C 
ATOM     15  C   LIG d   1       5.507   0.205  -3.779  0.00  0.00     0.079 C 
ATOM     16  C   LIG d   1       4.935  -0.944  -4.612  0.00  0.00     0.038 C 
ATOM     17  C   LIG d   1       3.548  -1.315  -4.083  0.00  0.00    -0.037 C 
ATOM     18  C   LIG d   1       3.658  -1.749  -2.621  0.00  0.00    -0.026 C 
ATOM     19  C   LIG d   1       4.230  -0.599  -1.790  0.00  0.00     0.058 C 
ATOM     20  H   LIG d   1       4.265  -0.858  -0.721  0.00  0.00     0.059 H 
ATOM     21  C   LIG d   1       5.617  -0.228  -2.318  0.00  0.00     0.003 C 
ATOM     22  H   LIG d   1       5.763  -5.355  -5.744  0.00  0.00     0.027 H 
ATOM     23  H   LIG d   1       6.242  -4.784  -4.110  0.00  0.00     0.027 H 
ATOM     24  H   LIG d   1       5.266  -3.003  -6.401  0.00  0.00     0.027 H 
ATOM     25  H   LIG d   1       4.281  -3.538  -4.996  0.00  0.00     0.027 H 
ATOM     26  H   LIG d   1       9.221  -2.780  -3.121  0.00  0.00     0.029 H 
ATOM     27  H   LIG d   1       7.570  -3.473  -2.998  0.00  0.00     0.029 H 
ATOM     28  H   LIG d   1      10.171  -4.821  -3.822  0.00  0.00     0.027 H 
ATOM     29  H   LIG d   1       8.748  -5.528  -2.984  0.00  0.00     0.027 H 
ATOM     30  H   LIG d   1       7.900  -0.951  -3.154  0.00  0.00     0.027 H 
ATOM     31  H   LIG d   1       8.818  -0.373  -4.586  0.00  0.00     0.027 H 
ATOM     32  H   LIG d   1       7.307   1.402  -3.709  0.00  0.00     0.029 H 
ATOM     33  H   LIG d   1       6.816   0.888  -5.359  0.00  0.00     0.029 H 
ATOM     34  H   LIG d   1       2.881  -0.443  -4.159  0.00  0.00     0.028 H 
ATOM     35  H   LIG d   1       3.137  -2.142  -4.682  0.00  0.00     0.028 H 
ATOM     36  H   LIG d   1       2.660  -2.016  -2.241  0.00  0.00     0.029 H 
ATOM     37  H   LIG d   1       4.324  -2.621  -2.547  0.00  0.00     0.029 H 
ATOM     38  H   LIG d   1       6.283  -1.101  -2.242  0.00  0.00     0.032 H 
ATOM     39  H   LIG d   1       6.028   0.598  -1.719  0.00  0.00     0.032 H 
ENDROOT
BRANCH  16  40
ATOM     40  C   LIG d   1       4.825  -0.514  -6.053  0.00  0.00     0.009 C 
ATOM     41  N   LIG d   1       3.720  -0.048  -6.498  0.00  0.00    -0.290 NA
ATOM     42  H   LIG d   1       5.695  -0.601  -6.720  0.00  0.00     0.079 H 
BRANCH  41  43
ATOM     43  C   LIG d   1       3.614   0.369  -7.898  0.00  0.00     0.064 C 
ATOM     44  H   LIG d   1       2.996   1.278  -7.964  0.00  0.00     0.056 H 
ATOM     45  H   LIG d   1       4.618   0.580  -8.296  0.00  0.00     0.056 H 
BRANCH  43  46
ATOM     46  C   LIG d   1       2.974  -0.731  -8.704  0.00  0.00    -0.023 A 
ATOM     47  C   LIG d   1       1.880  -0.473  -9.516  0.00  0.00    -0.039 A 
ATOM     48  C   LIG d   1       1.319  -1.509 -10.241  0.00  0.00     0.028 A 
ATOM     49  H   LIG d   1       1.472   0.525  -9.583  0.00  0.00     0.064 H 
ATOM     50  N   LIG d   1       1.813  -2.730 -10.165  0.00  0.00    -0.263 NA
ATOM     51  H   LIG d   1       0.468  -1.316 -10.875  0.00  0.00     0.083 H 
ATOM     52  C   LIG d   1       2.851  -3.011  -9.402  0.00  0.00     0.028 A 
ATOM     53  C   LIG d   1       3.461  -2.028  -8.646  0.00  0.00    -0.039 A 
ATOM     54  H   LIG d   1       3.228  -4.023  -9.366  0.00  0.00     0.083 H 
ATOM     55  H   LIG d   1       4.309  -2.267  -8.020  0.00  0.00     0.064 H 
ENDBRANCH  43  46
ENDBRANCH  41  43
ENDBRANCH  16  40
BRANCH  15  56
ATOM     56  O   LIG d   1       4.644   1.340  -3.876  0.00  0.00    -0.388 OA
ATOM     57  H   LIG d   1       4.888   2.264  -3.329  0.00  0.00     0.210 HD
ENDBRANCH  15  56
BRANCH   8  58
ATOM     58  O   LIG d   1       9.407  -2.612  -5.667  0.00  0.00    -0.388 OA
ATOM     59  H   LIG d   1       9.386  -1.983  -6.569  0.00  0.00     0.210 HD
ENDBRANCH   8  58
BRANCH  19  60
ATOM     60  O   LIG d   1       3.365   0.535  -1.887  0.00  0.00    -0.392 OA
ATOM     61  H   LIG d   1       2.687   0.639  -2.747  0.00  0.00     0.210 HD
ENDBRANCH  19  60
BRANCH   1  62
ATOM     62  C   LIG d   1       7.637  -4.116  -7.218  0.00  0.00    -0.056 C 
ATOM     63  H   LIG d   1       8.412  -4.786  -7.620  0.00  0.00     0.024 H 
ATOM     64  H   LIG d   1       7.864  -3.078  -7.505  0.00  0.00     0.024 H 
ATOM     65  H   LIG d   1       6.657  -4.404  -7.627  0.00  0.00     0.024 H 
ENDBRANCH   1  62
BRANCH  11  66
ATOM     66  C   LIG d   1       9.653  -5.614  -6.118  0.00  0.00    -0.022 A 
ATOM     67  C   LIG d   1       9.579  -6.395  -7.409  0.00  0.00     0.115 A 
ATOM     68  O   LIG d   1      10.918  -6.355  -7.978  0.00  0.00    -0.457 OA
ATOM     69  H   LIG d   1       9.270  -7.429  -7.194  0.00  0.00     0.075 H 
ATOM     70  H   LIG d   1       8.847  -5.926  -8.081  0.00  0.00     0.075 H 
ATOM     71  C   LIG d   1      11.697  -5.650  -7.137  0.00  0.00     0.332 A 
ATOM     72  C   LIG d   1      10.909  -5.194  -5.989  0.00  0.00     0.025 A 
ATOM     73  O   LIG d   1      12.879  -5.424  -7.306  0.00  0.00    -0.246 OA
ATOM     74  H   LIG d   1      11.202  -4.600  -5.111  0.00  0.00     0.069 H 
ENDBRANCH  11  66
TORSDOF 8
ENDMDL
MODEL 6
REMARK VINA RESULT:      -6.4      3.816      5.559
REMARK  8 active torsions:
REMARK  status: ('A' for Active; 'I' for Inactive)
REMARK    1  A    between atoms: C_1  and  C_2 
REMARK    2  A    between atoms: C_9  and  O_20 
REMARK    3  A    between atoms: C_12  and  C_14 
REMARK    4  A    between atoms: C_23  and  O_40 
REMARK    5  A    between atoms: C_24  and  C_31 
REMARK    6  A    between atoms: C_27  and  O_30 
REMARK    7  A    between atoms: N_32  and  C_33 
REMARK    8  A    between atoms: C_33  and  C_34 
ROOT
ATOM      1  C   LIG d   1       2.126  -2.938 -11.149  0.00  0.00     0.004 C 
ATOM      2  C   LIG d   1       3.305  -3.620 -10.450  0.00  0.00    -0.044 C 
ATOM      3  C   LIG d   1       3.775  -2.795  -9.255  0.00  0.00    -0.048 C 
ATOM      4  C   LIG d   1       4.257  -1.444  -9.749  0.00  0.00    -0.022 C 
ATOM      5  H   LIG d   1       5.057  -1.594 -10.489  0.00  0.00     0.031 H 
ATOM      6  C   LIG d   1       3.091  -0.699 -10.397  0.00  0.00    -0.008 C 
ATOM      7  H   LIG d   1       2.299  -0.568  -9.645  0.00  0.00     0.033 H 
ATOM      8  C   LIG d   1       2.482  -1.490 -11.528  0.00  0.00     0.075 C 
ATOM      9  C   LIG d   1       3.452  -1.674 -12.712  0.00  0.00    -0.023 C 
ATOM     10  C   LIG d   1       2.827  -2.827 -13.520  0.00  0.00    -0.043 C 
ATOM     11  C   LIG d   1       1.965  -3.630 -12.528  0.00  0.00    -0.008 C 
ATOM     12  H   LIG d   1       2.258  -4.691 -12.500  0.00  0.00     0.035 H 
ATOM     13  C   LIG d   1       3.571   0.666 -10.896  0.00  0.00    -0.045 C 
ATOM     14  C   LIG d   1       4.106   1.480  -9.716  0.00  0.00    -0.023 C 
ATOM     15  C   LIG d   1       5.275   0.734  -9.069  0.00  0.00     0.079 C 
ATOM     16  C   LIG d   1       4.794  -0.631  -8.570  0.00  0.00     0.038 C 
ATOM     17  C   LIG d   1       5.962  -1.378  -7.924  0.00  0.00    -0.037 C 
ATOM     18  C   LIG d   1       7.075  -1.574  -8.954  0.00  0.00    -0.026 C 
ATOM     19  C   LIG d   1       7.556  -0.209  -9.451  0.00  0.00     0.058 C 
ATOM     20  H   LIG d   1       8.399  -0.312 -10.150  0.00  0.00     0.059 H 
ATOM     21  C   LIG d   1       6.388   0.538 -10.098  0.00  0.00     0.003 C 
ATOM     22  H   LIG d   1       2.996  -4.614 -10.096  0.00  0.00     0.027 H 
ATOM     23  H   LIG d   1       4.140  -3.726 -11.158  0.00  0.00     0.027 H 
ATOM     24  H   LIG d   1       2.939  -2.658  -8.552  0.00  0.00     0.027 H 
ATOM     25  H   LIG d   1       4.598  -3.320  -8.748  0.00  0.00     0.027 H 
ATOM     26  H   LIG d   1       3.503  -0.740 -13.291  0.00  0.00     0.029 H 
ATOM     27  H   LIG d   1       4.452  -1.925 -12.331  0.00  0.00     0.029 H 
ATOM     28  H   LIG d   1       2.213  -2.415 -14.334  0.00  0.00     0.027 H 
ATOM     29  H   LIG d   1       3.627  -3.452 -13.944  0.00  0.00     0.027 H 
ATOM     30  H   LIG d   1       4.371   0.525 -11.636  0.00  0.00     0.027 H 
ATOM     31  H   LIG d   1       2.730   1.203 -11.360  0.00  0.00     0.027 H 
ATOM     32  H   LIG d   1       4.452   2.462 -10.075  0.00  0.00     0.029 H 
ATOM     33  H   LIG d   1       3.306   1.622  -8.975  0.00  0.00     0.029 H 
ATOM     34  H   LIG d   1       6.346  -0.794  -7.074  0.00  0.00     0.028 H 
ATOM     35  H   LIG d   1       5.616  -2.359  -7.566  0.00  0.00     0.028 H 
ATOM     36  H   LIG d   1       7.916  -2.111  -8.489  0.00  0.00     0.029 H 
ATOM     37  H   LIG d   1       6.691  -2.158  -9.803  0.00  0.00     0.029 H 
ATOM     38  H   LIG d   1       6.004  -0.046 -10.947  0.00  0.00     0.032 H 
ATOM     39  H   LIG d   1       6.733   1.520 -10.456  0.00  0.00     0.032 H 
ENDROOT
BRANCH  16  40
ATOM     40  C   LIG d   1       3.698  -0.436  -7.553  0.00  0.00     0.009 C 
ATOM     41  N   LIG d   1       3.976   0.032  -6.396  0.00  0.00    -0.290 NA
ATOM     42  H   LIG d   1       2.660  -0.695  -7.807  0.00  0.00     0.079 H 
BRANCH  41  43
ATOM     43  C   LIG d   1       2.912   0.221  -5.407  0.00  0.00     0.064 C 
ATOM     44  H   LIG d   1       2.572   1.267  -5.431  0.00  0.00     0.056 H 
ATOM     45  H   LIG d   1       2.068  -0.444  -5.645  0.00  0.00     0.056 H 
BRANCH  43  46
ATOM     46  C   LIG d   1       3.437  -0.106  -4.034  0.00  0.00    -0.023 A 
ATOM     47  C   LIG d   1       3.836   0.901  -3.168  0.00  0.00    -0.039 A 
ATOM     48  C   LIG d   1       4.314   0.563  -1.915  0.00  0.00     0.028 A 
ATOM     49  H   LIG d   1       3.773   1.937  -3.468  0.00  0.00     0.064 H 
ATOM     50  N   LIG d   1       4.392  -0.700  -1.541  0.00  0.00    -0.263 NA
ATOM     51  H   LIG d   1       4.626   1.341  -1.235  0.00  0.00     0.083 H 
ATOM     52  C   LIG d   1       4.022  -1.683  -2.339  0.00  0.00     0.028 A 
ATOM     53  C   LIG d   1       3.540  -1.421  -3.607  0.00  0.00    -0.039 A 
ATOM     54  H   LIG d   1       4.101  -2.705  -1.998  0.00  0.00     0.083 H 
ATOM     55  H   LIG d   1       3.242  -2.232  -4.257  0.00  0.00     0.064 H 
ENDBRANCH  43  46
ENDBRANCH  41  43
ENDBRANCH  16  40
BRANCH  15  56
ATOM     56  O   LIG d   1       5.773   1.495  -7.967  0.00  0.00    -0.388 OA
ATOM     57  H   LIG d   1       5.393   2.512  -7.785  0.00  0.00     0.210 HD
ENDBRANCH  15  56
BRANCH   8  58
ATOM     58  O   LIG d   1       1.304  -0.823 -11.987  0.00  0.00    -0.388 OA
ATOM     59  H   LIG d   1       0.793  -1.173 -12.896  0.00  0.00     0.210 HD
ENDBRANCH   8  58
BRANCH  19  60
ATOM     60  O   LIG d   1       8.054   0.552  -8.349  0.00  0.00    -0.392 OA
ATOM     61  H   LIG d   1       8.947   1.182  -8.474  0.00  0.00     0.210 HD
ENDBRANCH  19  60
BRANCH   1  62
ATOM     62  C   LIG d   1       0.854  -3.004 -10.302  0.00  0.00    -0.056 C 
ATOM     63  H   LIG d   1       0.613  -4.055 -10.083  0.00  0.00     0.024 H 
ATOM     64  H   LIG d   1       0.021  -2.545 -10.856  0.00  0.00     0.024 H 
ATOM     65  H   LIG d   1       1.012  -2.459  -9.359  0.00  0.00     0.024 H 
ENDBRANCH   1  62
BRANCH  11  66
ATOM     66  C   LIG d   1       0.520  -3.601 -12.957  0.00  0.00    -0.022 A 
ATOM     67  C   LIG d   1      -0.581  -4.512 -12.467  0.00  0.00     0.115 A 
ATOM     68  O   LIG d   1      -1.787  -4.095 -13.166  0.00  0.00    -0.457 OA
ATOM     69  H   LIG d   1      -0.326  -5.556 -12.704  0.00  0.00     0.075 H 
ATOM     70  H   LIG d   1      -0.693  -4.400 -11.379  0.00  0.00     0.075 H 
ATOM     71  C   LIG d   1      -1.454  -3.073 -13.976  0.00  0.00     0.332 A 
ATOM     72  C   LIG d   1      -0.026  -2.773 -13.842  0.00  0.00     0.025 A 
ATOM     73  O   LIG d   1      -2.225  -2.485 -14.710  0.00  0.00    -0.246 OA
ATOM     74  H   LIG d   1       0.594  -2.013 -14.340  0.00  0.00     0.069 H 
ENDBRANCH  11  66
TORSDOF 8
ENDMDL
MODEL 7
REMARK VINA RESULT:      -6.4      7.621     10.826
REMARK  8 active torsions:
REMARK  status: ('A' for Active; 'I' for Inactive)
REMARK    1  A    between atoms: C_1  and  C_2 
REMARK    2  A    between atoms: C_9  and  O_20 
REMARK    3  A    between atoms: C_12  and  C_14 
REMARK    4  A    between atoms: C_23  and  O_40 
REMARK    5  A    between atoms: C_24  and  C_31 
REMARK    6  A    between atoms: C_27  and  O_30 
REMARK    7  A    between atoms: N_32  and  C_33 
REMARK    8  A    between atoms: C_33  and  C_34 
ROOT
ATOM      1  C   LIG d   1      10.922   5.257  -3.352  0.00  0.00     0.004 C 
ATOM      2  C   LIG d   1       9.953   5.453  -4.522  0.00  0.00    -0.044 C 
ATOM      3  C   LIG d   1       9.086   4.213  -4.718  0.00  0.00    -0.048 C 
ATOM      4  C   LIG d   1       9.981   3.036  -5.059  0.00  0.00    -0.022 C 
ATOM      5  H   LIG d   1      10.568   3.277  -5.957  0.00  0.00     0.031 H 
ATOM      6  C   LIG d   1      10.922   2.763  -3.888  0.00  0.00    -0.008 C 
ATOM      7  H   LIG d   1      10.317   2.535  -2.999  0.00  0.00     0.033 H 
ATOM      8  C   LIG d   1      11.752   3.975  -3.543  0.00  0.00     0.075 C 
ATOM      9  C   LIG d   1      12.731   4.364  -4.667  0.00  0.00    -0.023 C 
ATOM     10  C   LIG d   1      13.134   5.809  -4.318  0.00  0.00    -0.043 C 
ATOM     11  C   LIG d   1      11.987   6.381  -3.464  0.00  0.00    -0.008 C 
ATOM     12  H   LIG d   1      11.576   7.304  -3.899  0.00  0.00     0.035 H 
ATOM     13  C   LIG d   1      11.827   1.575  -4.226  0.00  0.00    -0.045 C 
ATOM     14  C   LIG d   1      10.966   0.338  -4.490  0.00  0.00    -0.023 C 
ATOM     15  C   LIG d   1      10.024   0.613  -5.664  0.00  0.00     0.079 C 
ATOM     16  C   LIG d   1       9.120   1.800  -5.325  0.00  0.00     0.038 C 
ATOM     17  C   LIG d   1       8.179   2.076  -6.499  0.00  0.00    -0.037 C 
ATOM     18  C   LIG d   1       9.001   2.400  -7.747  0.00  0.00    -0.026 C 
ATOM     19  C   LIG d   1       9.903   1.211  -8.086  0.00  0.00     0.058 C 
ATOM     20  H   LIG d   1      10.465   1.388  -9.015  0.00  0.00     0.059 H 
ATOM     21  C   LIG d   1      10.845   0.936  -6.912  0.00  0.00     0.003 C 
ATOM     22  H   LIG d   1       9.301   6.314  -4.316  0.00  0.00     0.027 H 
ATOM     23  H   LIG d   1      10.524   5.637  -5.444  0.00  0.00     0.027 H 
ATOM     24  H   LIG d   1       8.531   4.002  -3.791  0.00  0.00     0.027 H 
ATOM     25  H   LIG d   1       8.375   4.389  -5.538  0.00  0.00     0.027 H 
ATOM     26  H   LIG d   1      13.591   3.678  -4.655  0.00  0.00     0.029 H 
ATOM     27  H   LIG d   1      12.221   4.295  -5.638  0.00  0.00     0.029 H 
ATOM     28  H   LIG d   1      14.079   5.802  -3.756  0.00  0.00     0.027 H 
ATOM     29  H   LIG d   1      13.262   6.387  -5.245  0.00  0.00     0.027 H 
ATOM     30  H   LIG d   1      12.418   1.808  -5.123  0.00  0.00     0.027 H 
ATOM     31  H   LIG d   1      12.503   1.378  -3.381  0.00  0.00     0.027 H 
ATOM     32  H   LIG d   1      11.616  -0.516  -4.733  0.00  0.00     0.029 H 
ATOM     33  H   LIG d   1      10.375   0.104  -3.592  0.00  0.00     0.029 H 
ATOM     34  H   LIG d   1       7.558   1.187  -6.688  0.00  0.00     0.028 H 
ATOM     35  H   LIG d   1       7.530   2.930  -6.255  0.00  0.00     0.028 H 
ATOM     36  H   LIG d   1       8.324   2.598  -8.592  0.00  0.00     0.029 H 
ATOM     37  H   LIG d   1       9.621   3.289  -7.558  0.00  0.00     0.029 H 
ATOM     38  H   LIG d   1      11.465   1.825  -6.723  0.00  0.00     0.032 H 
ATOM     39  H   LIG d   1      11.495   0.082  -7.155  0.00  0.00     0.032 H 
ENDROOT
BRANCH  16  40
ATOM     40  C   LIG d   1       8.309   1.479  -4.096  0.00  0.00     0.009 C 
ATOM     41  N   LIG d   1       7.108   1.056  -4.215  0.00  0.00    -0.290 NA
ATOM     42  H   LIG d   1       8.750   1.608  -3.097  0.00  0.00     0.079 H 
BRANCH  41  43
ATOM     43  C   LIG d   1       6.319   0.744  -3.021  0.00  0.00     0.064 C 
ATOM     44  H   LIG d   1       6.992   0.624  -2.159  0.00  0.00     0.056 H 
ATOM     45  H   LIG d   1       5.613   1.564  -2.823  0.00  0.00     0.056 H 
BRANCH  43  46
ATOM     46  C   LIG d   1       5.554  -0.535  -3.242  0.00  0.00    -0.023 A 
ATOM     47  C   LIG d   1       5.769  -1.303  -4.376  0.00  0.00    -0.039 A 
ATOM     48  C   LIG d   1       5.047  -2.470  -4.547  0.00  0.00     0.028 A 
ATOM     49  H   LIG d   1       6.493  -0.995  -5.117  0.00  0.00     0.064 H 
ATOM     50  N   LIG d   1       4.163  -2.854  -3.646  0.00  0.00    -0.263 NA
ATOM     51  H   LIG d   1       5.209  -3.074  -5.427  0.00  0.00     0.083 H 
ATOM     52  C   LIG d   1       3.932  -2.147  -2.557  0.00  0.00     0.028 A 
ATOM     53  C   LIG d   1       4.612  -0.967  -2.322  0.00  0.00    -0.039 A 
ATOM     54  H   LIG d   1       3.199  -2.493  -1.842  0.00  0.00     0.083 H 
ATOM     55  H   LIG d   1       4.415  -0.391  -1.429  0.00  0.00     0.064 H 
ENDBRANCH  43  46
ENDBRANCH  41  43
ENDBRANCH  16  40
BRANCH  15  56
ATOM     56  O   LIG d   1       9.220  -0.543  -5.909  0.00  0.00    -0.388 OA
ATOM     57  H   LIG d   1       9.414  -1.475  -5.355  0.00  0.00     0.210 HD
ENDBRANCH  15  56
BRANCH   8  58
ATOM     58  O   LIG d   1      12.490   3.714  -2.347  0.00  0.00    -0.388 OA
ATOM     59  H   LIG d   1      11.980   3.301  -1.465  0.00  0.00     0.210 HD
ENDBRANCH   8  58
BRANCH  19  60
ATOM     60  O   LIG d   1       9.099   0.056  -8.331  0.00  0.00    -0.392 OA
ATOM     61  H   LIG d   1       8.023   0.077  -8.106  0.00  0.00     0.210 HD
ENDBRANCH  19  60
BRANCH   1  62
ATOM     62  C   LIG d   1      10.193   5.265  -2.008  0.00  0.00    -0.056 C 
ATOM     63  H   LIG d   1      10.915   5.449  -1.199  0.00  0.00     0.024 H 
ATOM     64  H   LIG d   1       9.705   4.291  -1.850  0.00  0.00     0.024 H 
ATOM     65  H   LIG d   1       9.431   6.060  -2.008  0.00  0.00     0.024 H 
ENDBRANCH   1  62
BRANCH  11  66
ATOM     66  C   LIG d   1      12.496   6.749  -2.093  0.00  0.00    -0.022 A 
ATOM     67  C   LIG d   1      13.750   6.229  -1.431  0.00  0.00     0.115 A 
ATOM     68  O   LIG d   1      13.813   6.874  -0.129  0.00  0.00    -0.457 OA
ATOM     69  H   LIG d   1      13.685   5.135  -1.330  0.00  0.00     0.075 H 
ATOM     70  H   LIG d   1      14.624   6.488  -2.046  0.00  0.00     0.075 H 
ATOM     71  C   LIG d   1      12.734   7.671  -0.017  0.00  0.00     0.332 A 
ATOM     72  C   LIG d   1      11.924   7.589  -1.235  0.00  0.00     0.025 A 
ATOM     73  O   LIG d   1      12.471   8.358   0.951  0.00  0.00    -0.246 OA
ATOM     74  H   LIG d   1      10.984   8.094  -1.503  0.00  0.00     0.069 H 
ENDBRANCH  11  66
TORSDOF 8
ENDMDL
MODEL 8
REMARK VINA RESULT:      -6.2      9.679     13.758
REMARK  8 active torsions:
REMARK  status: ('A' for Active; 'I' for Inactive)
REMARK    1  A    between atoms: C_1  and  C_2 
REMARK    2  A    between atoms: C_9  and  O_20 
REMARK    3  A    between atoms: C_12  and  C_14 
REMARK    4  A    between atoms: C_23  and  O_40 
REMARK    5  A    between atoms: C_24  and  C_31 
REMARK    6  A    between atoms: C_27  and  O_30 
REMARK    7  A    between atoms: N_32  and  C_33 
REMARK    8  A    between atoms: C_33  and  C_34 
ROOT
ATOM      1  C   LIG d   1       9.942   8.248  -5.563  0.00  0.00     0.004 C 
ATOM      2  C   LIG d   1       8.816   7.304  -5.130  0.00  0.00    -0.044 C 
ATOM      3  C   LIG d   1       9.301   6.347  -4.045  0.00  0.00    -0.048 C 
ATOM      4  C   LIG d   1      10.421   5.493  -4.608  0.00  0.00    -0.022 C 
ATOM      5  H   LIG d   1      10.056   4.960  -5.499  0.00  0.00     0.031 H 
ATOM      6  C   LIG d   1      11.596   6.390  -4.993  0.00  0.00    -0.008 C 
ATOM      7  H   LIG d   1      11.939   6.922  -4.094  0.00  0.00     0.033 H 
ATOM      8  C   LIG d   1      11.187   7.450  -5.987  0.00  0.00     0.075 C 
ATOM      9  C   LIG d   1      10.769   6.857  -7.347  0.00  0.00    -0.023 C 
ATOM     10  C   LIG d   1      10.001   8.007  -8.026  0.00  0.00    -0.043 C 
ATOM     11  C   LIG d   1       9.483   8.909  -6.890  0.00  0.00    -0.008 C 
ATOM     12  H   LIG d   1       8.391   9.037  -6.937  0.00  0.00     0.035 H 
ATOM     13  C   LIG d   1      12.730   5.534  -5.561  0.00  0.00    -0.045 C 
ATOM     14  C   LIG d   1      13.182   4.524  -4.504  0.00  0.00    -0.023 C 
ATOM     15  C   LIG d   1      12.006   3.624  -4.121  0.00  0.00     0.079 C 
ATOM     16  C   LIG d   1      10.872   4.482  -3.553  0.00  0.00     0.038 C 
ATOM     17  C   LIG d   1       9.695   3.582  -3.171  0.00  0.00    -0.037 C 
ATOM     18  C   LIG d   1       9.199   2.836  -4.410  0.00  0.00    -0.026 C 
ATOM     19  C   LIG d   1      10.333   1.978  -4.975  0.00  0.00     0.058 C 
ATOM     20  H   LIG d   1       9.991   1.380  -5.833  0.00  0.00     0.059 H 
ATOM     21  C   LIG d   1      11.510   2.877  -5.359  0.00  0.00     0.003 C 
ATOM     22  H   LIG d   1       7.977   7.894  -4.734  0.00  0.00     0.027 H 
ATOM     23  H   LIG d   1       8.477   6.717  -5.996  0.00  0.00     0.027 H 
ATOM     24  H   LIG d   1       9.671   6.925  -3.184  0.00  0.00     0.027 H 
ATOM     25  H   LIG d   1       8.468   5.704  -3.725  0.00  0.00     0.027 H 
ATOM     26  H   LIG d   1      11.667   6.566  -7.911  0.00  0.00     0.029 H 
ATOM     27  H   LIG d   1      10.136   5.973  -7.182  0.00  0.00     0.029 H 
ATOM     28  H   LIG d   1      10.681   8.560  -8.691  0.00  0.00     0.027 H 
ATOM     29  H   LIG d   1       9.167   7.594  -8.614  0.00  0.00     0.027 H 
ATOM     30  H   LIG d   1      12.373   4.997  -6.451  0.00  0.00     0.027 H 
ATOM     31  H   LIG d   1      13.576   6.181  -5.836  0.00  0.00     0.027 H 
ATOM     32  H   LIG d   1      13.998   3.907  -4.912  0.00  0.00     0.029 H 
ATOM     33  H   LIG d   1      13.540   5.060  -3.613  0.00  0.00     0.029 H 
ATOM     34  H   LIG d   1      10.020   2.857  -2.409  0.00  0.00     0.028 H 
ATOM     35  H   LIG d   1       8.880   4.200  -2.763  0.00  0.00     0.028 H 
ATOM     36  H   LIG d   1       8.352   2.189  -4.134  0.00  0.00     0.029 H 
ATOM     37  H   LIG d   1       8.874   3.562  -5.169  0.00  0.00     0.029 H 
ATOM     38  H   LIG d   1      11.185   3.602  -6.119  0.00  0.00     0.032 H 
ATOM     39  H   LIG d   1      12.325   2.260  -5.766  0.00  0.00     0.032 H 
ENDROOT
BRANCH  16  40
ATOM     40  C   LIG d   1      11.363   5.216  -2.331  0.00  0.00     0.009 C 
ATOM     41  N   LIG d   1      10.623   5.289  -1.290  0.00  0.00    -0.290 NA
ATOM     42  H   LIG d   1      12.356   5.688  -2.335  0.00  0.00     0.079 H 
BRANCH  41  43
ATOM     43  C   LIG d   1      11.098   6.003  -0.103  0.00  0.00     0.064 C 
ATOM     44  H   LIG d   1      10.713   5.508   0.801  0.00  0.00     0.056 H 
ATOM     45  H   LIG d   1      12.199   5.994  -0.085  0.00  0.00     0.056 H 
BRANCH  43  46
ATOM     46  C   LIG d   1      10.609   7.427  -0.142  0.00  0.00    -0.023 A 
ATOM     47  C   LIG d   1      11.260   8.422   0.571  0.00  0.00    -0.039 A 
ATOM     48  C   LIG d   1      10.782   9.718   0.512  0.00  0.00     0.028 A 
ATOM     49  H   LIG d   1      12.132   8.187   1.165  0.00  0.00     0.064 H 
ATOM     50  N   LIG d   1       9.719  10.012  -0.212  0.00  0.00    -0.263 NA
ATOM     51  H   LIG d   1      11.284  10.497   1.065  0.00  0.00     0.083 H 
ATOM     52  C   LIG d   1       9.075   9.092  -0.902  0.00  0.00     0.028 A 
ATOM     53  C   LIG d   1       9.492   7.774  -0.887  0.00  0.00    -0.039 A 
ATOM     54  H   LIG d   1       8.207   9.370  -1.484  0.00  0.00     0.083 H 
ATOM     55  H   LIG d   1       8.957   7.024  -1.452  0.00  0.00     0.064 H 
ENDBRANCH  43  46
ENDBRANCH  41  43
ENDBRANCH  16  40
BRANCH  15  56
ATOM     56  O   LIG d   1      12.430   2.681  -3.134  0.00  0.00    -0.388 OA
ATOM     57  H   LIG d   1      12.688   1.653  -3.431  0.00  0.00     0.210 HD
ENDBRANCH  15  56
BRANCH   8  58
ATOM     58  O   LIG d   1      12.277   8.353  -6.186  0.00  0.00    -0.388 OA
ATOM     59  H   LIG d   1      13.206   7.998  -6.655  0.00  0.00     0.210 HD
ENDBRANCH   8  58
BRANCH  19  60
ATOM     60  O   LIG d   1      10.756   1.036  -3.988  0.00  0.00    -0.392 OA
ATOM     61  H   LIG d   1      11.715   1.177  -3.467  0.00  0.00     0.210 HD
ENDBRANCH  19  60
BRANCH   1  62
ATOM     62  C   LIG d   1      10.269   9.272  -4.475  0.00  0.00    -0.056 C 
ATOM     63  H   LIG d   1      11.356   9.294  -4.306  0.00  0.00     0.024 H 
ATOM     64  H   LIG d   1       9.759   8.990  -3.541  0.00  0.00     0.024 H 
ATOM     65  H   LIG d   1       9.928  10.268  -4.793  0.00  0.00     0.024 H 
ENDBRANCH   1  62
BRANCH  11  66
ATOM     66  C   LIG d   1      10.076  10.289  -7.013  0.00  0.00    -0.022 A 
ATOM     67  C   LIG d   1       9.700  11.505  -6.200  0.00  0.00     0.115 A 
ATOM     68  O   LIG d   1      10.545  12.587  -6.682  0.00  0.00    -0.457 OA
ATOM     69  H   LIG d   1       8.635  11.734  -6.354  0.00  0.00     0.075 H 
ATOM     70  H   LIG d   1       9.881  11.305  -5.134  0.00  0.00     0.075 H 
ATOM     71  C   LIG d   1      11.322  12.091  -7.663  0.00  0.00     0.332 A 
ATOM     72  C   LIG d   1      11.027  10.669  -7.862  0.00  0.00     0.025 A 
ATOM     73  O   LIG d   1      12.147  12.727  -8.289  0.00  0.00    -0.246 OA
ATOM     74  H   LIG d   1      11.458   9.942  -8.566  0.00  0.00     0.069 H 
ENDBRANCH  11  66
TORSDOF 8
ENDMDL
MODEL 9
REMARK VINA RESULT:      -6.2      3.829      6.904
REMARK  8 active torsions:
REMARK  status: ('A' for Active; 'I' for Inactive)
REMARK    1  A    between atoms: C_1  and  C_2 
REMARK    2  A    between atoms: C_9  and  O_20 
REMARK    3  A    between atoms: C_12  and  C_14 
REMARK    4  A    between atoms: C_23  and  O_40 
REMARK    5  A    between atoms: C_24  and  C_31 
REMARK    6  A    between atoms: C_27  and  O_30 
REMARK    7  A    between atoms: N_32  and  C_33 
REMARK    8  A    between atoms: C_33  and  C_34 
ROOT
ATOM      1  C   LIG d   1       4.806  -0.364  -9.369  0.00  0.00     0.004 C 
ATOM      2  C   LIG d   1       6.162   0.349  -9.372  0.00  0.00    -0.044 C 
ATOM      3  C   LIG d   1       7.087  -0.244  -8.313  0.00  0.00    -0.048 C 
ATOM      4  C   LIG d   1       6.465  -0.034  -6.946  0.00  0.00    -0.022 C 
ATOM      5  H   LIG d   1       6.290   1.041  -6.789  0.00  0.00     0.031 H 
ATOM      6  C   LIG d   1       5.138  -0.786  -6.874  0.00  0.00    -0.008 C 
ATOM      7  H   LIG d   1       5.332  -1.855  -7.043  0.00  0.00     0.033 H 
ATOM      8  C   LIG d   1       4.187  -0.345  -7.960  0.00  0.00     0.075 C 
ATOM      9  C   LIG d   1       3.742   1.121  -7.800  0.00  0.00    -0.023 C 
ATOM     10  C   LIG d   1       3.168   1.482  -9.183  0.00  0.00    -0.043 C 
ATOM     11  C   LIG d   1       3.834   0.525 -10.189  0.00  0.00    -0.008 C 
ATOM     12  H   LIG d   1       4.346   1.072 -10.994  0.00  0.00     0.035 H 
ATOM     13  C   LIG d   1       4.507  -0.579  -5.495  0.00  0.00    -0.045 C 
ATOM     14  C   LIG d   1       5.454  -1.110  -4.417  0.00  0.00    -0.023 C 
ATOM     15  C   LIG d   1       6.783  -0.355  -4.488  0.00  0.00     0.079 C 
ATOM     16  C   LIG d   1       7.413  -0.563  -5.867  0.00  0.00     0.038 C 
ATOM     17  C   LIG d   1       8.741   0.193  -5.939  0.00  0.00    -0.037 C 
ATOM     18  C   LIG d   1       8.493   1.685  -5.710  0.00  0.00    -0.026 C 
ATOM     19  C   LIG d   1       7.864   1.890  -4.331  0.00  0.00     0.058 C 
ATOM     20  H   LIG d   1       7.729   2.960  -4.109  0.00  0.00     0.059 H 
ATOM     21  C   LIG d   1       6.535   1.136  -4.258  0.00  0.00     0.003 C 
ATOM     22  H   LIG d   1       6.632   0.234 -10.360  0.00  0.00     0.027 H 
ATOM     23  H   LIG d   1       6.014   1.418  -9.158  0.00  0.00     0.027 H 
ATOM     24  H   LIG d   1       7.218  -1.320  -8.501  0.00  0.00     0.027 H 
ATOM     25  H   LIG d   1       8.065   0.258  -8.358  0.00  0.00     0.027 H 
ATOM     26  H   LIG d   1       2.985   1.189  -7.005  0.00  0.00     0.029 H 
ATOM     27  H   LIG d   1       4.610   1.741  -7.534  0.00  0.00     0.029 H 
ATOM     28  H   LIG d   1       2.076   1.349  -9.174  0.00  0.00     0.027 H 
ATOM     29  H   LIG d   1       3.408   2.530  -9.417  0.00  0.00     0.027 H 
ATOM     30  H   LIG d   1       4.328   0.493  -5.331  0.00  0.00     0.027 H 
ATOM     31  H   LIG d   1       3.552  -1.123  -5.444  0.00  0.00     0.027 H 
ATOM     32  H   LIG d   1       5.000  -0.961  -3.425  0.00  0.00     0.029 H 
ATOM     33  H   LIG d   1       5.631  -2.183  -4.581  0.00  0.00     0.029 H 
ATOM     34  H   LIG d   1       9.423  -0.190  -5.166  0.00  0.00     0.028 H 
ATOM     35  H   LIG d   1       9.193   0.044  -6.931  0.00  0.00     0.028 H 
ATOM     36  H   LIG d   1       9.449   2.228  -5.762  0.00  0.00     0.029 H 
ATOM     37  H   LIG d   1       7.812   2.066  -6.485  0.00  0.00     0.029 H 
ATOM     38  H   LIG d   1       5.854   1.518  -5.033  0.00  0.00     0.032 H 
ATOM     39  H   LIG d   1       6.083   1.284  -3.267  0.00  0.00     0.032 H 
ENDROOT
BRANCH  16  40
ATOM     40  C   LIG d   1       7.658  -2.033  -6.091  0.00  0.00     0.009 C 
ATOM     41  N   LIG d   1       8.615  -2.622  -5.479  0.00  0.00    -0.290 NA
ATOM     42  H   LIG d   1       7.014  -2.599  -6.780  0.00  0.00     0.079 H 
BRANCH  41  43
ATOM     43  C   LIG d   1       8.854  -4.050  -5.697  0.00  0.00     0.064 C 
ATOM     44  H   LIG d   1       7.959  -4.508  -6.143  0.00  0.00     0.056 H 
ATOM     45  H   LIG d   1       9.709  -4.180  -6.377  0.00  0.00     0.056 H 
BRANCH  43  46
ATOM     46  C   LIG d   1       9.155  -4.717  -4.380  0.00  0.00    -0.023 A 
ATOM     47  C   LIG d   1       9.166  -6.099  -4.269  0.00  0.00    -0.039 A 
ATOM     48  C   LIG d   1       9.446  -6.675  -3.044  0.00  0.00     0.028 A 
ATOM     49  H   LIG d   1       8.961  -6.718  -5.131  0.00  0.00     0.064 H 
ATOM     50  N   LIG d   1       9.698  -5.926  -1.988  0.00  0.00    -0.263 NA
ATOM     51  H   LIG d   1       9.457  -7.750  -2.950  0.00  0.00     0.083 H 
ATOM     52  C   LIG d   1       9.694  -4.609  -2.056  0.00  0.00     0.028 A 
ATOM     53  C   LIG d   1       9.419  -3.963  -3.246  0.00  0.00    -0.039 A 
ATOM     54  H   LIG d   1       9.905  -4.028  -1.170  0.00  0.00     0.083 H 
ATOM     55  H   LIG d   1       9.413  -2.883  -3.294  0.00  0.00     0.064 H 
ENDBRANCH  43  46
ENDBRANCH  41  43
ENDBRANCH  16  40
BRANCH  15  56
ATOM     56  O   LIG d   1       7.666  -0.852  -3.481  0.00  0.00    -0.388 OA
ATOM     57  H   LIG d   1       8.565  -0.279  -3.207  0.00  0.00     0.210 HD
ENDBRANCH  15  56
BRANCH   8  58
ATOM     58  O   LIG d   1       3.033  -1.189  -7.945  0.00  0.00    -0.388 OA
ATOM     59  H   LIG d   1       2.584  -1.523  -8.892  0.00  0.00     0.210 HD
ENDBRANCH   8  58
BRANCH  19  60
ATOM     60  O   LIG d   1       8.749   1.393  -3.324  0.00  0.00    -0.392 OA
ATOM     61  H   LIG d   1       9.699   1.909  -3.123  0.00  0.00     0.210 HD
ENDBRANCH  19  60
BRANCH   1  62
ATOM     62  C   LIG d   1       4.916  -1.786  -9.920  0.00  0.00    -0.056 C 
ATOM     63  H   LIG d   1       4.583  -2.504  -9.155  0.00  0.00     0.024 H 
ATOM     64  H   LIG d   1       5.962  -1.995 -10.189  0.00  0.00     0.024 H 
ATOM     65  H   LIG d   1       4.281  -1.883 -10.814  0.00  0.00     0.024 H 
ENDBRANCH   1  62
BRANCH  11  66
ATOM     66  C   LIG d   1       2.789  -0.332 -10.857  0.00  0.00    -0.022 A 
ATOM     67  C   LIG d   1       1.430  -0.688 -10.303  0.00  0.00     0.115 A 
ATOM     68  O   LIG d   1       0.793  -1.525 -11.308  0.00  0.00    -0.457 OA
ATOM     69  H   LIG d   1       1.551  -1.230  -9.353  0.00  0.00     0.075 H 
ATOM     70  H   LIG d   1       0.852   0.232 -10.128  0.00  0.00     0.075 H 
ATOM     71  C   LIG d   1       1.659  -1.663 -12.330  0.00  0.00     0.332 A 
ATOM     72  C   LIG d   1       2.891  -0.923 -12.045  0.00  0.00     0.025 A 
ATOM     73  O   LIG d   1       1.449  -2.306 -13.340  0.00  0.00    -0.246 OA
ATOM     74  H   LIG d   1       3.808  -0.807 -12.640  0.00  0.00     0.069 H 
ENDBRANCH  11  66
TORSDOF 8
ENDMDL
