MODEL 1
REMARK VINA RESULT:      -6.0      0.000      0.000
REMARK  8 active torsions:
REMARK  status: ('A' for Active; 'I' for Inactive)
REMARK    1  A    between atoms: C_1  and  C_2 
REMARK    2  A    between atoms: C_12  and  C_13 
REMARK    3  A    between atoms: C_13  and  C_14 
REMARK       I    between atoms: C_14  and  N_16 
REMARK    4  A    between atoms: N_16  and  C_17 
REMARK    5  A    between atoms: C_17  and  C_18 
REMARK    6  A    between atoms: C_17  and  C_19 
REMARK    7  A    between atoms: C_21  and  C_24 
REMARK    8  A    between atoms: C_21  and  C_25 
ROOT
ATOM      1  C   LIG d   1       6.810  -5.041  -5.154  0.00  0.00    -0.029 A 
ATOM      2  C   LIG d   1       6.107  -3.799  -4.822  0.00  0.00     0.021 A 
ATOM      3  C   LIG d   1       6.776  -2.729  -4.221  0.00  0.00    -0.044 A 
ATOM      4  C   LIG d   1       6.100  -1.577  -3.922  0.00  0.00    -0.005 A 
ATOM      5  C   LIG d   1       4.745  -1.463  -4.216  0.00  0.00     0.128 A 
ATOM      6  C   LIG d   1       4.066  -2.520  -4.811  0.00  0.00     0.023 A 
ATOM      7  C   LIG d   1       4.735  -3.692  -5.118  0.00  0.00     0.143 A 
ATOM      8  O   LIG d   1       4.090  -4.728  -5.696  0.00  0.00    -0.422 OA
ATOM      9  C   LIG d   1       4.728  -5.868  -6.002  0.00  0.00     0.341 A 
ATOM     10  O   LIG d   1       4.105  -6.775  -6.525  0.00  0.00    -0.245 OA
ATOM     11  C   LIG d   1       6.103  -6.042  -5.739  0.00  0.00     0.049 A 
ATOM     12  O   LIG d   1       4.050  -0.329  -3.942  0.00  0.00    -0.486 OA
ATOM     13  C   LIG d   1       4.620   0.597  -3.016  0.00  0.00     0.105 C 
ATOM     14  C   LIG d   1       6.075   0.857  -3.426  0.00  0.00    -0.009 C 
ATOM     15  C   LIG d   1       6.859  -0.449  -3.270  0.00  0.00    -0.021 C 
ATOM     16  H   LIG d   1       7.828  -2.812  -3.992  0.00  0.00     0.063 H 
ATOM     17  H   LIG d   1       3.013  -2.427  -5.033  0.00  0.00     0.069 H 
ATOM     18  H   LIG d   1       6.112   1.186  -4.464  0.00  0.00     0.031 H 
ATOM     19  H   LIG d   1       6.507   1.623  -2.782  0.00  0.00     0.031 H 
ATOM     20  H   LIG d   1       6.992  -0.667  -2.210  0.00  0.00     0.032 H 
ATOM     21  H   LIG d   1       7.834  -0.345  -3.744  0.00  0.00     0.032 H 
ENDROOT
BRANCH  11  22
ATOM     22  C   LIG d   1       6.784  -7.335  -6.104  0.00  0.00     0.056 C 
ATOM     23  H   LIG d   1       6.401  -7.690  -7.061  0.00  0.00     0.041 H 
ATOM     24  H   LIG d   1       7.859  -7.170  -6.184  0.00  0.00     0.041 H 
BRANCH  22  25
ATOM     25  C   LIG d   1       6.510  -8.365  -5.040  0.00  0.00     0.218 C 
ATOM     26  O   LIG d   1       7.239  -8.447  -4.074  0.00  0.00    -0.276 OA
ATOM     27  N   LIG d   1       5.456  -9.196  -5.162  0.00  0.00    -0.313 N 
ATOM     28  H   LIG d   1       4.873  -9.131  -5.935  0.00  0.00     0.149 HD
BRANCH  27  29
ATOM     29  C   LIG d   1       5.191 -10.199  -4.127  0.00  0.00     0.018 C 
ATOM     30  H   LIG d   1       5.991 -10.179  -3.387  0.00  0.00     0.049 H 
BRANCH  29  31
ATOM     31  C   LIG d   1       3.857  -9.887  -3.445  0.00  0.00    -0.047 C 
ATOM     32  H   LIG d   1       3.851  -8.847  -3.118  0.00  0.00     0.025 H 
ATOM     33  H   LIG d   1       3.042 -10.051  -4.150  0.00  0.00     0.025 H 
ATOM     34  H   LIG d   1       3.728 -10.541  -2.583  0.00  0.00     0.025 H 
ENDBRANCH  29  31
BRANCH  29  35
ATOM     35  C   LIG d   1       5.124 -11.587  -4.768  0.00  0.00    -0.047 C 
ATOM     36  H   LIG d   1       4.113 -11.772  -5.129  0.00  0.00     0.025 H 
ATOM     37  H   LIG d   1       5.824 -11.636  -5.602  0.00  0.00     0.025 H 
ATOM     38  H   LIG d   1       5.389 -12.342  -4.028  0.00  0.00     0.025 H 
ENDBRANCH  29  35
ENDBRANCH  27  29
ENDBRANCH  22  25
ENDBRANCH  11  22
BRANCH   1  39
ATOM     39  C   LIG d   1       8.278  -5.202  -4.857  0.00  0.00    -0.038 C 
ATOM     40  H   LIG d   1       8.840  -4.420  -5.369  0.00  0.00     0.028 H 
ATOM     41  H   LIG d   1       8.443  -5.123  -3.783  0.00  0.00     0.028 H 
ATOM     42  H   LIG d   1       8.615  -6.178  -5.206  0.00  0.00     0.028 H 
ENDBRANCH   1  39
BRANCH  13  43
ATOM     43  C   LIG d   1       3.833   1.909  -3.050  0.00  0.00    -0.025 C 
ATOM     44  H   LIG d   1       3.532   2.178  -2.038  0.00  0.00     0.027 H 
ATOM     45  H   LIG d   1       4.461   2.698  -3.465  0.00  0.00     0.027 H 
ATOM     46  H   LIG d   1       2.947   1.785  -3.673  0.00  0.00     0.027 H 
ENDBRANCH  13  43
BRANCH  13  47
ATOM     47  C   LIG d   1       4.579   0.007  -1.606  0.00  0.00    -0.025 C 
ATOM     48  H   LIG d   1       5.516  -0.511  -1.401  0.00  0.00     0.027 H 
ATOM     49  H   LIG d   1       4.440   0.809  -0.880  0.00  0.00     0.027 H 
ATOM     50  H   LIG d   1       3.750  -0.698  -1.531  0.00  0.00     0.027 H 
ENDBRANCH  13  47
TORSDOF 8
ENDMDL
MODEL 2
REMARK VINA RESULT:      -5.9      5.866      7.982
REMARK  8 active torsions:
REMARK  status: ('A' for Active; 'I' for Inactive)
REMARK    1  A    between atoms: C_1  and  C_2 
REMARK    2  A    between atoms: C_12  and  C_13 
REMARK    3  A    between atoms: C_13  and  C_14 
REMARK       I    between atoms: C_14  and  N_16 
REMARK    4  A    between atoms: N_16  and  C_17 
REMARK    5  A    between atoms: C_17  and  C_18 
REMARK    6  A    between atoms: C_17  and  C_19 
REMARK    7  A    between atoms: C_21  and  C_24 
REMARK    8  A    between atoms: C_21  and  C_25 
ROOT
ATOM      1  C   LIG d   1       3.490   0.657  -9.005  0.00  0.00    -0.029 A 
ATOM      2  C   LIG d   1       3.864   0.266  -7.643  0.00  0.00     0.021 A 
ATOM      3  C   LIG d   1       2.930   0.284  -6.604  0.00  0.00    -0.044 A 
ATOM      4  C   LIG d   1       3.300  -0.088  -5.340  0.00  0.00    -0.005 A 
ATOM      5  C   LIG d   1       4.608  -0.487  -5.082  0.00  0.00     0.128 A 
ATOM      6  C   LIG d   1       5.549  -0.506  -6.105  0.00  0.00     0.023 A 
ATOM      7  C   LIG d   1       5.190  -0.131  -7.388  0.00  0.00     0.143 A 
ATOM      8  O   LIG d   1       6.092  -0.145  -8.393  0.00  0.00    -0.422 OA
ATOM      9  C   LIG d   1       5.756   0.212  -9.642  0.00  0.00     0.341 A 
ATOM     10  O   LIG d   1       6.603   0.182 -10.516  0.00  0.00    -0.245 OA
ATOM     11  C   LIG d   1       4.445   0.615  -9.970  0.00  0.00     0.049 A 
ATOM     12  O   LIG d   1       5.003  -0.872  -3.842  0.00  0.00    -0.486 OA
ATOM     13  C   LIG d   1       4.177  -0.509  -2.734  0.00  0.00     0.105 C 
ATOM     14  C   LIG d   1       2.730  -0.899  -3.062  0.00  0.00    -0.009 C 
ATOM     15  C   LIG d   1       2.262  -0.051  -4.248  0.00  0.00    -0.021 C 
ATOM     16  H   LIG d   1       1.913   0.591  -6.799  0.00  0.00     0.063 H 
ATOM     17  H   LIG d   1       6.564  -0.813  -5.898  0.00  0.00     0.069 H 
ATOM     18  H   LIG d   1       2.684  -1.955  -3.325  0.00  0.00     0.031 H 
ATOM     19  H   LIG d   1       2.094  -0.706  -2.199  0.00  0.00     0.031 H 
ATOM     20  H   LIG d   1       2.116   0.979  -3.921  0.00  0.00     0.032 H 
ATOM     21  H   LIG d   1       1.321  -0.448  -4.627  0.00  0.00     0.032 H 
ENDROOT
BRANCH  11  22
ATOM     22  C   LIG d   1       4.105   1.002 -11.386  0.00  0.00     0.056 C 
ATOM     23  H   LIG d   1       3.142   1.512 -11.402  0.00  0.00     0.041 H 
ATOM     24  H   LIG d   1       4.874   1.669 -11.776  0.00  0.00     0.041 H 
BRANCH  22  25
ATOM     25  C   LIG d   1       4.032  -0.236 -12.241  0.00  0.00     0.218 C 
ATOM     26  O   LIG d   1       3.106  -1.009 -12.110  0.00  0.00    -0.276 OA
ATOM     27  N   LIG d   1       4.995  -0.486 -13.150  0.00  0.00    -0.313 N 
ATOM     28  H   LIG d   1       5.735   0.132 -13.254  0.00  0.00     0.149 HD
BRANCH  27  29
ATOM     29  C   LIG d   1       4.923  -1.691 -13.980  0.00  0.00     0.018 C 
ATOM     30  H   LIG d   1       4.197  -2.383 -13.555  0.00  0.00     0.049 H 
BRANCH  29  31
ATOM     31  C   LIG d   1       4.495  -1.307 -15.398  0.00  0.00    -0.047 C 
ATOM     32  H   LIG d   1       4.556  -0.225 -15.516  0.00  0.00     0.025 H 
ATOM     33  H   LIG d   1       5.154  -1.789 -16.120  0.00  0.00     0.025 H 
ATOM     34  H   LIG d   1       3.469  -1.634 -15.568  0.00  0.00     0.025 H 
ENDBRANCH  29  31
BRANCH  29  35
ATOM     35  C   LIG d   1       6.299  -2.360 -14.027  0.00  0.00    -0.047 C 
ATOM     36  H   LIG d   1       6.180  -3.421 -14.243  0.00  0.00     0.025 H 
ATOM     37  H   LIG d   1       6.903  -1.895 -14.806  0.00  0.00     0.025 H 
ATOM     38  H   LIG d   1       6.794  -2.239 -13.064  0.00  0.00     0.025 H 
ENDBRANCH  29  35
ENDBRANCH  27  29
ENDBRANCH  22  25
ENDBRANCH  11  22
BRANCH   1  39
ATOM     39  C   LIG d   1       2.083   1.089  -9.326  0.00  0.00    -0.038 C 
ATOM     40  H   LIG d   1       1.826   0.769 -10.336  0.00  0.00     0.028 H 
ATOM     41  H   LIG d   1       1.392   0.637  -8.615  0.00  0.00     0.028 H 
ATOM     42  H   LIG d   1       2.012   2.175  -9.261  0.00  0.00     0.028 H 
ENDBRANCH   1  39
BRANCH  13  43
ATOM     43  C   LIG d   1       4.641  -1.256  -1.481  0.00  0.00    -0.025 C 
ATOM     44  H   LIG d   1       5.414  -0.675  -0.978  0.00  0.00     0.027 H 
ATOM     45  H   LIG d   1       3.794  -1.393  -0.807  0.00  0.00     0.027 H 
ATOM     46  H   LIG d   1       5.041  -2.228  -1.764  0.00  0.00     0.027 H 
ENDBRANCH  13  43
BRANCH  13  47
ATOM     47  C   LIG d   1       4.266   1.000  -2.499  0.00  0.00    -0.025 C 
ATOM     48  H   LIG d   1       4.240   1.519  -3.457  0.00  0.00     0.027 H 
ATOM     49  H   LIG d   1       3.421   1.322  -1.888  0.00  0.00     0.027 H 
ATOM     50  H   LIG d   1       5.198   1.234  -1.984  0.00  0.00     0.027 H 
ENDBRANCH  13  47
TORSDOF 8
ENDMDL
MODEL 3
REMARK VINA RESULT:      -5.8      5.673      7.578
REMARK  8 active torsions:
REMARK  status: ('A' for Active; 'I' for Inactive)
REMARK    1  A    between atoms: C_1  and  C_2 
REMARK    2  A    between atoms: C_12  and  C_13 
REMARK    3  A    between atoms: C_13  and  C_14 
REMARK       I    between atoms: C_14  and  N_16 
REMARK    4  A    between atoms: N_16  and  C_17 
REMARK    5  A    between atoms: C_17  and  C_18 
REMARK    6  A    between atoms: C_17  and  C_19 
REMARK    7  A    between atoms: C_21  and  C_24 
REMARK    8  A    between atoms: C_21  and  C_25 
ROOT
ATOM      1  C   LIG d   1       3.536   0.498  -9.157  0.00  0.00    -0.029 A 
ATOM      2  C   LIG d   1       3.887   0.142  -7.780  0.00  0.00     0.021 A 
ATOM      3  C   LIG d   1       2.965   0.282  -6.740  0.00  0.00    -0.044 A 
ATOM      4  C   LIG d   1       3.314  -0.060  -5.461  0.00  0.00    -0.005 A 
ATOM      5  C   LIG d   1       4.587  -0.551  -5.190  0.00  0.00     0.128 A 
ATOM      6  C   LIG d   1       5.517  -0.692  -6.213  0.00  0.00     0.023 A 
ATOM      7  C   LIG d   1       5.179  -0.349  -7.511  0.00  0.00     0.143 A 
ATOM      8  O   LIG d   1       6.071  -0.481  -8.517  0.00  0.00    -0.422 OA
ATOM      9  C   LIG d   1       5.755  -0.156  -9.780  0.00  0.00     0.341 A 
ATOM     10  O   LIG d   1       6.591  -0.293 -10.655  0.00  0.00    -0.245 OA
ATOM     11  C   LIG d   1       4.478   0.336 -10.123  0.00  0.00     0.049 A 
ATOM     12  O   LIG d   1       4.959  -0.909  -3.934  0.00  0.00    -0.486 OA
ATOM     13  C   LIG d   1       4.173  -0.430  -2.841  0.00  0.00     0.105 C 
ATOM     14  C   LIG d   1       2.697  -0.717  -3.146  0.00  0.00    -0.009 C 
ATOM     15  C   LIG d   1       2.289   0.110  -4.368  0.00  0.00    -0.021 C 
ATOM     16  H   LIG d   1       1.975   0.660  -6.945  0.00  0.00     0.063 H 
ATOM     17  H   LIG d   1       6.505  -1.069  -5.996  0.00  0.00     0.069 H 
ATOM     18  H   LIG d   1       2.564  -1.777  -3.359  0.00  0.00     0.031 H 
ATOM     19  H   LIG d   1       2.084  -0.434  -2.290  0.00  0.00     0.031 H 
ATOM     20  H   LIG d   1       2.229   1.163  -4.089  0.00  0.00     0.032 H 
ATOM     21  H   LIG d   1       1.317  -0.227  -4.726  0.00  0.00     0.032 H 
ENDROOT
BRANCH  11  22
ATOM     22  C   LIG d   1       4.160   0.683 -11.553  0.00  0.00     0.056 C 
ATOM     23  H   LIG d   1       3.322   1.380 -11.581  0.00  0.00     0.041 H 
ATOM     24  H   LIG d   1       5.031   1.147 -12.018  0.00  0.00     0.041 H 
BRANCH  22  25
ATOM     25  C   LIG d   1       3.796  -0.570 -12.306  0.00  0.00     0.218 C 
ATOM     26  O   LIG d   1       4.578  -1.049 -13.100  0.00  0.00    -0.276 OA
ATOM     27  N   LIG d   1       2.601  -1.158 -12.097  0.00  0.00    -0.313 N 
ATOM     28  H   LIG d   1       1.976  -0.775 -11.462  0.00  0.00     0.149 HD
BRANCH  27  29
ATOM     29  C   LIG d   1       2.247  -2.377 -12.830  0.00  0.00     0.018 C 
ATOM     30  H   LIG d   1       2.916  -2.496 -13.682  0.00  0.00     0.049 H 
BRANCH  29  31
ATOM     31  C   LIG d   1       2.380  -3.586 -11.902  0.00  0.00    -0.047 C 
ATOM     32  H   LIG d   1       2.010  -4.477 -12.411  0.00  0.00     0.025 H 
ATOM     33  H   LIG d   1       3.428  -3.727 -11.637  0.00  0.00     0.025 H 
ATOM     34  H   LIG d   1       1.796  -3.416 -10.998  0.00  0.00     0.025 H 
ENDBRANCH  29  31
BRANCH  29  35
ATOM     35  C   LIG d   1       0.804  -2.271 -13.327  0.00  0.00    -0.047 C 
ATOM     36  H   LIG d   1       0.634  -3.008 -14.111  0.00  0.00     0.025 H 
ATOM     37  H   LIG d   1       0.120  -2.458 -12.498  0.00  0.00     0.025 H 
ATOM     38  H   LIG d   1       0.628  -1.271 -13.723  0.00  0.00     0.025 H 
ENDBRANCH  29  35
ENDBRANCH  27  29
ENDBRANCH  22  25
ENDBRANCH  11  22
BRANCH   1  39
ATOM     39  C   LIG d   1       2.166   1.027  -9.493  0.00  0.00    -0.038 C 
ATOM     40  H   LIG d   1       1.762   1.562  -8.633  0.00  0.00     0.028 H 
ATOM     41  H   LIG d   1       2.236   1.705 -10.343  0.00  0.00     0.028 H 
ATOM     42  H   LIG d   1       1.507   0.195  -9.745  0.00  0.00     0.028 H 
ENDBRANCH   1  39
BRANCH  13  43
ATOM     43  C   LIG d   1       4.584  -1.153  -1.556  0.00  0.00    -0.025 C 
ATOM     44  H   LIG d   1       5.164  -0.477  -0.929  0.00  0.00     0.027 H 
ATOM     45  H   LIG d   1       3.690  -1.471  -1.018  0.00  0.00     0.027 H 
ATOM     46  H   LIG d   1       5.186  -2.025  -1.807  0.00  0.00     0.027 H 
ENDBRANCH  13  43
BRANCH  13  47
ATOM     47  C   LIG d   1       4.383   1.076  -2.677  0.00  0.00    -0.025 C 
ATOM     48  H   LIG d   1       5.400   1.266  -2.333  0.00  0.00     0.027 H 
ATOM     49  H   LIG d   1       4.225   1.572  -3.635  0.00  0.00     0.027 H 
ATOM     50  H   LIG d   1       3.674   1.464  -1.945  0.00  0.00     0.027 H 
ENDBRANCH  13  47
TORSDOF 8
ENDMDL
MODEL 4
REMARK VINA RESULT:      -5.7      5.945      9.070
REMARK  8 active torsions:
REMARK  status: ('A' for Active; 'I' for Inactive)
REMARK    1  A    between atoms: C_1  and  C_2 
REMARK    2  A    between atoms: C_12  and  C_13 
REMARK    3  A    between atoms: C_13  and  C_14 
REMARK       I    between atoms: C_14  and  N_16 
REMARK    4  A    between atoms: N_16  and  C_17 
REMARK    5  A    between atoms: C_17  and  C_18 
REMARK    6  A    between atoms: C_17  and  C_19 
REMARK    7  A    between atoms: C_21  and  C_24 
REMARK    8  A    between atoms: C_21  and  C_25 
ROOT
ATOM      1  C   LIG d   1       2.882  -0.649  -8.779  0.00  0.00    -0.029 A 
ATOM      2  C   LIG d   1       2.347  -1.651  -9.705  0.00  0.00     0.021 A 
ATOM      3  C   LIG d   1       1.499  -1.286 -10.753  0.00  0.00    -0.044 A 
ATOM      4  C   LIG d   1       1.012  -2.238 -11.608  0.00  0.00    -0.005 A 
ATOM      5  C   LIG d   1       1.361  -3.574 -11.439  0.00  0.00     0.128 A 
ATOM      6  C   LIG d   1       2.200  -3.954 -10.399  0.00  0.00     0.023 A 
ATOM      7  C   LIG d   1       2.699  -3.002  -9.525  0.00  0.00     0.143 A 
ATOM      8  O   LIG d   1       3.517  -3.354  -8.509  0.00  0.00    -0.422 OA
ATOM      9  C   LIG d   1       4.010  -2.441  -7.659  0.00  0.00     0.341 A 
ATOM     10  O   LIG d   1       4.745  -2.806  -6.759  0.00  0.00    -0.245 OA
ATOM     11  C   LIG d   1       3.704  -1.070  -7.782  0.00  0.00     0.049 A 
ATOM     12  O   LIG d   1       0.903  -4.540 -12.277  0.00  0.00    -0.486 OA
ATOM     13  C   LIG d   1      -0.227  -4.235 -13.096  0.00  0.00     0.105 C 
ATOM     14  C   LIG d   1       0.029  -2.893 -13.793  0.00  0.00    -0.009 C 
ATOM     15  C   LIG d   1       0.097  -1.800 -12.723  0.00  0.00    -0.021 C 
ATOM     16  H   LIG d   1       1.227  -0.249 -10.890  0.00  0.00     0.063 H 
ATOM     17  H   LIG d   1       2.464  -4.993 -10.270  0.00  0.00     0.069 H 
ATOM     18  H   LIG d   1       0.974  -2.935 -14.335  0.00  0.00     0.031 H 
ATOM     19  H   LIG d   1      -0.783  -2.678 -14.487  0.00  0.00     0.031 H 
ATOM     20  H   LIG d   1      -0.902  -1.623 -12.324  0.00  0.00     0.032 H 
ATOM     21  H   LIG d   1       0.478  -0.881 -13.167  0.00  0.00     0.032 H 
ENDROOT
BRANCH  11  22
ATOM     22  C   LIG d   1       4.283  -0.076  -6.811  0.00  0.00     0.056 C 
ATOM     23  H   LIG d   1       5.337  -0.302  -6.644  0.00  0.00     0.041 H 
ATOM     24  H   LIG d   1       4.189   0.931  -7.220  0.00  0.00     0.041 H 
BRANCH  22  25
ATOM     25  C   LIG d   1       3.539  -0.159  -5.503  0.00  0.00     0.218 C 
ATOM     26  O   LIG d   1       2.417   0.293  -5.415  0.00  0.00    -0.276 OA
ATOM     27  N   LIG d   1       4.122  -0.733  -4.432  0.00  0.00    -0.313 N 
ATOM     28  H   LIG d   1       5.019  -1.094  -4.503  0.00  0.00     0.149 HD
BRANCH  27  29
ATOM     29  C   LIG d   1       3.398  -0.812  -3.160  0.00  0.00     0.018 C 
ATOM     30  H   LIG d   1       2.325  -0.815  -3.352  0.00  0.00     0.049 H 
BRANCH  29  31
ATOM     31  C   LIG d   1       3.790  -2.099  -2.431  0.00  0.00    -0.047 C 
ATOM     32  H   LIG d   1       3.073  -2.298  -1.633  0.00  0.00     0.025 H 
ATOM     33  H   LIG d   1       3.790  -2.931  -3.135  0.00  0.00     0.025 H 
ATOM     34  H   LIG d   1       4.786  -1.985  -2.003  0.00  0.00     0.025 H 
ENDBRANCH  29  31
BRANCH  29  35
ATOM     35  C   LIG d   1       3.758   0.396  -2.293  0.00  0.00    -0.047 C 
ATOM     36  H   LIG d   1       4.783   0.296  -1.938  0.00  0.00     0.025 H 
ATOM     37  H   LIG d   1       3.664   1.308  -2.883  0.00  0.00     0.025 H 
ATOM     38  H   LIG d   1       3.082   0.445  -1.440  0.00  0.00     0.025 H 
ENDBRANCH  29  35
ENDBRANCH  27  29
ENDBRANCH  22  25
ENDBRANCH  11  22
BRANCH   1  39
ATOM     39  C   LIG d   1       2.534   0.808  -8.932  0.00  0.00    -0.038 C 
ATOM     40  H   LIG d   1       3.352   1.419  -8.549  0.00  0.00     0.028 H 
ATOM     41  H   LIG d   1       2.372   1.036  -9.985  0.00  0.00     0.028 H 
ATOM     42  H   LIG d   1       1.625   1.026  -8.369  0.00  0.00     0.028 H 
ENDBRANCH   1  39
BRANCH  13  43
ATOM     43  C   LIG d   1      -0.414  -5.334 -14.144  0.00  0.00    -0.025 C 
ATOM     44  H   LIG d   1      -1.466  -5.397 -14.421  0.00  0.00     0.027 H 
ATOM     45  H   LIG d   1       0.180  -5.096 -15.028  0.00  0.00     0.027 H 
ATOM     46  H   LIG d   1      -0.087  -6.288 -13.733  0.00  0.00     0.027 H 
ENDBRANCH  13  43
BRANCH  13  47
ATOM     47  C   LIG d   1      -1.481  -4.133 -12.225  0.00  0.00    -0.025 C 
ATOM     48  H   LIG d   1      -2.367  -4.177 -12.858  0.00  0.00     0.027 H 
ATOM     49  H   LIG d   1      -1.499  -4.961 -11.517  0.00  0.00     0.027 H 
ATOM     50  H   LIG d   1      -1.469  -3.188 -11.680  0.00  0.00     0.027 H 
ENDBRANCH  13  47
TORSDOF 8
ENDMDL
MODEL 5
REMARK VINA RESULT:      -5.7      5.127      6.274
REMARK  8 active torsions:
REMARK  status: ('A' for Active; 'I' for Inactive)
REMARK    1  A    between atoms: C_1  and  C_2 
REMARK    2  A    between atoms: C_12  and  C_13 
REMARK    3  A    between atoms: C_13  and  C_14 
REMARK       I    between atoms: C_14  and  N_16 
REMARK    4  A    between atoms: N_16  and  C_17 
REMARK    5  A    between atoms: C_17  and  C_18 
REMARK    6  A    between atoms: C_17  and  C_19 
REMARK    7  A    between atoms: C_21  and  C_24 
REMARK    8  A    between atoms: C_21  and  C_25 
ROOT
ATOM      1  C   LIG d   1       4.131  -2.025  -8.918  0.00  0.00    -0.029 A 
ATOM      2  C   LIG d   1       4.059  -1.373  -7.608  0.00  0.00     0.021 A 
ATOM      3  C   LIG d   1       5.025  -1.614  -6.628  0.00  0.00    -0.044 A 
ATOM      4  C   LIG d   1       4.940  -0.992  -5.411  0.00  0.00    -0.005 A 
ATOM      5  C   LIG d   1       3.892  -0.116  -5.144  0.00  0.00     0.128 A 
ATOM      6  C   LIG d   1       2.922   0.130  -6.108  0.00  0.00     0.023 A 
ATOM      7  C   LIG d   1       2.994  -0.492  -7.342  0.00  0.00     0.143 A 
ATOM      8  O   LIG d   1       2.059  -0.263  -8.290  0.00  0.00    -0.422 OA
ATOM      9  C   LIG d   1       2.119  -0.857  -9.491  0.00  0.00     0.341 A 
ATOM     10  O   LIG d   1       1.254  -0.618 -10.315  0.00  0.00    -0.245 OA
ATOM     11  C   LIG d   1       3.161  -1.746  -9.828  0.00  0.00     0.049 A 
ATOM     12  O   LIG d   1       3.787   0.524  -3.951  0.00  0.00    -0.486 OA
ATOM     13  C   LIG d   1       4.537   0.012  -2.849  0.00  0.00     0.105 C 
ATOM     14  C   LIG d   1       5.987  -0.195  -3.304  0.00  0.00    -0.009 C 
ATOM     15  C   LIG d   1       6.002  -1.283  -4.381  0.00  0.00    -0.021 C 
ATOM     16  H   LIG d   1       5.841  -2.291  -6.831  0.00  0.00     0.063 H 
ATOM     17  H   LIG d   1       2.109   0.808  -5.893  0.00  0.00     0.069 H 
ATOM     18  H   LIG d   1       6.379   0.735  -3.716  0.00  0.00     0.031 H 
ATOM     19  H   LIG d   1       6.597  -0.508  -2.457  0.00  0.00     0.031 H 
ATOM     20  H   LIG d   1       5.804  -2.251  -3.920  0.00  0.00     0.032 H 
ATOM     21  H   LIG d   1       6.979  -1.304  -4.862  0.00  0.00     0.032 H 
ENDROOT
BRANCH  11  22
ATOM     22  C   LIG d   1       3.197  -2.387 -11.191  0.00  0.00     0.056 C 
ATOM     23  H   LIG d   1       2.830  -1.680 -11.935  0.00  0.00     0.041 H 
ATOM     24  H   LIG d   1       4.221  -2.670 -11.433  0.00  0.00     0.041 H 
BRANCH  22  25
ATOM     25  C   LIG d   1       2.323  -3.615 -11.192  0.00  0.00     0.218 C 
ATOM     26  O   LIG d   1       2.774  -4.680 -10.830  0.00  0.00    -0.276 OA
ATOM     27  N   LIG d   1       1.040  -3.528 -11.596  0.00  0.00    -0.313 N 
ATOM     28  H   LIG d   1       0.679  -2.675 -11.885  0.00  0.00     0.149 HD
BRANCH  27  29
ATOM     29  C   LIG d   1       0.190  -4.722 -11.598  0.00  0.00     0.018 C 
ATOM     30  H   LIG d   1       0.816  -5.613 -11.563  0.00  0.00     0.049 H 
BRANCH  29  31
ATOM     31  C   LIG d   1      -0.729  -4.695 -10.375  0.00  0.00    -0.047 C 
ATOM     32  H   LIG d   1      -0.868  -5.710 -10.002  0.00  0.00     0.025 H 
ATOM     33  H   LIG d   1      -0.280  -4.080  -9.595  0.00  0.00     0.025 H 
ATOM     34  H   LIG d   1      -1.695  -4.276 -10.656  0.00  0.00     0.025 H 
ENDBRANCH  29  31
BRANCH  29  35
ATOM     35  C   LIG d   1      -0.656  -4.743 -12.872  0.00  0.00    -0.047 C 
ATOM     36  H   LIG d   1      -0.092  -5.214 -13.676  0.00  0.00     0.025 H 
ATOM     37  H   LIG d   1      -1.571  -5.307 -12.691  0.00  0.00     0.025 H 
ATOM     38  H   LIG d   1      -0.910  -3.722 -13.156  0.00  0.00     0.025 H 
ENDBRANCH  29  35
ENDBRANCH  27  29
ENDBRANCH  22  25
ENDBRANCH  11  22
BRANCH   1  39
ATOM     39  C   LIG d   1       5.252  -2.975  -9.249  0.00  0.00    -0.038 C 
ATOM     40  H   LIG d   1       5.912  -3.072  -8.386  0.00  0.00     0.028 H 
ATOM     41  H   LIG d   1       4.839  -3.951  -9.503  0.00  0.00     0.028 H 
ATOM     42  H   LIG d   1       5.818  -2.588 -10.097  0.00  0.00     0.028 H 
ENDBRANCH   1  39
BRANCH  13  43
ATOM     43  C   LIG d   1       4.498   1.012  -1.691  0.00  0.00    -0.025 C 
ATOM     44  H   LIG d   1       5.488   1.088  -1.243  0.00  0.00     0.027 H 
ATOM     45  H   LIG d   1       4.193   1.989  -2.066  0.00  0.00     0.027 H 
ATOM     46  H   LIG d   1       3.784   0.672  -0.941  0.00  0.00     0.027 H 
ENDBRANCH  13  43
BRANCH  13  47
ATOM     47  C   LIG d   1       3.942  -1.324  -2.398  0.00  0.00    -0.025 C 
ATOM     48  H   LIG d   1       4.459  -2.140  -2.901  0.00  0.00     0.027 H 
ATOM     49  H   LIG d   1       4.061  -1.429  -1.319  0.00  0.00     0.027 H 
ATOM     50  H   LIG d   1       2.882  -1.354  -2.651  0.00  0.00     0.027 H 
ENDBRANCH  13  47
TORSDOF 8
ENDMDL
MODEL 6
REMARK VINA RESULT:      -5.6      4.832      7.375
REMARK  8 active torsions:
REMARK  status: ('A' for Active; 'I' for Inactive)
REMARK    1  A    between atoms: C_1  and  C_2 
REMARK    2  A    between atoms: C_12  and  C_13 
REMARK    3  A    between atoms: C_13  and  C_14 
REMARK       I    between atoms: C_14  and  N_16 
REMARK    4  A    between atoms: N_16  and  C_17 
REMARK    5  A    between atoms: C_17  and  C_18 
REMARK    6  A    between atoms: C_17  and  C_19 
REMARK    7  A    between atoms: C_21  and  C_24 
REMARK    8  A    between atoms: C_21  and  C_25 
ROOT
ATOM      1  C   LIG d   1       5.041  -2.202  -6.812  0.00  0.00    -0.029 A 
ATOM      2  C   LIG d   1       4.333  -2.407  -8.078  0.00  0.00     0.021 A 
ATOM      3  C   LIG d   1       4.304  -1.412  -9.059  0.00  0.00    -0.044 A 
ATOM      4  C   LIG d   1       3.638  -1.626 -10.236  0.00  0.00    -0.005 A 
ATOM      5  C   LIG d   1       2.988  -2.835 -10.463  0.00  0.00     0.128 A 
ATOM      6  C   LIG d   1       3.003  -3.832  -9.495  0.00  0.00     0.023 A 
ATOM      7  C   LIG d   1       3.672  -3.630  -8.299  0.00  0.00     0.143 A 
ATOM      8  O   LIG d   1       3.697  -4.589  -7.348  0.00  0.00    -0.422 OA
ATOM      9  C   LIG d   1       4.344  -4.407  -6.187  0.00  0.00     0.341 A 
ATOM     10  O   LIG d   1       4.341  -5.301  -5.360  0.00  0.00    -0.245 OA
ATOM     11  C   LIG d   1       5.032  -3.210  -5.901  0.00  0.00     0.049 A 
ATOM     12  O   LIG d   1       2.328  -3.081 -11.624  0.00  0.00    -0.486 OA
ATOM     13  C   LIG d   1       1.989  -1.965 -12.449  0.00  0.00     0.105 C 
ATOM     14  C   LIG d   1       3.241  -1.099 -12.631  0.00  0.00    -0.009 C 
ATOM     15  C   LIG d   1       3.630  -0.525 -11.266  0.00  0.00    -0.021 C 
ATOM     16  H   LIG d   1       4.809  -0.473  -8.889  0.00  0.00     0.063 H 
ATOM     17  H   LIG d   1       2.493  -4.767  -9.675  0.00  0.00     0.069 H 
ATOM     18  H   LIG d   1       4.057  -1.708 -13.019  0.00  0.00     0.031 H 
ATOM     19  H   LIG d   1       3.028  -0.285 -13.324  0.00  0.00     0.031 H 
ATOM     20  H   LIG d   1       2.908   0.238 -10.974  0.00  0.00     0.032 H 
ATOM     21  H   LIG d   1       4.622  -0.079 -11.329  0.00  0.00     0.032 H 
ENDROOT
BRANCH  11  22
ATOM     22  C   LIG d   1       5.752  -3.047  -4.588  0.00  0.00     0.056 C 
ATOM     23  H   LIG d   1       6.083  -4.023  -4.231  0.00  0.00     0.041 H 
ATOM     24  H   LIG d   1       6.618  -2.399  -4.725  0.00  0.00     0.041 H 
BRANCH  22  25
ATOM     25  C   LIG d   1       4.820  -2.433  -3.576  0.00  0.00     0.218 C 
ATOM     26  O   LIG d   1       3.966  -3.113  -3.047  0.00  0.00    -0.276 OA
ATOM     27  N   LIG d   1       4.934  -1.128  -3.260  0.00  0.00    -0.313 N 
ATOM     28  H   LIG d   1       5.617  -0.584  -3.683  0.00  0.00     0.149 HD
BRANCH  27  29
ATOM     29  C   LIG d   1       4.026  -0.531  -2.277  0.00  0.00     0.018 C 
ATOM     30  H   LIG d   1       3.838  -1.245  -1.475  0.00  0.00     0.049 H 
BRANCH  29  31
ATOM     31  C   LIG d   1       4.664   0.733  -1.696  0.00  0.00    -0.047 C 
ATOM     32  H   LIG d   1       5.553   0.989  -2.273  0.00  0.00     0.025 H 
ATOM     33  H   LIG d   1       3.951   1.555  -1.743  0.00  0.00     0.025 H 
ATOM     34  H   LIG d   1       4.944   0.554  -0.658  0.00  0.00     0.025 H 
ENDBRANCH  29  31
BRANCH  29  35
ATOM     35  C   LIG d   1       2.705  -0.168  -2.958  0.00  0.00    -0.047 C 
ATOM     36  H   LIG d   1       1.877  -0.609  -2.403  0.00  0.00     0.025 H 
ATOM     37  H   LIG d   1       2.592   0.916  -2.978  0.00  0.00     0.025 H 
ATOM     38  H   LIG d   1       2.704  -0.552  -3.977  0.00  0.00     0.025 H 
ENDBRANCH  29  35
ENDBRANCH  27  29
ENDBRANCH  22  25
ENDBRANCH  11  22
BRANCH   1  39
ATOM     39  C   LIG d   1       5.763  -0.910  -6.530  0.00  0.00    -0.038 C 
ATOM     40  H   LIG d   1       5.935  -0.378  -7.467  0.00  0.00     0.028 H 
ATOM     41  H   LIG d   1       5.158  -0.293  -5.867  0.00  0.00     0.028 H 
ATOM     42  H   LIG d   1       6.720  -1.125  -6.054  0.00  0.00     0.028 H 
ENDBRANCH   1  39
BRANCH  13  43
ATOM     43  C   LIG d   1       1.505  -2.463 -13.813  0.00  0.00    -0.025 C 
ATOM     44  H   LIG d   1       1.705  -1.704 -14.569  0.00  0.00     0.027 H 
ATOM     45  H   LIG d   1       2.033  -3.382 -14.072  0.00  0.00     0.027 H 
ATOM     46  H   LIG d   1       0.434  -2.660 -13.769  0.00  0.00     0.027 H 
ENDBRANCH  13  43
BRANCH  13  47
ATOM     47  C   LIG d   1       0.886  -1.145 -11.778  0.00  0.00    -0.025 C 
ATOM     48  H   LIG d   1       0.640  -0.287 -12.403  0.00  0.00     0.027 H 
ATOM     49  H   LIG d   1      -0.001  -1.766 -11.649  0.00  0.00     0.027 H 
ATOM     50  H   LIG d   1       1.233  -0.798 -10.805  0.00  0.00     0.027 H 
ENDBRANCH  13  47
TORSDOF 8
ENDMDL
MODEL 7
REMARK VINA RESULT:      -5.6      5.860      8.661
REMARK  8 active torsions:
REMARK  status: ('A' for Active; 'I' for Inactive)
REMARK    1  A    between atoms: C_1  and  C_2 
REMARK    2  A    between atoms: C_12  and  C_13 
REMARK    3  A    between atoms: C_13  and  C_14 
REMARK       I    between atoms: C_14  and  N_16 
REMARK    4  A    between atoms: N_16  and  C_17 
REMARK    5  A    between atoms: C_17  and  C_18 
REMARK    6  A    between atoms: C_17  and  C_19 
REMARK    7  A    between atoms: C_21  and  C_24 
REMARK    8  A    between atoms: C_21  and  C_25 
ROOT
ATOM      1  C   LIG d   1       8.257   1.822  -5.151  0.00  0.00    -0.029 A 
ATOM      2  C   LIG d   1       8.545   2.347  -6.488  0.00  0.00     0.021 A 
ATOM      3  C   LIG d   1       9.307   3.505  -6.661  0.00  0.00    -0.044 A 
ATOM      4  C   LIG d   1       9.566   3.976  -7.919  0.00  0.00    -0.005 A 
ATOM      5  C   LIG d   1       9.075   3.304  -9.034  0.00  0.00     0.128 A 
ATOM      6  C   LIG d   1       8.312   2.153  -8.878  0.00  0.00     0.023 A 
ATOM      7  C   LIG d   1       8.040   1.665  -7.611  0.00  0.00     0.143 A 
ATOM      8  O   LIG d   1       7.301   0.547  -7.443  0.00  0.00    -0.422 OA
ATOM      9  C   LIG d   1       7.034   0.062  -6.221  0.00  0.00     0.341 A 
ATOM     10  O   LIG d   1       6.364  -0.951  -6.118  0.00  0.00    -0.245 OA
ATOM     11  C   LIG d   1       7.512   0.690  -5.052  0.00  0.00     0.049 A 
ATOM     12  O   LIG d   1       9.325   3.741 -10.296  0.00  0.00    -0.486 OA
ATOM     13  C   LIG d   1       9.770   5.088 -10.461  0.00  0.00     0.105 C 
ATOM     14  C   LIG d   1      10.930   5.337  -9.489  0.00  0.00    -0.009 C 
ATOM     15  C   LIG d   1      10.389   5.232  -8.060  0.00  0.00    -0.021 C 
ATOM     16  H   LIG d   1       9.692   4.030  -5.799  0.00  0.00     0.063 H 
ATOM     17  H   LIG d   1       7.930   1.638  -9.747  0.00  0.00     0.069 H 
ATOM     18  H   LIG d   1      11.707   4.588  -9.643  0.00  0.00     0.031 H 
ATOM     19  H   LIG d   1      11.340   6.333  -9.654  0.00  0.00     0.031 H 
ATOM     20  H   LIG d   1       9.766   6.100  -7.844  0.00  0.00     0.032 H 
ATOM     21  H   LIG d   1      11.223   5.201  -7.359  0.00  0.00     0.032 H 
ENDROOT
BRANCH  11  22
ATOM     22  C   LIG d   1       7.195   0.110  -3.699  0.00  0.00     0.056 C 
ATOM     23  H   LIG d   1       7.264  -0.977  -3.744  0.00  0.00     0.041 H 
ATOM     24  H   LIG d   1       7.908   0.487  -2.965  0.00  0.00     0.041 H 
BRANCH  22  25
ATOM     25  C   LIG d   1       5.799   0.508  -3.295  0.00  0.00     0.218 C 
ATOM     26  O   LIG d   1       5.632   1.398  -2.489  0.00  0.00    -0.276 OA
ATOM     27  N   LIG d   1       4.737  -0.126  -3.830  0.00  0.00    -0.313 N 
ATOM     28  H   LIG d   1       4.871  -0.838  -4.475  0.00  0.00     0.149 HD
BRANCH  27  29
ATOM     29  C   LIG d   1       3.379   0.260  -3.436  0.00  0.00     0.018 C 
ATOM     30  H   LIG d   1       3.427   1.102  -2.746  0.00  0.00     0.049 H 
BRANCH  29  31
ATOM     31  C   LIG d   1       2.584   0.664  -4.680  0.00  0.00    -0.047 C 
ATOM     32  H   LIG d   1       2.774   1.713  -4.908  0.00  0.00     0.025 H 
ATOM     33  H   LIG d   1       2.891   0.047  -5.524  0.00  0.00     0.025 H 
ATOM     34  H   LIG d   1       1.520   0.520  -4.493  0.00  0.00     0.025 H 
ENDBRANCH  29  31
BRANCH  29  35
ATOM     35  C   LIG d   1       2.691  -0.923  -2.753  0.00  0.00    -0.047 C 
ATOM     36  H   LIG d   1       1.636  -0.936  -3.024  0.00  0.00     0.025 H 
ATOM     37  H   LIG d   1       3.161  -1.853  -3.075  0.00  0.00     0.025 H 
ATOM     38  H   LIG d   1       2.787  -0.824  -1.672  0.00  0.00     0.025 H 
ENDBRANCH  29  35
ENDBRANCH  27  29
ENDBRANCH  22  25
ENDBRANCH  11  22
BRANCH   1  39
ATOM     39  C   LIG d   1       8.775   2.517  -3.919  0.00  0.00    -0.038 C 
ATOM     40  H   LIG d   1       8.698   3.597  -4.051  0.00  0.00     0.028 H 
ATOM     41  H   LIG d   1       8.186   2.213  -3.055  0.00  0.00     0.028 H 
ATOM     42  H   LIG d   1       9.819   2.245  -3.761  0.00  0.00     0.028 H 
ENDBRANCH   1  39
BRANCH  13  43
ATOM     43  C   LIG d   1      10.249   5.298 -11.899  0.00  0.00    -0.025 C 
ATOM     44  H   LIG d   1       9.410   5.175 -12.583  0.00  0.00     0.027 H 
ATOM     45  H   LIG d   1      10.658   6.303 -12.002  0.00  0.00     0.027 H 
ATOM     46  H   LIG d   1      11.022   4.566 -12.135  0.00  0.00     0.027 H 
ENDBRANCH  13  43
BRANCH  13  47
ATOM     47  C   LIG d   1       8.622   6.051 -10.154  0.00  0.00    -0.025 C 
ATOM     48  H   LIG d   1       8.174   5.788  -9.196  0.00  0.00     0.027 H 
ATOM     49  H   LIG d   1       9.006   7.071 -10.107  0.00  0.00     0.027 H 
ATOM     50  H   LIG d   1       7.869   5.982 -10.939  0.00  0.00     0.027 H 
ENDBRANCH  13  47
TORSDOF 8
ENDMDL
MODEL 8
REMARK VINA RESULT:      -5.6      5.964      9.066
REMARK  8 active torsions:
REMARK  status: ('A' for Active; 'I' for Inactive)
REMARK    1  A    between atoms: C_1  and  C_2 
REMARK    2  A    between atoms: C_12  and  C_13 
REMARK    3  A    between atoms: C_13  and  C_14 
REMARK       I    between atoms: C_14  and  N_16 
REMARK    4  A    between atoms: N_16  and  C_17 
REMARK    5  A    between atoms: C_17  and  C_18 
REMARK    6  A    between atoms: C_17  and  C_19 
REMARK    7  A    between atoms: C_21  and  C_24 
REMARK    8  A    between atoms: C_21  and  C_25 
ROOT
ATOM      1  C   LIG d   1       3.547  -1.662  -8.225  0.00  0.00    -0.029 A 
ATOM      2  C   LIG d   1       2.647  -1.839  -9.366  0.00  0.00     0.021 A 
ATOM      3  C   LIG d   1       2.381  -3.108  -9.887  0.00  0.00    -0.044 A 
ATOM      4  C   LIG d   1       1.534  -3.251 -10.953  0.00  0.00    -0.005 A 
ATOM      5  C   LIG d   1       0.931  -2.133 -11.523  0.00  0.00     0.128 A 
ATOM      6  C   LIG d   1       1.189  -0.865 -11.019  0.00  0.00     0.023 A 
ATOM      7  C   LIG d   1       2.044  -0.704  -9.942  0.00  0.00     0.143 A 
ATOM      8  O   LIG d   1       2.304   0.522  -9.439  0.00  0.00    -0.422 OA
ATOM      9  C   LIG d   1       3.128   0.690  -8.394  0.00  0.00     0.341 A 
ATOM     10  O   LIG d   1       3.331   1.816  -7.974  0.00  0.00    -0.245 OA
ATOM     11  C   LIG d   1       3.761  -0.402  -7.765  0.00  0.00     0.049 A 
ATOM     12  O   LIG d   1       0.078  -2.244 -12.574  0.00  0.00    -0.486 OA
ATOM     13  C   LIG d   1       0.095  -3.459 -13.325  0.00  0.00     0.105 C 
ATOM     14  C   LIG d   1       0.010  -4.635 -12.344  0.00  0.00    -0.009 C 
ATOM     15  C   LIG d   1       1.279  -4.638 -11.486  0.00  0.00    -0.021 C 
ATOM     16  H   LIG d   1       2.845  -3.979  -9.448  0.00  0.00     0.063 H 
ATOM     17  H   LIG d   1       0.721  -0.000 -11.468  0.00  0.00     0.069 H 
ATOM     18  H   LIG d   1      -0.865  -4.518 -11.705  0.00  0.00     0.031 H 
ATOM     19  H   LIG d   1      -0.061  -5.570 -12.898  0.00  0.00     0.031 H 
ATOM     20  H   LIG d   1       2.126  -4.954 -12.094  0.00  0.00     0.032 H 
ATOM     21  H   LIG d   1       1.151  -5.329 -10.654  0.00  0.00     0.032 H 
ENDROOT
BRANCH  11  22
ATOM     22  C   LIG d   1       4.674  -0.172  -6.589  0.00  0.00     0.056 C 
ATOM     23  H   LIG d   1       5.448  -0.939  -6.575  0.00  0.00     0.041 H 
ATOM     24  H   LIG d   1       5.139   0.811  -6.676  0.00  0.00     0.041 H 
BRANCH  22  25
ATOM     25  C   LIG d   1       3.876  -0.240  -5.313  0.00  0.00     0.218 C 
ATOM     26  O   LIG d   1       2.719   0.121  -5.302  0.00  0.00    -0.276 OA
ATOM     27  N   LIG d   1       4.450  -0.700  -4.183  0.00  0.00    -0.313 N 
ATOM     28  H   LIG d   1       5.376  -0.989  -4.192  0.00  0.00     0.149 HD
BRANCH  27  29
ATOM     29  C   LIG d   1       3.674  -0.765  -2.942  0.00  0.00     0.018 C 
ATOM     30  H   LIG d   1       2.622  -0.581  -3.160  0.00  0.00     0.049 H 
BRANCH  29  31
ATOM     31  C   LIG d   1       3.830  -2.153  -2.316  0.00  0.00    -0.047 C 
ATOM     32  H   LIG d   1       4.835  -2.256  -1.907  0.00  0.00     0.025 H 
ATOM     33  H   LIG d   1       3.099  -2.275  -1.517  0.00  0.00     0.025 H 
ATOM     34  H   LIG d   1       3.667  -2.915  -3.077  0.00  0.00     0.025 H 
ENDBRANCH  29  31
BRANCH  29  35
ATOM     35  C   LIG d   1       4.186   0.296  -1.965  0.00  0.00    -0.047 C 
ATOM     36  H   LIG d   1       4.270   1.252  -2.479  0.00  0.00     0.025 H 
ATOM     37  H   LIG d   1       3.488   0.390  -1.133  0.00  0.00     0.025 H 
ATOM     38  H   LIG d   1       5.163  -0.001  -1.586  0.00  0.00     0.025 H 
ENDBRANCH  29  35
ENDBRANCH  27  29
ENDBRANCH  22  25
ENDBRANCH  11  22
BRANCH   1  39
ATOM     39  C   LIG d   1       4.214  -2.846  -7.576  0.00  0.00    -0.038 C 
ATOM     40  H   LIG d   1       5.292  -2.789  -7.735  0.00  0.00     0.028 H 
ATOM     41  H   LIG d   1       4.004  -2.842  -6.507  0.00  0.00     0.028 H 
ATOM     42  H   LIG d   1       3.831  -3.767  -8.017  0.00  0.00     0.028 H 
ENDBRANCH   1  39
BRANCH  13  43
ATOM     43  C   LIG d   1      -1.103  -3.493 -14.276  0.00  0.00    -0.025 C 
ATOM     44  H   LIG d   1      -1.671  -4.408 -14.111  0.00  0.00     0.027 H 
ATOM     45  H   LIG d   1      -1.742  -2.630 -14.085  0.00  0.00     0.027 H 
ATOM     46  H   LIG d   1      -0.751  -3.463 -15.306  0.00  0.00     0.027 H 
ENDBRANCH  13  43
BRANCH  13  47
ATOM     47  C   LIG d   1       1.394  -3.549 -14.128  0.00  0.00    -0.025 C 
ATOM     48  H   LIG d   1       1.169  -3.479 -15.192  0.00  0.00     0.027 H 
ATOM     49  H   LIG d   1       2.056  -2.731 -13.842  0.00  0.00     0.027 H 
ATOM     50  H   LIG d   1       1.883  -4.502 -13.922  0.00  0.00     0.027 H 
ENDBRANCH  13  47
TORSDOF 8
ENDMDL
MODEL 9
REMARK VINA RESULT:      -5.4      7.551     10.886
REMARK  8 active torsions:
REMARK  status: ('A' for Active; 'I' for Inactive)
REMARK    1  A    between atoms: C_1  and  C_2 
REMARK    2  A    between atoms: C_12  and  C_13 
REMARK    3  A    between atoms: C_13  and  C_14 
REMARK       I    between atoms: C_14  and  N_16 
REMARK    4  A    between atoms: N_16  and  C_17 
REMARK    5  A    between atoms: C_17  and  C_18 
REMARK    6  A    between atoms: C_17  and  C_19 
REMARK    7  A    between atoms: C_21  and  C_24 
REMARK    8  A    between atoms: C_21  and  C_25 
ROOT
ATOM      1  C   LIG d   1       9.799   4.512  -5.410  0.00  0.00    -0.029 A 
ATOM      2  C   LIG d   1       9.845   5.821  -4.754  0.00  0.00     0.021 A 
ATOM      3  C   LIG d   1       9.731   7.003  -5.491  0.00  0.00    -0.044 A 
ATOM      4  C   LIG d   1       9.774   8.215  -4.857  0.00  0.00    -0.005 A 
ATOM      5  C   LIG d   1       9.929   8.278  -3.475  0.00  0.00     0.128 A 
ATOM      6  C   LIG d   1      10.047   7.112  -2.729  0.00  0.00     0.023 A 
ATOM      7  C   LIG d   1      10.007   5.878  -3.357  0.00  0.00     0.143 A 
ATOM      8  O   LIG d   1      10.120   4.735  -2.646  0.00  0.00    -0.422 OA
ATOM      9  C   LIG d   1      10.079   3.533  -3.241  0.00  0.00     0.341 A 
ATOM     10  O   LIG d   1      10.183   2.529  -2.559  0.00  0.00    -0.245 OA
ATOM     11  C   LIG d   1       9.913   3.401  -4.635  0.00  0.00     0.049 A 
ATOM     12  O   LIG d   1       9.963   9.465  -2.817  0.00  0.00    -0.486 OA
ATOM     13  C   LIG d   1      10.217  10.646  -3.580  0.00  0.00     0.105 C 
ATOM     14  C   LIG d   1       9.279  10.649  -4.794  0.00  0.00    -0.009 C 
ATOM     15  C   LIG d   1       9.651   9.465  -5.691  0.00  0.00    -0.021 C 
ATOM     16  H   LIG d   1       9.609   6.959  -6.563  0.00  0.00     0.063 H 
ATOM     17  H   LIG d   1      10.171   7.167  -1.658  0.00  0.00     0.069 H 
ATOM     18  H   LIG d   1       8.247  10.547  -4.461  0.00  0.00     0.031 H 
ATOM     19  H   LIG d   1       9.398  11.580  -5.347  0.00  0.00     0.031 H 
ATOM     20  H   LIG d   1      10.604   9.668  -6.181  0.00  0.00     0.032 H 
ATOM     21  H   LIG d   1       8.877   9.325  -6.445  0.00  0.00     0.032 H 
ENDROOT
BRANCH  11  22
ATOM     22  C   LIG d   1       9.865   2.033  -5.265  0.00  0.00     0.056 C 
ATOM     23  H   LIG d   1      10.130   2.110  -6.319  0.00  0.00     0.041 H 
ATOM     24  H   LIG d   1      10.572   1.375  -4.760  0.00  0.00     0.041 H 
BRANCH  22  25
ATOM     25  C   LIG d   1       8.473   1.470  -5.136  0.00  0.00     0.218 C 
ATOM     26  O   LIG d   1       7.645   1.699  -5.992  0.00  0.00    -0.276 OA
ATOM     27  N   LIG d   1       8.149   0.711  -4.070  0.00  0.00    -0.313 N 
ATOM     28  H   LIG d   1       8.812   0.528  -3.386  0.00  0.00     0.149 HD
BRANCH  27  29
ATOM     29  C   LIG d   1       6.795   0.164  -3.945  0.00  0.00     0.018 C 
ATOM     30  H   LIG d   1       6.327   0.125  -4.928  0.00  0.00     0.049 H 
BRANCH  29  31
ATOM     31  C   LIG d   1       6.869  -1.246  -3.358  0.00  0.00    -0.047 C 
ATOM     32  H   LIG d   1       7.808  -1.715  -3.653  0.00  0.00     0.025 H 
ATOM     33  H   LIG d   1       6.816  -1.191  -2.270  0.00  0.00     0.025 H 
ATOM     34  H   LIG d   1       6.034  -1.839  -3.732  0.00  0.00     0.025 H 
ENDBRANCH  29  31
BRANCH  29  35
ATOM     35  C   LIG d   1       5.968   1.060  -3.021  0.00  0.00    -0.047 C 
ATOM     36  H   LIG d   1       6.629   1.743  -2.489  0.00  0.00     0.025 H 
ATOM     37  H   LIG d   1       5.253   1.632  -3.613  0.00  0.00     0.025 H 
ATOM     38  H   LIG d   1       5.430   0.442  -2.302  0.00  0.00     0.025 H 
ENDBRANCH  29  35
ENDBRANCH  27  29
ENDBRANCH  22  25
ENDBRANCH  11  22
BRANCH   1  39
ATOM     39  C   LIG d   1       9.627   4.400  -6.902  0.00  0.00    -0.038 C 
ATOM     40  H   LIG d   1       9.884   3.390  -7.223  0.00  0.00     0.028 H 
ATOM     41  H   LIG d   1       8.591   4.612  -7.165  0.00  0.00     0.028 H 
ATOM     42  H   LIG d   1      10.281   5.117  -7.398  0.00  0.00     0.028 H 
ENDBRANCH   1  39
BRANCH  13  43
ATOM     43  C   LIG d   1       9.949  11.883  -2.719  0.00  0.00    -0.025 C 
ATOM     44  H   LIG d   1       9.731  12.733  -3.363  0.00  0.00     0.027 H 
ATOM     45  H   LIG d   1       9.096  11.692  -2.067  0.00  0.00     0.027 H 
ATOM     46  H   LIG d   1      10.828  12.100  -2.112  0.00  0.00     0.027 H 
ENDBRANCH  13  43
BRANCH  13  47
ATOM     47  C   LIG d   1      11.672  10.651  -4.052  0.00  0.00    -0.025 C 
ATOM     48  H   LIG d   1      12.301  10.178  -3.297  0.00  0.00     0.027 H 
ATOM     49  H   LIG d   1      11.752  10.099  -4.989  0.00  0.00     0.027 H 
ATOM     50  H   LIG d   1      12.001  11.679  -4.206  0.00  0.00     0.027 H 
ENDBRANCH  13  47
TORSDOF 8
ENDMDL
