MODEL 1
REMARK VINA RESULT:      -7.1      0.000      0.000
REMARK  7 active torsions:
REMARK  status: ('A' for Active; 'I' for Inactive)
REMARK    1  A    between atoms: C_1  and  C_2 
REMARK    2  A    between atoms: C_17  and  C_35 
REMARK    3  A    between atoms: C_22  and  C_23 
REMARK    4  A    between atoms: C_22  and  O_34 
REMARK    5  A    between atoms: C_23  and  N_24 
REMARK    6  A    between atoms: C_25  and  C_26 
REMARK    7  A    between atoms: C_31  and  O_32 
ROOT
ATOM      1  C   LIG d   1       4.788  -0.973  -3.912  0.00  0.00    -0.026 C 
ATOM      2  C   LIG d   1       6.249  -0.736  -3.528  0.00  0.00    -0.047 C 
ATOM      3  C   LIG d   1       6.529   0.768  -3.493  0.00  0.00    -0.052 C 
ATOM      4  C   LIG d   1       5.616   1.433  -2.462  0.00  0.00    -0.053 C 
ATOM      5  C   LIG d   1       4.154   1.196  -2.847  0.00  0.00    -0.050 C 
ATOM      6  C   LIG d   1       3.874  -0.307  -2.882  0.00  0.00    -0.035 C 
ATOM      7  H   LIG d   1       4.066  -0.735  -1.897  0.00  0.00     0.031 H 
ATOM      8  C   LIG d   1       2.412  -0.547  -3.265  0.00  0.00    -0.049 C 
ATOM      9  C   LIG d   1       2.143   0.050  -4.649  0.00  0.00    -0.049 C 
ATOM     10  C   LIG d   1       3.057  -0.618  -5.678  0.00  0.00    -0.034 C 
ATOM     11  H   LIG d   1       2.874  -1.693  -5.656  0.00  0.00     0.031 H 
ATOM     12  C   LIG d   1       4.518  -0.381  -5.297  0.00  0.00    -0.032 C 
ATOM     13  H   LIG d   1       4.724   0.689  -5.284  0.00  0.00     0.031 H 
ATOM     14  C   LIG d   1       5.408  -1.082  -6.328  0.00  0.00    -0.049 C 
ATOM     15  C   LIG d   1       5.178  -0.447  -7.700  0.00  0.00    -0.044 C 
ATOM     16  C   LIG d   1       3.724  -0.625  -8.140  0.00  0.00     0.002 C 
ATOM     17  C   LIG d   1       2.752  -0.108  -7.065  0.00  0.00    -0.030 C 
ATOM     18  H   LIG d   1       1.737  -0.405  -7.328  0.00  0.00     0.031 H 
ATOM     19  C   LIG d   1       2.875   1.423  -7.174  0.00  0.00    -0.047 C 
ATOM     20  C   LIG d   1       2.978   1.668  -8.698  0.00  0.00    -0.021 C 
ATOM     21  C   LIG d   1       3.493   0.357  -9.320  0.00  0.00     0.091 C 
ATOM     22  H   LIG d   1       6.900  -1.209  -4.263  0.00  0.00     0.027 H 
ATOM     23  H   LIG d   1       6.442  -1.163  -2.544  0.00  0.00     0.027 H 
ATOM     24  H   LIG d   1       6.338   1.196  -4.477  0.00  0.00     0.026 H 
ATOM     25  H   LIG d   1       7.571   0.938  -3.219  0.00  0.00     0.026 H 
ATOM     26  H   LIG d   1       5.815   2.505  -2.437  0.00  0.00     0.026 H 
ATOM     27  H   LIG d   1       5.806   1.005  -1.478  0.00  0.00     0.026 H 
ATOM     28  H   LIG d   1       3.964   1.624  -3.832  0.00  0.00     0.027 H 
ATOM     29  H   LIG d   1       3.502   1.670  -2.114  0.00  0.00     0.027 H 
ATOM     30  H   LIG d   1       1.762  -0.071  -2.531  0.00  0.00     0.027 H 
ATOM     31  H   LIG d   1       2.213  -1.619  -3.286  0.00  0.00     0.027 H 
ATOM     32  H   LIG d   1       2.342   1.122  -4.626  0.00  0.00     0.027 H 
ATOM     33  H   LIG d   1       1.103  -0.121  -4.921  0.00  0.00     0.027 H 
ATOM     34  H   LIG d   1       6.454  -0.971  -6.044  0.00  0.00     0.027 H 
ATOM     35  H   LIG d   1       5.150  -2.140  -6.375  0.00  0.00     0.027 H 
ATOM     36  H   LIG d   1       5.835  -0.911  -8.435  0.00  0.00     0.027 H 
ATOM     37  H   LIG d   1       5.407   0.617  -7.638  0.00  0.00     0.027 H 
ATOM     38  H   LIG d   1       3.774   1.772  -6.667  0.00  0.00     0.027 H 
ATOM     39  H   LIG d   1       1.990   1.911  -6.765  0.00  0.00     0.027 H 
ATOM     40  H   LIG d   1       3.679   2.478  -8.898  0.00  0.00     0.029 H 
ATOM     41  H   LIG d   1       1.997   1.914  -9.104  0.00  0.00     0.029 H 
ENDROOT
BRANCH  21  42
ATOM     42  C   LIG d   1       2.448  -0.214 -10.281  0.00  0.00     0.069 C 
ATOM     43  H   LIG d   1       2.200  -1.234  -9.985  0.00  0.00     0.054 H 
ATOM     44  H   LIG d   1       1.549   0.401 -10.249  0.00  0.00     0.054 H 
BRANCH  42  45
ATOM     45  N   LIG d   1       2.988  -0.218 -11.643  0.00  0.00    -0.288 NA
ATOM     46  C   LIG d   1       2.915  -1.290 -12.365  0.00  0.00     0.033 C 
ATOM     47  H   LIG d   1       2.457  -2.181 -11.963  0.00  0.00     0.083 H 
BRANCH  46  48
ATOM     48  C   LIG d   1       3.459  -1.294 -13.734  0.00  0.00     0.035 A 
ATOM     49  C   LIG d   1       4.739  -0.780 -13.986  0.00  0.00     0.126 A 
ATOM     50  C   LIG d   1       5.241  -0.789 -15.278  0.00  0.00    -0.018 A 
ATOM     51  C   LIG d   1       4.483  -1.302 -16.313  0.00  0.00    -0.044 A 
ATOM     52  H   LIG d   1       6.227  -0.395 -15.477  0.00  0.00     0.065 H 
ATOM     53  C   LIG d   1       3.217  -1.810 -16.069  0.00  0.00     0.019 A 
ATOM     54  H   LIG d   1       4.879  -1.306 -17.318  0.00  0.00     0.063 H 
ATOM     55  C   LIG d   1       2.705  -1.815 -14.788  0.00  0.00    -0.036 A 
ATOM     56 BR   LIG d   1       2.192  -2.509 -17.496  0.00  0.00    -0.050 Br
ATOM     57  H   LIG d   1       1.719  -2.216 -14.602  0.00  0.00     0.064 H 
BRANCH  49  58
ATOM     58  O   LIG d   1       5.484  -0.278 -12.969  0.00  0.00    -0.506 OA
ATOM     59  H   LIG d   1       5.101   0.504 -12.549  0.00  0.00     0.292 HD
ENDBRANCH  49  58
ENDBRANCH  46  48
ENDBRANCH  42  45
ENDBRANCH  21  42
BRANCH  21  60
ATOM     60  O   LIG d   1       4.721   0.590 -10.012  0.00  0.00    -0.386 OA
ATOM     61  H   LIG d   1       4.609   0.956 -10.900  0.00  0.00     0.210 HD
ENDBRANCH  21  60
BRANCH  16  62
ATOM     62  C   LIG d   1       3.423  -2.073  -8.532  0.00  0.00    -0.057 C 
ATOM     63  H   LIG d   1       2.532  -2.414  -8.005  0.00  0.00     0.024 H 
ATOM     64  H   LIG d   1       4.268  -2.706  -8.263  0.00  0.00     0.024 H 
ATOM     65  H   LIG d   1       3.253  -2.131  -9.607  0.00  0.00     0.024 H 
ENDBRANCH  16  62
BRANCH   1  66
ATOM     66  C   LIG d   1       4.510  -2.478  -3.941  0.00  0.00    -0.059 C 
ATOM     67  H   LIG d   1       3.917  -2.755  -3.070  0.00  0.00     0.024 H 
ATOM     68  H   LIG d   1       3.961  -2.727  -4.849  0.00  0.00     0.024 H 
ATOM     69  H   LIG d   1       5.454  -3.022  -3.926  0.00  0.00     0.024 H 
ENDBRANCH   1  66
TORSDOF 7
ENDMDL
MODEL 2
REMARK VINA RESULT:      -6.6      3.008      3.993
REMARK  7 active torsions:
REMARK  status: ('A' for Active; 'I' for Inactive)
REMARK    1  A    between atoms: C_1  and  C_2 
REMARK    2  A    between atoms: C_17  and  C_35 
REMARK    3  A    between atoms: C_22  and  C_23 
REMARK    4  A    between atoms: C_22  and  O_34 
REMARK    5  A    between atoms: C_23  and  N_24 
REMARK    6  A    between atoms: C_25  and  C_26 
REMARK    7  A    between atoms: C_31  and  O_32 
ROOT
ATOM      1  C   LIG d   1       6.223  -0.879  -3.627  0.00  0.00    -0.026 C 
ATOM      2  C   LIG d   1       6.790   0.395  -2.999  0.00  0.00    -0.047 C 
ATOM      3  C   LIG d   1       5.675   1.433  -2.854  0.00  0.00    -0.052 C 
ATOM      4  C   LIG d   1       4.569   0.871  -1.959  0.00  0.00    -0.053 C 
ATOM      5  C   LIG d   1       4.001  -0.403  -2.588  0.00  0.00    -0.050 C 
ATOM      6  C   LIG d   1       5.116  -1.440  -2.732  0.00  0.00    -0.035 C 
ATOM      7  H   LIG d   1       5.526  -1.670  -1.749  0.00  0.00     0.031 H 
ATOM      8  C   LIG d   1       4.550  -2.716  -3.359  0.00  0.00    -0.049 C 
ATOM      9  C   LIG d   1       3.976  -2.393  -4.742  0.00  0.00    -0.049 C 
ATOM     10  C   LIG d   1       5.085  -1.834  -5.635  0.00  0.00    -0.034 C 
ATOM     11  H   LIG d   1       5.888  -2.569  -5.690  0.00  0.00     0.031 H 
ATOM     12  C   LIG d   1       5.653  -0.560  -5.010  0.00  0.00    -0.032 C 
ATOM     13  H   LIG d   1       4.864   0.186  -4.918  0.00  0.00     0.031 H 
ATOM     14  C   LIG d   1       6.776  -0.037  -5.911  0.00  0.00    -0.049 C 
ATOM     15  C   LIG d   1       6.191   0.336  -7.274  0.00  0.00    -0.044 C 
ATOM     16  C   LIG d   1       5.580  -0.891  -7.953  0.00  0.00     0.002 C 
ATOM     17  C   LIG d   1       4.565  -1.588  -7.030  0.00  0.00    -0.030 C 
ATOM     18  H   LIG d   1       4.282  -2.545  -7.469  0.00  0.00     0.031 H 
ATOM     19  C   LIG d   1       3.350  -0.642  -7.052  0.00  0.00    -0.047 C 
ATOM     20  C   LIG d   1       3.280  -0.180  -8.527  0.00  0.00    -0.021 C 
ATOM     21  C   LIG d   1       4.692  -0.363  -9.112  0.00  0.00     0.091 C 
ATOM     22  H   LIG d   1       7.578   0.796  -3.638  0.00  0.00     0.027 H 
ATOM     23  H   LIG d   1       7.202   0.166  -2.016  0.00  0.00     0.027 H 
ATOM     24  H   LIG d   1       5.265   1.663  -3.838  0.00  0.00     0.026 H 
ATOM     25  H   LIG d   1       6.080   2.341  -2.407  0.00  0.00     0.026 H 
ATOM     26  H   LIG d   1       3.774   1.610  -1.856  0.00  0.00     0.026 H 
ATOM     27  H   LIG d   1       4.980   0.639  -0.977  0.00  0.00     0.026 H 
ATOM     28  H   LIG d   1       3.591  -0.171  -3.572  0.00  0.00     0.027 H 
ATOM     29  H   LIG d   1       3.213  -0.803  -1.951  0.00  0.00     0.027 H 
ATOM     30  H   LIG d   1       3.760  -3.114  -2.722  0.00  0.00     0.027 H 
ATOM     31  H   LIG d   1       5.345  -3.455  -3.458  0.00  0.00     0.027 H 
ATOM     32  H   LIG d   1       3.182  -1.654  -4.641  0.00  0.00     0.027 H 
ATOM     33  H   LIG d   1       3.574  -3.302  -5.188  0.00  0.00     0.027 H 
ATOM     34  H   LIG d   1       7.232   0.842  -5.456  0.00  0.00     0.027 H 
ATOM     35  H   LIG d   1       7.529  -0.815  -6.045  0.00  0.00     0.027 H 
ATOM     36  H   LIG d   1       6.975   0.746  -7.911  0.00  0.00     0.027 H 
ATOM     37  H   LIG d   1       5.417   1.090  -7.130  0.00  0.00     0.027 H 
ATOM     38  H   LIG d   1       3.514   0.208  -6.391  0.00  0.00     0.027 H 
ATOM     39  H   LIG d   1       2.441  -1.176  -6.773  0.00  0.00     0.027 H 
ATOM     40  H   LIG d   1       2.988   0.868  -8.575  0.00  0.00     0.029 H 
ATOM     41  H   LIG d   1       2.566  -0.792  -9.077  0.00  0.00     0.029 H 
ENDROOT
BRANCH  21  42
ATOM     42  C   LIG d   1       4.660  -1.379 -10.254  0.00  0.00     0.069 C 
ATOM     43  H   LIG d   1       4.617  -0.854 -11.209  0.00  0.00     0.054 H 
ATOM     44  H   LIG d   1       5.560  -1.994 -10.220  0.00  0.00     0.054 H 
BRANCH  42  45
ATOM     45  N   LIG d   1       3.479  -2.235 -10.114  0.00  0.00    -0.288 NA
ATOM     46  C   LIG d   1       3.344  -3.280 -10.866  0.00  0.00     0.033 C 
ATOM     47  H   LIG d   1       4.102  -3.520 -11.597  0.00  0.00     0.083 H 
BRANCH  46  48
ATOM     48  C   LIG d   1       2.156  -4.140 -10.725  0.00  0.00     0.035 A 
ATOM     49  C   LIG d   1       0.879  -3.568 -10.636  0.00  0.00     0.126 A 
ATOM     50  C   LIG d   1      -0.233  -4.386 -10.503  0.00  0.00    -0.018 A 
ATOM     51  C   LIG d   1      -0.082  -5.758 -10.459  0.00  0.00    -0.044 A 
ATOM     52  H   LIG d   1      -1.219  -3.950 -10.436  0.00  0.00     0.065 H 
ATOM     53  C   LIG d   1       1.178  -6.328 -10.546  0.00  0.00     0.019 A 
ATOM     54  H   LIG d   1      -0.951  -6.391 -10.356  0.00  0.00     0.063 H 
ATOM     55  C   LIG d   1       2.294  -5.529 -10.684  0.00  0.00    -0.036 A 
ATOM     56 BR   LIG d   1       1.368  -8.209 -10.485  0.00  0.00    -0.050 Br
ATOM     57  H   LIG d   1       3.275  -5.977 -10.756  0.00  0.00     0.064 H 
BRANCH  49  58
ATOM     58  O   LIG d   1       0.731  -2.220 -10.682  0.00  0.00    -0.506 OA
ATOM     59  H   LIG d   1       1.428  -1.731 -10.223  0.00  0.00     0.292 HD
ENDBRANCH  49  58
ENDBRANCH  46  48
ENDBRANCH  42  45
ENDBRANCH  21  42
BRANCH  21  60
ATOM     60  O   LIG d   1       5.195   0.889  -9.583  0.00  0.00    -0.386 OA
ATOM     61  H   LIG d   1       6.114   1.062  -9.336  0.00  0.00     0.210 HD
ENDBRANCH  21  60
BRANCH  16  62
ATOM     62  C   LIG d   1       6.656  -1.858  -8.451  0.00  0.00    -0.057 C 
ATOM     63  H   LIG d   1       6.382  -2.229  -9.439  0.00  0.00     0.024 H 
ATOM     64  H   LIG d   1       6.739  -2.697  -7.759  0.00  0.00     0.024 H 
ATOM     65  H   LIG d   1       7.612  -1.340  -8.510  0.00  0.00     0.024 H 
ENDBRANCH  16  62
BRANCH   1  66
ATOM     66  C   LIG d   1       7.339  -1.915  -3.766  0.00  0.00    -0.059 C 
ATOM     67  H   LIG d   1       8.174  -1.639  -3.121  0.00  0.00     0.024 H 
ATOM     68  H   LIG d   1       6.964  -2.895  -3.472  0.00  0.00     0.024 H 
ATOM     69  H   LIG d   1       7.677  -1.951  -4.801  0.00  0.00     0.024 H 
ENDBRANCH   1  66
TORSDOF 7
ENDMDL
MODEL 3
REMARK VINA RESULT:      -6.5      2.416      3.417
REMARK  7 active torsions:
REMARK  status: ('A' for Active; 'I' for Inactive)
REMARK    1  A    between atoms: C_1  and  C_2 
REMARK    2  A    between atoms: C_17  and  C_35 
REMARK    3  A    between atoms: C_22  and  C_23 
REMARK    4  A    between atoms: C_22  and  O_34 
REMARK    5  A    between atoms: C_23  and  N_24 
REMARK    6  A    between atoms: C_25  and  C_26 
REMARK    7  A    between atoms: C_31  and  O_32 
ROOT
ATOM      1  C   LIG d   1       6.174  -0.878  -3.648  0.00  0.00    -0.026 C 
ATOM      2  C   LIG d   1       6.751   0.370  -2.980  0.00  0.00    -0.047 C 
ATOM      3  C   LIG d   1       5.645   1.415  -2.810  0.00  0.00    -0.052 C 
ATOM      4  C   LIG d   1       4.530   0.838  -1.937  0.00  0.00    -0.053 C 
ATOM      5  C   LIG d   1       3.952  -0.411  -2.607  0.00  0.00    -0.050 C 
ATOM      6  C   LIG d   1       5.057  -1.454  -2.776  0.00  0.00    -0.035 C 
ATOM      7  H   LIG d   1       5.459  -1.718  -1.799  0.00  0.00     0.031 H 
ATOM      8  C   LIG d   1       4.481  -2.705  -3.444  0.00  0.00    -0.049 C 
ATOM      9  C   LIG d   1       3.918  -2.335  -4.819  0.00  0.00    -0.049 C 
ATOM     10  C   LIG d   1       5.037  -1.761  -5.690  0.00  0.00    -0.034 C 
ATOM     11  H   LIG d   1       5.833  -2.502  -5.763  0.00  0.00     0.031 H 
ATOM     12  C   LIG d   1       5.614  -0.512  -5.024  0.00  0.00    -0.032 C 
ATOM     13  H   LIG d   1       4.832   0.239  -4.914  0.00  0.00     0.031 H 
ATOM     14  C   LIG d   1       6.748   0.026  -5.904  0.00  0.00    -0.049 C 
ATOM     15  C   LIG d   1       6.173   0.446  -7.257  0.00  0.00    -0.044 C 
ATOM     16  C   LIG d   1       5.554  -0.754  -7.976  0.00  0.00     0.002 C 
ATOM     17  C   LIG d   1       4.527  -1.468  -7.079  0.00  0.00    -0.030 C 
ATOM     18  H   LIG d   1       4.236  -2.408  -7.548  0.00  0.00     0.031 H 
ATOM     19  C   LIG d   1       3.322  -0.509  -7.079  0.00  0.00    -0.047 C 
ATOM     20  C   LIG d   1       3.264  -0.002  -8.539  0.00  0.00    -0.021 C 
ATOM     21  C   LIG d   1       4.677  -0.182  -9.123  0.00  0.00     0.091 C 
ATOM     22  H   LIG d   1       7.546   0.782  -3.602  0.00  0.00     0.027 H 
ATOM     23  H   LIG d   1       7.155   0.108  -2.002  0.00  0.00     0.027 H 
ATOM     24  H   LIG d   1       5.243   1.679  -3.788  0.00  0.00     0.026 H 
ATOM     25  H   LIG d   1       6.057   2.305  -2.333  0.00  0.00     0.026 H 
ATOM     26  H   LIG d   1       3.742   1.582  -1.815  0.00  0.00     0.026 H 
ATOM     27  H   LIG d   1       4.933   0.572  -0.960  0.00  0.00     0.026 H 
ATOM     28  H   LIG d   1       3.549  -0.145  -3.585  0.00  0.00     0.027 H 
ATOM     29  H   LIG d   1       3.156  -0.821  -1.986  0.00  0.00     0.027 H 
ATOM     30  H   LIG d   1       3.684  -3.114  -2.823  0.00  0.00     0.027 H 
ATOM     31  H   LIG d   1       5.268  -3.449  -3.562  0.00  0.00     0.027 H 
ATOM     32  H   LIG d   1       3.130  -1.591  -4.700  0.00  0.00     0.027 H 
ATOM     33  H   LIG d   1       3.508  -3.226  -5.294  0.00  0.00     0.027 H 
ATOM     34  H   LIG d   1       7.210   0.886  -5.420  0.00  0.00     0.027 H 
ATOM     35  H   LIG d   1       7.493  -0.755  -6.057  0.00  0.00     0.027 H 
ATOM     36  H   LIG d   1       6.965   0.867  -7.878  0.00  0.00     0.027 H 
ATOM     37  H   LIG d   1       5.406   1.203  -7.094  0.00  0.00     0.027 H 
ATOM     38  H   LIG d   1       3.491   0.319  -6.391  0.00  0.00     0.027 H 
ATOM     39  H   LIG d   1       2.406  -1.041  -6.821  0.00  0.00     0.027 H 
ATOM     40  H   LIG d   1       2.983   1.050  -8.558  0.00  0.00     0.029 H 
ATOM     41  H   LIG d   1       2.547  -0.590  -9.111  0.00  0.00     0.029 H 
ENDROOT
BRANCH  21  42
ATOM     42  C   LIG d   1       4.641  -1.163 -10.295  0.00  0.00     0.069 C 
ATOM     43  H   LIG d   1       4.880  -0.636 -11.219  0.00  0.00     0.054 H 
ATOM     44  H   LIG d   1       5.372  -1.955 -10.131  0.00  0.00     0.054 H 
BRANCH  42  45
ATOM     45  N   LIG d   1       3.302  -1.750 -10.400  0.00  0.00    -0.288 NA
ATOM     46  C   LIG d   1       3.006  -2.511 -11.404  0.00  0.00     0.033 C 
ATOM     47  H   LIG d   1       3.746  -2.714 -12.165  0.00  0.00     0.083 H 
BRANCH  46  48
ATOM     48  C   LIG d   1       1.660  -3.100 -11.510  0.00  0.00     0.035 A 
ATOM     49  C   LIG d   1       1.224  -4.036 -10.562  0.00  0.00     0.126 A 
ATOM     50  C   LIG d   1      -0.045  -4.585 -10.671  0.00  0.00    -0.018 A 
ATOM     51  C   LIG d   1      -0.875  -4.211 -11.709  0.00  0.00    -0.044 A 
ATOM     52  H   LIG d   1      -0.386  -5.306  -9.942  0.00  0.00     0.065 H 
ATOM     53  C   LIG d   1      -0.448  -3.286 -12.649  0.00  0.00     0.019 A 
ATOM     54  H   LIG d   1      -1.862  -4.641 -11.790  0.00  0.00     0.063 H 
ATOM     55  C   LIG d   1       0.809  -2.726 -12.552  0.00  0.00    -0.036 A 
ATOM     56 BR   LIG d   1      -1.597  -2.783 -14.065  0.00  0.00    -0.050 Br
ATOM     57  H   LIG d   1       1.136  -2.002 -13.285  0.00  0.00     0.064 H 
BRANCH  49  58
ATOM     58  O   LIG d   1       2.039  -4.403  -9.541  0.00  0.00    -0.506 OA
ATOM     59  H   LIG d   1       2.807  -4.922  -9.817  0.00  0.00     0.292 HD
ENDBRANCH  49  58
ENDBRANCH  46  48
ENDBRANCH  42  45
ENDBRANCH  21  42
BRANCH  21  60
ATOM     60  O   LIG d   1       5.195   1.078  -9.554  0.00  0.00    -0.386 OA
ATOM     61  H   LIG d   1       4.904   1.342 -10.437  0.00  0.00     0.210 HD
ENDBRANCH  21  60
BRANCH  16  62
ATOM     62  C   LIG d   1       6.622  -1.717  -8.497  0.00  0.00    -0.057 C 
ATOM     63  H   LIG d   1       6.534  -1.805  -9.580  0.00  0.00     0.024 H 
ATOM     64  H   LIG d   1       6.481  -2.697  -8.041  0.00  0.00     0.024 H 
ATOM     65  H   LIG d   1       7.611  -1.336  -8.242  0.00  0.00     0.024 H 
ENDBRANCH  16  62
BRANCH   1  66
ATOM     66  C   LIG d   1       7.281  -1.922  -3.813  0.00  0.00    -0.059 C 
ATOM     67  H   LIG d   1       7.955  -1.875  -2.957  0.00  0.00     0.024 H 
ATOM     68  H   LIG d   1       6.837  -2.915  -3.870  0.00  0.00     0.024 H 
ATOM     69  H   LIG d   1       7.839  -1.719  -4.726  0.00  0.00     0.024 H 
ENDBRANCH   1  66
TORSDOF 7
ENDMDL
MODEL 4
REMARK VINA RESULT:      -6.4      8.173     11.338
REMARK  7 active torsions:
REMARK  status: ('A' for Active; 'I' for Inactive)
REMARK    1  A    between atoms: C_1  and  C_2 
REMARK    2  A    between atoms: C_17  and  C_35 
REMARK    3  A    between atoms: C_22  and  C_23 
REMARK    4  A    between atoms: C_22  and  O_34 
REMARK    5  A    between atoms: C_23  and  N_24 
REMARK    6  A    between atoms: C_25  and  C_26 
REMARK    7  A    between atoms: C_31  and  O_32 
ROOT
ATOM      1  C   LIG d   1      11.029 -10.094  -2.089  0.00  0.00    -0.026 C 
ATOM      2  C   LIG d   1      12.334 -10.517  -1.414  0.00  0.00    -0.047 C 
ATOM      3  C   LIG d   1      12.380  -9.951   0.007  0.00  0.00    -0.052 C 
ATOM      4  C   LIG d   1      11.194 -10.488   0.808  0.00  0.00    -0.053 C 
ATOM      5  C   LIG d   1       9.888 -10.064   0.132  0.00  0.00    -0.050 C 
ATOM      6  C   LIG d   1       9.842 -10.630  -1.287  0.00  0.00    -0.035 C 
ATOM      7  H   LIG d   1       9.894 -11.718  -1.246  0.00  0.00     0.031 H 
ATOM      8  C   LIG d   1       8.536 -10.208  -1.965  0.00  0.00    -0.049 C 
ATOM      9  C   LIG d   1       8.464  -8.680  -2.026  0.00  0.00    -0.049 C 
ATOM     10  C   LIG d   1       9.651  -8.146  -2.830  0.00  0.00    -0.034 C 
ATOM     11  H   LIG d   1       9.625  -8.595  -3.823  0.00  0.00     0.031 H 
ATOM     12  C   LIG d   1      10.956  -8.567  -2.156  0.00  0.00    -0.032 C 
ATOM     13  H   LIG d   1      10.998  -8.154  -1.148  0.00  0.00     0.031 H 
ATOM     14  C   LIG d   1      12.126  -8.042  -2.994  0.00  0.00    -0.049 C 
ATOM     15  C   LIG d   1      12.084  -6.513  -3.008  0.00  0.00    -0.044 C 
ATOM     16  C   LIG d   1      10.788  -6.015  -3.651  0.00  0.00     0.002 C 
ATOM     17  C   LIG d   1       9.557  -6.648  -2.978  0.00  0.00    -0.030 C 
ATOM     18  H   LIG d   1       8.669  -6.412  -3.564  0.00  0.00     0.031 H 
ATOM     19  C   LIG d   1       9.475  -5.921  -1.623  0.00  0.00    -0.047 C 
ATOM     20  C   LIG d   1       9.842  -4.460  -1.974  0.00  0.00    -0.021 C 
ATOM     21  C   LIG d   1      10.655  -4.514  -3.280  0.00  0.00     0.091 C 
ATOM     22  H   LIG d   1      13.180 -10.133  -1.984  0.00  0.00     0.027 H 
ATOM     23  H   LIG d   1      12.388 -11.605  -1.372  0.00  0.00     0.027 H 
ATOM     24  H   LIG d   1      12.328  -8.863  -0.034  0.00  0.00     0.026 H 
ATOM     25  H   LIG d   1      13.311 -10.252   0.488  0.00  0.00     0.026 H 
ATOM     26  H   LIG d   1      11.226 -10.085   1.821  0.00  0.00     0.026 H 
ATOM     27  H   LIG d   1      11.244 -11.576   0.848  0.00  0.00     0.026 H 
ATOM     28  H   LIG d   1       9.837  -8.975   0.092  0.00  0.00     0.027 H 
ATOM     29  H   LIG d   1       9.042 -10.445   0.704  0.00  0.00     0.027 H 
ATOM     30  H   LIG d   1       7.691 -10.589  -1.391  0.00  0.00     0.027 H 
ATOM     31  H   LIG d   1       8.503 -10.615  -2.975  0.00  0.00     0.027 H 
ATOM     32  H   LIG d   1       8.496  -8.275  -1.015  0.00  0.00     0.027 H 
ATOM     33  H   LIG d   1       7.534  -8.381  -2.508  0.00  0.00     0.027 H 
ATOM     34  H   LIG d   1      13.068  -8.377  -2.560  0.00  0.00     0.027 H 
ATOM     35  H   LIG d   1      12.039  -8.412  -4.016  0.00  0.00     0.027 H 
ATOM     36  H   LIG d   1      12.934  -6.127  -3.570  0.00  0.00     0.027 H 
ATOM     37  H   LIG d   1      12.139  -6.150  -1.982  0.00  0.00     0.027 H 
ATOM     38  H   LIG d   1      10.195  -6.340  -0.919  0.00  0.00     0.027 H 
ATOM     39  H   LIG d   1       8.465  -5.976  -1.216  0.00  0.00     0.027 H 
ATOM     40  H   LIG d   1      10.443  -4.025  -1.176  0.00  0.00     0.029 H 
ATOM     41  H   LIG d   1       8.936  -3.873  -2.122  0.00  0.00     0.029 H 
ENDROOT
BRANCH  21  42
ATOM     42  C   LIG d   1       9.917  -3.762  -4.389  0.00  0.00     0.069 C 
ATOM     43  H   LIG d   1      10.432  -2.824  -4.598  0.00  0.00     0.054 H 
ATOM     44  H   LIG d   1       9.897  -4.373  -5.292  0.00  0.00     0.054 H 
BRANCH  42  45
ATOM     45  N   LIG d   1       8.545  -3.482  -3.959  0.00  0.00    -0.288 NA
ATOM     46  C   LIG d   1       7.949  -2.404  -4.360  0.00  0.00     0.033 C 
ATOM     47  H   LIG d   1       8.463  -1.713  -5.010  0.00  0.00     0.083 H 
BRANCH  46  48
ATOM     48  C   LIG d   1       6.569  -2.122  -3.927  0.00  0.00     0.035 A 
ATOM     49  C   LIG d   1       5.532  -3.006  -4.255  0.00  0.00     0.126 A 
ATOM     50  C   LIG d   1       4.238  -2.731  -3.843  0.00  0.00    -0.018 A 
ATOM     51  C   LIG d   1       3.971  -1.589  -3.113  0.00  0.00    -0.044 A 
ATOM     52  H   LIG d   1       3.435  -3.410  -4.092  0.00  0.00     0.065 H 
ATOM     53  C   LIG d   1       4.992  -0.711  -2.788  0.00  0.00     0.019 A 
ATOM     54  H   LIG d   1       2.960  -1.379  -2.795  0.00  0.00     0.063 H 
ATOM     55  C   LIG d   1       6.287  -0.973  -3.185  0.00  0.00    -0.036 A 
ATOM     56 BR   LIG d   1       4.611   0.848  -1.787  0.00  0.00    -0.050 Br
ATOM     57  H   LIG d   1       7.081  -0.288  -2.924  0.00  0.00     0.064 H 
BRANCH  49  58
ATOM     58  O   LIG d   1       5.795  -4.129  -4.970  0.00  0.00    -0.506 OA
ATOM     59  H   LIG d   1       5.827  -3.988  -5.927  0.00  0.00     0.292 HD
ENDBRANCH  49  58
ENDBRANCH  46  48
ENDBRANCH  42  45
ENDBRANCH  21  42
BRANCH  21  60
ATOM     60  O   LIG d   1      11.949  -3.943  -3.078  0.00  0.00    -0.386 OA
ATOM     61  H   LIG d   1      12.595  -4.181  -3.757  0.00  0.00     0.210 HD
ENDBRANCH  21  60
BRANCH  16  62
ATOM     62  C   LIG d   1      10.784  -6.234  -5.165  0.00  0.00    -0.057 C 
ATOM     63  H   LIG d   1      10.809  -5.269  -5.672  0.00  0.00     0.024 H 
ATOM     64  H   LIG d   1       9.880  -6.772  -5.453  0.00  0.00     0.024 H 
ATOM     65  H   LIG d   1      11.660  -6.817  -5.450  0.00  0.00     0.024 H 
ENDBRANCH  16  62
BRANCH   1  66
ATOM     66  C   LIG d   1      10.985 -10.665  -3.508  0.00  0.00    -0.059 C 
ATOM     67  H   LIG d   1       9.974 -10.572  -3.906  0.00  0.00     0.024 H 
ATOM     68  H   LIG d   1      11.677 -10.113  -4.143  0.00  0.00     0.024 H 
ATOM     69  H   LIG d   1      11.271 -11.717  -3.486  0.00  0.00     0.024 H 
ENDBRANCH   1  66
TORSDOF 7
ENDMDL
MODEL 5
REMARK VINA RESULT:      -6.3      1.725      3.190
REMARK  7 active torsions:
REMARK  status: ('A' for Active; 'I' for Inactive)
REMARK    1  A    between atoms: C_1  and  C_2 
REMARK    2  A    between atoms: C_17  and  C_35 
REMARK    3  A    between atoms: C_22  and  C_23 
REMARK    4  A    between atoms: C_22  and  O_34 
REMARK    5  A    between atoms: C_23  and  N_24 
REMARK    6  A    between atoms: C_25  and  C_26 
REMARK    7  A    between atoms: C_31  and  O_32 
ROOT
ATOM      1  C   LIG d   1       4.741  -0.139  -3.825  0.00  0.00    -0.026 C 
ATOM      2  C   LIG d   1       3.606   0.079  -2.824  0.00  0.00    -0.047 C 
ATOM      3  C   LIG d   1       2.793  -1.210  -2.687  0.00  0.00    -0.052 C 
ATOM      4  C   LIG d   1       3.702  -2.335  -2.191  0.00  0.00    -0.053 C 
ATOM      5  C   LIG d   1       4.838  -2.553  -3.193  0.00  0.00    -0.050 C 
ATOM      6  C   LIG d   1       5.650  -1.264  -3.330  0.00  0.00    -0.035 C 
ATOM      7  H   LIG d   1       6.067  -0.994  -2.360  0.00  0.00     0.031 H 
ATOM      8  C   LIG d   1       6.788  -1.480  -4.331  0.00  0.00    -0.049 C 
ATOM      9  C   LIG d   1       6.202  -1.857  -5.694  0.00  0.00    -0.049 C 
ATOM     10  C   LIG d   1       5.295  -0.729  -6.189  0.00  0.00    -0.034 C 
ATOM     11  H   LIG d   1       5.881   0.189  -6.238  0.00  0.00     0.031 H 
ATOM     12  C   LIG d   1       4.159  -0.511  -5.190  0.00  0.00    -0.032 C 
ATOM     13  H   LIG d   1       3.570  -1.424  -5.100  0.00  0.00     0.031 H 
ATOM     14  C   LIG d   1       3.282   0.639  -5.697  0.00  0.00    -0.049 C 
ATOM     15  C   LIG d   1       2.655   0.238  -7.032  0.00  0.00    -0.044 C 
ATOM     16  C   LIG d   1       3.738  -0.021  -8.081  0.00  0.00     0.002 C 
ATOM     17  C   LIG d   1       4.772  -1.039  -7.570  0.00  0.00    -0.030 C 
ATOM     18  H   LIG d   1       5.615  -1.070  -8.261  0.00  0.00     0.031 H 
ATOM     19  C   LIG d   1       4.019  -2.380  -7.633  0.00  0.00    -0.047 C 
ATOM     20  C   LIG d   1       3.211  -2.278  -8.948  0.00  0.00    -0.021 C 
ATOM     21  C   LIG d   1       3.053  -0.777  -9.251  0.00  0.00     0.091 C 
ATOM     22  H   LIG d   1       2.957   0.881  -3.179  0.00  0.00     0.027 H 
ATOM     23  H   LIG d   1       4.021   0.351  -1.854  0.00  0.00     0.027 H 
ATOM     24  H   LIG d   1       2.376  -1.481  -3.657  0.00  0.00     0.026 H 
ATOM     25  H   LIG d   1       1.983  -1.055  -1.974  0.00  0.00     0.026 H 
ATOM     26  H   LIG d   1       3.124  -3.254  -2.092  0.00  0.00     0.026 H 
ATOM     27  H   LIG d   1       4.121  -2.064  -1.222  0.00  0.00     0.026 H 
ATOM     28  H   LIG d   1       4.419  -2.824  -4.163  0.00  0.00     0.027 H 
ATOM     29  H   LIG d   1       5.486  -3.355  -2.841  0.00  0.00     0.027 H 
ATOM     30  H   LIG d   1       7.434  -2.284  -3.978  0.00  0.00     0.027 H 
ATOM     31  H   LIG d   1       7.367  -0.562  -4.425  0.00  0.00     0.027 H 
ATOM     32  H   LIG d   1       5.623  -2.776  -5.599  0.00  0.00     0.027 H 
ATOM     33  H   LIG d   1       7.012  -2.011  -6.406  0.00  0.00     0.027 H 
ATOM     34  H   LIG d   1       2.496   0.847  -4.971  0.00  0.00     0.027 H 
ATOM     35  H   LIG d   1       3.895   1.529  -5.841  0.00  0.00     0.027 H 
ATOM     36  H   LIG d   1       1.998   1.034  -7.384  0.00  0.00     0.027 H 
ATOM     37  H   LIG d   1       2.070  -0.670  -6.888  0.00  0.00     0.027 H 
ATOM     38  H   LIG d   1       3.350  -2.485  -6.778  0.00  0.00     0.027 H 
ATOM     39  H   LIG d   1       4.719  -3.215  -7.676  0.00  0.00     0.027 H 
ATOM     40  H   LIG d   1       2.232  -2.739  -8.820  0.00  0.00     0.029 H 
ATOM     41  H   LIG d   1       3.751  -2.768  -9.757  0.00  0.00     0.029 H 
ENDROOT
BRANCH  21  42
ATOM     42  C   LIG d   1       3.742  -0.433 -10.573  0.00  0.00     0.069 C 
ATOM     43  H   LIG d   1       4.042   0.615 -10.566  0.00  0.00     0.054 H 
ATOM     44  H   LIG d   1       4.623  -1.062 -10.698  0.00  0.00     0.054 H 
BRANCH  42  45
ATOM     45  N   LIG d   1       2.814  -0.668 -11.683  0.00  0.00    -0.288 NA
ATOM     46  C   LIG d   1       2.940  -1.725 -12.420  0.00  0.00     0.033 C 
ATOM     47  H   LIG d   1       3.730  -2.433 -12.217  0.00  0.00     0.083 H 
BRANCH  46  48
ATOM     48  C   LIG d   1       2.008  -1.960 -13.536  0.00  0.00     0.035 A 
ATOM     49  C   LIG d   1       0.640  -2.140 -13.286  0.00  0.00     0.126 A 
ATOM     50  C   LIG d   1      -0.229  -2.361 -14.343  0.00  0.00    -0.018 A 
ATOM     51  C   LIG d   1       0.252  -2.405 -15.638  0.00  0.00    -0.044 A 
ATOM     52  H   LIG d   1      -1.283  -2.499 -14.156  0.00  0.00     0.065 H 
ATOM     53  C   LIG d   1       1.603  -2.229 -15.889  0.00  0.00     0.019 A 
ATOM     54  H   LIG d   1      -0.429  -2.578 -16.458  0.00  0.00     0.063 H 
ATOM     55  C   LIG d   1       2.481  -2.002 -14.849  0.00  0.00    -0.036 A 
ATOM     56 BR   LIG d   1       2.245  -2.291 -17.667  0.00  0.00    -0.050 Br
ATOM     57  H   LIG d   1       3.533  -1.860 -15.051  0.00  0.00     0.064 H 
BRANCH  49  58
ATOM     58  O   LIG d   1       0.168  -2.095 -12.014  0.00  0.00    -0.506 OA
ATOM     59  H   LIG d   1       0.442  -2.843 -11.466  0.00  0.00     0.292 HD
ENDBRANCH  49  58
ENDBRANCH  46  48
ENDBRANCH  42  45
ENDBRANCH  21  42
BRANCH  21  60
ATOM     60  O   LIG d   1       1.668  -0.431  -9.315  0.00  0.00    -0.386 OA
ATOM     61  H   LIG d   1       1.303  -0.434 -10.210  0.00  0.00     0.210 HD
ENDBRANCH  21  60
BRANCH  16  62
ATOM     62  C   LIG d   1       4.399   1.278  -8.547  0.00  0.00    -0.057 C 
ATOM     63  H   LIG d   1       4.202   2.067  -7.821  0.00  0.00     0.024 H 
ATOM     64  H   LIG d   1       3.991   1.567  -9.516  0.00  0.00     0.024 H 
ATOM     65  H   LIG d   1       5.474   1.127  -8.637  0.00  0.00     0.024 H 
ENDBRANCH  16  62
BRANCH   1  66
ATOM     66  C   LIG d   1       5.554   1.151  -3.957  0.00  0.00    -0.059 C 
ATOM     67  H   LIG d   1       6.258   1.223  -3.128  0.00  0.00     0.024 H 
ATOM     68  H   LIG d   1       6.103   1.140  -4.898  0.00  0.00     0.024 H 
ATOM     69  H   LIG d   1       4.882   2.009  -3.938  0.00  0.00     0.024 H 
ENDBRANCH   1  66
TORSDOF 7
ENDMDL
MODEL 6
REMARK VINA RESULT:      -6.3      3.763      8.711
REMARK  7 active torsions:
REMARK  status: ('A' for Active; 'I' for Inactive)
REMARK    1  A    between atoms: C_1  and  C_2 
REMARK    2  A    between atoms: C_17  and  C_35 
REMARK    3  A    between atoms: C_22  and  C_23 
REMARK    4  A    between atoms: C_22  and  O_34 
REMARK    5  A    between atoms: C_23  and  N_24 
REMARK    6  A    between atoms: C_25  and  C_26 
REMARK    7  A    between atoms: C_31  and  O_32 
ROOT
ATOM      1  C   LIG d   1       1.921  -4.283 -12.279  0.00  0.00    -0.026 C 
ATOM      2  C   LIG d   1       2.208  -4.320 -13.780  0.00  0.00    -0.047 C 
ATOM      3  C   LIG d   1       3.703  -4.557 -14.007  0.00  0.00    -0.052 C 
ATOM      4  C   LIG d   1       4.109  -5.890 -13.377  0.00  0.00    -0.053 C 
ATOM      5  C   LIG d   1       3.822  -5.852 -11.874  0.00  0.00    -0.050 C 
ATOM      6  C   LIG d   1       2.328  -5.615 -11.648  0.00  0.00    -0.035 C 
ATOM      7  H   LIG d   1       1.759  -6.424 -12.108  0.00  0.00     0.031 H 
ATOM      8  C   LIG d   1       2.037  -5.580 -10.146  0.00  0.00    -0.049 C 
ATOM      9  C   LIG d   1       2.834  -4.443  -9.500  0.00  0.00    -0.049 C 
ATOM     10  C   LIG d   1       2.424  -3.111 -10.131  0.00  0.00    -0.034 C 
ATOM     11  H   LIG d   1       1.350  -2.982  -9.997  0.00  0.00     0.031 H 
ATOM     12  C   LIG d   1       2.712  -3.145 -11.631  0.00  0.00    -0.032 C 
ATOM     13  H   LIG d   1       3.778  -3.301 -11.797  0.00  0.00     0.031 H 
ATOM     14  C   LIG d   1       2.269  -1.811 -12.241  0.00  0.00    -0.049 C 
ATOM     15  C   LIG d   1       3.104  -0.683 -11.634  0.00  0.00    -0.044 C 
ATOM     16  C   LIG d   1       2.885  -0.602 -10.122  0.00  0.00     0.002 C 
ATOM     17  C   LIG d   1       3.133  -1.965  -9.452  0.00  0.00    -0.030 C 
ATOM     18  H   LIG d   1       2.803  -1.918  -8.415  0.00  0.00     0.031 H 
ATOM     19  C   LIG d   1       4.665  -2.110  -9.489  0.00  0.00    -0.047 C 
ATOM     20  C   LIG d   1       5.170  -0.681  -9.176  0.00  0.00    -0.021 C 
ATOM     21  C   LIG d   1       4.028   0.280  -9.553  0.00  0.00     0.091 C 
ATOM     22  H   LIG d   1       1.920  -3.369 -14.230  0.00  0.00     0.027 H 
ATOM     23  H   LIG d   1       1.639  -5.127 -14.242  0.00  0.00     0.027 H 
ATOM     24  H   LIG d   1       4.272  -3.749 -13.547  0.00  0.00     0.026 H 
ATOM     25  H   LIG d   1       3.908  -4.583 -15.078  0.00  0.00     0.026 H 
ATOM     26  H   LIG d   1       5.174  -6.059 -13.539  0.00  0.00     0.026 H 
ATOM     27  H   LIG d   1       3.539  -6.697 -13.835  0.00  0.00     0.026 H 
ATOM     28  H   LIG d   1       4.392  -5.043 -11.416  0.00  0.00     0.027 H 
ATOM     29  H   LIG d   1       4.112  -6.801 -11.424  0.00  0.00     0.027 H 
ATOM     30  H   LIG d   1       2.330  -6.529  -9.697  0.00  0.00     0.027 H 
ATOM     31  H   LIG d   1       0.972  -5.414  -9.986  0.00  0.00     0.027 H 
ATOM     32  H   LIG d   1       3.899  -4.610  -9.660  0.00  0.00     0.027 H 
ATOM     33  H   LIG d   1       2.627  -4.418  -8.431  0.00  0.00     0.027 H 
ATOM     34  H   LIG d   1       2.416  -1.835 -13.320  0.00  0.00     0.027 H 
ATOM     35  H   LIG d   1       1.216  -1.638 -12.016  0.00  0.00     0.027 H 
ATOM     36  H   LIG d   1       2.824   0.268 -12.089  0.00  0.00     0.027 H 
ATOM     37  H   LIG d   1       4.158  -0.878 -11.834  0.00  0.00     0.027 H 
ATOM     38  H   LIG d   1       4.997  -2.426 -10.477  0.00  0.00     0.027 H 
ATOM     39  H   LIG d   1       5.005  -2.812  -8.727  0.00  0.00     0.027 H 
ATOM     40  H   LIG d   1       6.056  -0.461  -9.770  0.00  0.00     0.029 H 
ATOM     41  H   LIG d   1       5.400  -0.590  -8.115  0.00  0.00     0.029 H 
ENDROOT
BRANCH  21  42
ATOM     42  C   LIG d   1       3.543   1.032  -8.312  0.00  0.00     0.069 C 
ATOM     43  H   LIG d   1       3.882   2.067  -8.357  0.00  0.00     0.054 H 
ATOM     44  H   LIG d   1       2.454   1.009  -8.275  0.00  0.00     0.054 H 
BRANCH  42  45
ATOM     45  N   LIG d   1       4.086   0.392  -7.110  0.00  0.00    -0.288 NA
ATOM     46  C   LIG d   1       3.284  -0.062  -6.201  0.00  0.00     0.033 C 
ATOM     47  H   LIG d   1       2.216   0.031  -6.328  0.00  0.00     0.083 H 
BRANCH  46  48
ATOM     48  C   LIG d   1       3.829  -0.705  -4.993  0.00  0.00     0.035 A 
ATOM     49  C   LIG d   1       3.020  -0.880  -3.861  0.00  0.00     0.126 A 
ATOM     50  C   LIG d   1       3.543  -1.485  -2.729  0.00  0.00    -0.018 A 
ATOM     51  C   LIG d   1       4.856  -1.914  -2.716  0.00  0.00    -0.044 A 
ATOM     52  H   LIG d   1       2.923  -1.623  -1.855  0.00  0.00     0.065 H 
ATOM     53  C   LIG d   1       5.660  -1.742  -3.832  0.00  0.00     0.019 A 
ATOM     54  H   LIG d   1       5.259  -2.385  -1.832  0.00  0.00     0.063 H 
ATOM     55  C   LIG d   1       5.154  -1.147  -4.969  0.00  0.00    -0.036 A 
ATOM     56 BR   LIG d   1       7.456  -2.335  -3.799  0.00  0.00    -0.050 Br
ATOM     57  H   LIG d   1       5.783  -1.020  -5.838  0.00  0.00     0.064 H 
BRANCH  49  58
ATOM     58  O   LIG d   1       1.729  -0.460  -3.875  0.00  0.00    -0.506 OA
ATOM     59  H   LIG d   1       1.330  -0.444  -4.755  0.00  0.00     0.292 HD
ENDBRANCH  49  58
ENDBRANCH  46  48
ENDBRANCH  42  45
ENDBRANCH  21  42
BRANCH  21  60
ATOM     60  O   LIG d   1       4.473   1.207 -10.545  0.00  0.00    -0.386 OA
ATOM     61  H   LIG d   1       5.430   1.205 -10.685  0.00  0.00     0.210 HD
ENDBRANCH  21  60
BRANCH  16  62
ATOM     62  C   LIG d   1       1.503  -0.041  -9.778  0.00  0.00    -0.057 C 
ATOM     63  H   LIG d   1       1.586   0.629  -8.923  0.00  0.00     0.024 H 
ATOM     64  H   LIG d   1       0.829  -0.862  -9.532  0.00  0.00     0.024 H 
ATOM     65  H   LIG d   1       1.110   0.508 -10.634  0.00  0.00     0.024 H 
ENDBRANCH  16  62
BRANCH   1  66
ATOM     66  C   LIG d   1       0.425  -4.050 -12.056  0.00  0.00    -0.059 C 
ATOM     67  H   LIG d   1      -0.145  -4.609 -12.799  0.00  0.00     0.024 H 
ATOM     68  H   LIG d   1       0.150  -4.390 -11.058  0.00  0.00     0.024 H 
ATOM     69  H   LIG d   1       0.204  -2.988 -12.153  0.00  0.00     0.024 H 
ENDBRANCH   1  66
TORSDOF 7
ENDMDL
MODEL 7
REMARK VINA RESULT:      -6.1      5.969      9.310
REMARK  7 active torsions:
REMARK  status: ('A' for Active; 'I' for Inactive)
REMARK    1  A    between atoms: C_1  and  C_2 
REMARK    2  A    between atoms: C_17  and  C_35 
REMARK    3  A    between atoms: C_22  and  C_23 
REMARK    4  A    between atoms: C_22  and  O_34 
REMARK    5  A    between atoms: C_23  and  N_24 
REMARK    6  A    between atoms: C_25  and  C_26 
REMARK    7  A    between atoms: C_31  and  O_32 
ROOT
ATOM      1  C   LIG d   1       4.262  -0.459 -10.247  0.00  0.00    -0.026 C 
ATOM      2  C   LIG d   1       2.825  -0.183 -10.689  0.00  0.00    -0.047 C 
ATOM      3  C   LIG d   1       2.042   0.427  -9.524  0.00  0.00    -0.052 C 
ATOM      4  C   LIG d   1       2.704   1.737  -9.095  0.00  0.00    -0.053 C 
ATOM      5  C   LIG d   1       4.143   1.460  -8.653  0.00  0.00    -0.050 C 
ATOM      6  C   LIG d   1       4.925   0.851  -9.817  0.00  0.00    -0.035 C 
ATOM      7  H   LIG d   1       4.929   1.548 -10.655  0.00  0.00     0.031 H 
ATOM      8  C   LIG d   1       6.365   0.575  -9.377  0.00  0.00    -0.049 C 
ATOM      9  C   LIG d   1       6.359  -0.406  -8.202  0.00  0.00    -0.049 C 
ATOM     10  C   LIG d   1       5.698  -1.716  -8.635  0.00  0.00    -0.034 C 
ATOM     11  H   LIG d   1       6.243  -2.111  -9.492  0.00  0.00     0.031 H 
ATOM     12  C   LIG d   1       4.261  -1.442  -9.075  0.00  0.00    -0.032 C 
ATOM     13  H   LIG d   1       3.696  -1.020  -8.244  0.00  0.00     0.031 H 
ATOM     14  C   LIG d   1       3.632  -2.765  -9.527  0.00  0.00    -0.049 C 
ATOM     15  C   LIG d   1       3.577  -3.724  -8.337  0.00  0.00    -0.044 C 
ATOM     16  C   LIG d   1       4.986  -4.027  -7.823  0.00  0.00     0.002 C 
ATOM     17  C   LIG d   1       5.757  -2.730  -7.520  0.00  0.00    -0.030 C 
ATOM     18  H   LIG d   1       6.802  -2.973  -7.325  0.00  0.00     0.031 H 
ATOM     19  C   LIG d   1       5.106  -2.222  -6.220  0.00  0.00    -0.047 C 
ATOM     20  C   LIG d   1       4.870  -3.515  -5.405  0.00  0.00    -0.021 C 
ATOM     21  C   LIG d   1       4.820  -4.671  -6.421  0.00  0.00     0.091 C 
ATOM     22  H   LIG d   1       2.352  -1.117 -10.994  0.00  0.00     0.027 H 
ATOM     23  H   LIG d   1       2.827   0.513 -11.528  0.00  0.00     0.027 H 
ATOM     24  H   LIG d   1       2.037  -0.269  -8.686  0.00  0.00     0.026 H 
ATOM     25  H   LIG d   1       1.017   0.624  -9.839  0.00  0.00     0.026 H 
ATOM     26  H   LIG d   1       2.147   2.173  -8.266  0.00  0.00     0.026 H 
ATOM     27  H   LIG d   1       2.710   2.433  -9.934  0.00  0.00     0.026 H 
ATOM     28  H   LIG d   1       4.137   0.763  -7.814  0.00  0.00     0.027 H 
ATOM     29  H   LIG d   1       4.615   2.393  -8.346  0.00  0.00     0.027 H 
ATOM     30  H   LIG d   1       6.836   1.509  -9.069  0.00  0.00     0.027 H 
ATOM     31  H   LIG d   1       6.922   0.144 -10.209  0.00  0.00     0.027 H 
ATOM     32  H   LIG d   1       5.802   0.027  -7.371  0.00  0.00     0.027 H 
ATOM     33  H   LIG d   1       7.384  -0.602  -7.889  0.00  0.00     0.027 H 
ATOM     34  H   LIG d   1       2.623  -2.583  -9.897  0.00  0.00     0.027 H 
ATOM     35  H   LIG d   1       4.240  -3.207 -10.317  0.00  0.00     0.027 H 
ATOM     36  H   LIG d   1       3.096  -4.655  -8.637  0.00  0.00     0.027 H 
ATOM     37  H   LIG d   1       2.996  -3.262  -7.539  0.00  0.00     0.027 H 
ATOM     38  H   LIG d   1       4.161  -1.724  -6.433  0.00  0.00     0.027 H 
ATOM     39  H   LIG d   1       5.782  -1.551  -5.687  0.00  0.00     0.027 H 
ATOM     40  H   LIG d   1       3.925  -3.449  -4.867  0.00  0.00     0.029 H 
ATOM     41  H   LIG d   1       5.689  -3.670  -4.703  0.00  0.00     0.029 H 
ENDROOT
BRANCH  21  42
ATOM     42  C   LIG d   1       5.962  -5.654  -6.156  0.00  0.00     0.069 C 
ATOM     43  H   LIG d   1       6.443  -5.916  -7.098  0.00  0.00     0.054 H 
ATOM     44  H   LIG d   1       6.693  -5.192  -5.492  0.00  0.00     0.054 H 
BRANCH  42  45
ATOM     45  N   LIG d   1       5.428  -6.865  -5.526  0.00  0.00    -0.288 NA
ATOM     46  C   LIG d   1       6.223  -7.841  -5.226  0.00  0.00     0.033 C 
ATOM     47  H   LIG d   1       7.279  -7.764  -5.439  0.00  0.00     0.083 H 
BRANCH  46  48
ATOM     48  C   LIG d   1       5.687  -9.059  -4.593  0.00  0.00     0.035 A 
ATOM     49  C   LIG d   1       4.672  -9.792  -5.224  0.00  0.00     0.126 A 
ATOM     50  C   LIG d   1       4.173 -10.936  -4.621  0.00  0.00    -0.018 A 
ATOM     51  C   LIG d   1       4.675 -11.352  -3.403  0.00  0.00    -0.044 A 
ATOM     52  H   LIG d   1       3.392 -11.505  -5.104  0.00  0.00     0.065 H 
ATOM     53  C   LIG d   1       5.678 -10.631  -2.775  0.00  0.00     0.019 A 
ATOM     54  H   LIG d   1       4.284 -12.245  -2.937  0.00  0.00     0.063 H 
ATOM     55  C   LIG d   1       6.189  -9.493  -3.365  0.00  0.00    -0.036 A 
ATOM     56 BR   LIG d   1       6.355 -11.214  -1.108  0.00  0.00    -0.050 Br
ATOM     57  H   LIG d   1       6.974  -8.936  -2.874  0.00  0.00     0.064 H 
BRANCH  49  58
ATOM     58  O   LIG d   1       4.180  -9.384  -6.422  0.00  0.00    -0.506 OA
ATOM     59  H   LIG d   1       4.012 -10.105  -7.044  0.00  0.00     0.292 HD
ENDBRANCH  49  58
ENDBRANCH  46  48
ENDBRANCH  42  45
ENDBRANCH  21  42
BRANCH  21  60
ATOM     60  O   LIG d   1       3.563  -5.346  -6.337  0.00  0.00    -0.386 OA
ATOM     61  H   LIG d   1       3.452  -6.054  -6.986  0.00  0.00     0.210 HD
ENDBRANCH  21  60
BRANCH  16  62
ATOM     62  C   LIG d   1       5.757  -4.936  -8.784  0.00  0.00    -0.057 C 
ATOM     63  H   LIG d   1       5.466  -5.973  -8.614  0.00  0.00     0.024 H 
ATOM     64  H   LIG d   1       6.827  -4.826  -8.609  0.00  0.00     0.024 H 
ATOM     65  H   LIG d   1       5.526  -4.657  -9.812  0.00  0.00     0.024 H 
ENDBRANCH  16  62
BRANCH   1  66
ATOM     66  C   LIG d   1       5.043  -1.064 -11.415  0.00  0.00    -0.059 C 
ATOM     67  H   LIG d   1       6.085  -0.747 -11.360  0.00  0.00     0.024 H 
ATOM     68  H   LIG d   1       4.993  -2.152 -11.360  0.00  0.00     0.024 H 
ATOM     69  H   LIG d   1       4.611  -0.726 -12.357  0.00  0.00     0.024 H 
ENDBRANCH   1  66
TORSDOF 7
ENDMDL
MODEL 8
REMARK VINA RESULT:      -6.1      4.223      6.769
REMARK  7 active torsions:
REMARK  status: ('A' for Active; 'I' for Inactive)
REMARK    1  A    between atoms: C_1  and  C_2 
REMARK    2  A    between atoms: C_17  and  C_35 
REMARK    3  A    between atoms: C_22  and  C_23 
REMARK    4  A    between atoms: C_22  and  O_34 
REMARK    5  A    between atoms: C_23  and  N_24 
REMARK    6  A    between atoms: C_25  and  C_26 
REMARK    7  A    between atoms: C_31  and  O_32 
ROOT
ATOM      1  C   LIG d   1       9.307  -5.379  -5.085  0.00  0.00    -0.026 C 
ATOM      2  C   LIG d   1       9.891  -6.132  -3.889  0.00  0.00    -0.047 C 
ATOM      3  C   LIG d   1       8.805  -7.008  -3.260  0.00  0.00    -0.052 C 
ATOM      4  C   LIG d   1       8.296  -8.012  -4.295  0.00  0.00    -0.053 C 
ATOM      5  C   LIG d   1       7.712  -7.258  -5.492  0.00  0.00    -0.050 C 
ATOM      6  C   LIG d   1       8.797  -6.383  -6.121  0.00  0.00    -0.035 C 
ATOM      7  H   LIG d   1       9.623  -7.012  -6.454  0.00  0.00     0.031 H 
ATOM      8  C   LIG d   1       8.216  -5.629  -7.320  0.00  0.00    -0.049 C 
ATOM      9  C   LIG d   1       7.058  -4.743  -6.852  0.00  0.00    -0.049 C 
ATOM     10  C   LIG d   1       7.571  -3.739  -5.817  0.00  0.00    -0.034 C 
ATOM     11  H   LIG d   1       8.372  -3.155  -6.271  0.00  0.00     0.031 H 
ATOM     12  C   LIG d   1       8.153  -4.489  -4.620  0.00  0.00    -0.032 C 
ATOM     13  H   LIG d   1       7.379  -5.105  -4.161  0.00  0.00     0.031 H 
ATOM     14  C   LIG d   1       8.681  -3.462  -3.614  0.00  0.00    -0.049 C 
ATOM     15  C   LIG d   1       7.514  -2.614  -3.107  0.00  0.00    -0.044 C 
ATOM     16  C   LIG d   1       6.863  -1.847  -4.259  0.00  0.00     0.002 C 
ATOM     17  C   LIG d   1       6.467  -2.798  -5.403  0.00  0.00    -0.030 C 
ATOM     18  H   LIG d   1       6.170  -2.208  -6.271  0.00  0.00     0.031 H 
ATOM     19  C   LIG d   1       5.235  -3.535  -4.848  0.00  0.00    -0.047 C 
ATOM     20  C   LIG d   1       4.463  -2.429  -4.091  0.00  0.00    -0.021 C 
ATOM     21  C   LIG d   1       5.492  -1.339  -3.738  0.00  0.00     0.091 C 
ATOM     22  H   LIG d   1      10.252  -5.416  -3.150  0.00  0.00     0.027 H 
ATOM     23  H   LIG d   1      10.717  -6.760  -4.220  0.00  0.00     0.027 H 
ATOM     24  H   LIG d   1       7.980  -6.379  -2.926  0.00  0.00     0.026 H 
ATOM     25  H   LIG d   1       9.221  -7.544  -2.406  0.00  0.00     0.026 H 
ATOM     26  H   LIG d   1       7.523  -8.636  -3.847  0.00  0.00     0.026 H 
ATOM     27  H   LIG d   1       9.122  -8.639  -4.630  0.00  0.00     0.026 H 
ATOM     28  H   LIG d   1       6.886  -6.629  -5.157  0.00  0.00     0.027 H 
ATOM     29  H   LIG d   1       7.348  -7.972  -6.230  0.00  0.00     0.027 H 
ATOM     30  H   LIG d   1       7.850  -6.345  -8.056  0.00  0.00     0.027 H 
ATOM     31  H   LIG d   1       8.991  -5.008  -7.769  0.00  0.00     0.027 H 
ATOM     32  H   LIG d   1       6.283  -5.365  -6.403  0.00  0.00     0.027 H 
ATOM     33  H   LIG d   1       6.644  -4.207  -7.705  0.00  0.00     0.027 H 
ATOM     34  H   LIG d   1       9.150  -3.977  -2.776  0.00  0.00     0.027 H 
ATOM     35  H   LIG d   1       9.410  -2.814  -4.102  0.00  0.00     0.027 H 
ATOM     36  H   LIG d   1       7.872  -1.904  -2.361  0.00  0.00     0.027 H 
ATOM     37  H   LIG d   1       6.775  -3.271  -2.649  0.00  0.00     0.027 H 
ATOM     38  H   LIG d   1       5.538  -4.328  -4.165  0.00  0.00     0.027 H 
ATOM     39  H   LIG d   1       4.629  -3.939  -5.660  0.00  0.00     0.027 H 
ATOM     40  H   LIG d   1       4.024  -2.837  -3.181  0.00  0.00     0.029 H 
ATOM     41  H   LIG d   1       3.683  -2.014  -4.729  0.00  0.00     0.029 H 
ENDROOT
BRANCH  21  42
ATOM     42  C   LIG d   1       5.122  -0.025  -4.428  0.00  0.00     0.069 C 
ATOM     43  H   LIG d   1       4.654   0.646  -3.707  0.00  0.00     0.054 H 
ATOM     44  H   LIG d   1       6.022   0.443  -4.827  0.00  0.00     0.054 H 
BRANCH  42  45
ATOM     45  N   LIG d   1       4.186  -0.295  -5.523  0.00  0.00    -0.288 NA
ATOM     46  C   LIG d   1       4.585  -0.205  -6.751  0.00  0.00     0.033 C 
ATOM     47  H   LIG d   1       5.606   0.070  -6.969  0.00  0.00     0.083 H 
BRANCH  46  48
ATOM     48  C   LIG d   1       3.643  -0.475  -7.852  0.00  0.00     0.035 A 
ATOM     49  C   LIG d   1       2.872   0.565  -8.391  0.00  0.00     0.126 A 
ATOM     50  C   LIG d   1       1.989   0.300  -9.426  0.00  0.00    -0.018 A 
ATOM     51  C   LIG d   1       1.870  -0.983  -9.925  0.00  0.00    -0.044 A 
ATOM     52  H   LIG d   1       1.394   1.097  -9.846  0.00  0.00     0.065 H 
ATOM     53  C   LIG d   1       2.630  -2.014  -9.395  0.00  0.00     0.019 A 
ATOM     54  H   LIG d   1       1.181  -1.184 -10.732  0.00  0.00     0.063 H 
ATOM     55  C   LIG d   1       3.518  -1.766  -8.368  0.00  0.00    -0.036 A 
ATOM     56 BR   LIG d   1       2.456  -3.764 -10.089  0.00  0.00    -0.050 Br
ATOM     57  H   LIG d   1       4.112  -2.572  -7.961  0.00  0.00     0.064 H 
BRANCH  49  58
ATOM     58  O   LIG d   1       2.990   1.825  -7.902  0.00  0.00    -0.506 OA
ATOM     59  H   LIG d   1       3.821   2.262  -8.137  0.00  0.00     0.292 HD
ENDBRANCH  49  58
ENDBRANCH  46  48
ENDBRANCH  42  45
ENDBRANCH  21  42
BRANCH  21  60
ATOM     60  O   LIG d   1       5.544  -1.152  -2.322  0.00  0.00    -0.386 OA
ATOM     61  H   LIG d   1       6.340  -0.697  -2.015  0.00  0.00     0.210 HD
ENDBRANCH  21  60
BRANCH  16  62
ATOM     62  C   LIG d   1       7.749  -0.702  -4.752  0.00  0.00    -0.057 C 
ATOM     63  H   LIG d   1       7.185  -0.078  -5.446  0.00  0.00     0.024 H 
ATOM     64  H   LIG d   1       8.623  -1.110  -5.259  0.00  0.00     0.024 H 
ATOM     65  H   LIG d   1       8.070  -0.099  -3.902  0.00  0.00     0.024 H 
ENDBRANCH  16  62
BRANCH   1  66
ATOM     66  C   LIG d   1      10.396  -4.508  -5.715  0.00  0.00    -0.059 C 
ATOM     67  H   LIG d   1      10.771  -4.990  -6.618  0.00  0.00     0.024 H 
ATOM     68  H   LIG d   1       9.979  -3.534  -5.971  0.00  0.00     0.024 H 
ATOM     69  H   LIG d   1      11.214  -4.378  -5.006  0.00  0.00     0.024 H 
ENDBRANCH   1  66
TORSDOF 7
ENDMDL
MODEL 9
REMARK VINA RESULT:      -6.0      6.850      9.846
REMARK  7 active torsions:
REMARK  status: ('A' for Active; 'I' for Inactive)
REMARK    1  A    between atoms: C_1  and  C_2 
REMARK    2  A    between atoms: C_17  and  C_35 
REMARK    3  A    between atoms: C_22  and  C_23 
REMARK    4  A    between atoms: C_22  and  O_34 
REMARK    5  A    between atoms: C_23  and  N_24 
REMARK    6  A    between atoms: C_25  and  C_26 
REMARK    7  A    between atoms: C_31  and  O_32 
ROOT
ATOM      1  C   LIG d   1       6.806 -10.462  -5.710  0.00  0.00    -0.026 C 
ATOM      2  C   LIG d   1       5.972 -11.345  -4.781  0.00  0.00    -0.047 C 
ATOM      3  C   LIG d   1       4.739 -11.853  -5.532  0.00  0.00    -0.052 C 
ATOM      4  C   LIG d   1       5.182 -12.667  -6.748  0.00  0.00    -0.053 C 
ATOM      5  C   LIG d   1       6.016 -11.782  -7.678  0.00  0.00    -0.050 C 
ATOM      6  C   LIG d   1       7.248 -11.275  -6.927  0.00  0.00    -0.035 C 
ATOM      7  H   LIG d   1       7.847 -12.125  -6.598  0.00  0.00     0.031 H 
ATOM      8  C   LIG d   1       8.085 -10.392  -7.856  0.00  0.00    -0.049 C 
ATOM      9  C   LIG d   1       7.245  -9.198  -8.316  0.00  0.00    -0.049 C 
ATOM     10  C   LIG d   1       6.805  -8.385  -7.097  0.00  0.00    -0.034 C 
ATOM     11  H   LIG d   1       7.695  -8.070  -6.553  0.00  0.00     0.031 H 
ATOM     12  C   LIG d   1       5.970  -9.265  -6.168  0.00  0.00    -0.032 C 
ATOM     13  H   LIG d   1       5.084  -9.618  -6.696  0.00  0.00     0.031 H 
ATOM     14  C   LIG d   1       5.566  -8.434  -4.946  0.00  0.00    -0.049 C 
ATOM     15  C   LIG d   1       4.681  -7.273  -5.402  0.00  0.00    -0.044 C 
ATOM     16  C   LIG d   1       5.446  -6.355  -6.359  0.00  0.00     0.002 C 
ATOM     17  C   LIG d   1       6.048  -7.153  -7.530  0.00  0.00    -0.030 C 
ATOM     18  H   LIG d   1       6.724  -6.509  -8.091  0.00  0.00     0.031 H 
ATOM     19  C   LIG d   1       4.825  -7.486  -8.404  0.00  0.00    -0.047 C 
ATOM     20  C   LIG d   1       3.976  -6.194  -8.343  0.00  0.00    -0.021 C 
ATOM     21  C   LIG d   1       4.389  -5.458  -7.056  0.00  0.00     0.091 C 
ATOM     22  H   LIG d   1       5.655 -10.765  -3.914  0.00  0.00     0.027 H 
ATOM     23  H   LIG d   1       6.570 -12.194  -4.450  0.00  0.00     0.027 H 
ATOM     24  H   LIG d   1       4.140 -11.004  -5.861  0.00  0.00     0.026 H 
ATOM     25  H   LIG d   1       4.144 -12.482  -4.869  0.00  0.00     0.026 H 
ATOM     26  H   LIG d   1       4.304 -13.029  -7.283  0.00  0.00     0.026 H 
ATOM     27  H   LIG d   1       5.782 -13.515  -6.419  0.00  0.00     0.026 H 
ATOM     28  H   LIG d   1       5.415 -10.933  -8.006  0.00  0.00     0.027 H 
ATOM     29  H   LIG d   1       6.331 -12.362  -8.545  0.00  0.00     0.027 H 
ATOM     30  H   LIG d   1       8.398 -10.972  -8.724  0.00  0.00     0.027 H 
ATOM     31  H   LIG d   1       8.964 -10.034  -7.321  0.00  0.00     0.027 H 
ATOM     32  H   LIG d   1       6.366  -9.557  -8.851  0.00  0.00     0.027 H 
ATOM     33  H   LIG d   1       7.841  -8.569  -8.977  0.00  0.00     0.027 H 
ATOM     34  H   LIG d   1       5.015  -9.059  -4.244  0.00  0.00     0.027 H 
ATOM     35  H   LIG d   1       6.459  -8.036  -4.463  0.00  0.00     0.027 H 
ATOM     36  H   LIG d   1       4.356  -6.696  -4.537  0.00  0.00     0.027 H 
ATOM     37  H   LIG d   1       3.807  -7.676  -5.913  0.00  0.00     0.027 H 
ATOM     38  H   LIG d   1       4.273  -8.328  -7.987  0.00  0.00     0.027 H 
ATOM     39  H   LIG d   1       5.130  -7.697  -9.430  0.00  0.00     0.027 H 
ATOM     40  H   LIG d   1       2.917  -6.445  -8.307  0.00  0.00     0.029 H 
ATOM     41  H   LIG d   1       4.182  -5.570  -9.213  0.00  0.00     0.029 H 
ENDROOT
BRANCH  21  42
ATOM     42  C   LIG d   1       4.999  -4.098  -7.401  0.00  0.00     0.069 C 
ATOM     43  H   LIG d   1       6.059  -4.099  -7.142  0.00  0.00     0.054 H 
ATOM     44  H   LIG d   1       4.887  -3.909  -8.468  0.00  0.00     0.054 H 
BRANCH  42  45
ATOM     45  N   LIG d   1       4.313  -3.048  -6.644  0.00  0.00    -0.288 NA
ATOM     46  C   LIG d   1       4.956  -1.983  -6.286  0.00  0.00     0.033 C 
ATOM     47  H   LIG d   1       5.998  -1.870  -6.544  0.00  0.00     0.083 H 
BRANCH  46  48
ATOM     48  C   LIG d   1       4.266  -0.927  -5.524  0.00  0.00     0.035 A 
ATOM     49  C   LIG d   1       3.185  -0.240  -6.093  0.00  0.00     0.126 A 
ATOM     50  C   LIG d   1       2.543   0.752  -5.368  0.00  0.00    -0.018 A 
ATOM     51  C   LIG d   1       2.967   1.061  -4.090  0.00  0.00    -0.044 A 
ATOM     52  H   LIG d   1       1.709   1.284  -5.801  0.00  0.00     0.065 H 
ATOM     53  C   LIG d   1       4.036   0.385  -3.524  0.00  0.00     0.019 A 
ATOM     54  H   LIG d   1       2.464   1.835  -3.530  0.00  0.00     0.063 H 
ATOM     55  C   LIG d   1       4.682  -0.609  -4.229  0.00  0.00    -0.036 A 
ATOM     56 BR   LIG d   1       4.604   0.820  -1.773  0.00  0.00    -0.050 Br
ATOM     57  H   LIG d   1       5.512  -1.137  -3.782  0.00  0.00     0.064 H 
BRANCH  49  58
ATOM     58  O   LIG d   1       2.767  -0.545  -7.347  0.00  0.00    -0.506 OA
ATOM     59  H   LIG d   1       1.807  -0.627  -7.434  0.00  0.00     0.292 HD
ENDBRANCH  49  58
ENDBRANCH  46  48
ENDBRANCH  42  45
ENDBRANCH  21  42
BRANCH  21  60
ATOM     60  O   LIG d   1       3.255  -5.284  -6.203  0.00  0.00    -0.386 OA
ATOM     61  H   LIG d   1       2.417  -5.192  -6.677  0.00  0.00     0.210 HD
ENDBRANCH  21  60
BRANCH  16  62
ATOM     62  C   LIG d   1       6.507  -5.530  -5.628  0.00  0.00    -0.057 C 
ATOM     63  H   LIG d   1       6.432  -4.487  -5.937  0.00  0.00     0.024 H 
ATOM     64  H   LIG d   1       7.498  -5.912  -5.874  0.00  0.00     0.024 H 
ATOM     65  H   LIG d   1       6.346  -5.602  -4.552  0.00  0.00     0.024 H 
ENDBRANCH  16  62
BRANCH   1  66
ATOM     66  C   LIG d   1       8.040  -9.960  -4.958  0.00  0.00    -0.059 C 
ATOM     67  H   LIG d   1       8.118  -8.878  -5.068  0.00  0.00     0.024 H 
ATOM     68  H   LIG d   1       7.948 -10.210  -3.901  0.00  0.00     0.024 H 
ATOM     69  H   LIG d   1       8.933 -10.432  -5.367  0.00  0.00     0.024 H 
ENDBRANCH   1  66
TORSDOF 7
ENDMDL
