MODEL 1
REMARK VINA RESULT:      -5.4      0.000      0.000
REMARK  7 active torsions:
REMARK  status: ('A' for Active; 'I' for Inactive)
REMARK    1  A    between atoms: C_1  and  C_2 
REMARK    2  A    between atoms: C_2  and  C_3 
REMARK    3  A    between atoms: C_2  and  C_4 
REMARK    4  A    between atoms: C_2  and  O_15 
REMARK    5  A    between atoms: C_6  and  C_9 
REMARK    6  A    between atoms: C_9  and  C_10 
REMARK    7  A    between atoms: C_10  and  N_14 
ROOT
ATOM      1  C   LIG d   1       4.003   0.176  -3.891  0.00  0.00     0.168 A 
ATOM      2  C   LIG d   1       3.994  -0.475  -5.070  0.00  0.00     0.007 A 
ATOM      3  C   LIG d   1       3.141   0.221  -5.946  0.00  0.00     0.090 A 
ATOM      4  N   LIG d   1       2.660   1.251  -5.308  0.00  0.00    -0.083 NA
ATOM      5  O   LIG d   1       3.192   1.239  -3.996  0.00  0.00    -0.356 OA
ATOM      6  H   LIG d   1       4.545  -1.373  -5.303  0.00  0.00     0.067 H 
ENDROOT
BRANCH   3   7
ATOM      7  C   LIG d   1       2.837  -0.158  -7.372  0.00  0.00     0.043 C 
ATOM      8  H   LIG d   1       3.294  -1.121  -7.599  0.00  0.00     0.039 H 
ATOM      9  H   LIG d   1       1.757  -0.229  -7.505  0.00  0.00     0.039 H 
BRANCH   7  10
ATOM     10  C   LIG d   1       3.398   0.908  -8.315  0.00  0.00     0.040 C 
ATOM     11  C   LIG d   1       4.927   0.840  -8.490  0.00  0.00     0.096 C 
ATOM     12  O   LIG d   1       4.662   1.051  -9.892  0.00  0.00    -0.368 OA
ATOM     13  H   LIG d   1       5.462   1.662  -8.014  0.00  0.00     0.062 H 
ATOM     14  H   LIG d   1       5.354  -0.137  -8.264  0.00  0.00     0.062 H 
ATOM     15  C   LIG d   1       3.323   0.523  -9.804  0.00  0.00     0.096 C 
ATOM     16  H   LIG d   1       3.260  -0.551  -9.979  0.00  0.00     0.062 H 
ATOM     17  H   LIG d   1       2.586   1.092 -10.371  0.00  0.00     0.062 H 
BRANCH  10  18
ATOM     18  N   LIG d   1       2.894   2.256  -8.022  0.00  0.00     0.227 N 
ATOM     19  H   LIG d   1       1.976   2.190  -7.610  0.00  0.00     0.200 HD
ATOM     20  H   LIG d   1       3.519   2.716  -7.376  0.00  0.00     0.200 HD
ATOM     21  H   LIG d   1       2.842   2.790  -8.877  0.00  0.00     0.200 HD
ENDBRANCH  10  18
ENDBRANCH   7  10
ENDBRANCH   3   7
BRANCH   1  22
ATOM     22  C   LIG d   1       4.784  -0.224  -2.665  0.00  0.00     0.120 C 
BRANCH  22  23
ATOM     23  C   LIG d   1       4.635   0.855  -1.590  0.00  0.00    -0.029 C 
ATOM     24  H   LIG d   1       4.216   0.411  -0.687  0.00  0.00     0.026 H 
ATOM     25  H   LIG d   1       5.612   1.283  -1.366  0.00  0.00     0.026 H 
ATOM     26  H   LIG d   1       3.969   1.638  -1.953  0.00  0.00     0.026 H 
ENDBRANCH  22  23
BRANCH  22  27
ATOM     27  C   LIG d   1       4.249  -1.555  -2.131  0.00  0.00    -0.029 C 
ATOM     28  H   LIG d   1       4.793  -2.377  -2.596  0.00  0.00     0.026 H 
ATOM     29  H   LIG d   1       4.385  -1.593  -1.050  0.00  0.00     0.026 H 
ATOM     30  H   LIG d   1       3.188  -1.641  -2.367  0.00  0.00     0.026 H 
ENDBRANCH  22  27
BRANCH  22  31
ATOM     31  O   LIG d   1       6.165  -0.368  -3.006  0.00  0.00    -0.381 OA
ATOM     32  H   LIG d   1       6.340  -0.343  -3.957  0.00  0.00     0.211 HD
ENDBRANCH  22  31
ENDBRANCH   1  22
TORSDOF 7
ENDMDL
MODEL 2
REMARK VINA RESULT:      -5.0      1.757      2.337
REMARK  7 active torsions:
REMARK  status: ('A' for Active; 'I' for Inactive)
REMARK    1  A    between atoms: C_1  and  C_2 
REMARK    2  A    between atoms: C_2  and  C_3 
REMARK    3  A    between atoms: C_2  and  C_4 
REMARK    4  A    between atoms: C_2  and  O_15 
REMARK    5  A    between atoms: C_6  and  C_9 
REMARK    6  A    between atoms: C_9  and  C_10 
REMARK    7  A    between atoms: C_10  and  N_14 
ROOT
ATOM      1  C   LIG d   1       4.238  -0.254  -4.657  0.00  0.00     0.168 A 
ATOM      2  C   LIG d   1       3.703  -0.434  -5.880  0.00  0.00     0.007 A 
ATOM      3  C   LIG d   1       4.696  -0.153  -6.836  0.00  0.00     0.090 A 
ATOM      4  N   LIG d   1       5.784   0.183  -6.202  0.00  0.00    -0.083 NA
ATOM      5  O   LIG d   1       5.514   0.130  -4.814  0.00  0.00    -0.356 OA
ATOM      6  H   LIG d   1       2.690  -0.740  -6.090  0.00  0.00     0.067 H 
ENDROOT
BRANCH   3   7
ATOM      7  C   LIG d   1       4.531  -0.226  -8.332  0.00  0.00     0.043 C 
ATOM      8  H   LIG d   1       5.320  -0.848  -8.755  0.00  0.00     0.039 H 
ATOM      9  H   LIG d   1       3.560  -0.661  -8.568  0.00  0.00     0.039 H 
BRANCH   7  10
ATOM     10  C   LIG d   1       4.618   1.182  -8.925  0.00  0.00     0.040 C 
ATOM     11  C   LIG d   1       4.275   1.247 -10.426  0.00  0.00     0.096 C 
ATOM     12  O   LIG d   1       3.522   2.429 -10.086  0.00  0.00    -0.368 OA
ATOM     13  H   LIG d   1       5.136   1.441 -11.066  0.00  0.00     0.062 H 
ATOM     14  H   LIG d   1       3.660   0.417 -10.774  0.00  0.00     0.062 H 
ATOM     15  C   LIG d   1       3.348   2.025  -8.713  0.00  0.00     0.096 C 
ATOM     16  H   LIG d   1       2.449   1.434  -8.538  0.00  0.00     0.062 H 
ATOM     17  H   LIG d   1       3.471   2.837  -7.996  0.00  0.00     0.062 H 
BRANCH  10  18
ATOM     18  N   LIG d   1       5.862   1.877  -8.570  0.00  0.00     0.227 N 
ATOM     19  H   LIG d   1       6.640   1.241  -8.653  0.00  0.00     0.200 HD
ATOM     20  H   LIG d   1       6.000   2.659  -9.193  0.00  0.00     0.200 HD
ATOM     21  H   LIG d   1       5.801   2.213  -7.620  0.00  0.00     0.200 HD
ENDBRANCH  10  18
ENDBRANCH   7  10
ENDBRANCH   3   7
BRANCH   1  22
ATOM     22  C   LIG d   1       3.525  -0.446  -3.343  0.00  0.00     0.120 C 
BRANCH  22  23
ATOM     23  C   LIG d   1       4.204  -1.567  -2.553  0.00  0.00    -0.029 C 
ATOM     24  H   LIG d   1       3.547  -1.891  -1.746  0.00  0.00     0.026 H 
ATOM     25  H   LIG d   1       4.406  -2.408  -3.217  0.00  0.00     0.026 H 
ATOM     26  H   LIG d   1       5.140  -1.200  -2.134  0.00  0.00     0.026 H 
ENDBRANCH  22  23
BRANCH  22  27
ATOM     27  C   LIG d   1       3.584   0.854  -2.537  0.00  0.00    -0.029 C 
ATOM     28  H   LIG d   1       4.590   1.268  -2.589  0.00  0.00     0.026 H 
ATOM     29  H   LIG d   1       2.874   1.570  -2.950  0.00  0.00     0.026 H 
ATOM     30  H   LIG d   1       3.329   0.648  -1.497  0.00  0.00     0.026 H 
ENDBRANCH  22  27
BRANCH  22  31
ATOM     31  O   LIG d   1       2.160  -0.794  -3.587  0.00  0.00    -0.381 OA
ATOM     32  H   LIG d   1       1.745  -0.282  -4.295  0.00  0.00     0.211 HD
ENDBRANCH  22  31
ENDBRANCH   1  22
TORSDOF 7
ENDMDL
MODEL 3
REMARK VINA RESULT:      -4.7      1.918      5.845
REMARK  7 active torsions:
REMARK  status: ('A' for Active; 'I' for Inactive)
REMARK    1  A    between atoms: C_1  and  C_2 
REMARK    2  A    between atoms: C_2  and  C_3 
REMARK    3  A    between atoms: C_2  and  C_4 
REMARK    4  A    between atoms: C_2  and  O_15 
REMARK    5  A    between atoms: C_6  and  C_9 
REMARK    6  A    between atoms: C_9  and  C_10 
REMARK    7  A    between atoms: C_10  and  N_14 
ROOT
ATOM      1  C   LIG d   1       3.455  -0.040  -7.629  0.00  0.00     0.168 A 
ATOM      2  C   LIG d   1       2.887   0.326  -6.464  0.00  0.00     0.007 A 
ATOM      3  C   LIG d   1       3.467  -0.437  -5.436  0.00  0.00     0.090 A 
ATOM      4  N   LIG d   1       4.351  -1.232  -5.971  0.00  0.00    -0.083 NA
ATOM      5  O   LIG d   1       4.357  -0.999  -7.368  0.00  0.00    -0.356 OA
ATOM      6  H   LIG d   1       2.120   1.076  -6.342  0.00  0.00     0.067 H 
ENDROOT
BRANCH   3   7
ATOM      7  C   LIG d   1       3.126  -0.353  -3.970  0.00  0.00     0.043 C 
ATOM      8  H   LIG d   1       2.192   0.196  -3.845  0.00  0.00     0.039 H 
ATOM      9  H   LIG d   1       3.014  -1.359  -3.566  0.00  0.00     0.039 H 
BRANCH   7  10
ATOM     10  C   LIG d   1       4.248   0.374  -3.226  0.00  0.00     0.040 C 
ATOM     11  C   LIG d   1       3.766   1.579  -2.397  0.00  0.00     0.096 C 
ATOM     12  O   LIG d   1       4.652   1.084  -1.373  0.00  0.00    -0.368 OA
ATOM     13  H   LIG d   1       4.063   2.544  -2.808  0.00  0.00     0.062 H 
ATOM     14  H   LIG d   1       2.711   1.534  -2.127  0.00  0.00     0.062 H 
ATOM     15  C   LIG d   1       4.614  -0.267  -1.875  0.00  0.00     0.096 C 
ATOM     16  H   LIG d   1       3.818  -0.876  -1.445  0.00  0.00     0.062 H 
ATOM     17  H   LIG d   1       5.583  -0.767  -1.871  0.00  0.00     0.062 H 
BRANCH  10  18
ATOM     18  N   LIG d   1       5.407   0.667  -4.080  0.00  0.00     0.227 N 
ATOM     19  H   LIG d   1       5.579   1.660  -4.085  0.00  0.00     0.200 HD
ATOM     20  H   LIG d   1       6.219   0.187  -3.721  0.00  0.00     0.200 HD
ATOM     21  H   LIG d   1       5.220   0.352  -5.021  0.00  0.00     0.200 HD
ENDBRANCH  10  18
ENDBRANCH   7  10
ENDBRANCH   3   7
BRANCH   1  22
ATOM     22  C   LIG d   1       3.132   0.524  -8.989  0.00  0.00     0.120 C 
BRANCH  22  23
ATOM     23  C   LIG d   1       1.928  -0.216  -9.575  0.00  0.00    -0.029 C 
ATOM     24  H   LIG d   1       1.035   0.401  -9.469  0.00  0.00     0.026 H 
ATOM     25  H   LIG d   1       2.106  -0.421 -10.631  0.00  0.00     0.026 H 
ATOM     26  H   LIG d   1       1.785  -1.156  -9.042  0.00  0.00     0.026 H 
ENDBRANCH  22  23
BRANCH  22  27
ATOM     27  C   LIG d   1       2.801   2.013  -8.857  0.00  0.00    -0.029 C 
ATOM     28  H   LIG d   1       2.633   2.436  -9.847  0.00  0.00     0.026 H 
ATOM     29  H   LIG d   1       1.902   2.133  -8.252  0.00  0.00     0.026 H 
ATOM     30  H   LIG d   1       3.633   2.529  -8.378  0.00  0.00     0.026 H 
ENDBRANCH  22  27
BRANCH  22  31
ATOM     31  O   LIG d   1       4.258   0.361  -9.853  0.00  0.00    -0.381 OA
ATOM     32  H   LIG d   1       4.784  -0.429  -9.669  0.00  0.00     0.211 HD
ENDBRANCH  22  31
ENDBRANCH   1  22
TORSDOF 7
ENDMDL
MODEL 4
REMARK VINA RESULT:      -4.6     10.364     11.423
REMARK  7 active torsions:
REMARK  status: ('A' for Active; 'I' for Inactive)
REMARK    1  A    between atoms: C_1  and  C_2 
REMARK    2  A    between atoms: C_2  and  C_3 
REMARK    3  A    between atoms: C_2  and  C_4 
REMARK    4  A    between atoms: C_2  and  O_15 
REMARK    5  A    between atoms: C_6  and  C_9 
REMARK    6  A    between atoms: C_9  and  C_10 
REMARK    7  A    between atoms: C_10  and  N_14 
ROOT
ATOM      1  C   LIG d   1      10.117   7.642  -0.994  0.00  0.00     0.168 A 
ATOM      2  C   LIG d   1      10.706   8.730  -1.529  0.00  0.00     0.007 A 
ATOM      3  C   LIG d   1       9.774   9.783  -1.512  0.00  0.00     0.090 A 
ATOM      4  N   LIG d   1       8.669   9.337  -0.984  0.00  0.00    -0.083 NA
ATOM      5  O   LIG d   1       8.863   7.974  -0.652  0.00  0.00    -0.356 OA
ATOM      6  H   LIG d   1      11.716   8.783  -1.904  0.00  0.00     0.067 H 
ENDROOT
BRANCH   3   7
ATOM      7  C   LIG d   1      10.012  11.183  -2.015  0.00  0.00     0.043 C 
ATOM      8  H   LIG d   1       9.786  11.898  -1.223  0.00  0.00     0.039 H 
ATOM      9  H   LIG d   1      11.055  11.289  -2.312  0.00  0.00     0.039 H 
BRANCH   7  10
ATOM     10  C   LIG d   1       9.108  11.454  -3.219  0.00  0.00     0.040 C 
ATOM     11  C   LIG d   1       9.567  12.640  -4.088  0.00  0.00     0.096 C 
ATOM     12  O   LIG d   1       9.263  11.788  -5.211  0.00  0.00    -0.368 OA
ATOM     13  H   LIG d   1       8.923  13.517  -4.012  0.00  0.00     0.062 H 
ATOM     14  H   LIG d   1      10.626  12.876  -3.987  0.00  0.00     0.062 H 
ATOM     15  C   LIG d   1       9.426  10.578  -4.445  0.00  0.00     0.096 C 
ATOM     16  H   LIG d   1      10.443  10.184  -4.453  0.00  0.00     0.062 H 
ATOM     17  H   LIG d   1       8.672   9.818  -4.653  0.00  0.00     0.062 H 
BRANCH  10  18
ATOM     18  N   LIG d   1       7.682  11.492  -2.868  0.00  0.00     0.227 N 
ATOM     19  H   LIG d   1       7.154  10.963  -3.545  0.00  0.00     0.200 HD
ATOM     20  H   LIG d   1       7.550  11.089  -1.952  0.00  0.00     0.200 HD
ATOM     21  H   LIG d   1       7.361  12.448  -2.864  0.00  0.00     0.200 HD
ENDBRANCH  10  18
ENDBRANCH   7  10
ENDBRANCH   3   7
BRANCH   1  22
ATOM     22  C   LIG d   1      10.754   6.288  -0.817  0.00  0.00     0.120 C 
BRANCH  22  23
ATOM     23  C   LIG d   1      10.291   5.355  -1.937  0.00  0.00    -0.029 C 
ATOM     24  H   LIG d   1      11.158   4.997  -2.494  0.00  0.00     0.026 H 
ATOM     25  H   LIG d   1       9.759   4.506  -1.508  0.00  0.00     0.026 H 
ATOM     26  H   LIG d   1       9.627   5.898  -2.610  0.00  0.00     0.026 H 
ENDBRANCH  22  23
BRANCH  22  27
ATOM     27  C   LIG d   1      12.277   6.430  -0.868  0.00  0.00    -0.029 C 
ATOM     28  H   LIG d   1      12.619   6.302  -1.895  0.00  0.00     0.026 H 
ATOM     29  H   LIG d   1      12.562   7.420  -0.510  0.00  0.00     0.026 H 
ATOM     30  H   LIG d   1      12.735   5.670  -0.235  0.00  0.00     0.026 H 
ENDBRANCH  22  27
BRANCH  22  31
ATOM     31  O   LIG d   1      10.369   5.742   0.447  0.00  0.00    -0.381 OA
ATOM     32  H   LIG d   1       9.414   5.653   0.562  0.00  0.00     0.211 HD
ENDBRANCH  22  31
ENDBRANCH   1  22
TORSDOF 7
ENDMDL
MODEL 5
REMARK VINA RESULT:      -4.4      1.847      2.056
REMARK  7 active torsions:
REMARK  status: ('A' for Active; 'I' for Inactive)
REMARK    1  A    between atoms: C_1  and  C_2 
REMARK    2  A    between atoms: C_2  and  C_3 
REMARK    3  A    between atoms: C_2  and  C_4 
REMARK    4  A    between atoms: C_2  and  O_15 
REMARK    5  A    between atoms: C_6  and  C_9 
REMARK    6  A    between atoms: C_9  and  C_10 
REMARK    7  A    between atoms: C_10  and  N_14 
ROOT
ATOM      1  C   LIG d   1       4.261  -0.229  -4.303  0.00  0.00     0.168 A 
ATOM      2  C   LIG d   1       4.920  -0.651  -5.399  0.00  0.00     0.007 A 
ATOM      3  C   LIG d   1       4.271  -0.123  -6.529  0.00  0.00     0.090 A 
ATOM      4  N   LIG d   1       3.259   0.589  -6.119  0.00  0.00    -0.083 NA
ATOM      5  O   LIG d   1       3.231   0.531  -4.704  0.00  0.00    -0.356 OA
ATOM      6  H   LIG d   1       5.795  -1.284  -5.408  0.00  0.00     0.067 H 
ENDROOT
BRANCH   3   7
ATOM      7  C   LIG d   1       4.673  -0.342  -7.965  0.00  0.00     0.043 C 
ATOM      8  H   LIG d   1       4.758   0.621  -8.470  0.00  0.00     0.039 H 
ATOM      9  H   LIG d   1       5.635  -0.854  -7.997  0.00  0.00     0.039 H 
BRANCH   7  10
ATOM     10  C   LIG d   1       3.616  -1.196  -8.667  0.00  0.00     0.040 C 
ATOM     11  C   LIG d   1       4.007  -1.619 -10.096  0.00  0.00     0.096 C 
ATOM     12  O   LIG d   1       3.490  -2.914  -9.732  0.00  0.00    -0.368 OA
ATOM     13  H   LIG d   1       3.433  -1.118 -10.876  0.00  0.00     0.062 H 
ATOM     14  H   LIG d   1       5.081  -1.608 -10.281  0.00  0.00     0.062 H 
ATOM     15  C   LIG d   1       3.697  -2.694  -8.322  0.00  0.00     0.096 C 
ATOM     16  H   LIG d   1       4.677  -3.012  -7.965  0.00  0.00     0.062 H 
ATOM     17  H   LIG d   1       2.879  -3.048  -7.696  0.00  0.00     0.062 H 
BRANCH  10  18
ATOM     18  N   LIG d   1       2.263  -0.633  -8.564  0.00  0.00     0.227 N 
ATOM     19  H   LIG d   1       2.078  -0.051  -9.367  0.00  0.00     0.200 HD
ATOM     20  H   LIG d   1       1.589  -1.383  -8.531  0.00  0.00     0.200 HD
ATOM     21  H   LIG d   1       2.192  -0.079  -7.723  0.00  0.00     0.200 HD
ENDBRANCH  10  18
ENDBRANCH   7  10
ENDBRANCH   3   7
BRANCH   1  22
ATOM     22  C   LIG d   1       4.615  -0.559  -2.875  0.00  0.00     0.120 C 
BRANCH  22  23
ATOM     23  C   LIG d   1       4.257   0.625  -1.974  0.00  0.00    -0.029 C 
ATOM     24  H   LIG d   1       4.802   0.544  -1.034  0.00  0.00     0.026 H 
ATOM     25  H   LIG d   1       4.528   1.556  -2.473  0.00  0.00     0.026 H 
ATOM     26  H   LIG d   1       3.185   0.618  -1.775  0.00  0.00     0.026 H 
ENDBRANCH  22  23
BRANCH  22  27
ATOM     27  C   LIG d   1       3.832  -1.795  -2.428  0.00  0.00    -0.029 C 
ATOM     28  H   LIG d   1       3.295  -2.212  -3.279  0.00  0.00     0.026 H 
ATOM     29  H   LIG d   1       4.523  -2.540  -2.033  0.00  0.00     0.026 H 
ATOM     30  H   LIG d   1       3.120  -1.514  -1.652  0.00  0.00     0.026 H 
ENDBRANCH  22  27
BRANCH  22  31
ATOM     31  O   LIG d   1       6.017  -0.822  -2.781  0.00  0.00    -0.381 OA
ATOM     32  H   LIG d   1       6.244  -1.523  -2.154  0.00  0.00     0.211 HD
ENDBRANCH  22  31
ENDBRANCH   1  22
TORSDOF 7
ENDMDL
MODEL 6
REMARK VINA RESULT:      -4.4      2.967      3.653
REMARK  7 active torsions:
REMARK  status: ('A' for Active; 'I' for Inactive)
REMARK    1  A    between atoms: C_1  and  C_2 
REMARK    2  A    between atoms: C_2  and  C_3 
REMARK    3  A    between atoms: C_2  and  C_4 
REMARK    4  A    between atoms: C_2  and  O_15 
REMARK    5  A    between atoms: C_6  and  C_9 
REMARK    6  A    between atoms: C_9  and  C_10 
REMARK    7  A    between atoms: C_10  and  N_14 
ROOT
ATOM      1  C   LIG d   1       4.479  -0.258  -4.121  0.00  0.00     0.168 A 
ATOM      2  C   LIG d   1       5.774  -0.508  -4.397  0.00  0.00     0.007 A 
ATOM      3  C   LIG d   1       5.980  -0.279  -5.769  0.00  0.00     0.090 A 
ATOM      4  N   LIG d   1       4.846   0.095  -6.292  0.00  0.00    -0.083 NA
ATOM      5  O   LIG d   1       3.875   0.111  -5.261  0.00  0.00    -0.356 OA
ATOM      6  H   LIG d   1       6.522  -0.828  -3.688  0.00  0.00     0.067 H 
ENDROOT
BRANCH   3   7
ATOM      7  C   LIG d   1       7.284  -0.438  -6.508  0.00  0.00     0.043 C 
ATOM      8  H   LIG d   1       8.028  -0.876  -5.841  0.00  0.00     0.039 H 
ATOM      9  H   LIG d   1       7.136  -1.092  -7.366  0.00  0.00     0.039 H 
BRANCH   7  10
ATOM     10  C   LIG d   1       7.770   0.931  -6.986  0.00  0.00     0.040 C 
ATOM     11  C   LIG d   1       8.287   1.839  -5.854  0.00  0.00     0.096 C 
ATOM     12  O   LIG d   1       9.364   2.160  -6.757  0.00  0.00    -0.368 OA
ATOM     13  H   LIG d   1       7.632   2.681  -5.631  0.00  0.00     0.062 H 
ATOM     14  H   LIG d   1       8.605   1.296  -4.964  0.00  0.00     0.062 H 
ATOM     15  C   LIG d   1       9.223   0.931  -7.497  0.00  0.00     0.096 C 
ATOM     16  H   LIG d   1       9.827   0.110  -7.109  0.00  0.00     0.062 H 
ATOM     17  H   LIG d   1       9.312   1.053  -8.577  0.00  0.00     0.062 H 
BRANCH  10  18
ATOM     18  N   LIG d   1       6.821   1.593  -7.891  0.00  0.00     0.227 N 
ATOM     19  H   LIG d   1       6.262   2.251  -7.370  0.00  0.00     0.200 HD
ATOM     20  H   LIG d   1       7.329   2.082  -8.612  0.00  0.00     0.200 HD
ATOM     21  H   LIG d   1       6.220   0.901  -8.314  0.00  0.00     0.200 HD
ENDBRANCH  10  18
ENDBRANCH   7  10
ENDBRANCH   3   7
BRANCH   1  22
ATOM     22  C   LIG d   1       3.823  -0.376  -2.769  0.00  0.00     0.120 C 
BRANCH  22  23
ATOM     23  C   LIG d   1       4.403  -1.581  -2.025  0.00  0.00    -0.029 C 
ATOM     24  H   LIG d   1       5.378  -1.319  -1.614  0.00  0.00     0.026 H 
ATOM     25  H   LIG d   1       3.731  -1.865  -1.215  0.00  0.00     0.026 H 
ATOM     26  H   LIG d   1       4.513  -2.416  -2.717  0.00  0.00     0.026 H 
ENDBRANCH  22  23
BRANCH  22  27
ATOM     27  C   LIG d   1       4.086   0.898  -1.962  0.00  0.00    -0.029 C 
ATOM     28  H   LIG d   1       3.865   1.769  -2.577  0.00  0.00     0.026 H 
ATOM     29  H   LIG d   1       3.448   0.905  -1.078  0.00  0.00     0.026 H 
ATOM     30  H   LIG d   1       5.132   0.924  -1.655  0.00  0.00     0.026 H 
ENDBRANCH  22  27
BRANCH  22  31
ATOM     31  O   LIG d   1       2.415  -0.552  -2.937  0.00  0.00    -0.381 OA
ATOM     32  H   LIG d   1       1.878  -0.029  -2.326  0.00  0.00     0.211 HD
ENDBRANCH  22  31
ENDBRANCH   1  22
TORSDOF 7
ENDMDL
MODEL 7
REMARK VINA RESULT:      -4.4      1.789      5.782
REMARK  7 active torsions:
REMARK  status: ('A' for Active; 'I' for Inactive)
REMARK    1  A    between atoms: C_1  and  C_2 
REMARK    2  A    between atoms: C_2  and  C_3 
REMARK    3  A    between atoms: C_2  and  C_4 
REMARK    4  A    between atoms: C_2  and  O_15 
REMARK    5  A    between atoms: C_6  and  C_9 
REMARK    6  A    between atoms: C_9  and  C_10 
REMARK    7  A    between atoms: C_10  and  N_14 
ROOT
ATOM      1  C   LIG d   1       4.194   0.814  -8.021  0.00  0.00     0.168 A 
ATOM      2  C   LIG d   1       4.800  -0.182  -7.348  0.00  0.00     0.007 A 
ATOM      3  C   LIG d   1       4.049  -0.447  -6.189  0.00  0.00     0.090 A 
ATOM      4  N   LIG d   1       3.029   0.365  -6.174  0.00  0.00    -0.083 NA
ATOM      5  O   LIG d   1       3.104   1.180  -7.329  0.00  0.00    -0.356 OA
ATOM      6  H   LIG d   1       5.706  -0.689  -7.646  0.00  0.00     0.067 H 
ENDROOT
BRANCH   3   7
ATOM      7  C   LIG d   1       4.367  -1.487  -5.146  0.00  0.00     0.043 C 
ATOM      8  H   LIG d   1       3.582  -2.244  -5.136  0.00  0.00     0.039 H 
ATOM      9  H   LIG d   1       5.321  -1.958  -5.383  0.00  0.00     0.039 H 
BRANCH   7  10
ATOM     10  C   LIG d   1       4.452  -0.822  -3.771  0.00  0.00     0.040 C 
ATOM     11  C   LIG d   1       3.265  -1.150  -2.846  0.00  0.00     0.096 C 
ATOM     12  O   LIG d   1       4.258  -1.311  -1.815  0.00  0.00    -0.368 OA
ATOM     13  H   LIG d   1       2.590  -0.309  -2.682  0.00  0.00     0.062 H 
ATOM     14  H   LIG d   1       2.745  -2.072  -3.107  0.00  0.00     0.062 H 
ATOM     15  C   LIG d   1       5.311  -1.600  -2.757  0.00  0.00     0.096 C 
ATOM     16  H   LIG d   1       5.416  -2.660  -2.989  0.00  0.00     0.062 H 
ATOM     17  H   LIG d   1       6.260  -1.119  -2.520  0.00  0.00     0.062 H 
BRANCH  10  18
ATOM     18  N   LIG d   1       4.769   0.610  -3.845  0.00  0.00     0.227 N 
ATOM     19  H   LIG d   1       5.155   0.916  -2.965  0.00  0.00     0.200 HD
ATOM     20  H   LIG d   1       5.444   0.767  -4.579  0.00  0.00     0.200 HD
ATOM     21  H   LIG d   1       3.929   1.131  -4.045  0.00  0.00     0.200 HD
ENDBRANCH  10  18
ENDBRANCH   7  10
ENDBRANCH   3   7
BRANCH   1  22
ATOM     22  C   LIG d   1       4.660   1.416  -9.322  0.00  0.00     0.120 C 
BRANCH  22  23
ATOM     23  C   LIG d   1       3.674   2.499  -9.766  0.00  0.00    -0.029 C 
ATOM     24  H   LIG d   1       4.223   3.323 -10.223  0.00  0.00     0.026 H 
ATOM     25  H   LIG d   1       2.976   2.080 -10.490  0.00  0.00     0.026 H 
ATOM     26  H   LIG d   1       3.125   2.866  -8.899  0.00  0.00     0.026 H 
ENDBRANCH  22  23
BRANCH  22  27
ATOM     27  C   LIG d   1       6.046   2.035  -9.130  0.00  0.00    -0.029 C 
ATOM     28  H   LIG d   1       6.781   1.462  -9.695  0.00  0.00     0.026 H 
ATOM     29  H   LIG d   1       6.037   3.065  -9.485  0.00  0.00     0.026 H 
ATOM     30  H   LIG d   1       6.308   2.018  -8.071  0.00  0.00     0.026 H 
ENDBRANCH  22  27
BRANCH  22  31
ATOM     31  O   LIG d   1       4.728   0.396 -10.322  0.00  0.00    -0.381 OA
ATOM     32  H   LIG d   1       4.570  -0.496  -9.984  0.00  0.00     0.211 HD
ENDBRANCH  22  31
ENDBRANCH   1  22
TORSDOF 7
ENDMDL
MODEL 8
REMARK VINA RESULT:      -4.3      3.858      5.100
REMARK  7 active torsions:
REMARK  status: ('A' for Active; 'I' for Inactive)
REMARK    1  A    between atoms: C_1  and  C_2 
REMARK    2  A    between atoms: C_2  and  C_3 
REMARK    3  A    between atoms: C_2  and  C_4 
REMARK    4  A    between atoms: C_2  and  O_15 
REMARK    5  A    between atoms: C_6  and  C_9 
REMARK    6  A    between atoms: C_9  and  C_10 
REMARK    7  A    between atoms: C_10  and  N_14 
ROOT
ATOM      1  C   LIG d   1       4.711  -0.663  -4.211  0.00  0.00     0.168 A 
ATOM      2  C   LIG d   1       5.559  -1.649  -4.561  0.00  0.00     0.007 A 
ATOM      3  C   LIG d   1       6.458  -1.135  -5.512  0.00  0.00     0.090 A 
ATOM      4  N   LIG d   1       6.155   0.116  -5.721  0.00  0.00    -0.083 NA
ATOM      5  O   LIG d   1       5.043   0.436  -4.906  0.00  0.00    -0.356 OA
ATOM      6  H   LIG d   1       5.549  -2.658  -4.178  0.00  0.00     0.067 H 
ENDROOT
BRANCH   3   7
ATOM      7  C   LIG d   1       7.577  -1.897  -6.175  0.00  0.00     0.043 C 
ATOM      8  H   LIG d   1       7.288  -2.942  -6.290  0.00  0.00     0.039 H 
ATOM      9  H   LIG d   1       7.777  -1.466  -7.156  0.00  0.00     0.039 H 
BRANCH   7  10
ATOM     10  C   LIG d   1       8.837  -1.808  -5.312  0.00  0.00     0.040 C 
ATOM     11  C   LIG d   1       9.049  -3.025  -4.393  0.00  0.00     0.096 C 
ATOM     12  O   LIG d   1      10.430  -2.949  -4.799  0.00  0.00    -0.368 OA
ATOM     13  H   LIG d   1       8.887  -2.812  -3.336  0.00  0.00     0.062 H 
ATOM     14  H   LIG d   1       8.538  -3.927  -4.731  0.00  0.00     0.062 H 
ATOM     15  C   LIG d   1      10.117  -2.270  -6.032  0.00  0.00     0.096 C 
ATOM     16  H   LIG d   1       9.934  -2.942  -6.871  0.00  0.00     0.062 H 
ATOM     17  H   LIG d   1      10.804  -1.460  -6.276  0.00  0.00     0.062 H 
BRANCH  10  18
ATOM     18  N   LIG d   1       8.972  -0.516  -4.627  0.00  0.00     0.227 N 
ATOM     19  H   LIG d   1       8.098  -0.275  -4.185  0.00  0.00     0.200 HD
ATOM     20  H   LIG d   1       9.695  -0.581  -3.926  0.00  0.00     0.200 HD
ATOM     21  H   LIG d   1       9.219   0.197  -5.297  0.00  0.00     0.200 HD
ENDBRANCH  10  18
ENDBRANCH   7  10
ENDBRANCH   3   7
BRANCH   1  22
ATOM     22  C   LIG d   1       3.584  -0.775  -3.217  0.00  0.00     0.120 C 
BRANCH  22  23
ATOM     23  C   LIG d   1       3.786  -2.024  -2.356  0.00  0.00    -0.029 C 
ATOM     24  H   LIG d   1       4.807  -2.387  -2.477  0.00  0.00     0.026 H 
ATOM     25  H   LIG d   1       3.609  -1.777  -1.310  0.00  0.00     0.026 H 
ATOM     26  H   LIG d   1       3.086  -2.798  -2.671  0.00  0.00     0.026 H 
ENDBRANCH  22  23
BRANCH  22  27
ATOM     27  C   LIG d   1       3.569   0.466  -2.321  0.00  0.00    -0.029 C 
ATOM     28  H   LIG d   1       4.448   0.460  -1.679  0.00  0.00     0.026 H 
ATOM     29  H   LIG d   1       3.577   1.362  -2.942  0.00  0.00     0.026 H 
ATOM     30  H   LIG d   1       2.669   0.459  -1.706  0.00  0.00     0.026 H 
ENDBRANCH  22  27
BRANCH  22  31
ATOM     31  O   LIG d   1       2.340  -0.874  -3.915  0.00  0.00    -0.381 OA
ATOM     32  H   LIG d   1       1.819  -1.654  -3.681  0.00  0.00     0.211 HD
ENDBRANCH  22  31
ENDBRANCH   1  22
TORSDOF 7
ENDMDL
MODEL 9
REMARK VINA RESULT:      -4.2      9.365     10.791
REMARK  7 active torsions:
REMARK  status: ('A' for Active; 'I' for Inactive)
REMARK    1  A    between atoms: C_1  and  C_2 
REMARK    2  A    between atoms: C_2  and  C_3 
REMARK    3  A    between atoms: C_2  and  C_4 
REMARK    4  A    between atoms: C_2  and  O_15 
REMARK    5  A    between atoms: C_6  and  C_9 
REMARK    6  A    between atoms: C_9  and  C_10 
REMARK    7  A    between atoms: C_10  and  N_14 
ROOT
ATOM      1  C   LIG d   1       9.743   8.281  -1.021  0.00  0.00     0.168 A 
ATOM      2  C   LIG d   1       9.735   7.419  -2.056  0.00  0.00     0.007 A 
ATOM      3  C   LIG d   1      10.070   6.145  -1.566  0.00  0.00     0.090 A 
ATOM      4  N   LIG d   1      10.270   6.245  -0.281  0.00  0.00    -0.083 NA
ATOM      5  O   LIG d   1      10.072   7.598   0.086  0.00  0.00    -0.356 OA
ATOM      6  H   LIG d   1       9.511   7.665  -3.083  0.00  0.00     0.067 H 
ENDROOT
BRANCH   3   7
ATOM      7  C   LIG d   1      10.180   4.882  -2.382  0.00  0.00     0.043 C 
ATOM      8  H   LIG d   1       9.736   4.053  -1.830  0.00  0.00     0.039 H 
ATOM      9  H   LIG d   1       9.651   5.015  -3.326  0.00  0.00     0.039 H 
BRANCH   7  10
ATOM     10  C   LIG d   1      11.653   4.580  -2.659  0.00  0.00     0.040 C 
ATOM     11  C   LIG d   1      11.883   3.280  -3.453  0.00  0.00     0.096 C 
ATOM     12  O   LIG d   1      12.845   4.044  -4.207  0.00  0.00    -0.368 OA
ATOM     13  H   LIG d   1      12.322   2.475  -2.863  0.00  0.00     0.062 H 
ATOM     14  H   LIG d   1      11.019   2.961  -4.036  0.00  0.00     0.062 H 
ATOM     15  C   LIG d   1      12.214   5.302  -3.898  0.00  0.00     0.096 C 
ATOM     16  H   LIG d   1      11.451   5.602  -4.617  0.00  0.00     0.062 H 
ATOM     17  H   LIG d   1      12.916   6.102  -3.663  0.00  0.00     0.062 H 
BRANCH  10  18
ATOM     18  N   LIG d   1      12.499   4.702  -1.464  0.00  0.00     0.227 N 
ATOM     19  H   LIG d   1      12.187   5.485  -0.910  0.00  0.00     0.200 HD
ATOM     20  H   LIG d   1      12.433   3.857  -0.918  0.00  0.00     0.200 HD
ATOM     21  H   LIG d   1      13.457   4.848  -1.744  0.00  0.00     0.200 HD
ENDBRANCH  10  18
ENDBRANCH   7  10
ENDBRANCH   3   7
BRANCH   1  22
ATOM     22  C   LIG d   1       9.440   9.756  -1.094  0.00  0.00     0.120 C 
BRANCH  22  23
ATOM     23  C   LIG d   1       9.920  10.440   0.188  0.00  0.00    -0.029 C 
ATOM     24  H   LIG d   1      10.957  10.754   0.064  0.00  0.00     0.026 H 
ATOM     25  H   LIG d   1       9.297  11.310   0.391  0.00  0.00     0.026 H 
ATOM     26  H   LIG d   1       9.850   9.740   1.020  0.00  0.00     0.026 H 
ENDBRANCH  22  23
BRANCH  22  27
ATOM     27  C   LIG d   1      10.160  10.365  -2.299  0.00  0.00    -0.029 C 
ATOM     28  H   LIG d   1       9.683  10.025  -3.217  0.00  0.00     0.026 H 
ATOM     29  H   LIG d   1      10.108  11.452  -2.242  0.00  0.00     0.026 H 
ATOM     30  H   LIG d   1      11.205  10.051  -2.294  0.00  0.00     0.026 H 
ENDBRANCH  22  27
BRANCH  22  31
ATOM     31  O   LIG d   1       8.030   9.946  -1.236  0.00  0.00    -0.381 OA
ATOM     32  H   LIG d   1       7.631   9.420  -1.942  0.00  0.00     0.211 HD
ENDBRANCH  22  31
ENDBRANCH   1  22
TORSDOF 7
ENDMDL
MODEL 10
REMARK VINA RESULT:      -4.1     10.902     12.482
REMARK  7 active torsions:
REMARK  status: ('A' for Active; 'I' for Inactive)
REMARK    1  A    between atoms: C_1  and  C_2 
REMARK    2  A    between atoms: C_2  and  C_3 
REMARK    3  A    between atoms: C_2  and  C_4 
REMARK    4  A    between atoms: C_2  and  O_15 
REMARK    5  A    between atoms: C_6  and  C_9 
REMARK    6  A    between atoms: C_9  and  C_10 
REMARK    7  A    between atoms: C_10  and  N_14 
ROOT
ATOM      1  C   LIG d   1       9.205  10.049  -2.152  0.00  0.00     0.168 A 
ATOM      2  C   LIG d   1      10.016   9.028  -2.490  0.00  0.00     0.007 A 
ATOM      3  C   LIG d   1       9.923   8.045  -1.489  0.00  0.00     0.090 A 
ATOM      4  N   LIG d   1       9.084   8.467  -0.585  0.00  0.00    -0.083 NA
ATOM      5  O   LIG d   1       8.618   9.743  -0.985  0.00  0.00    -0.356 OA
ATOM      6  H   LIG d   1      10.631   8.974  -3.376  0.00  0.00     0.067 H 
ENDROOT
BRANCH   3   7
ATOM      7  C   LIG d   1      10.663   6.733  -1.464  0.00  0.00     0.043 C 
ATOM      8  H   LIG d   1       9.951   5.915  -1.352  0.00  0.00     0.039 H 
ATOM      9  H   LIG d   1      11.214   6.610  -2.396  0.00  0.00     0.039 H 
BRANCH   7  10
ATOM     10  C   LIG d   1      11.641   6.721  -0.287  0.00  0.00     0.040 C 
ATOM     11  C   LIG d   1      12.852   5.791  -0.494  0.00  0.00     0.096 C 
ATOM     12  O   LIG d   1      13.632   6.872   0.055  0.00  0.00    -0.368 OA
ATOM     13  H   LIG d   1      12.834   4.898   0.131  0.00  0.00     0.062 H 
ATOM     14  H   LIG d   1      13.070   5.578  -1.541  0.00  0.00     0.062 H 
ATOM     15  C   LIG d   1      12.663   7.872  -0.317  0.00  0.00     0.096 C 
ATOM     16  H   LIG d   1      12.824   8.295  -1.309  0.00  0.00     0.062 H 
ATOM     17  H   LIG d   1      12.496   8.631   0.449  0.00  0.00     0.062 H 
BRANCH  10  18
ATOM     18  N   LIG d   1      10.975   6.548   1.010  0.00  0.00     0.227 N 
ATOM     19  H   LIG d   1      11.387   5.768   1.499  0.00  0.00     0.200 HD
ATOM     20  H   LIG d   1      11.089   7.386   1.561  0.00  0.00     0.200 HD
ATOM     21  H   LIG d   1       9.992   6.374   0.864  0.00  0.00     0.200 HD
ENDBRANCH  10  18
ENDBRANCH   7  10
ENDBRANCH   3   7
BRANCH   1  22
ATOM     22  C   LIG d   1       8.997  11.314  -2.944  0.00  0.00     0.120 C 
BRANCH  22  23
ATOM     23  C   LIG d   1       9.758  12.463  -2.279  0.00  0.00    -0.029 C 
ATOM     24  H   LIG d   1      10.213  12.109  -1.353  0.00  0.00     0.026 H 
ATOM     25  H   LIG d   1      10.536  12.822  -2.952  0.00  0.00     0.026 H 
ATOM     26  H   LIG d   1       9.066  13.275  -2.056  0.00  0.00     0.026 H 
ENDBRANCH  22  23
BRANCH  22  27
ATOM     27  C   LIG d   1       9.517  11.115  -4.369  0.00  0.00    -0.029 C 
ATOM     28  H   LIG d   1       9.271  11.989  -4.971  0.00  0.00     0.026 H 
ATOM     29  H   LIG d   1      10.599  10.981  -4.346  0.00  0.00     0.026 H 
ATOM     30  H   LIG d   1       9.052  10.230  -4.806  0.00  0.00     0.026 H 
ENDBRANCH  22  27
BRANCH  22  31
ATOM     31  O   LIG d   1       7.603  11.627  -2.985  0.00  0.00    -0.381 OA
ATOM     32  H   LIG d   1       7.267  11.811  -3.873  0.00  0.00     0.211 HD
ENDBRANCH  22  31
ENDBRANCH   1  22
TORSDOF 7
ENDMDL
