MODEL 1
REMARK VINA RESULT:      -5.6      0.000      0.000
REMARK  9 active torsions:
REMARK  status: ('A' for Active; 'I' for Inactive)
REMARK    1  A    between atoms: C_1  and  C_2 
REMARK    2  A    between atoms: C_3  and  C_18 
REMARK    3  A    between atoms: C_4  and  C_16 
REMARK    4  A    between atoms: C_4  and  C_17 
REMARK    5  A    between atoms: C_10  and  O_12 
REMARK    6  A    between atoms: O_12  and  C_13 
REMARK    7  A    between atoms: C_13  and  C_15 
REMARK    8  A    between atoms: C_21  and  O_24 
REMARK    9  A    between atoms: O_24  and  C_25 
ROOT
ATOM      1  C   LIG d   1       3.794  -2.037  -8.150  0.00  0.00    -0.032 C 
ATOM      2  C   LIG d   1       3.461  -1.006  -8.952  0.00  0.00     0.006 C 
ATOM      3  C   LIG d   1       3.644   0.410  -8.473  0.00  0.00     0.131 C 
ATOM      4  O   LIG d   1       3.494   0.489  -7.056  0.00  0.00    -0.481 OA
ATOM      5  C   LIG d   1       4.154  -0.430  -6.305  0.00  0.00     0.133 A 
ATOM      6  C   LIG d   1       4.314  -1.733  -6.804  0.00  0.00     0.020 A 
ATOM      7  C   LIG d   1       4.929  -2.708  -6.025  0.00  0.00    -0.047 A 
ATOM      8  C   LIG d   1       5.411  -2.380  -4.774  0.00  0.00    -0.018 A 
ATOM      9  C   LIG d   1       5.274  -1.085  -4.290  0.00  0.00     0.135 A 
ATOM     10  C   LIG d   1       4.643  -0.111  -5.053  0.00  0.00     0.023 A 
ATOM     11  H   LIG d   1       5.030  -3.717  -6.398  0.00  0.00     0.063 H 
ATOM     12  H   LIG d   1       5.894  -3.133  -4.169  0.00  0.00     0.065 H 
ATOM     13  H   LIG d   1       4.537   0.893  -4.670  0.00  0.00     0.069 H 
ENDROOT
BRANCH   2  14
ATOM     14  C   LIG d   1       2.913  -1.265 -10.295  0.00  0.00    -0.018 A 
ATOM     15  C   LIG d   1       1.548  -1.515 -10.459  0.00  0.00    -0.051 A 
ATOM     16  C   LIG d   1       1.040  -1.757 -11.717  0.00  0.00    -0.019 A 
ATOM     17  H   LIG d   1       0.892  -1.520  -9.601  0.00  0.00     0.062 H 
ATOM     18  C   LIG d   1       1.883  -1.751 -12.821  0.00  0.00     0.120 A 
ATOM     19  H   LIG d   1      -0.015  -1.950 -11.845  0.00  0.00     0.065 H 
ATOM     20  C   LIG d   1       3.240  -1.502 -12.664  0.00  0.00    -0.019 A 
ATOM     21  C   LIG d   1       3.756  -1.255 -11.410  0.00  0.00    -0.051 A 
ATOM     22  H   LIG d   1       3.892  -1.499 -13.525  0.00  0.00     0.065 H 
ATOM     23  H   LIG d   1       4.811  -1.056 -11.289  0.00  0.00     0.062 H 
BRANCH  18  24
ATOM     24  O   LIG d   1       1.378  -1.989 -14.060  0.00  0.00    -0.495 OA
BRANCH  24  25
ATOM     25  C   LIG d   1       0.007  -2.389 -14.135  0.00  0.00     0.079 C 
ATOM     26  H   LIG d   1      -0.428  -2.381 -13.136  0.00  0.00     0.066 H 
ATOM     27  H   LIG d   1      -0.538  -1.695 -14.776  0.00  0.00     0.066 H 
ATOM     28  H   LIG d   1      -0.056  -3.394 -14.552  0.00  0.00     0.066 H 
ENDBRANCH  24  25
ENDBRANCH  18  24
ENDBRANCH   2  14
BRANCH   1  29
ATOM     29  C   LIG d   1       3.645  -3.461  -8.618  0.00  0.00    -0.039 C 
ATOM     30  H   LIG d   1       3.357  -3.470  -9.669  0.00  0.00     0.028 H 
ATOM     31  H   LIG d   1       2.878  -3.961  -8.026  0.00  0.00     0.028 H 
ATOM     32  H   LIG d   1       4.595  -3.983  -8.497  0.00  0.00     0.028 H 
ENDBRANCH   1  29
BRANCH   3  33
ATOM     33  C   LIG d   1       2.601   1.309  -9.141  0.00  0.00    -0.021 C 
ATOM     34  H   LIG d   1       1.626   0.823  -9.104  0.00  0.00     0.027 H 
ATOM     35  H   LIG d   1       2.552   2.262  -8.614  0.00  0.00     0.027 H 
ATOM     36  H   LIG d   1       2.882   1.482 -10.179  0.00  0.00     0.027 H 
ENDBRANCH   3  33
BRANCH   3  37
ATOM     37  C   LIG d   1       5.044   0.889  -8.860  0.00  0.00    -0.021 C 
ATOM     38  H   LIG d   1       5.615   0.055  -9.267  0.00  0.00     0.027 H 
ATOM     39  H   LIG d   1       4.965   1.676  -9.610  0.00  0.00     0.027 H 
ATOM     40  H   LIG d   1       5.551   1.279  -7.977  0.00  0.00     0.027 H 
ENDBRANCH   3  37
BRANCH   9  41
ATOM     41  O   LIG d   1       5.760  -0.769  -3.061  0.00  0.00    -0.426 OA
BRANCH  41  42
ATOM     42  C   LIG d   1       4.862  -0.540  -2.090  0.00  0.00     0.309 C 
ATOM     43  O   LIG d   1       4.280  -1.464  -1.574  0.00  0.00    -0.251 OA
BRANCH  42  44
ATOM     44  C   LIG d   1       4.579   0.871  -1.644  0.00  0.00     0.034 C 
ATOM     45  H   LIG d   1       3.696   1.247  -2.163  0.00  0.00     0.034 H 
ATOM     46  H   LIG d   1       4.399   0.884  -0.568  0.00  0.00     0.034 H 
ATOM     47  H   LIG d   1       5.434   1.505  -1.877  0.00  0.00     0.034 H 
ENDBRANCH  42  44
ENDBRANCH  41  42
ENDBRANCH   9  41
TORSDOF 9
ENDMDL
MODEL 2
REMARK VINA RESULT:      -5.4      1.669      2.898
REMARK  9 active torsions:
REMARK  status: ('A' for Active; 'I' for Inactive)
REMARK    1  A    between atoms: C_1  and  C_2 
REMARK    2  A    between atoms: C_3  and  C_18 
REMARK    3  A    between atoms: C_4  and  C_16 
REMARK    4  A    between atoms: C_4  and  C_17 
REMARK    5  A    between atoms: C_10  and  O_12 
REMARK    6  A    between atoms: O_12  and  C_13 
REMARK    7  A    between atoms: C_13  and  C_15 
REMARK    8  A    between atoms: C_21  and  O_24 
REMARK    9  A    between atoms: O_24  and  C_25 
ROOT
ATOM      1  C   LIG d   1       3.157  -0.268  -8.780  0.00  0.00    -0.032 C 
ATOM      2  C   LIG d   1       3.749  -1.238  -9.505  0.00  0.00     0.006 C 
ATOM      3  C   LIG d   1       4.530  -2.325  -8.815  0.00  0.00     0.131 C 
ATOM      4  O   LIG d   1       5.109  -1.840  -7.604  0.00  0.00    -0.481 OA
ATOM      5  C   LIG d   1       4.310  -1.129  -6.768  0.00  0.00     0.133 A 
ATOM      6  C   LIG d   1       3.317  -0.298  -7.315  0.00  0.00     0.020 A 
ATOM      7  C   LIG d   1       2.529   0.490  -6.481  0.00  0.00    -0.047 A 
ATOM      8  C   LIG d   1       2.706   0.425  -5.113  0.00  0.00    -0.018 A 
ATOM      9  C   LIG d   1       3.671  -0.415  -4.572  0.00  0.00     0.135 A 
ATOM     10  C   LIG d   1       4.474  -1.189  -5.398  0.00  0.00     0.023 A 
ATOM     11  H   LIG d   1       1.783   1.147  -6.902  0.00  0.00     0.063 H 
ATOM     12  H   LIG d   1       2.092   1.031  -4.463  0.00  0.00     0.065 H 
ATOM     13  H   LIG d   1       5.225  -1.837  -4.971  0.00  0.00     0.069 H 
ENDROOT
BRANCH   2  14
ATOM     14  C   LIG d   1       3.635  -1.232 -10.975  0.00  0.00    -0.018 A 
ATOM     15  C   LIG d   1       4.506  -0.453 -11.741  0.00  0.00    -0.051 A 
ATOM     16  C   LIG d   1       4.397  -0.450 -13.115  0.00  0.00    -0.019 A 
ATOM     17  H   LIG d   1       5.264   0.146 -11.258  0.00  0.00     0.062 H 
ATOM     18  C   LIG d   1       3.423  -1.221 -13.738  0.00  0.00     0.120 A 
ATOM     19  H   LIG d   1       5.069   0.151 -13.709  0.00  0.00     0.065 H 
ATOM     20  C   LIG d   1       2.556  -1.997 -12.980  0.00  0.00    -0.019 A 
ATOM     21  C   LIG d   1       2.661  -2.010 -11.606  0.00  0.00    -0.051 A 
ATOM     22  H   LIG d   1       1.800  -2.594 -13.469  0.00  0.00     0.065 H 
ATOM     23  H   LIG d   1       1.989  -2.618 -11.018  0.00  0.00     0.062 H 
BRANCH  18  24
ATOM     24  O   LIG d   1       3.319  -1.215 -15.092  0.00  0.00    -0.495 OA
BRANCH  24  25
ATOM     25  C   LIG d   1       4.236  -0.386 -15.810  0.00  0.00     0.079 C 
ATOM     26  H   LIG d   1       3.714   0.110 -16.627  0.00  0.00     0.066 H 
ATOM     27  H   LIG d   1       4.652   0.363 -15.135  0.00  0.00     0.066 H 
ATOM     28  H   LIG d   1       5.042  -1.000 -16.212  0.00  0.00     0.066 H 
ENDBRANCH  24  25
ENDBRANCH  18  24
ENDBRANCH   2  14
BRANCH   1  29
ATOM     29  C   LIG d   1       2.347   0.813  -9.448  0.00  0.00    -0.039 C 
ATOM     30  H   LIG d   1       1.842   0.402 -10.320  0.00  0.00     0.028 H 
ATOM     31  H   LIG d   1       3.008   1.623  -9.757  0.00  0.00     0.028 H 
ATOM     32  H   LIG d   1       1.607   1.197  -8.746  0.00  0.00     0.028 H 
ENDBRANCH   1  29
BRANCH   3  33
ATOM     33  C   LIG d   1       5.642  -2.818  -9.743  0.00  0.00    -0.021 C 
ATOM     34  H   LIG d   1       6.330  -3.450  -9.181  0.00  0.00     0.027 H 
ATOM     35  H   LIG d   1       5.205  -3.392 -10.560  0.00  0.00     0.027 H 
ATOM     36  H   LIG d   1       6.182  -1.963 -10.149  0.00  0.00     0.027 H 
ENDBRANCH   3  33
BRANCH   3  37
ATOM     37  C   LIG d   1       3.589  -3.487  -8.494  0.00  0.00    -0.021 C 
ATOM     38  H   LIG d   1       2.681  -3.103  -8.030  0.00  0.00     0.027 H 
ATOM     39  H   LIG d   1       3.332  -4.012  -9.414  0.00  0.00     0.027 H 
ATOM     40  H   LIG d   1       4.083  -4.177  -7.809  0.00  0.00     0.027 H 
ENDBRANCH   3  37
BRANCH   9  41
ATOM     41  O   LIG d   1       3.829  -0.479  -3.224  0.00  0.00    -0.426 OA
BRANCH  41  42
ATOM     42  C   LIG d   1       4.226   0.643  -2.603  0.00  0.00     0.309 C 
ATOM     43  O   LIG d   1       3.460   1.241  -1.884  0.00  0.00    -0.251 OA
BRANCH  42  44
ATOM     44  C   LIG d   1       5.628   1.159  -2.802  0.00  0.00     0.034 C 
ATOM     45  H   LIG d   1       5.604   2.243  -2.920  0.00  0.00     0.034 H 
ATOM     46  H   LIG d   1       6.238   0.901  -1.935  0.00  0.00     0.034 H 
ATOM     47  H   LIG d   1       6.058   0.707  -3.696  0.00  0.00     0.034 H 
ENDBRANCH  42  44
ENDBRANCH  41  42
ENDBRANCH   9  41
TORSDOF 9
ENDMDL
MODEL 3
REMARK VINA RESULT:      -5.2     10.298     12.327
REMARK  9 active torsions:
REMARK  status: ('A' for Active; 'I' for Inactive)
REMARK    1  A    between atoms: C_1  and  C_2 
REMARK    2  A    between atoms: C_3  and  C_18 
REMARK    3  A    between atoms: C_4  and  C_16 
REMARK    4  A    between atoms: C_4  and  C_17 
REMARK    5  A    between atoms: C_10  and  O_12 
REMARK    6  A    between atoms: O_12  and  C_13 
REMARK    7  A    between atoms: C_13  and  C_15 
REMARK    8  A    between atoms: C_21  and  O_24 
REMARK    9  A    between atoms: O_24  and  C_25 
ROOT
ATOM      1  C   LIG d   1       7.725 -11.156  -1.291  0.00  0.00    -0.032 C 
ATOM      2  C   LIG d   1       7.435 -10.532  -2.449  0.00  0.00     0.006 C 
ATOM      3  C   LIG d   1       8.385  -9.506  -3.011  0.00  0.00     0.131 C 
ATOM      4  O   LIG d   1       9.090  -8.843  -1.962  0.00  0.00    -0.481 OA
ATOM      5  C   LIG d   1       9.636  -9.615  -0.988  0.00  0.00     0.133 A 
ATOM      6  C   LIG d   1       8.971 -10.789  -0.595  0.00  0.00     0.020 A 
ATOM      7  C   LIG d   1       9.478 -11.562   0.446  0.00  0.00    -0.047 A 
ATOM      8  C   LIG d   1      10.653 -11.187   1.066  0.00  0.00    -0.018 A 
ATOM      9  C   LIG d   1      11.323 -10.040   0.660  0.00  0.00     0.135 A 
ATOM     10  C   LIG d   1      10.813  -9.253  -0.365  0.00  0.00     0.023 A 
ATOM     11  H   LIG d   1       8.954 -12.450   0.766  0.00  0.00     0.063 H 
ATOM     12  H   LIG d   1      11.052 -11.788   1.870  0.00  0.00     0.065 H 
ATOM     13  H   LIG d   1      11.337  -8.360  -0.673  0.00  0.00     0.069 H 
ENDROOT
BRANCH   2  14
ATOM     14  C   LIG d   1       6.187 -10.850  -3.165  0.00  0.00    -0.018 A 
ATOM     15  C   LIG d   1       6.218 -11.663  -4.301  0.00  0.00    -0.051 A 
ATOM     16  C   LIG d   1       5.049 -11.958  -4.968  0.00  0.00    -0.019 A 
ATOM     17  H   LIG d   1       7.157 -12.060  -4.656  0.00  0.00     0.062 H 
ATOM     18  C   LIG d   1       3.839 -11.448  -4.511  0.00  0.00     0.120 A 
ATOM     19  H   LIG d   1       5.071 -12.586  -5.846  0.00  0.00     0.065 H 
ATOM     20  C   LIG d   1       3.803 -10.640  -3.383  0.00  0.00    -0.019 A 
ATOM     21  C   LIG d   1       4.967 -10.344  -2.707  0.00  0.00    -0.051 A 
ATOM     22  H   LIG d   1       2.860 -10.246  -3.031  0.00  0.00     0.065 H 
ATOM     23  H   LIG d   1       4.937  -9.719  -1.826  0.00  0.00     0.062 H 
BRANCH  18  24
ATOM     24  O   LIG d   1       2.689 -11.742  -5.171  0.00  0.00    -0.495 OA
BRANCH  24  25
ATOM     25  C   LIG d   1       2.764 -12.739  -6.193  0.00  0.00     0.079 C 
ATOM     26  H   LIG d   1       1.796 -13.229  -6.293  0.00  0.00     0.066 H 
ATOM     27  H   LIG d   1       3.034 -12.269  -7.139  0.00  0.00     0.066 H 
ATOM     28  H   LIG d   1       3.520 -13.477  -5.926  0.00  0.00     0.066 H 
ENDBRANCH  24  25
ENDBRANCH  18  24
ENDBRANCH   2  14
BRANCH   1  29
ATOM     29  C   LIG d   1       6.803 -12.205  -0.725  0.00  0.00    -0.039 C 
ATOM     30  H   LIG d   1       5.921 -11.724  -0.302  0.00  0.00     0.028 H 
ATOM     31  H   LIG d   1       7.322 -12.764   0.054  0.00  0.00     0.028 H 
ATOM     32  H   LIG d   1       6.499 -12.887  -1.519  0.00  0.00     0.028 H 
ENDBRANCH   1  29
BRANCH   3  33
ATOM     33  C   LIG d   1       7.596  -8.474  -3.819  0.00  0.00    -0.021 C 
ATOM     34  H   LIG d   1       6.627  -8.306  -3.346  0.00  0.00     0.027 H 
ATOM     35  H   LIG d   1       8.151  -7.537  -3.853  0.00  0.00     0.027 H 
ATOM     36  H   LIG d   1       7.446  -8.844  -4.833  0.00  0.00     0.027 H 
ENDBRANCH   3  33
BRANCH   3  37
ATOM     37  C   LIG d   1       9.387 -10.206  -3.930  0.00  0.00    -0.021 C 
ATOM     38  H   LIG d   1       8.891 -11.021  -4.456  0.00  0.00     0.027 H 
ATOM     39  H   LIG d   1       9.779  -9.492  -4.653  0.00  0.00     0.027 H 
ATOM     40  H   LIG d   1      10.208 -10.606  -3.333  0.00  0.00     0.027 H 
ENDBRANCH   3  37
BRANCH   9  41
ATOM     41  O   LIG d   1      12.484  -9.687   1.269  0.00  0.00    -0.426 OA
BRANCH  41  42
ATOM     42  C   LIG d   1      12.507  -8.500   1.897  0.00  0.00     0.309 C 
ATOM     43  O   LIG d   1      13.309  -7.658   1.571  0.00  0.00    -0.251 OA
BRANCH  42  44
ATOM     44  C   LIG d   1      11.532  -8.219   3.011  0.00  0.00     0.034 C 
ATOM     45  H   LIG d   1      11.606  -9.002   3.767  0.00  0.00     0.034 H 
ATOM     46  H   LIG d   1      11.765  -7.254   3.464  0.00  0.00     0.034 H 
ATOM     47  H   LIG d   1      10.518  -8.197   2.611  0.00  0.00     0.034 H 
ENDBRANCH  42  44
ENDBRANCH  41  42
ENDBRANCH   9  41
TORSDOF 9
ENDMDL
MODEL 4
REMARK VINA RESULT:      -5.2      1.593      1.975
REMARK  9 active torsions:
REMARK  status: ('A' for Active; 'I' for Inactive)
REMARK    1  A    between atoms: C_1  and  C_2 
REMARK    2  A    between atoms: C_3  and  C_18 
REMARK    3  A    between atoms: C_4  and  C_16 
REMARK    4  A    between atoms: C_4  and  C_17 
REMARK    5  A    between atoms: C_10  and  O_12 
REMARK    6  A    between atoms: O_12  and  C_13 
REMARK    7  A    between atoms: C_13  and  C_15 
REMARK    8  A    between atoms: C_21  and  O_24 
REMARK    9  A    between atoms: O_24  and  C_25 
ROOT
ATOM      1  C   LIG d   1       5.165  -1.292  -8.831  0.00  0.00    -0.032 C 
ATOM      2  C   LIG d   1       4.082  -0.786  -9.453  0.00  0.00     0.006 C 
ATOM      3  C   LIG d   1       3.047  -0.027  -8.664  0.00  0.00     0.131 C 
ATOM      4  O   LIG d   1       2.980  -0.509  -7.323  0.00  0.00    -0.481 OA
ATOM      5  C   LIG d   1       4.152  -0.680  -6.659  0.00  0.00     0.133 A 
ATOM      6  C   LIG d   1       5.286  -1.098  -7.375  0.00  0.00     0.020 A 
ATOM      7  C   LIG d   1       6.482  -1.343  -6.705  0.00  0.00    -0.047 A 
ATOM      8  C   LIG d   1       6.556  -1.140  -5.342  0.00  0.00    -0.018 A 
ATOM      9  C   LIG d   1       5.440  -0.704  -4.639  0.00  0.00     0.135 A 
ATOM     10  C   LIG d   1       4.238  -0.477  -5.296  0.00  0.00     0.023 A 
ATOM     11  H   LIG d   1       7.348  -1.688  -7.251  0.00  0.00     0.063 H 
ATOM     12  H   LIG d   1       7.484  -1.324  -4.820  0.00  0.00     0.065 H 
ATOM     13  H   LIG d   1       3.373  -0.141  -4.743  0.00  0.00     0.069 H 
ENDROOT
BRANCH   2  14
ATOM     14  C   LIG d   1       3.908  -0.978 -10.903  0.00  0.00    -0.018 A 
ATOM     15  C   LIG d   1       3.253  -2.114 -11.386  0.00  0.00    -0.051 A 
ATOM     16  C   LIG d   1       3.093  -2.290 -12.743  0.00  0.00    -0.019 A 
ATOM     17  H   LIG d   1       2.873  -2.853 -10.696  0.00  0.00     0.062 H 
ATOM     18  C   LIG d   1       3.581  -1.339 -13.631  0.00  0.00     0.120 A 
ATOM     19  H   LIG d   1       2.587  -3.168 -13.118  0.00  0.00     0.065 H 
ATOM     20  C   LIG d   1       4.232  -0.209 -13.157  0.00  0.00    -0.019 A 
ATOM     21  C   LIG d   1       4.393  -0.022 -11.801  0.00  0.00    -0.051 A 
ATOM     22  H   LIG d   1       4.610   0.528 -13.851  0.00  0.00     0.065 H 
ATOM     23  H   LIG d   1       4.895   0.861 -11.432  0.00  0.00     0.062 H 
BRANCH  18  24
ATOM     24  O   LIG d   1       3.420  -1.517 -14.968  0.00  0.00    -0.495 OA
BRANCH  24  25
ATOM     25  C   LIG d   1       3.957  -0.507 -15.826  0.00  0.00     0.079 C 
ATOM     26  H   LIG d   1       4.962  -0.791 -16.137  0.00  0.00     0.066 H 
ATOM     27  H   LIG d   1       3.319  -0.401 -16.705  0.00  0.00     0.066 H 
ATOM     28  H   LIG d   1       3.996   0.441 -15.290  0.00  0.00     0.066 H 
ENDBRANCH  24  25
ENDBRANCH  18  24
ENDBRANCH   2  14
BRANCH   1  29
ATOM     29  C   LIG d   1       6.227  -2.029  -9.604  0.00  0.00    -0.039 C 
ATOM     30  H   LIG d   1       7.167  -1.481  -9.545  0.00  0.00     0.028 H 
ATOM     31  H   LIG d   1       5.923  -2.118 -10.647  0.00  0.00     0.028 H 
ATOM     32  H   LIG d   1       6.360  -3.024  -9.179  0.00  0.00     0.028 H 
ENDBRANCH   1  29
BRANCH   3  33
ATOM     33  C   LIG d   1       1.679  -0.197  -9.329  0.00  0.00    -0.021 C 
ATOM     34  H   LIG d   1       1.805  -0.239 -10.412  0.00  0.00     0.027 H 
ATOM     35  H   LIG d   1       1.217  -1.120  -8.981  0.00  0.00     0.027 H 
ATOM     36  H   LIG d   1       1.042   0.649  -9.071  0.00  0.00     0.027 H 
ENDBRANCH   3  33
BRANCH   3  37
ATOM     37  C   LIG d   1       3.420   1.456  -8.650  0.00  0.00    -0.021 C 
ATOM     38  H   LIG d   1       4.021   1.689  -9.529  0.00  0.00     0.027 H 
ATOM     39  H   LIG d   1       2.513   2.060  -8.660  0.00  0.00     0.027 H 
ATOM     40  H   LIG d   1       3.993   1.677  -7.749  0.00  0.00     0.027 H 
ENDBRANCH   3  37
BRANCH   9  41
ATOM     41  O   LIG d   1       5.526  -0.498  -3.299  0.00  0.00    -0.426 OA
BRANCH  41  42
ATOM     42  C   LIG d   1       5.372   0.763  -2.865  0.00  0.00     0.309 C 
ATOM     43  O   LIG d   1       6.159   1.618  -3.195  0.00  0.00    -0.251 OA
BRANCH  42  44
ATOM     44  C   LIG d   1       4.215   1.114  -1.964  0.00  0.00     0.034 C 
ATOM     45  H   LIG d   1       4.323   0.590  -1.013  0.00  0.00     0.034 H 
ATOM     46  H   LIG d   1       4.206   2.190  -1.786  0.00  0.00     0.034 H 
ATOM     47  H   LIG d   1       3.281   0.816  -2.439  0.00  0.00     0.034 H 
ENDBRANCH  42  44
ENDBRANCH  41  42
ENDBRANCH   9  41
TORSDOF 9
ENDMDL
MODEL 5
REMARK VINA RESULT:      -5.1      8.948     10.246
REMARK  9 active torsions:
REMARK  status: ('A' for Active; 'I' for Inactive)
REMARK    1  A    between atoms: C_1  and  C_2 
REMARK    2  A    between atoms: C_3  and  C_18 
REMARK    3  A    between atoms: C_4  and  C_16 
REMARK    4  A    between atoms: C_4  and  C_17 
REMARK    5  A    between atoms: C_10  and  O_12 
REMARK    6  A    between atoms: O_12  and  C_13 
REMARK    7  A    between atoms: C_13  and  C_15 
REMARK    8  A    between atoms: C_21  and  O_24 
REMARK    9  A    between atoms: O_24  and  C_25 
ROOT
ATOM      1  C   LIG d   1       9.875   5.475  -6.044  0.00  0.00    -0.032 C 
ATOM      2  C   LIG d   1       9.966   6.503  -6.910  0.00  0.00     0.006 C 
ATOM      3  C   LIG d   1      10.082   7.914  -6.394  0.00  0.00     0.131 C 
ATOM      4  O   LIG d   1       9.412   8.050  -5.141  0.00  0.00    -0.481 OA
ATOM      5  C   LIG d   1       9.650   7.104  -4.197  0.00  0.00     0.133 A 
ATOM      6  C   LIG d   1       9.870   5.777  -4.601  0.00  0.00     0.020 A 
ATOM      7  C   LIG d   1      10.052   4.779  -3.648  0.00  0.00    -0.047 A 
ATOM      8  C   LIG d   1      10.049   5.105  -2.307  0.00  0.00    -0.018 A 
ATOM      9  C   LIG d   1       9.856   6.422  -1.909  0.00  0.00     0.135 A 
ATOM     10  C   LIG d   1       9.654   7.421  -2.853  0.00  0.00     0.023 A 
ATOM     11  H   LIG d   1      10.195   3.754  -3.957  0.00  0.00     0.063 H 
ATOM     12  H   LIG d   1      10.196   4.334  -1.565  0.00  0.00     0.065 H 
ATOM     13  H   LIG d   1       9.501   8.442  -2.537  0.00  0.00     0.069 H 
ENDROOT
BRANCH   2  14
ATOM     14  C   LIG d   1       9.950   6.249  -8.361  0.00  0.00    -0.018 A 
ATOM     15  C   LIG d   1      11.150   6.095  -9.059  0.00  0.00    -0.051 A 
ATOM     16  C   LIG d   1      11.130   5.857 -10.416  0.00  0.00    -0.019 A 
ATOM     17  H   LIG d   1      12.093   6.163  -8.536  0.00  0.00     0.062 H 
ATOM     18  C   LIG d   1       9.918   5.769 -11.090  0.00  0.00     0.120 A 
ATOM     19  H   LIG d   1      12.057   5.738 -10.958  0.00  0.00     0.065 H 
ATOM     20  C   LIG d   1       8.722   5.920 -10.400  0.00  0.00    -0.019 A 
ATOM     21  C   LIG d   1       8.733   6.153  -9.042  0.00  0.00    -0.051 A 
ATOM     22  H   LIG d   1       7.782   5.851 -10.928  0.00  0.00     0.065 H 
ATOM     23  H   LIG d   1       7.802   6.266  -8.506  0.00  0.00     0.062 H 
BRANCH  18  24
ATOM     24  O   LIG d   1       9.903   5.533 -12.428  0.00  0.00    -0.495 OA
BRANCH  24  25
ATOM     25  C   LIG d   1       8.908   6.214 -13.195  0.00  0.00     0.079 C 
ATOM     26  H   LIG d   1       9.142   6.124 -14.256  0.00  0.00     0.066 H 
ATOM     27  H   LIG d   1       7.931   5.771 -12.998  0.00  0.00     0.066 H 
ATOM     28  H   LIG d   1       8.891   7.268 -12.916  0.00  0.00     0.066 H 
ENDBRANCH  24  25
ENDBRANCH  18  24
ENDBRANCH   2  14
BRANCH   1  29
ATOM     29  C   LIG d   1       9.788   4.054  -6.537  0.00  0.00    -0.039 C 
ATOM     30  H   LIG d   1      10.342   3.401  -5.864  0.00  0.00     0.028 H 
ATOM     31  H   LIG d   1      10.212   3.989  -7.539  0.00  0.00     0.028 H 
ATOM     32  H   LIG d   1       8.743   3.744  -6.565  0.00  0.00     0.028 H 
ENDBRANCH   1  29
BRANCH   3  33
ATOM     33  C   LIG d   1       9.457   8.876  -7.407  0.00  0.00    -0.021 C 
ATOM     34  H   LIG d   1      10.172   9.077  -8.205  0.00  0.00     0.027 H 
ATOM     35  H   LIG d   1       8.559   8.426  -7.829  0.00  0.00     0.027 H 
ATOM     36  H   LIG d   1       9.197   9.810  -6.908  0.00  0.00     0.027 H 
ENDBRANCH   3  33
BRANCH   3  37
ATOM     37  C   LIG d   1      11.561   8.260  -6.216  0.00  0.00    -0.021 C 
ATOM     38  H   LIG d   1      11.757   8.495  -5.170  0.00  0.00     0.027 H 
ATOM     39  H   LIG d   1      12.172   7.410  -6.518  0.00  0.00     0.027 H 
ATOM     40  H   LIG d   1      11.809   9.123  -6.835  0.00  0.00     0.027 H 
ENDBRANCH   3  37
BRANCH   9  41
ATOM     41  O   LIG d   1       9.866   6.735  -0.587  0.00  0.00    -0.426 OA
BRANCH  41  42
ATOM     42  C   LIG d   1      11.027   6.579   0.068  0.00  0.00     0.309 C 
ATOM     43  O   LIG d   1      12.030   7.115  -0.341  0.00  0.00    -0.251 OA
BRANCH  42  44
ATOM     44  C   LIG d   1      11.081   5.733   1.314  0.00  0.00     0.034 C 
ATOM     45  H   LIG d   1      11.641   4.819   1.110  0.00  0.00     0.034 H 
ATOM     46  H   LIG d   1      11.575   6.290   2.111  0.00  0.00     0.034 H 
ATOM     47  H   LIG d   1      10.069   5.476   1.624  0.00  0.00     0.034 H 
ENDBRANCH  42  44
ENDBRANCH  41  42
ENDBRANCH   9  41
TORSDOF 9
ENDMDL
MODEL 6
REMARK VINA RESULT:      -4.9      4.918      7.940
REMARK  9 active torsions:
REMARK  status: ('A' for Active; 'I' for Inactive)
REMARK    1  A    between atoms: C_1  and  C_2 
REMARK    2  A    between atoms: C_3  and  C_18 
REMARK    3  A    between atoms: C_4  and  C_16 
REMARK    4  A    between atoms: C_4  and  C_17 
REMARK    5  A    between atoms: C_10  and  O_12 
REMARK    6  A    between atoms: O_12  and  C_13 
REMARK    7  A    between atoms: C_13  and  C_15 
REMARK    8  A    between atoms: C_21  and  O_24 
REMARK    9  A    between atoms: O_24  and  C_25 
ROOT
ATOM      1  C   LIG d   1       7.013  -3.099  -5.246  0.00  0.00    -0.032 C 
ATOM      2  C   LIG d   1       6.242  -2.027  -4.976  0.00  0.00     0.006 C 
ATOM      3  C   LIG d   1       4.758  -2.197  -4.783  0.00  0.00     0.131 C 
ATOM      4  O   LIG d   1       4.269  -3.292  -5.557  0.00  0.00    -0.481 OA
ATOM      5  C   LIG d   1       4.963  -4.458  -5.500  0.00  0.00     0.133 A 
ATOM      6  C   LIG d   1       6.360  -4.415  -5.365  0.00  0.00     0.020 A 
ATOM      7  C   LIG d   1       7.098  -5.595  -5.370  0.00  0.00    -0.047 A 
ATOM      8  C   LIG d   1       6.447  -6.808  -5.474  0.00  0.00    -0.018 A 
ATOM      9  C   LIG d   1       5.063  -6.851  -5.583  0.00  0.00     0.135 A 
ATOM     10  C   LIG d   1       4.321  -5.677  -5.599  0.00  0.00     0.023 A 
ATOM     11  H   LIG d   1       8.175  -5.562  -5.292  0.00  0.00     0.063 H 
ATOM     12  H   LIG d   1       7.016  -7.726  -5.472  0.00  0.00     0.065 H 
ATOM     13  H   LIG d   1       3.246  -5.717  -5.687  0.00  0.00     0.069 H 
ENDROOT
BRANCH   2  14
ATOM     14  C   LIG d   1       6.850  -0.689  -4.874  0.00  0.00    -0.018 A 
ATOM     15  C   LIG d   1       7.265  -0.018  -6.028  0.00  0.00    -0.051 A 
ATOM     16  C   LIG d   1       7.834   1.233  -5.928  0.00  0.00    -0.019 A 
ATOM     17  H   LIG d   1       7.142  -0.480  -6.996  0.00  0.00     0.062 H 
ATOM     18  C   LIG d   1       7.993   1.828  -4.682  0.00  0.00     0.120 A 
ATOM     19  H   LIG d   1       8.155   1.753  -6.818  0.00  0.00     0.065 H 
ATOM     20  C   LIG d   1       7.581   1.166  -3.533  0.00  0.00    -0.019 A 
ATOM     21  C   LIG d   1       7.007  -0.083  -3.624  0.00  0.00    -0.051 A 
ATOM     22  H   LIG d   1       7.707   1.633  -2.567  0.00  0.00     0.065 H 
ATOM     23  H   LIG d   1       6.683  -0.596  -2.730  0.00  0.00     0.062 H 
BRANCH  18  24
ATOM     24  O   LIG d   1       8.553   3.062  -4.589  0.00  0.00    -0.495 OA
BRANCH  24  25
ATOM     25  C   LIG d   1       9.574   3.238  -3.605  0.00  0.00     0.079 C 
ATOM     26  H   LIG d   1      10.545   3.010  -4.044  0.00  0.00     0.066 H 
ATOM     27  H   LIG d   1       9.567   4.271  -3.254  0.00  0.00     0.066 H 
ATOM     28  H   LIG d   1       9.389   2.568  -2.765  0.00  0.00     0.066 H 
ENDBRANCH  24  25
ENDBRANCH  18  24
ENDBRANCH   2  14
BRANCH   1  29
ATOM     29  C   LIG d   1       8.504  -2.957  -5.416  0.00  0.00    -0.039 C 
ATOM     30  H   LIG d   1       9.012  -3.672  -4.771  0.00  0.00     0.028 H 
ATOM     31  H   LIG d   1       8.806  -1.944  -5.146  0.00  0.00     0.028 H 
ATOM     32  H   LIG d   1       8.770  -3.150  -6.455  0.00  0.00     0.028 H 
ENDBRANCH   1  29
BRANCH   3  33
ATOM     33  C   LIG d   1       4.041  -0.916  -5.214  0.00  0.00    -0.021 C 
ATOM     34  H   LIG d   1       3.598  -1.062  -6.200  0.00  0.00     0.027 H 
ATOM     35  H   LIG d   1       3.257  -0.678  -4.495  0.00  0.00     0.027 H 
ATOM     36  H   LIG d   1       4.757  -0.095  -5.256  0.00  0.00     0.027 H 
ENDBRANCH   3  33
BRANCH   3  37
ATOM     37  C   LIG d   1       4.475  -2.459  -3.303  0.00  0.00    -0.021 C 
ATOM     38  H   LIG d   1       4.827  -3.455  -3.036  0.00  0.00     0.027 H 
ATOM     39  H   LIG d   1       4.993  -1.716  -2.697  0.00  0.00     0.027 H 
ATOM     40  H   LIG d   1       3.402  -2.392  -3.121  0.00  0.00     0.027 H 
ENDBRANCH   3  37
BRANCH   9  41
ATOM     41  O   LIG d   1       4.431  -8.050  -5.674  0.00  0.00    -0.426 OA
BRANCH  41  42
ATOM     42  C   LIG d   1       4.656  -8.775  -6.781  0.00  0.00     0.309 C 
ATOM     43  O   LIG d   1       5.244  -9.828  -6.706  0.00  0.00    -0.251 OA
BRANCH  42  44
ATOM     44  C   LIG d   1       4.176  -8.276  -8.120  0.00  0.00     0.034 C 
ATOM     45  H   LIG d   1       3.173  -8.660  -8.313  0.00  0.00     0.034 H 
ATOM     46  H   LIG d   1       4.152  -7.186  -8.115  0.00  0.00     0.034 H 
ATOM     47  H   LIG d   1       4.853  -8.621  -8.901  0.00  0.00     0.034 H 
ENDBRANCH  42  44
ENDBRANCH  41  42
ENDBRANCH   9  41
TORSDOF 9
ENDMDL
MODEL 7
REMARK VINA RESULT:      -4.8      9.616     14.449
REMARK  9 active torsions:
REMARK  status: ('A' for Active; 'I' for Inactive)
REMARK    1  A    between atoms: C_1  and  C_2 
REMARK    2  A    between atoms: C_3  and  C_18 
REMARK    3  A    between atoms: C_4  and  C_16 
REMARK    4  A    between atoms: C_4  and  C_17 
REMARK    5  A    between atoms: C_10  and  O_12 
REMARK    6  A    between atoms: O_12  and  C_13 
REMARK    7  A    between atoms: C_13  and  C_15 
REMARK    8  A    between atoms: C_21  and  O_24 
REMARK    9  A    between atoms: O_24  and  C_25 
ROOT
ATOM      1  C   LIG d   1      10.403   7.827  -2.399  0.00  0.00    -0.032 C 
ATOM      2  C   LIG d   1      10.888   7.891  -1.144  0.00  0.00     0.006 C 
ATOM      3  C   LIG d   1      11.266   6.626  -0.417  0.00  0.00     0.131 C 
ATOM      4  O   LIG d   1      10.456   5.534  -0.850  0.00  0.00    -0.481 OA
ATOM      5  C   LIG d   1      10.293   5.366  -2.187  0.00  0.00     0.133 A 
ATOM      6  C   LIG d   1      10.237   6.498  -3.016  0.00  0.00     0.020 A 
ATOM      7  C   LIG d   1      10.006   6.354  -4.380  0.00  0.00    -0.047 A 
ATOM      8  C   LIG d   1       9.866   5.091  -4.919  0.00  0.00    -0.018 A 
ATOM      9  C   LIG d   1       9.945   3.969  -4.103  0.00  0.00     0.135 A 
ATOM     10  C   LIG d   1      10.156   4.107  -2.737  0.00  0.00     0.023 A 
ATOM     11  H   LIG d   1       9.938   7.225  -5.014  0.00  0.00     0.063 H 
ATOM     12  H   LIG d   1       9.692   4.974  -5.979  0.00  0.00     0.065 H 
ATOM     13  H   LIG d   1      10.214   3.231  -2.108  0.00  0.00     0.069 H 
ENDROOT
BRANCH   2  14
ATOM     14  C   LIG d   1      11.045   9.197  -0.480  0.00  0.00    -0.018 A 
ATOM     15  C   LIG d   1      12.309   9.786  -0.383  0.00  0.00    -0.051 A 
ATOM     16  C   LIG d   1      12.452  11.007   0.239  0.00  0.00    -0.019 A 
ATOM     17  H   LIG d   1      13.173   9.284  -0.793  0.00  0.00     0.062 H 
ATOM     18  C   LIG d   1      11.341  11.654   0.768  0.00  0.00     0.120 A 
ATOM     19  H   LIG d   1      13.428  11.464   0.315  0.00  0.00     0.065 H 
ATOM     20  C   LIG d   1      10.084  11.074   0.673  0.00  0.00    -0.019 A 
ATOM     21  C   LIG d   1       9.930   9.854   0.048  0.00  0.00    -0.051 A 
ATOM     22  H   LIG d   1       9.223  11.580   1.085  0.00  0.00     0.065 H 
ATOM     23  H   LIG d   1       8.951   9.406  -0.029  0.00  0.00     0.062 H 
BRANCH  18  24
ATOM     24  O   LIG d   1      11.487  12.858   1.379  0.00  0.00    -0.495 OA
BRANCH  24  25
ATOM     25  C   LIG d   1      10.821  13.973   0.782  0.00  0.00     0.079 C 
ATOM     26  H   LIG d   1      11.345  14.892   1.044  0.00  0.00     0.066 H 
ATOM     27  H   LIG d   1      10.813  13.854  -0.301  0.00  0.00     0.066 H 
ATOM     28  H   LIG d   1       9.796  14.023   1.149  0.00  0.00     0.066 H 
ENDBRANCH  24  25
ENDBRANCH  18  24
ENDBRANCH   2  14
BRANCH   1  29
ATOM     29  C   LIG d   1      10.045   9.081  -3.155  0.00  0.00    -0.039 C 
ATOM     30  H   LIG d   1      10.527   9.066  -4.132  0.00  0.00     0.028 H 
ATOM     31  H   LIG d   1      10.383   9.953  -2.595  0.00  0.00     0.028 H 
ATOM     32  H   LIG d   1       8.963   9.130  -3.284  0.00  0.00     0.028 H 
ENDBRANCH   1  29
BRANCH   3  33
ATOM     33  C   LIG d   1      11.075   6.831   1.087  0.00  0.00    -0.021 C 
ATOM     34  H   LIG d   1      11.461   7.810   1.372  0.00  0.00     0.027 H 
ATOM     35  H   LIG d   1      10.014   6.773   1.331  0.00  0.00     0.027 H 
ATOM     36  H   LIG d   1      11.615   6.056   1.631  0.00  0.00     0.027 H 
ENDBRANCH   3  33
BRANCH   3  37
ATOM     37  C   LIG d   1      12.735   6.309  -0.701  0.00  0.00    -0.021 C 
ATOM     38  H   LIG d   1      13.134   5.686   0.100  0.00  0.00     0.027 H 
ATOM     39  H   LIG d   1      12.816   5.780  -1.649  0.00  0.00     0.027 H 
ATOM     40  H   LIG d   1      13.303   7.239  -0.754  0.00  0.00     0.027 H 
ENDBRANCH   3  37
BRANCH   9  41
ATOM     41  O   LIG d   1       9.817   2.730  -4.645  0.00  0.00    -0.426 OA
BRANCH  41  42
ATOM     42  C   LIG d   1       8.639   2.435  -5.219  0.00  0.00     0.309 C 
ATOM     43  O   LIG d   1       7.634   2.393  -4.550  0.00  0.00    -0.251 OA
BRANCH  42  44
ATOM     44  C   LIG d   1       8.571   2.156  -6.699  0.00  0.00     0.034 C 
ATOM     45  H   LIG d   1       9.569   2.234  -7.130  0.00  0.00     0.034 H 
ATOM     46  H   LIG d   1       8.183   1.150  -6.862  0.00  0.00     0.034 H 
ATOM     47  H   LIG d   1       7.912   2.881  -7.175  0.00  0.00     0.034 H 
ENDBRANCH  42  44
ENDBRANCH  41  42
ENDBRANCH   9  41
TORSDOF 9
ENDMDL
MODEL 8
REMARK VINA RESULT:      -4.8      6.128      9.146
REMARK  9 active torsions:
REMARK  status: ('A' for Active; 'I' for Inactive)
REMARK    1  A    between atoms: C_1  and  C_2 
REMARK    2  A    between atoms: C_3  and  C_18 
REMARK    3  A    between atoms: C_4  and  C_16 
REMARK    4  A    between atoms: C_4  and  C_17 
REMARK    5  A    between atoms: C_10  and  O_12 
REMARK    6  A    between atoms: O_12  and  C_13 
REMARK    7  A    between atoms: C_13  and  C_15 
REMARK    8  A    between atoms: C_21  and  O_24 
REMARK    9  A    between atoms: O_24  and  C_25 
ROOT
ATOM      1  C   LIG d   1       8.927   2.608  -6.115  0.00  0.00    -0.032 C 
ATOM      2  C   LIG d   1       9.619   3.396  -5.268  0.00  0.00     0.006 C 
ATOM      3  C   LIG d   1       9.594   3.116  -3.788  0.00  0.00     0.131 C 
ATOM      4  O   LIG d   1       8.356   2.518  -3.407  0.00  0.00    -0.481 OA
ATOM      5  C   LIG d   1       7.898   1.489  -4.164  0.00  0.00     0.133 A 
ATOM      6  C   LIG d   1       8.142   1.497  -5.547  0.00  0.00     0.020 A 
ATOM      7  C   LIG d   1       7.627   0.485  -6.353  0.00  0.00    -0.047 A 
ATOM      8  C   LIG d   1       6.905  -0.543  -5.781  0.00  0.00    -0.018 A 
ATOM      9  C   LIG d   1       6.685  -0.563  -4.409  0.00  0.00     0.135 A 
ATOM     10  C   LIG d   1       7.179   0.453  -3.602  0.00  0.00     0.023 A 
ATOM     11  H   LIG d   1       7.792   0.504  -7.420  0.00  0.00     0.063 H 
ATOM     12  H   LIG d   1       6.509  -1.333  -6.402  0.00  0.00     0.065 H 
ATOM     13  H   LIG d   1       7.001   0.433  -2.537  0.00  0.00     0.069 H 
ENDROOT
BRANCH   2  14
ATOM     14  C   LIG d   1      10.396   4.534  -5.790  0.00  0.00    -0.018 A 
ATOM     15  C   LIG d   1       9.768   5.759  -6.033  0.00  0.00    -0.051 A 
ATOM     16  C   LIG d   1      10.499   6.821  -6.521  0.00  0.00    -0.019 A 
ATOM     17  H   LIG d   1       8.712   5.873  -5.839  0.00  0.00     0.062 H 
ATOM     18  C   LIG d   1      11.858   6.674  -6.770  0.00  0.00     0.120 A 
ATOM     19  H   LIG d   1      10.015   7.768  -6.709  0.00  0.00     0.065 H 
ATOM     20  C   LIG d   1      12.486   5.460  -6.530  0.00  0.00    -0.019 A 
ATOM     21  C   LIG d   1      11.765   4.394  -6.037  0.00  0.00    -0.051 A 
ATOM     22  H   LIG d   1      13.543   5.351  -6.726  0.00  0.00     0.065 H 
ATOM     23  H   LIG d   1      12.255   3.451  -5.846  0.00  0.00     0.062 H 
BRANCH  18  24
ATOM     24  O   LIG d   1      12.574   7.724  -7.251  0.00  0.00    -0.495 OA
BRANCH  24  25
ATOM     25  C   LIG d   1      11.950   9.009  -7.207  0.00  0.00     0.079 C 
ATOM     26  H   LIG d   1      12.576   9.698  -6.640  0.00  0.00     0.066 H 
ATOM     27  H   LIG d   1      11.823   9.386  -8.223  0.00  0.00     0.066 H 
ATOM     28  H   LIG d   1      10.976   8.924  -6.726  0.00  0.00     0.066 H 
ENDBRANCH  24  25
ENDBRANCH  18  24
ENDBRANCH   2  14
BRANCH   1  29
ATOM     29  C   LIG d   1       8.959   2.853  -7.601  0.00  0.00    -0.039 C 
ATOM     30  H   LIG d   1       9.827   2.355  -8.032  0.00  0.00     0.028 H 
ATOM     31  H   LIG d   1       9.021   3.925  -7.792  0.00  0.00     0.028 H 
ATOM     32  H   LIG d   1       8.050   2.456  -8.053  0.00  0.00     0.028 H 
ENDBRANCH   1  29
BRANCH   3  33
ATOM     33  C   LIG d   1       9.778   4.427  -3.021  0.00  0.00    -0.021 C 
ATOM     34  H   LIG d   1      10.170   4.214  -2.026  0.00  0.00     0.027 H 
ATOM     35  H   LIG d   1      10.479   5.067  -3.558  0.00  0.00     0.027 H 
ATOM     36  H   LIG d   1       8.818   4.934  -2.933  0.00  0.00     0.027 H 
ENDBRANCH   3  33
BRANCH   3  37
ATOM     37  C   LIG d   1      10.741   2.165  -3.442  0.00  0.00    -0.021 C 
ATOM     38  H   LIG d   1      11.538   2.721  -2.949  0.00  0.00     0.027 H 
ATOM     39  H   LIG d   1      10.377   1.383  -2.777  0.00  0.00     0.027 H 
ATOM     40  H   LIG d   1      11.126   1.713  -4.357  0.00  0.00     0.027 H 
ENDBRANCH   3  37
BRANCH   9  41
ATOM     41  O   LIG d   1       5.982  -1.585  -3.855  0.00  0.00    -0.426 OA
BRANCH  41  42
ATOM     42  C   LIG d   1       4.734  -1.313  -3.442  0.00  0.00     0.309 C 
ATOM     43  O   LIG d   1       3.898  -0.955  -4.237  0.00  0.00    -0.251 OA
BRANCH  42  44
ATOM     44  C   LIG d   1       4.374  -1.455  -1.985  0.00  0.00     0.034 C 
ATOM     45  H   LIG d   1       3.808  -2.375  -1.838  0.00  0.00     0.034 H 
ATOM     46  H   LIG d   1       5.286  -1.490  -1.387  0.00  0.00     0.034 H 
ATOM     47  H   LIG d   1       3.769  -0.603  -1.675  0.00  0.00     0.034 H 
ENDBRANCH  42  44
ENDBRANCH  41  42
ENDBRANCH   9  41
TORSDOF 9
ENDMDL
MODEL 9
REMARK VINA RESULT:      -4.7      7.026      9.446
REMARK  9 active torsions:
REMARK  status: ('A' for Active; 'I' for Inactive)
REMARK    1  A    between atoms: C_1  and  C_2 
REMARK    2  A    between atoms: C_3  and  C_18 
REMARK    3  A    between atoms: C_4  and  C_16 
REMARK    4  A    between atoms: C_4  and  C_17 
REMARK    5  A    between atoms: C_10  and  O_12 
REMARK    6  A    between atoms: O_12  and  C_13 
REMARK    7  A    between atoms: C_13  and  C_15 
REMARK    8  A    between atoms: C_21  and  O_24 
REMARK    9  A    between atoms: O_24  and  C_25 
ROOT
ATOM      1  C   LIG d   1       9.900   4.926  -5.243  0.00  0.00    -0.032 C 
ATOM      2  C   LIG d   1       9.950   3.589  -5.407  0.00  0.00     0.006 C 
ATOM      3  C   LIG d   1      10.048   2.686  -4.205  0.00  0.00     0.131 C 
ATOM      4  O   LIG d   1      10.745   3.334  -3.142  0.00  0.00    -0.481 OA
ATOM      5  C   LIG d   1      10.383   4.606  -2.838  0.00  0.00     0.133 A 
ATOM      6  C   LIG d   1       9.966   5.462  -3.871  0.00  0.00     0.020 A 
ATOM      7  C   LIG d   1       9.652   6.789  -3.594  0.00  0.00    -0.047 A 
ATOM      8  C   LIG d   1       9.718   7.250  -2.294  0.00  0.00    -0.018 A 
ATOM      9  C   LIG d   1      10.107   6.396  -1.269  0.00  0.00     0.135 A 
ATOM     10  C   LIG d   1      10.441   5.076  -1.541  0.00  0.00     0.023 A 
ATOM     11  H   LIG d   1       9.356   7.455  -4.391  0.00  0.00     0.063 H 
ATOM     12  H   LIG d   1       9.469   8.277  -2.074  0.00  0.00     0.065 H 
ATOM     13  H   LIG d   1      10.745   4.418  -0.740  0.00  0.00     0.069 H 
ENDROOT
BRANCH   2  14
ATOM     14  C   LIG d   1       9.912   3.011  -6.762  0.00  0.00    -0.018 A 
ATOM     15  C   LIG d   1       8.703   2.556  -7.296  0.00  0.00    -0.051 A 
ATOM     16  C   LIG d   1       8.672   2.016  -8.563  0.00  0.00    -0.019 A 
ATOM     17  H   LIG d   1       7.795   2.628  -6.716  0.00  0.00     0.062 H 
ATOM     18  C   LIG d   1       9.841   1.925  -9.310  0.00  0.00     0.120 A 
ATOM     19  H   LIG d   1       7.739   1.665  -8.978  0.00  0.00     0.065 H 
ATOM     20  C   LIG d   1      11.044   2.376  -8.784  0.00  0.00    -0.019 A 
ATOM     21  C   LIG d   1      11.083   2.922  -7.519  0.00  0.00    -0.051 A 
ATOM     22  H   LIG d   1      11.949   2.303  -9.368  0.00  0.00     0.065 H 
ATOM     23  H   LIG d   1      12.019   3.277  -7.113  0.00  0.00     0.062 H 
BRANCH  18  24
ATOM     24  O   LIG d   1       9.805   1.392 -10.559  0.00  0.00    -0.495 OA
BRANCH  24  25
ATOM     25  C   LIG d   1       9.038   0.199 -10.734  0.00  0.00     0.079 C 
ATOM     26  H   LIG d   1       9.399  -0.339 -11.610  0.00  0.00     0.066 H 
ATOM     27  H   LIG d   1       9.141  -0.432  -9.851  0.00  0.00     0.066 H 
ATOM     28  H   LIG d   1       7.988   0.459 -10.874  0.00  0.00     0.066 H 
ENDBRANCH  24  25
ENDBRANCH  18  24
ENDBRANCH   2  14
BRANCH   1  29
ATOM     29  C   LIG d   1       9.773   5.847  -6.428  0.00  0.00    -0.039 C 
ATOM     30  H   LIG d   1       9.159   5.372  -7.193  0.00  0.00     0.028 H 
ATOM     31  H   LIG d   1      10.763   6.056  -6.834  0.00  0.00     0.028 H 
ATOM     32  H   LIG d   1       9.305   6.780  -6.114  0.00  0.00     0.028 H 
ENDBRANCH   1  29
BRANCH   3  33
ATOM     33  C   LIG d   1      10.795   1.408  -4.592  0.00  0.00    -0.021 C 
ATOM     34  H   LIG d   1      11.847   1.639  -4.760  0.00  0.00     0.027 H 
ATOM     35  H   LIG d   1      10.707   0.677  -3.788  0.00  0.00     0.027 H 
ATOM     36  H   LIG d   1      10.363   0.997  -5.505  0.00  0.00     0.027 H 
ENDBRANCH   3  33
BRANCH   3  37
ATOM     37  C   LIG d   1       8.638   2.324  -3.737  0.00  0.00    -0.021 C 
ATOM     38  H   LIG d   1       8.162   3.202  -3.302  0.00  0.00     0.027 H 
ATOM     39  H   LIG d   1       8.051   1.976  -4.587  0.00  0.00     0.027 H 
ATOM     40  H   LIG d   1       8.695   1.533  -2.989  0.00  0.00     0.027 H 
ENDBRANCH   3  37
BRANCH   9  41
ATOM     41  O   LIG d   1      10.159   6.856   0.008  0.00  0.00    -0.426 OA
BRANCH  41  42
ATOM     42  C   LIG d   1      11.186   6.440   0.765  0.00  0.00     0.309 C 
ATOM     43  O   LIG d   1      12.318   6.741   0.468  0.00  0.00    -0.251 OA
BRANCH  42  44
ATOM     44  C   LIG d   1      10.929   5.595   1.986  0.00  0.00     0.034 C 
ATOM     45  H   LIG d   1       9.914   5.197   1.946  0.00  0.00     0.034 H 
ATOM     46  H   LIG d   1      11.641   4.770   2.015  0.00  0.00     0.034 H 
ATOM     47  H   LIG d   1      11.043   6.206   2.882  0.00  0.00     0.034 H 
ENDBRANCH  42  44
ENDBRANCH  41  42
ENDBRANCH   9  41
TORSDOF 9
ENDMDL
MODEL 10
REMARK VINA RESULT:      -4.7      2.174      8.178
REMARK  9 active torsions:
REMARK  status: ('A' for Active; 'I' for Inactive)
REMARK    1  A    between atoms: C_1  and  C_2 
REMARK    2  A    between atoms: C_3  and  C_18 
REMARK    3  A    between atoms: C_4  and  C_16 
REMARK    4  A    between atoms: C_4  and  C_17 
REMARK    5  A    between atoms: C_10  and  O_12 
REMARK    6  A    between atoms: O_12  and  C_13 
REMARK    7  A    between atoms: C_13  and  C_15 
REMARK    8  A    between atoms: C_21  and  O_24 
REMARK    9  A    between atoms: O_24  and  C_25 
ROOT
ATOM      1  C   LIG d   1       3.392  -1.227  -9.775  0.00  0.00    -0.032 C 
ATOM      2  C   LIG d   1       3.935  -0.215  -9.070  0.00  0.00     0.006 C 
ATOM      3  C   LIG d   1       4.604   0.929  -9.787  0.00  0.00     0.131 C 
ATOM      4  O   LIG d   1       5.171   0.490 -11.020  0.00  0.00    -0.481 OA
ATOM      5  C   LIG d   1       4.398  -0.280 -11.826  0.00  0.00     0.133 A 
ATOM      6  C   LIG d   1       3.493  -1.184 -11.245  0.00  0.00     0.020 A 
ATOM      7  C   LIG d   1       2.737  -2.031 -12.050  0.00  0.00    -0.047 A 
ATOM      8  C   LIG d   1       2.855  -1.953 -13.423  0.00  0.00    -0.018 A 
ATOM      9  C   LIG d   1       3.732  -1.041 -13.999  0.00  0.00     0.135 A 
ATOM     10  C   LIG d   1       4.504  -0.208 -13.201  0.00  0.00     0.023 A 
ATOM     11  H   LIG d   1       2.060  -2.743 -11.603  0.00  0.00     0.063 H 
ATOM     12  H   LIG d   1       2.265  -2.604 -14.052  0.00  0.00     0.065 H 
ATOM     13  H   LIG d   1       5.186   0.496 -13.655  0.00  0.00     0.069 H 
ENDROOT
BRANCH   2  14
ATOM     14  C   LIG d   1       3.879  -0.229  -7.597  0.00  0.00    -0.018 A 
ATOM     15  C   LIG d   1       4.890  -0.857  -6.864  0.00  0.00    -0.051 A 
ATOM     16  C   LIG d   1       4.833  -0.869  -5.487  0.00  0.00    -0.019 A 
ATOM     17  H   LIG d   1       5.713  -1.333  -7.375  0.00  0.00     0.062 H 
ATOM     18  C   LIG d   1       3.774  -0.256  -4.828  0.00  0.00     0.120 A 
ATOM     19  H   LIG d   1       5.614  -1.353  -4.919  0.00  0.00     0.065 H 
ATOM     20  C   LIG d   1       2.768   0.369  -5.552  0.00  0.00    -0.019 A 
ATOM     21  C   LIG d   1       2.819   0.390  -6.929  0.00  0.00    -0.051 A 
ATOM     22  H   LIG d   1       1.947   0.844  -5.036  0.00  0.00     0.065 H 
ATOM     23  H   LIG d   1       2.038   0.881  -7.492  0.00  0.00     0.062 H 
BRANCH  18  24
ATOM     24  O   LIG d   1       3.723  -0.270  -3.471  0.00  0.00    -0.495 OA
BRANCH  24  25
ATOM     25  C   LIG d   1       3.604   0.994  -2.813  0.00  0.00     0.079 C 
ATOM     26  H   LIG d   1       3.850   1.792  -3.514  0.00  0.00     0.066 H 
ATOM     27  H   LIG d   1       2.581   1.123  -2.458  0.00  0.00     0.066 H 
ATOM     28  H   LIG d   1       4.290   1.029  -1.967  0.00  0.00     0.066 H 
ENDBRANCH  24  25
ENDBRANCH  18  24
ENDBRANCH   2  14
BRANCH   1  29
ATOM     29  C   LIG d   1       2.694  -2.367  -9.080  0.00  0.00    -0.039 C 
ATOM     30  H   LIG d   1       3.423  -3.133  -8.818  0.00  0.00     0.028 H 
ATOM     31  H   LIG d   1       1.941  -2.792  -9.744  0.00  0.00     0.028 H 
ATOM     32  H   LIG d   1       2.212  -1.999  -8.174  0.00  0.00     0.028 H 
ENDBRANCH   1  29
BRANCH   3  33
ATOM     33  C   LIG d   1       5.709   1.506  -8.900  0.00  0.00    -0.021 C 
ATOM     34  H   LIG d   1       6.033   0.749  -8.185  0.00  0.00     0.027 H 
ATOM     35  H   LIG d   1       6.554   1.805  -9.520  0.00  0.00     0.027 H 
ATOM     36  H   LIG d   1       5.328   2.374  -8.362  0.00  0.00     0.027 H 
ENDBRANCH   3  33
BRANCH   3  37
ATOM     37  C   LIG d   1       3.564   2.016 -10.067  0.00  0.00    -0.021 C 
ATOM     38  H   LIG d   1       2.601   1.712  -9.659  0.00  0.00     0.027 H 
ATOM     39  H   LIG d   1       3.879   2.949  -9.601  0.00  0.00     0.027 H 
ATOM     40  H   LIG d   1       3.473   2.161 -11.144  0.00  0.00     0.027 H 
ENDBRANCH   3  37
BRANCH   9  41
ATOM     41  O   LIG d   1       3.832  -0.966 -15.352  0.00  0.00    -0.426 OA
BRANCH  41  42
ATOM     42  C   LIG d   1       5.039  -1.206 -15.888  0.00  0.00     0.309 C 
ATOM     43  O   LIG d   1       5.642  -0.320 -16.445  0.00  0.00    -0.251 OA
BRANCH  42  44
ATOM     44  C   LIG d   1       5.644  -2.584 -15.794  0.00  0.00     0.034 C 
ATOM     45  H   LIG d   1       5.371  -3.037 -14.841  0.00  0.00     0.034 H 
ATOM     46  H   LIG d   1       5.270  -3.202 -16.611  0.00  0.00     0.034 H 
ATOM     47  H   LIG d   1       6.730  -2.510 -15.863  0.00  0.00     0.034 H 
ENDBRANCH  42  44
ENDBRANCH  41  42
ENDBRANCH   9  41
TORSDOF 9
ENDMDL
