MODEL 1
REMARK VINA RESULT:      -6.2      0.000      0.000
REMARK  8 active torsions:
REMARK  status: ('A' for Active; 'I' for Inactive)
REMARK    1  A    between atoms: C_1  and  O_2 
REMARK    2  A    between atoms: O_2  and  C_3 
REMARK    3  A    between atoms: C_6  and  C_11 
REMARK    4  A    between atoms: C_8  and  O_9 
REMARK    5  A    between atoms: O_9  and  C_10 
REMARK    6  A    between atoms: C_16  and  O_22 
REMARK    7  A    between atoms: O_22  and  C_23 
REMARK    8  A    between atoms: C_23  and  C_24 
REMARK       I    between atoms: C_24  and  N_26 
ROOT
ATOM      1  C   LIG d   1       6.176  -2.905  -4.595  0.00  0.00     0.067 C 
ATOM      2  C   LIG d   1       7.068  -3.896  -4.922  0.00  0.00    -0.036 C 
ATOM      3  C   LIG d   1       6.562  -5.195  -5.185  0.00  0.00     0.018 A 
ATOM      4  C   LIG d   1       7.435  -6.283  -5.326  0.00  0.00    -0.048 A 
ATOM      5  C   LIG d   1       6.932  -7.533  -5.539  0.00  0.00    -0.019 A 
ATOM      6  C   LIG d   1       5.557  -7.739  -5.626  0.00  0.00     0.125 A 
ATOM      7  C   LIG d   1       4.679  -6.673  -5.508  0.00  0.00     0.023 A 
ATOM      8  C   LIG d   1       5.172  -5.394  -5.299  0.00  0.00     0.143 A 
ATOM      9  O   LIG d   1       4.329  -4.337  -5.224  0.00  0.00    -0.422 OA
ATOM     10  C   LIG d   1       4.753  -3.272  -4.500  0.00  0.00     0.345 C 
ATOM     11  O   LIG d   1       3.986  -2.638  -3.800  0.00  0.00    -0.244 OA
ATOM     12  H   LIG d   1       8.127  -3.691  -4.978  0.00  0.00     0.063 H 
ATOM     13  H   LIG d   1       8.502  -6.132  -5.266  0.00  0.00     0.063 H 
ATOM     14  H   LIG d   1       7.607  -8.371  -5.642  0.00  0.00     0.065 H 
ATOM     15  H   LIG d   1       3.614  -6.837  -5.579  0.00  0.00     0.069 H 
ENDROOT
BRANCH   1  16
ATOM     16  C   LIG d   1       6.629  -1.517  -4.339  0.00  0.00    -0.007 A 
ATOM     17  C   LIG d   1       7.767  -1.026  -4.978  0.00  0.00    -0.050 A 
ATOM     18  C   LIG d   1       8.188   0.268  -4.740  0.00  0.00    -0.016 A 
ATOM     19  H   LIG d   1       8.319  -1.656  -5.659  0.00  0.00     0.062 H 
ATOM     20  C   LIG d   1       7.481   1.080  -3.866  0.00  0.00     0.162 A 
ATOM     21  H   LIG d   1       9.069   0.647  -5.236  0.00  0.00     0.066 H 
ATOM     22  C   LIG d   1       6.348   0.593  -3.221  0.00  0.00     0.162 A 
ATOM     23  C   LIG d   1       5.918  -0.701  -3.460  0.00  0.00    -0.008 A 
ATOM     24  H   LIG d   1       5.036  -1.078  -2.965  0.00  0.00     0.066 H 
BRANCH  20  25
ATOM     25  O   LIG d   1       7.900   2.353  -3.635  0.00  0.00    -0.491 OA
BRANCH  25  26
ATOM     26  C   LIG d   1       9.311   2.570  -3.570  0.00  0.00     0.079 C 
ATOM     27  H   LIG d   1       9.795   2.065  -4.405  0.00  0.00     0.066 H 
ATOM     28  H   LIG d   1       9.516   3.639  -3.625  0.00  0.00     0.066 H 
ATOM     29  H   LIG d   1       9.697   2.174  -2.632  0.00  0.00     0.066 H 
ENDBRANCH  25  26
ENDBRANCH  20  25
BRANCH  22  30
ATOM     30  O   LIG d   1       5.659   1.389  -2.361  0.00  0.00    -0.491 OA
BRANCH  30  31
ATOM     31  C   LIG d   1       4.351   0.959  -1.983  0.00  0.00     0.079 C 
ATOM     32  H   LIG d   1       3.612   1.437  -2.625  0.00  0.00     0.066 H 
ATOM     33  H   LIG d   1       4.279  -0.124  -2.089  0.00  0.00     0.066 H 
ATOM     34  H   LIG d   1       4.162   1.235  -0.945  0.00  0.00     0.066 H 
ENDBRANCH  30  31
ENDBRANCH  22  30
ENDBRANCH   1  16
BRANCH   6  35
ATOM     35  O   LIG d   1       5.073  -8.991  -5.828  0.00  0.00    -0.483 OA
BRANCH  35  36
ATOM     36  C   LIG d   1       5.470  -9.998  -4.896  0.00  0.00     0.165 C 
ATOM     37  H   LIG d   1       5.519 -10.962  -5.400  0.00  0.00     0.080 H 
ATOM     38  H   LIG d   1       6.451  -9.750  -4.489  0.00  0.00     0.080 H 
BRANCH  36  39
ATOM     39  C   LIG d   1       4.467 -10.069  -3.773  0.00  0.00     0.248 C 
ATOM     40  O   LIG d   1       3.301  -9.807  -3.985  0.00  0.00    -0.272 OA
ATOM     41  N   LIG d   1       4.863 -10.424  -2.535  0.00  0.00    -0.327 N 
ATOM     42  H   LIG d   1       5.795 -10.634  -2.367  0.00  0.00     0.145 HD
ATOM     43  H   LIG d   1       4.217 -10.469  -1.814  0.00  0.00     0.145 HD
ENDBRANCH  36  39
ENDBRANCH  35  36
ENDBRANCH   6  35
TORSDOF 8
ENDMDL
MODEL 2
REMARK VINA RESULT:      -6.1      3.196      5.906
REMARK  8 active torsions:
REMARK  status: ('A' for Active; 'I' for Inactive)
REMARK    1  A    between atoms: C_1  and  O_2 
REMARK    2  A    between atoms: O_2  and  C_3 
REMARK    3  A    between atoms: C_6  and  C_11 
REMARK    4  A    between atoms: C_8  and  O_9 
REMARK    5  A    between atoms: O_9  and  C_10 
REMARK    6  A    between atoms: C_16  and  O_22 
REMARK    7  A    between atoms: O_22  and  C_23 
REMARK    8  A    between atoms: C_23  and  C_24 
REMARK       I    between atoms: C_24  and  N_26 
ROOT
ATOM      1  C   LIG d   1       8.379   1.486  -4.073  0.00  0.00     0.067 C 
ATOM      2  C   LIG d   1       7.200   1.309  -3.391  0.00  0.00    -0.036 C 
ATOM      3  C   LIG d   1       6.504   0.084  -3.559  0.00  0.00     0.018 A 
ATOM      4  C   LIG d   1       5.207  -0.072  -3.049  0.00  0.00    -0.048 A 
ATOM      5  C   LIG d   1       4.534  -1.240  -3.252  0.00  0.00    -0.019 A 
ATOM      6  C   LIG d   1       5.127  -2.286  -3.957  0.00  0.00     0.125 A 
ATOM      7  C   LIG d   1       6.415  -2.158  -4.451  0.00  0.00     0.023 A 
ATOM      8  C   LIG d   1       7.117  -0.980  -4.247  0.00  0.00     0.143 A 
ATOM      9  O   LIG d   1       8.392  -0.855  -4.688  0.00  0.00    -0.422 OA
ATOM     10  C   LIG d   1       8.818   0.401  -4.967  0.00  0.00     0.345 C 
ATOM     11  O   LIG d   1       9.542   0.626  -5.920  0.00  0.00    -0.244 OA
ATOM     12  H   LIG d   1       6.815   2.083  -2.744  0.00  0.00     0.063 H 
ATOM     13  H   LIG d   1       4.742   0.732  -2.498  0.00  0.00     0.063 H 
ATOM     14  H   LIG d   1       3.532  -1.356  -2.864  0.00  0.00     0.065 H 
ATOM     15  H   LIG d   1       6.871  -2.973  -4.993  0.00  0.00     0.069 H 
ENDROOT
BRANCH   1  16
ATOM     16  C   LIG d   1       9.177   2.725  -3.921  0.00  0.00    -0.007 A 
ATOM     17  C   LIG d   1      10.153   2.809  -2.929  0.00  0.00    -0.050 A 
ATOM     18  C   LIG d   1      10.896   3.964  -2.789  0.00  0.00    -0.016 A 
ATOM     19  H   LIG d   1      10.329   1.971  -2.271  0.00  0.00     0.062 H 
ATOM     20  C   LIG d   1      10.673   5.042  -3.632  0.00  0.00     0.162 A 
ATOM     21  H   LIG d   1      11.653   4.028  -2.021  0.00  0.00     0.066 H 
ATOM     22  C   LIG d   1       9.696   4.966  -4.620  0.00  0.00     0.162 A 
ATOM     23  C   LIG d   1       8.952   3.809  -4.769  0.00  0.00    -0.008 A 
ATOM     24  H   LIG d   1       8.197   3.746  -5.539  0.00  0.00     0.066 H 
BRANCH  20  25
ATOM     25  O   LIG d   1      11.408   6.178  -3.490  0.00  0.00    -0.491 OA
BRANCH  25  26
ATOM     26  C   LIG d   1      11.040   7.060  -2.427  0.00  0.00     0.079 C 
ATOM     27  H   LIG d   1       9.957   7.178  -2.411  0.00  0.00     0.066 H 
ATOM     28  H   LIG d   1      11.374   6.642  -1.477  0.00  0.00     0.066 H 
ATOM     29  H   LIG d   1      11.509   8.031  -2.583  0.00  0.00     0.066 H 
ENDBRANCH  25  26
ENDBRANCH  20  25
BRANCH  22  30
ATOM     30  O   LIG d   1       9.476   6.026  -5.443  0.00  0.00    -0.491 OA
BRANCH  30  31
ATOM     31  C   LIG d   1       9.917   5.902  -6.796  0.00  0.00     0.079 C 
ATOM     32  H   LIG d   1       9.502   6.716  -7.389  0.00  0.00     0.066 H 
ATOM     33  H   LIG d   1      11.006   5.946  -6.828  0.00  0.00     0.066 H 
ATOM     34  H   LIG d   1       9.580   4.948  -7.203  0.00  0.00     0.066 H 
ENDBRANCH  30  31
ENDBRANCH  22  30
ENDBRANCH   1  16
BRANCH   6  35
ATOM     35  O   LIG d   1       4.440  -3.439  -4.159  0.00  0.00    -0.483 OA
BRANCH  35  36
ATOM     36  C   LIG d   1       4.998  -4.373  -5.085  0.00  0.00     0.165 C 
ATOM     37  H   LIG d   1       5.973  -4.019  -5.416  0.00  0.00     0.080 H 
ATOM     38  H   LIG d   1       5.109  -5.344  -4.600  0.00  0.00     0.080 H 
BRANCH  36  39
ATOM     39  C   LIG d   1       4.083  -4.511  -6.274  0.00  0.00     0.248 C 
ATOM     40  O   LIG d   1       3.356  -5.478  -6.371  0.00  0.00    -0.272 OA
ATOM     41  N   LIG d   1       4.070  -3.559  -7.229  0.00  0.00    -0.327 N 
ATOM     42  H   LIG d   1       4.650  -2.786  -7.150  0.00  0.00     0.145 HD
ATOM     43  H   LIG d   1       3.480  -3.648  -7.994  0.00  0.00     0.145 HD
ENDBRANCH  36  39
ENDBRANCH  35  36
ENDBRANCH   6  35
TORSDOF 8
ENDMDL
MODEL 3
REMARK VINA RESULT:      -6.1      7.282      8.772
REMARK  8 active torsions:
REMARK  status: ('A' for Active; 'I' for Inactive)
REMARK    1  A    between atoms: C_1  and  O_2 
REMARK    2  A    between atoms: O_2  and  C_3 
REMARK    3  A    between atoms: C_6  and  C_11 
REMARK    4  A    between atoms: C_8  and  O_9 
REMARK    5  A    between atoms: O_9  and  C_10 
REMARK    6  A    between atoms: C_16  and  O_22 
REMARK    7  A    between atoms: O_22  and  C_23 
REMARK    8  A    between atoms: C_23  and  C_24 
REMARK       I    between atoms: C_24  and  N_26 
ROOT
ATOM      1  C   LIG d   1       3.694  -0.361  -7.994  0.00  0.00     0.067 C 
ATOM      2  C   LIG d   1       2.783  -1.109  -8.698  0.00  0.00    -0.036 C 
ATOM      3  C   LIG d   1       2.896  -1.148 -10.112  0.00  0.00     0.018 A 
ATOM      4  C   LIG d   1       1.883  -1.727 -10.890  0.00  0.00    -0.048 A 
ATOM      5  C   LIG d   1       1.985  -1.722 -12.251  0.00  0.00    -0.019 A 
ATOM      6  C   LIG d   1       3.093  -1.153 -12.875  0.00  0.00     0.125 A 
ATOM      7  C   LIG d   1       4.113  -0.594 -12.123  0.00  0.00     0.023 A 
ATOM      8  C   LIG d   1       4.030  -0.597 -10.739  0.00  0.00     0.143 A 
ATOM      9  O   LIG d   1       5.038  -0.091  -9.989  0.00  0.00    -0.422 OA
ATOM     10  C   LIG d   1       4.705   0.384  -8.764  0.00  0.00     0.345 C 
ATOM     11  O   LIG d   1       5.225   1.387  -8.312  0.00  0.00    -0.244 OA
ATOM     12  H   LIG d   1       2.002  -1.653  -8.188  0.00  0.00     0.063 H 
ATOM     13  H   LIG d   1       1.024  -2.175 -10.414  0.00  0.00     0.063 H 
ATOM     14  H   LIG d   1       1.201  -2.164 -12.848  0.00  0.00     0.065 H 
ATOM     15  H   LIG d   1       4.971  -0.157 -12.613  0.00  0.00     0.069 H 
ENDROOT
BRANCH   1  16
ATOM     16  C   LIG d   1       3.659  -0.300  -6.514  0.00  0.00    -0.007 A 
ATOM     17  C   LIG d   1       2.706   0.489  -5.871  0.00  0.00    -0.050 A 
ATOM     18  C   LIG d   1       2.673   0.544  -4.492  0.00  0.00    -0.016 A 
ATOM     19  H   LIG d   1       1.994   1.056  -6.451  0.00  0.00     0.062 H 
ATOM     20  C   LIG d   1       3.586  -0.183  -3.744  0.00  0.00     0.162 A 
ATOM     21  H   LIG d   1       1.934   1.156  -3.995  0.00  0.00     0.066 H 
ATOM     22  C   LIG d   1       4.543  -0.968  -4.381  0.00  0.00     0.162 A 
ATOM     23  C   LIG d   1       4.577  -1.032  -5.763  0.00  0.00    -0.008 A 
ATOM     24  H   LIG d   1       5.316  -1.645  -6.258  0.00  0.00     0.066 H 
BRANCH  20  25
ATOM     25  O   LIG d   1       3.550  -0.125  -2.386  0.00  0.00    -0.491 OA
BRANCH  25  26
ATOM     26  C   LIG d   1       4.299   0.920  -1.760  0.00  0.00     0.079 C 
ATOM     27  H   LIG d   1       4.183   1.841  -2.330  0.00  0.00     0.066 H 
ATOM     28  H   LIG d   1       3.931   1.072  -0.746  0.00  0.00     0.066 H 
ATOM     29  H   LIG d   1       5.352   0.642  -1.728  0.00  0.00     0.066 H 
ENDBRANCH  25  26
ENDBRANCH  20  25
BRANCH  22  30
ATOM     30  O   LIG d   1       5.441  -1.677  -3.646  0.00  0.00    -0.491 OA
BRANCH  30  31
ATOM     31  C   LIG d   1       6.775  -1.170  -3.584  0.00  0.00     0.079 C 
ATOM     32  H   LIG d   1       6.961  -0.755  -2.594  0.00  0.00     0.066 H 
ATOM     33  H   LIG d   1       7.481  -1.978  -3.778  0.00  0.00     0.066 H 
ATOM     34  H   LIG d   1       6.903  -0.388  -4.334  0.00  0.00     0.066 H 
ENDBRANCH  30  31
ENDBRANCH  22  30
ENDBRANCH   1  16
BRANCH   6  35
ATOM     35  O   LIG d   1       3.175  -1.148 -14.231  0.00  0.00    -0.483 OA
BRANCH  35  36
ATOM     36  C   LIG d   1       4.378  -0.634 -14.806  0.00  0.00     0.165 C 
ATOM     37  H   LIG d   1       4.874   0.019 -14.088  0.00  0.00     0.080 H 
ATOM     38  H   LIG d   1       5.040  -1.461 -15.063  0.00  0.00     0.080 H 
BRANCH  36  39
ATOM     39  C   LIG d   1       4.046   0.148 -16.051  0.00  0.00     0.248 C 
ATOM     40  O   LIG d   1       3.245  -0.294 -16.848  0.00  0.00    -0.272 OA
ATOM     41  N   LIG d   1       4.638   1.337 -16.278  0.00  0.00    -0.327 N 
ATOM     42  H   LIG d   1       5.278   1.690 -15.640  0.00  0.00     0.145 HD
ATOM     43  H   LIG d   1       4.424   1.840 -17.080  0.00  0.00     0.145 HD
ENDBRANCH  36  39
ENDBRANCH  35  36
ENDBRANCH   6  35
TORSDOF 8
ENDMDL
MODEL 4
REMARK VINA RESULT:      -5.9      2.995      8.787
REMARK  8 active torsions:
REMARK  status: ('A' for Active; 'I' for Inactive)
REMARK    1  A    between atoms: C_1  and  O_2 
REMARK    2  A    between atoms: O_2  and  C_3 
REMARK    3  A    between atoms: C_6  and  C_11 
REMARK    4  A    between atoms: C_8  and  O_9 
REMARK    5  A    between atoms: O_9  and  C_10 
REMARK    6  A    between atoms: C_16  and  O_22 
REMARK    7  A    between atoms: O_22  and  C_23 
REMARK    8  A    between atoms: C_23  and  C_24 
REMARK       I    between atoms: C_24  and  N_26 
ROOT
ATOM      1  C   LIG d   1       5.522  -5.900  -5.919  0.00  0.00     0.067 C 
ATOM      2  C   LIG d   1       6.710  -5.355  -5.500  0.00  0.00    -0.036 C 
ATOM      3  C   LIG d   1       6.678  -4.100  -4.839  0.00  0.00     0.018 A 
ATOM      4  C   LIG d   1       7.867  -3.407  -4.569  0.00  0.00    -0.048 A 
ATOM      5  C   LIG d   1       7.818  -2.183  -3.969  0.00  0.00    -0.019 A 
ATOM      6  C   LIG d   1       6.595  -1.616  -3.614  0.00  0.00     0.125 A 
ATOM      7  C   LIG d   1       5.411  -2.294  -3.855  0.00  0.00     0.023 A 
ATOM      8  C   LIG d   1       5.442  -3.542  -4.457  0.00  0.00     0.143 A 
ATOM      9  O   LIG d   1       4.296  -4.235  -4.662  0.00  0.00    -0.422 OA
ATOM     10  C   LIG d   1       4.295  -5.119  -5.689  0.00  0.00     0.345 C 
ATOM     11  O   LIG d   1       3.315  -5.267  -6.395  0.00  0.00    -0.244 OA
ATOM     12  H   LIG d   1       7.645  -5.870  -5.667  0.00  0.00     0.063 H 
ATOM     13  H   LIG d   1       8.819  -3.841  -4.835  0.00  0.00     0.063 H 
ATOM     14  H   LIG d   1       8.735  -1.649  -3.767  0.00  0.00     0.065 H 
ATOM     15  H   LIG d   1       4.466  -1.851  -3.575  0.00  0.00     0.069 H 
ENDROOT
BRANCH   1  16
ATOM     16  C   LIG d   1       5.476  -7.223  -6.586  0.00  0.00    -0.007 A 
ATOM     17  C   LIG d   1       6.105  -7.406  -7.817  0.00  0.00    -0.050 A 
ATOM     18  C   LIG d   1       6.063  -8.638  -8.437  0.00  0.00    -0.016 A 
ATOM     19  H   LIG d   1       6.626  -6.584  -8.286  0.00  0.00     0.062 H 
ATOM     20  C   LIG d   1       5.395  -9.696  -7.838  0.00  0.00     0.162 A 
ATOM     21  H   LIG d   1       6.551  -8.779  -9.391  0.00  0.00     0.066 H 
ATOM     22  C   LIG d   1       4.760  -9.517  -6.612  0.00  0.00     0.162 A 
ATOM     23  C   LIG d   1       4.805  -8.286  -5.984  0.00  0.00    -0.008 A 
ATOM     24  H   LIG d   1       4.317  -8.147  -5.030  0.00  0.00     0.066 H 
BRANCH  20  25
ATOM     25  O   LIG d   1       5.355 -10.908  -8.454  0.00  0.00    -0.491 OA
BRANCH  25  26
ATOM     26  C   LIG d   1       6.432 -11.808  -8.184  0.00  0.00     0.079 C 
ATOM     27  H   LIG d   1       6.471 -12.571  -8.961  0.00  0.00     0.066 H 
ATOM     28  H   LIG d   1       7.371 -11.257  -8.169  0.00  0.00     0.066 H 
ATOM     29  H   LIG d   1       6.273 -12.284  -7.216  0.00  0.00     0.066 H 
ENDBRANCH  25  26
ENDBRANCH  20  25
BRANCH  22  30
ATOM     30  O   LIG d   1       4.102 -10.554  -6.030  0.00  0.00    -0.491 OA
BRANCH  30  31
ATOM     31  C   LIG d   1       4.409 -10.833  -4.663  0.00  0.00     0.079 C 
ATOM     32  H   LIG d   1       5.044 -11.717  -4.607  0.00  0.00     0.066 H 
ATOM     33  H   LIG d   1       4.932  -9.982  -4.227  0.00  0.00     0.066 H 
ATOM     34  H   LIG d   1       3.487 -11.015  -4.111  0.00  0.00     0.066 H 
ENDBRANCH  30  31
ENDBRANCH  22  30
ENDBRANCH   1  16
BRANCH   6  35
ATOM     35  O   LIG d   1       6.563  -0.393  -3.027  0.00  0.00    -0.483 OA
BRANCH  35  36
ATOM     36  C   LIG d   1       5.824   0.630  -3.698  0.00  0.00     0.165 C 
ATOM     37  H   LIG d   1       6.509   1.395  -4.061  0.00  0.00     0.080 H 
ATOM     38  H   LIG d   1       5.286   0.195  -4.541  0.00  0.00     0.080 H 
BRANCH  36  39
ATOM     39  C   LIG d   1       4.839   1.249  -2.741  0.00  0.00     0.248 C 
ATOM     40  O   LIG d   1       4.972   1.087  -1.545  0.00  0.00    -0.272 OA
ATOM     41  N   LIG d   1       3.812   1.984  -3.211  0.00  0.00    -0.327 N 
ATOM     42  H   LIG d   1       3.707   2.113  -4.167  0.00  0.00     0.145 HD
ATOM     43  H   LIG d   1       3.178   2.382  -2.594  0.00  0.00     0.145 HD
ENDBRANCH  36  39
ENDBRANCH  35  36
ENDBRANCH   6  35
TORSDOF 8
ENDMDL
MODEL 5
REMARK VINA RESULT:      -5.8      8.644     11.235
REMARK  8 active torsions:
REMARK  status: ('A' for Active; 'I' for Inactive)
REMARK    1  A    between atoms: C_1  and  O_2 
REMARK    2  A    between atoms: O_2  and  C_3 
REMARK    3  A    between atoms: C_6  and  C_11 
REMARK    4  A    between atoms: C_8  and  O_9 
REMARK    5  A    between atoms: O_9  and  C_10 
REMARK    6  A    between atoms: C_16  and  O_22 
REMARK    7  A    between atoms: O_22  and  C_23 
REMARK    8  A    between atoms: C_23  and  C_24 
REMARK       I    between atoms: C_24  and  N_26 
ROOT
ATOM      1  C   LIG d   1      10.783 -10.619   1.296  0.00  0.00     0.067 C 
ATOM      2  C   LIG d   1       9.915 -11.570   0.819  0.00  0.00    -0.036 C 
ATOM      3  C   LIG d   1       8.987 -11.189  -0.185  0.00  0.00     0.018 A 
ATOM      4  C   LIG d   1       7.953 -12.058  -0.563  0.00  0.00    -0.048 A 
ATOM      5  C   LIG d   1       7.043 -11.663  -1.500  0.00  0.00    -0.019 A 
ATOM      6  C   LIG d   1       7.137 -10.405  -2.091  0.00  0.00     0.125 A 
ATOM      7  C   LIG d   1       8.163  -9.541  -1.745  0.00  0.00     0.023 A 
ATOM      8  C   LIG d   1       9.100  -9.928  -0.800  0.00  0.00     0.143 A 
ATOM      9  O   LIG d   1      10.132  -9.110  -0.482  0.00  0.00    -0.422 OA
ATOM     10  C   LIG d   1      10.660  -9.253   0.759  0.00  0.00     0.345 C 
ATOM     11  O   LIG d   1      11.024  -8.289   1.406  0.00  0.00    -0.244 OA
ATOM     12  H   LIG d   1       9.940 -12.581   1.197  0.00  0.00     0.063 H 
ATOM     13  H   LIG d   1       7.876 -13.037  -0.113  0.00  0.00     0.063 H 
ATOM     14  H   LIG d   1       6.244 -12.332  -1.785  0.00  0.00     0.065 H 
ATOM     15  H   LIG d   1       8.232  -8.568  -2.209  0.00  0.00     0.069 H 
ENDROOT
BRANCH   1  16
ATOM     16  C   LIG d   1      11.801 -10.952   2.319  0.00  0.00    -0.007 A 
ATOM     17  C   LIG d   1      13.144 -11.056   1.959  0.00  0.00    -0.050 A 
ATOM     18  C   LIG d   1      14.092 -11.366   2.914  0.00  0.00    -0.016 A 
ATOM     19  H   LIG d   1      13.443 -10.895   0.934  0.00  0.00     0.062 H 
ATOM     20  C   LIG d   1      13.712 -11.575   4.231  0.00  0.00     0.162 A 
ATOM     21  H   LIG d   1      15.133 -11.446   2.633  0.00  0.00     0.066 H 
ATOM     22  C   LIG d   1      12.372 -11.478   4.595  0.00  0.00     0.162 A 
ATOM     23  C   LIG d   1      11.418 -11.162   3.644  0.00  0.00    -0.008 A 
ATOM     24  H   LIG d   1      10.379 -11.081   3.926  0.00  0.00     0.066 H 
BRANCH  20  25
ATOM     25  O   LIG d   1      14.650 -11.880   5.167  0.00  0.00    -0.491 OA
BRANCH  25  26
ATOM     26  C   LIG d   1      16.009 -11.942   4.729  0.00  0.00     0.079 C 
ATOM     27  H   LIG d   1      16.595 -12.520   5.442  0.00  0.00     0.066 H 
ATOM     28  H   LIG d   1      16.053 -12.421   3.751  0.00  0.00     0.066 H 
ATOM     29  H   LIG d   1      16.414 -10.933   4.658  0.00  0.00     0.066 H 
ENDBRANCH  25  26
ENDBRANCH  20  25
BRANCH  22  30
ATOM     30  O   LIG d   1      12.001 -11.688   5.886  0.00  0.00    -0.491 OA
BRANCH  30  31
ATOM     31  C   LIG d   1      11.056 -12.731   6.128  0.00  0.00     0.079 C 
ATOM     32  H   LIG d   1      11.483 -13.686   5.821  0.00  0.00     0.066 H 
ATOM     33  H   LIG d   1      10.817 -12.766   7.192  0.00  0.00     0.066 H 
ATOM     34  H   LIG d   1      10.147 -12.541   5.558  0.00  0.00     0.066 H 
ENDBRANCH  30  31
ENDBRANCH  22  30
ENDBRANCH   1  16
BRANCH   6  35
ATOM     35  O   LIG d   1       6.217 -10.024  -3.015  0.00  0.00    -0.483 OA
BRANCH  35  36
ATOM     36  C   LIG d   1       5.172 -10.952  -3.311  0.00  0.00     0.165 C 
ATOM     37  H   LIG d   1       5.429 -11.516  -4.207  0.00  0.00     0.080 H 
ATOM     38  H   LIG d   1       5.048 -11.639  -2.472  0.00  0.00     0.080 H 
BRANCH  36  39
ATOM     39  C   LIG d   1       3.884 -10.204  -3.540  0.00  0.00     0.248 C 
ATOM     40  O   LIG d   1       3.888  -9.175  -4.184  0.00  0.00    -0.272 OA
ATOM     41  N   LIG d   1       2.730 -10.677  -3.031  0.00  0.00    -0.327 N 
ATOM     42  H   LIG d   1       2.728 -11.500  -2.517  0.00  0.00     0.145 HD
ATOM     43  H   LIG d   1       1.901 -10.195  -3.179  0.00  0.00     0.145 HD
ENDBRANCH  36  39
ENDBRANCH  35  36
ENDBRANCH   6  35
TORSDOF 8
ENDMDL
MODEL 6
REMARK VINA RESULT:      -5.8      3.040      3.733
REMARK  8 active torsions:
REMARK  status: ('A' for Active; 'I' for Inactive)
REMARK    1  A    between atoms: C_1  and  O_2 
REMARK    2  A    between atoms: O_2  and  C_3 
REMARK    3  A    between atoms: C_6  and  C_11 
REMARK    4  A    between atoms: C_8  and  O_9 
REMARK    5  A    between atoms: O_9  and  C_10 
REMARK    6  A    between atoms: C_16  and  O_22 
REMARK    7  A    between atoms: O_22  and  C_23 
REMARK    8  A    between atoms: C_23  and  C_24 
REMARK       I    between atoms: C_24  and  N_26 
ROOT
ATOM      1  C   LIG d   1       5.450  -4.043  -5.828  0.00  0.00     0.067 C 
ATOM      2  C   LIG d   1       6.746  -4.122  -5.380  0.00  0.00    -0.036 C 
ATOM      3  C   LIG d   1       7.271  -5.402  -5.064  0.00  0.00     0.018 A 
ATOM      4  C   LIG d   1       8.510  -5.523  -4.419  0.00  0.00    -0.048 A 
ATOM      5  C   LIG d   1       8.984  -6.757  -4.085  0.00  0.00    -0.019 A 
ATOM      6  C   LIG d   1       8.250  -7.903  -4.386  0.00  0.00     0.125 A 
ATOM      7  C   LIG d   1       7.033  -7.805  -5.041  0.00  0.00     0.023 A 
ATOM      8  C   LIG d   1       6.540  -6.559  -5.395  0.00  0.00     0.143 A 
ATOM      9  O   LIG d   1       5.371  -6.450  -6.072  0.00  0.00    -0.422 OA
ATOM     10  C   LIG d   1       4.680  -5.295  -5.909  0.00  0.00     0.345 C 
ATOM     11  O   LIG d   1       3.465  -5.291  -5.836  0.00  0.00    -0.244 OA
ATOM     12  H   LIG d   1       7.349  -3.233  -5.273  0.00  0.00     0.063 H 
ATOM     13  H   LIG d   1       9.087  -4.640  -4.186  0.00  0.00     0.063 H 
ATOM     14  H   LIG d   1       9.936  -6.847  -3.582  0.00  0.00     0.065 H 
ATOM     15  H   LIG d   1       6.470  -8.697  -5.275  0.00  0.00     0.069 H 
ENDROOT
BRANCH   1  16
ATOM     16  C   LIG d   1       4.846  -2.744  -6.208  0.00  0.00    -0.007 A 
ATOM     17  C   LIG d   1       4.460  -2.514  -7.528  0.00  0.00    -0.050 A 
ATOM     18  C   LIG d   1       3.897  -1.305  -7.881  0.00  0.00    -0.016 A 
ATOM     19  H   LIG d   1       4.600  -3.282  -8.274  0.00  0.00     0.062 H 
ATOM     20  C   LIG d   1       3.715  -0.316  -6.926  0.00  0.00     0.162 A 
ATOM     21  H   LIG d   1       3.597  -1.128  -8.904  0.00  0.00     0.066 H 
ATOM     22  C   LIG d   1       4.104  -0.538  -5.608  0.00  0.00     0.162 A 
ATOM     23  C   LIG d   1       4.664  -1.751  -5.247  0.00  0.00    -0.008 A 
ATOM     24  H   LIG d   1       4.962  -1.926  -4.223  0.00  0.00     0.066 H 
BRANCH  20  25
ATOM     25  O   LIG d   1       3.160   0.874  -7.279  0.00  0.00    -0.491 OA
BRANCH  25  26
ATOM     26  C   LIG d   1       2.989   1.122  -8.676  0.00  0.00     0.079 C 
ATOM     27  H   LIG d   1       3.051   0.181  -9.222  0.00  0.00     0.066 H 
ATOM     28  H   LIG d   1       2.013   1.577  -8.847  0.00  0.00     0.066 H 
ATOM     29  H   LIG d   1       3.771   1.796  -9.024  0.00  0.00     0.066 H 
ENDBRANCH  25  26
ENDBRANCH  20  25
BRANCH  22  30
ATOM     30  O   LIG d   1       3.930   0.435  -4.674  0.00  0.00    -0.491 OA
BRANCH  30  31
ATOM     31  C   LIG d   1       2.912   0.221  -3.695  0.00  0.00     0.079 C 
ATOM     32  H   LIG d   1       2.300  -0.632  -3.988  0.00  0.00     0.066 H 
ATOM     33  H   LIG d   1       3.374   0.021  -2.728  0.00  0.00     0.066 H 
ATOM     34  H   LIG d   1       2.285   1.109  -3.621  0.00  0.00     0.066 H 
ENDBRANCH  30  31
ENDBRANCH  22  30
ENDBRANCH   1  16
BRANCH   6  35
ATOM     35  O   LIG d   1       8.731  -9.124  -4.038  0.00  0.00    -0.483 OA
BRANCH  35  36
ATOM     36  C   LIG d   1       7.874  -9.960  -3.259  0.00  0.00     0.165 C 
ATOM     37  H   LIG d   1       6.854  -9.888  -3.635  0.00  0.00     0.080 H 
ATOM     38  H   LIG d   1       8.214 -10.994  -3.329  0.00  0.00     0.080 H 
BRANCH  36  39
ATOM     39  C   LIG d   1       7.911  -9.517  -1.819  0.00  0.00     0.248 C 
ATOM     40  O   LIG d   1       6.884  -9.458  -1.177  0.00  0.00    -0.272 OA
ATOM     41  N   LIG d   1       9.086  -9.189  -1.245  0.00  0.00    -0.327 N 
ATOM     42  H   LIG d   1       9.907  -9.237  -1.759  0.00  0.00     0.145 HD
ATOM     43  H   LIG d   1       9.109  -8.904  -0.318  0.00  0.00     0.145 HD
ENDBRANCH  36  39
ENDBRANCH  35  36
ENDBRANCH   6  35
TORSDOF 8
ENDMDL
MODEL 7
REMARK VINA RESULT:      -5.8     10.644     12.100
REMARK  8 active torsions:
REMARK  status: ('A' for Active; 'I' for Inactive)
REMARK    1  A    between atoms: C_1  and  O_2 
REMARK    2  A    between atoms: O_2  and  C_3 
REMARK    3  A    between atoms: C_6  and  C_11 
REMARK    4  A    between atoms: C_8  and  O_9 
REMARK    5  A    between atoms: O_9  and  C_10 
REMARK    6  A    between atoms: C_16  and  O_22 
REMARK    7  A    between atoms: O_22  and  C_23 
REMARK    8  A    between atoms: C_23  and  C_24 
REMARK       I    between atoms: C_24  and  N_26 
ROOT
ATOM      1  C   LIG d   1       9.829   6.023  -5.040  0.00  0.00     0.067 C 
ATOM      2  C   LIG d   1       9.808   4.785  -5.633  0.00  0.00    -0.036 C 
ATOM      3  C   LIG d   1       9.695   4.719  -7.046  0.00  0.00     0.018 A 
ATOM      4  C   LIG d   1       9.469   3.491  -7.684  0.00  0.00    -0.048 A 
ATOM      5  C   LIG d   1       9.322   3.447  -9.040  0.00  0.00    -0.019 A 
ATOM      6  C   LIG d   1       9.402   4.613  -9.799  0.00  0.00     0.125 A 
ATOM      7  C   LIG d   1       9.644   5.833  -9.188  0.00  0.00     0.023 A 
ATOM      8  C   LIG d   1       9.804   5.895  -7.813  0.00  0.00     0.143 A 
ATOM      9  O   LIG d   1      10.082   7.074  -7.206  0.00  0.00    -0.422 OA
ATOM     10  C   LIG d   1       9.690   7.200  -5.914  0.00  0.00     0.345 C 
ATOM     11  O   LIG d   1       9.243   8.249  -5.489  0.00  0.00    -0.244 OA
ATOM     12  H   LIG d   1       9.878   3.886  -5.039  0.00  0.00     0.063 H 
ATOM     13  H   LIG d   1       9.412   2.582  -7.104  0.00  0.00     0.063 H 
ATOM     14  H   LIG d   1       9.143   2.501  -9.528  0.00  0.00     0.065 H 
ATOM     15  H   LIG d   1       9.709   6.733  -9.782  0.00  0.00     0.069 H 
ENDROOT
BRANCH   1  16
ATOM     16  C   LIG d   1       9.978   6.170  -3.573  0.00  0.00    -0.007 A 
ATOM     17  C   LIG d   1      10.905   5.389  -2.884  0.00  0.00    -0.050 A 
ATOM     18  C   LIG d   1      11.044   5.528  -1.518  0.00  0.00    -0.016 A 
ATOM     19  H   LIG d   1      11.515   4.676  -3.419  0.00  0.00     0.062 H 
ATOM     20  C   LIG d   1      10.263   6.442  -0.828  0.00  0.00     0.162 A 
ATOM     21  H   LIG d   1      11.763   4.922  -0.985  0.00  0.00     0.066 H 
ATOM     22  C   LIG d   1       9.332   7.221  -1.509  0.00  0.00     0.162 A 
ATOM     23  C   LIG d   1       9.193   7.090  -2.880  0.00  0.00    -0.008 A 
ATOM     24  H   LIG d   1       8.474   7.698  -3.411  0.00  0.00     0.066 H 
BRANCH  20  25
ATOM     25  O   LIG d   1      10.404   6.574   0.518  0.00  0.00    -0.491 OA
BRANCH  25  26
ATOM     26  C   LIG d   1      11.246   5.628   1.179  0.00  0.00     0.079 C 
ATOM     27  H   LIG d   1      10.699   5.166   2.000  0.00  0.00     0.066 H 
ATOM     28  H   LIG d   1      11.555   4.860   0.470  0.00  0.00     0.066 H 
ATOM     29  H   LIG d   1      12.127   6.138   1.571  0.00  0.00     0.066 H 
ENDBRANCH  25  26
ENDBRANCH  20  25
BRANCH  22  30
ATOM     30  O   LIG d   1       8.564   8.113  -0.830  0.00  0.00    -0.491 OA
BRANCH  30  31
ATOM     31  C   LIG d   1       8.967   9.483  -0.873  0.00  0.00     0.079 C 
ATOM     32  H   LIG d   1       9.981   9.575  -0.484  0.00  0.00     0.066 H 
ATOM     33  H   LIG d   1       8.940   9.838  -1.903  0.00  0.00     0.066 H 
ATOM     34  H   LIG d   1       8.290  10.082  -0.263  0.00  0.00     0.066 H 
ENDBRANCH  30  31
ENDBRANCH  22  30
ENDBRANCH   1  16
BRANCH   6  35
ATOM     35  O   LIG d   1       9.244   4.554 -11.146  0.00  0.00    -0.483 OA
BRANCH  35  36
ATOM     36  C   LIG d   1       9.992   5.486 -11.928  0.00  0.00     0.165 C 
ATOM     37  H   LIG d   1      10.559   6.142 -11.269  0.00  0.00     0.080 H 
ATOM     38  H   LIG d   1      10.679   4.944 -12.580  0.00  0.00     0.080 H 
BRANCH  36  39
ATOM     39  C   LIG d   1       9.050   6.309 -12.769  0.00  0.00     0.248 C 
ATOM     40  O   LIG d   1       8.393   5.777 -13.639  0.00  0.00    -0.272 OA
ATOM     41  N   LIG d   1       8.935   7.634 -12.552  0.00  0.00    -0.327 N 
ATOM     42  H   LIG d   1       9.460   8.058 -11.855  0.00  0.00     0.145 HD
ATOM     43  H   LIG d   1       8.328   8.163 -13.093  0.00  0.00     0.145 HD
ENDBRANCH  36  39
ENDBRANCH  35  36
ENDBRANCH   6  35
TORSDOF 8
ENDMDL
MODEL 8
REMARK VINA RESULT:      -5.8      6.978     13.322
REMARK  8 active torsions:
REMARK  status: ('A' for Active; 'I' for Inactive)
REMARK    1  A    between atoms: C_1  and  O_2 
REMARK    2  A    between atoms: O_2  and  C_3 
REMARK    3  A    between atoms: C_6  and  C_11 
REMARK    4  A    between atoms: C_8  and  O_9 
REMARK    5  A    between atoms: O_9  and  C_10 
REMARK    6  A    between atoms: C_16  and  O_22 
REMARK    7  A    between atoms: O_22  and  C_23 
REMARK    8  A    between atoms: C_23  and  C_24 
REMARK       I    between atoms: C_24  and  N_26 
ROOT
ATOM      1  C   LIG d   1       9.757   4.717  -4.515  0.00  0.00     0.067 C 
ATOM      2  C   LIG d   1       9.472   5.659  -5.471  0.00  0.00    -0.036 C 
ATOM      3  C   LIG d   1       9.730   7.022  -5.171  0.00  0.00     0.018 A 
ATOM      4  C   LIG d   1       9.276   8.036  -6.025  0.00  0.00    -0.048 A 
ATOM      5  C   LIG d   1       9.495   9.343  -5.703  0.00  0.00    -0.019 A 
ATOM      6  C   LIG d   1      10.174   9.680  -4.534  0.00  0.00     0.125 A 
ATOM      7  C   LIG d   1      10.648   8.691  -3.687  0.00  0.00     0.023 A 
ATOM      8  C   LIG d   1      10.440   7.358  -4.002  0.00  0.00     0.143 A 
ATOM      9  O   LIG d   1      10.933   6.379  -3.205  0.00  0.00    -0.422 OA
ATOM     10  C   LIG d   1      10.275   5.194  -3.221  0.00  0.00     0.345 C 
ATOM     11  O   LIG d   1      10.120   4.544  -2.204  0.00  0.00    -0.244 OA
ATOM     12  H   LIG d   1       9.064   5.369  -6.428  0.00  0.00     0.063 H 
ATOM     13  H   LIG d   1       8.754   7.784  -6.936  0.00  0.00     0.063 H 
ATOM     14  H   LIG d   1       9.140  10.123  -6.361  0.00  0.00     0.065 H 
ATOM     15  H   LIG d   1      11.176   8.958  -2.784  0.00  0.00     0.069 H 
ENDROOT
BRANCH   1  16
ATOM     16  C   LIG d   1       9.546   3.272  -4.771  0.00  0.00    -0.007 A 
ATOM     17  C   LIG d   1      10.615   2.470  -5.167  0.00  0.00    -0.050 A 
ATOM     18  C   LIG d   1      10.417   1.125  -5.404  0.00  0.00    -0.016 A 
ATOM     19  H   LIG d   1      11.598   2.900  -5.288  0.00  0.00     0.062 H 
ATOM     20  C   LIG d   1       9.156   0.569  -5.251  0.00  0.00     0.162 A 
ATOM     21  H   LIG d   1      11.246   0.504  -5.711  0.00  0.00     0.066 H 
ATOM     22  C   LIG d   1       8.084   1.366  -4.861  0.00  0.00     0.162 A 
ATOM     23  C   LIG d   1       8.277   2.714  -4.616  0.00  0.00    -0.008 A 
ATOM     24  H   LIG d   1       7.447   3.333  -4.308  0.00  0.00     0.066 H 
BRANCH  20  25
ATOM     25  O   LIG d   1       8.966  -0.757  -5.486  0.00  0.00    -0.491 OA
BRANCH  25  26
ATOM     26  C   LIG d   1      10.063  -1.629  -5.209  0.00  0.00     0.079 C 
ATOM     27  H   LIG d   1      10.119  -1.813  -4.136  0.00  0.00     0.066 H 
ATOM     28  H   LIG d   1       9.916  -2.574  -5.731  0.00  0.00     0.066 H 
ATOM     29  H   LIG d   1      10.990  -1.166  -5.547  0.00  0.00     0.066 H 
ENDBRANCH  25  26
ENDBRANCH  20  25
BRANCH  22  30
ATOM     30  O   LIG d   1       6.847   0.820  -4.715  0.00  0.00    -0.491 OA
BRANCH  30  31
ATOM     31  C   LIG d   1       6.381   0.613  -3.381  0.00  0.00     0.079 C 
ATOM     32  H   LIG d   1       5.466   0.022  -3.404  0.00  0.00     0.066 H 
ATOM     33  H   LIG d   1       7.142   0.083  -2.808  0.00  0.00     0.066 H 
ATOM     34  H   LIG d   1       6.178   1.576  -2.912  0.00  0.00     0.066 H 
ENDBRANCH  30  31
ENDBRANCH  22  30
ENDBRANCH   1  16
BRANCH   6  35
ATOM     35  O   LIG d   1      10.376  10.987  -4.223  0.00  0.00    -0.483 OA
BRANCH  35  36
ATOM     36  C   LIG d   1       9.347  11.907  -4.592  0.00  0.00     0.165 C 
ATOM     37  H   LIG d   1       9.793  12.790  -5.047  0.00  0.00     0.080 H 
ATOM     38  H   LIG d   1       8.673  11.431  -5.305  0.00  0.00     0.080 H 
BRANCH  36  39
ATOM     39  C   LIG d   1       8.571  12.312  -3.364  0.00  0.00     0.248 C 
ATOM     40  O   LIG d   1       8.711  13.423  -2.899  0.00  0.00    -0.272 OA
ATOM     41  N   LIG d   1       7.722  11.440  -2.785  0.00  0.00    -0.327 N 
ATOM     42  H   LIG d   1       7.610  10.552  -3.159  0.00  0.00     0.145 HD
ATOM     43  H   LIG d   1       7.223  11.701  -1.996  0.00  0.00     0.145 HD
ENDBRANCH  36  39
ENDBRANCH  35  36
ENDBRANCH   6  35
TORSDOF 8
ENDMDL
MODEL 9
REMARK VINA RESULT:      -5.7      3.980      4.775
REMARK  8 active torsions:
REMARK  status: ('A' for Active; 'I' for Inactive)
REMARK    1  A    between atoms: C_1  and  O_2 
REMARK    2  A    between atoms: O_2  and  C_3 
REMARK    3  A    between atoms: C_6  and  C_11 
REMARK    4  A    between atoms: C_8  and  O_9 
REMARK    5  A    between atoms: O_9  and  C_10 
REMARK    6  A    between atoms: C_16  and  O_22 
REMARK    7  A    between atoms: O_22  and  C_23 
REMARK    8  A    between atoms: C_23  and  C_24 
REMARK       I    between atoms: C_24  and  N_26 
ROOT
ATOM      1  C   LIG d   1       6.544  -3.253  -5.079  0.00  0.00     0.067 C 
ATOM      2  C   LIG d   1       7.611  -2.982  -4.259  0.00  0.00    -0.036 C 
ATOM      3  C   LIG d   1       8.459  -4.055  -3.881  0.00  0.00     0.018 A 
ATOM      4  C   LIG d   1       9.438  -3.874  -2.893  0.00  0.00    -0.048 A 
ATOM      5  C   LIG d   1      10.219  -4.925  -2.511  0.00  0.00    -0.019 A 
ATOM      6  C   LIG d   1      10.058  -6.177  -3.100  0.00  0.00     0.125 A 
ATOM      7  C   LIG d   1       9.110  -6.370  -4.092  0.00  0.00     0.023 A 
ATOM      8  C   LIG d   1       8.313  -5.312  -4.498  0.00  0.00     0.143 A 
ATOM      9  O   LIG d   1       7.410  -5.476  -5.495  0.00  0.00    -0.422 OA
ATOM     10  C   LIG d   1       6.331  -4.655  -5.478  0.00  0.00     0.345 C 
ATOM     11  O   LIG d   1       5.225  -5.060  -5.785  0.00  0.00    -0.244 OA
ATOM     12  H   LIG d   1       7.800  -1.977  -3.912  0.00  0.00     0.063 H 
ATOM     13  H   LIG d   1       9.572  -2.905  -2.436  0.00  0.00     0.063 H 
ATOM     14  H   LIG d   1      10.968  -4.784  -1.746  0.00  0.00     0.065 H 
ATOM     15  H   LIG d   1       8.993  -7.343  -4.547  0.00  0.00     0.069 H 
ENDROOT
BRANCH   1  16
ATOM     16  C   LIG d   1       5.636  -2.178  -5.541  0.00  0.00    -0.007 A 
ATOM     17  C   LIG d   1       5.687  -1.741  -6.865  0.00  0.00    -0.050 A 
ATOM     18  C   LIG d   1       4.840  -0.740  -7.294  0.00  0.00    -0.016 A 
ATOM     19  H   LIG d   1       6.389  -2.187  -7.554  0.00  0.00     0.062 H 
ATOM     20  C   LIG d   1       3.938  -0.165  -6.412  0.00  0.00     0.162 A 
ATOM     21  H   LIG d   1       4.881  -0.403  -8.320  0.00  0.00     0.066 H 
ATOM     22  C   LIG d   1       3.886  -0.592  -5.088  0.00  0.00     0.162 A 
ATOM     23  C   LIG d   1       4.729  -1.600  -4.654  0.00  0.00    -0.008 A 
ATOM     24  H   LIG d   1       4.686  -1.936  -3.628  0.00  0.00     0.066 H 
BRANCH  20  25
ATOM     25  O   LIG d   1       3.106   0.822  -6.840  0.00  0.00    -0.491 OA
BRANCH  25  26
ATOM     26  C   LIG d   1       3.140   1.141  -8.233  0.00  0.00     0.079 C 
ATOM     27  H   LIG d   1       3.175   0.221  -8.815  0.00  0.00     0.066 H 
ATOM     28  H   LIG d   1       2.245   1.704  -8.498  0.00  0.00     0.066 H 
ATOM     29  H   LIG d   1       4.024   1.741  -8.446  0.00  0.00     0.066 H 
ENDBRANCH  25  26
ENDBRANCH  20  25
BRANCH  22  30
ATOM     30  O   LIG d   1       3.005  -0.024  -4.223  0.00  0.00    -0.491 OA
BRANCH  30  31
ATOM     31  C   LIG d   1       2.696  -0.755  -3.036  0.00  0.00     0.079 C 
ATOM     32  H   LIG d   1       2.074  -0.142  -2.383  0.00  0.00     0.066 H 
ATOM     33  H   LIG d   1       2.159  -1.666  -3.299  0.00  0.00     0.066 H 
ATOM     34  H   LIG d   1       3.619  -1.014  -2.517  0.00  0.00     0.066 H 
ENDBRANCH  30  31
ENDBRANCH  22  30
ENDBRANCH   1  16
BRANCH   6  35
ATOM     35  O   LIG d   1      10.837  -7.215  -2.702  0.00  0.00    -0.483 OA
BRANCH  35  36
ATOM     36  C   LIG d   1      10.213  -8.228  -1.911  0.00  0.00     0.165 C 
ATOM     37  H   LIG d   1       9.169  -7.968  -1.744  0.00  0.00     0.080 H 
ATOM     38  H   LIG d   1      10.270  -9.184  -2.433  0.00  0.00     0.080 H 
BRANCH  36  39
ATOM     39  C   LIG d   1      10.921  -8.339  -0.585  0.00  0.00     0.248 C 
ATOM     40  O   LIG d   1      11.511  -9.360  -0.297  0.00  0.00    -0.272 OA
ATOM     41  N   LIG d   1      10.902  -7.305   0.279  0.00  0.00    -0.327 N 
ATOM     42  H   LIG d   1      10.431  -6.489   0.047  0.00  0.00     0.145 HD
ATOM     43  H   LIG d   1      11.358  -7.377   1.132  0.00  0.00     0.145 HD
ENDBRANCH  36  39
ENDBRANCH  35  36
ENDBRANCH   6  35
TORSDOF 8
ENDMDL
