MODEL 1
REMARK VINA RESULT:      -6.0      0.000      0.000
REMARK  3 active torsions:
REMARK  status: ('A' for Active; 'I' for Inactive)
REMARK    1  A    between atoms: C_4  and  O_16 
REMARK    2  A    between atoms: C_5  and  N_7 
REMARK    3  A    between atoms: C_9  and  C_14 
ROOT
ATOM      1  N   LIG d   1       4.395  -1.376  -5.377  0.00  0.00    -0.268 N 
ATOM      2  C   LIG d   1       4.415  -2.843  -5.334  0.00  0.00     0.028 C 
ATOM      3  C   LIG d   1       4.757  -3.293  -6.771  0.00  0.00     0.023 C 
ATOM      4  H   LIG d   1       5.831  -3.432  -6.891  0.00  0.00     0.038 H 
ATOM      5  C   LIG d   1       4.258  -2.091  -7.605  0.00  0.00     0.034 C 
ATOM      6  C   LIG d   1       4.295  -0.927  -6.640  0.00  0.00     0.221 C 
ATOM      7  O   LIG d   1       4.246   0.243  -6.959  0.00  0.00    -0.275 OA
ATOM      8  H   LIG d   1       5.180  -3.189  -4.638  0.00  0.00     0.048 H 
ATOM      9  H   LIG d   1       3.438  -3.226  -5.040  0.00  0.00     0.048 H 
ATOM     10  H   LIG d   1       4.922  -1.910  -8.451  0.00  0.00     0.036 H 
ATOM     11  H   LIG d   1       3.239  -2.264  -7.951  0.00  0.00     0.036 H 
ENDROOT
BRANCH   1  12
ATOM     12  C   LIG d   1       4.463  -0.550  -4.247  0.00  0.00     0.078 A 
ATOM     13  C   LIG d   1       3.299  -0.196  -3.569  0.00  0.00     0.138 A 
ATOM     14  C   LIG d   1       3.374   0.620  -2.451  0.00  0.00    -0.018 A 
ATOM     15  C   LIG d   1       4.601   1.081  -2.013  0.00  0.00    -0.058 A 
ATOM     16  H   LIG d   1       2.473   0.896  -1.924  0.00  0.00     0.066 H 
ATOM     17  C   LIG d   1       5.756   0.734  -2.689  0.00  0.00    -0.060 A 
ATOM     18  H   LIG d   1       4.657   1.717  -1.142  0.00  0.00     0.062 H 
ATOM     19  C   LIG d   1       5.691  -0.084  -3.801  0.00  0.00    -0.037 A 
ATOM     20  H   LIG d   1       6.713   1.100  -2.345  0.00  0.00     0.062 H 
ATOM     21  H   LIG d   1       6.596  -0.356  -4.324  0.00  0.00     0.064 H 
BRANCH  13  22
ATOM     22  O   LIG d   1       2.094  -0.651  -4.001  0.00  0.00    -0.505 OA
ATOM     23  H   LIG d   1       1.879  -0.396  -4.910  0.00  0.00     0.292 HD
ENDBRANCH  13  22
ENDBRANCH   1  12
BRANCH   3  24
ATOM     24  C   LIG d   1       4.009  -4.550  -7.135  0.00  0.00     0.047 C 
ATOM     25  O   LIG d   1       3.906  -4.879  -8.292  0.00  0.00    -0.549 OA
ATOM     26  O   LIG d   1       3.455  -5.303  -6.170  0.00  0.00    -0.549 OA
ENDBRANCH   3  24
TORSDOF 3
ENDMDL
MODEL 2
REMARK VINA RESULT:      -6.0      2.309      3.448
REMARK  3 active torsions:
REMARK  status: ('A' for Active; 'I' for Inactive)
REMARK    1  A    between atoms: C_4  and  O_16 
REMARK    2  A    between atoms: C_5  and  N_7 
REMARK    3  A    between atoms: C_9  and  C_14 
ROOT
ATOM      1  N   LIG d   1       4.197  -0.335  -5.709  0.00  0.00    -0.268 N 
ATOM      2  C   LIG d   1       2.974   0.029  -6.433  0.00  0.00     0.028 C 
ATOM      3  C   LIG d   1       3.265  -0.287  -7.917  0.00  0.00     0.023 C 
ATOM      4  H   LIG d   1       2.937  -1.294  -8.173  0.00  0.00     0.038 H 
ATOM      5  C   LIG d   1       4.806  -0.178  -7.966  0.00  0.00     0.034 C 
ATOM      6  C   LIG d   1       5.244  -0.446  -6.543  0.00  0.00     0.221 C 
ATOM      7  O   LIG d   1       6.375  -0.725  -6.204  0.00  0.00    -0.275 OA
ATOM      8  H   LIG d   1       2.133  -0.568  -6.079  0.00  0.00     0.048 H 
ATOM      9  H   LIG d   1       2.762   1.091  -6.307  0.00  0.00     0.048 H 
ATOM     10  H   LIG d   1       5.221  -0.925  -8.643  0.00  0.00     0.036 H 
ATOM     11  H   LIG d   1       5.108   0.824  -8.273  0.00  0.00     0.036 H 
ENDROOT
BRANCH   1  12
ATOM     12  C   LIG d   1       4.265  -0.534  -4.322  0.00  0.00     0.078 A 
ATOM     13  C   LIG d   1       4.096  -1.810  -3.791  0.00  0.00     0.138 A 
ATOM     14  C   LIG d   1       4.166  -2.001  -2.420  0.00  0.00    -0.018 A 
ATOM     15  C   LIG d   1       4.402  -0.926  -1.584  0.00  0.00    -0.058 A 
ATOM     16  H   LIG d   1       4.036  -2.990  -2.006  0.00  0.00     0.066 H 
ATOM     17  C   LIG d   1       4.564   0.342  -2.111  0.00  0.00    -0.060 A 
ATOM     18  H   LIG d   1       4.456  -1.077  -0.516  0.00  0.00     0.062 H 
ATOM     19  C   LIG d   1       4.502   0.540  -3.477  0.00  0.00    -0.037 A 
ATOM     20  H   LIG d   1       4.745   1.180  -1.453  0.00  0.00     0.062 H 
ATOM     21  H   LIG d   1       4.633   1.531  -3.886  0.00  0.00     0.064 H 
BRANCH  13  22
ATOM     22  O   LIG d   1       3.865  -2.866  -4.615  0.00  0.00    -0.505 OA
ATOM     23  H   LIG d   1       3.424  -3.612  -4.185  0.00  0.00     0.292 HD
ENDBRANCH  13  22
ENDBRANCH   1  12
BRANCH   3  24
ATOM     24  C   LIG d   1       2.623   0.734  -8.821  0.00  0.00     0.047 C 
ATOM     25  O   LIG d   1       1.999   0.375  -9.791  0.00  0.00    -0.549 OA
ATOM     26  O   LIG d   1       2.746   2.043  -8.548  0.00  0.00    -0.549 OA
ENDBRANCH   3  24
TORSDOF 3
ENDMDL
MODEL 3
REMARK VINA RESULT:      -5.7      0.931      1.686
REMARK  3 active torsions:
REMARK  status: ('A' for Active; 'I' for Inactive)
REMARK    1  A    between atoms: C_4  and  O_16 
REMARK    2  A    between atoms: C_5  and  N_7 
REMARK    3  A    between atoms: C_9  and  C_14 
ROOT
ATOM      1  N   LIG d   1       4.350  -1.358  -5.353  0.00  0.00    -0.268 N 
ATOM      2  C   LIG d   1       4.374  -2.825  -5.307  0.00  0.00     0.028 C 
ATOM      3  C   LIG d   1       4.703  -3.276  -6.747  0.00  0.00     0.023 C 
ATOM      4  H   LIG d   1       5.776  -3.413  -6.878  0.00  0.00     0.038 H 
ATOM      5  C   LIG d   1       4.193  -2.076  -7.578  0.00  0.00     0.034 C 
ATOM      6  C   LIG d   1       4.237  -0.911  -6.614  0.00  0.00     0.221 C 
ATOM      7  O   LIG d   1       4.182   0.258  -6.934  0.00  0.00    -0.275 OA
ATOM      8  H   LIG d   1       5.146  -3.168  -4.619  0.00  0.00     0.048 H 
ATOM      9  H   LIG d   1       3.401  -3.209  -5.004  0.00  0.00     0.048 H 
ATOM     10  H   LIG d   1       4.848  -1.895  -8.430  0.00  0.00     0.036 H 
ATOM     11  H   LIG d   1       3.171  -2.252  -7.914  0.00  0.00     0.036 H 
ENDROOT
BRANCH   1  12
ATOM     12  C   LIG d   1       4.428  -0.530  -4.224  0.00  0.00     0.078 A 
ATOM     13  C   LIG d   1       5.658  -0.026  -3.812  0.00  0.00     0.138 A 
ATOM     14  C   LIG d   1       5.729   0.793  -2.695  0.00  0.00    -0.018 A 
ATOM     15  C   LIG d   1       4.579   1.106  -1.995  0.00  0.00    -0.058 A 
ATOM     16  H   LIG d   1       6.682   1.185  -2.374  0.00  0.00     0.066 H 
ATOM     17  C   LIG d   1       3.358   0.601  -2.400  0.00  0.00    -0.060 A 
ATOM     18  H   LIG d   1       4.637   1.744  -1.125  0.00  0.00     0.062 H 
ATOM     19  C   LIG d   1       3.279  -0.211  -3.516  0.00  0.00    -0.037 A 
ATOM     20  H   LIG d   1       2.463   0.845  -1.847  0.00  0.00     0.062 H 
ATOM     21  H   LIG d   1       2.322  -0.601  -3.832  0.00  0.00     0.064 H 
BRANCH  13  22
ATOM     22  O   LIG d   1       6.787  -0.334  -4.503  0.00  0.00    -0.505 OA
ATOM     23  H   LIG d   1       6.622  -0.725  -5.373  0.00  0.00     0.292 HD
ENDBRANCH  13  22
ENDBRANCH   1  12
BRANCH   3  24
ATOM     24  C   LIG d   1       3.954  -4.535  -7.102  0.00  0.00     0.047 C 
ATOM     25  O   LIG d   1       3.745  -4.808  -8.259  0.00  0.00    -0.549 OA
ATOM     26  O   LIG d   1       3.518  -5.352  -6.129  0.00  0.00    -0.549 OA
ENDBRANCH   3  24
TORSDOF 3
ENDMDL
MODEL 4
REMARK VINA RESULT:      -5.4      2.022      2.853
REMARK  3 active torsions:
REMARK  status: ('A' for Active; 'I' for Inactive)
REMARK    1  A    between atoms: C_4  and  O_16 
REMARK    2  A    between atoms: C_5  and  N_7 
REMARK    3  A    between atoms: C_9  and  C_14 
ROOT
ATOM      1  N   LIG d   1       3.797  -0.537  -5.872  0.00  0.00    -0.268 N 
ATOM      2  C   LIG d   1       4.230  -1.444  -6.941  0.00  0.00     0.028 C 
ATOM      3  C   LIG d   1       4.022  -0.660  -8.256  0.00  0.00     0.023 C 
ATOM      4  H   LIG d   1       4.931  -0.132  -8.543  0.00  0.00     0.038 H 
ATOM      5  C   LIG d   1       2.906   0.333  -7.858  0.00  0.00     0.034 C 
ATOM      6  C   LIG d   1       3.043   0.464  -6.357  0.00  0.00     0.221 C 
ATOM      7  O   LIG d   1       2.545   1.345  -5.687  0.00  0.00    -0.275 OA
ATOM      8  H   LIG d   1       5.283  -1.699  -6.816  0.00  0.00     0.048 H 
ATOM      9  H   LIG d   1       3.621  -2.348  -6.940  0.00  0.00     0.048 H 
ATOM     10  H   LIG d   1       3.062   1.297  -8.343  0.00  0.00     0.036 H 
ATOM     11  H   LIG d   1       1.927  -0.070  -8.116  0.00  0.00     0.036 H 
ENDROOT
BRANCH   1  12
ATOM     12  C   LIG d   1       4.124  -0.698  -4.518  0.00  0.00     0.078 A 
ATOM     13  C   LIG d   1       5.270  -0.100  -4.001  0.00  0.00     0.138 A 
ATOM     14  C   LIG d   1       5.586  -0.261  -2.661  0.00  0.00    -0.018 A 
ATOM     15  C   LIG d   1       4.765  -1.014  -1.842  0.00  0.00    -0.058 A 
ATOM     16  H   LIG d   1       6.475   0.202  -2.257  0.00  0.00     0.066 H 
ATOM     17  C   LIG d   1       3.631  -1.612  -2.357  0.00  0.00    -0.060 A 
ATOM     18  H   LIG d   1       5.014  -1.139  -0.799  0.00  0.00     0.062 H 
ATOM     19  C   LIG d   1       3.304  -1.451  -3.691  0.00  0.00    -0.037 A 
ATOM     20  H   LIG d   1       2.994  -2.203  -1.715  0.00  0.00     0.062 H 
ATOM     21  H   LIG d   1       2.415  -1.917  -4.089  0.00  0.00     0.064 H 
BRANCH  13  22
ATOM     22  O   LIG d   1       6.075   0.642  -4.806  0.00  0.00    -0.505 OA
ATOM     23  H   LIG d   1       7.017   0.570  -4.595  0.00  0.00     0.292 HD
ENDBRANCH  13  22
ENDBRANCH   1  12
BRANCH   3  24
ATOM     24  C   LIG d   1       3.561  -1.575  -9.361  0.00  0.00     0.047 C 
ATOM     25  O   LIG d   1       3.687  -1.240 -10.515  0.00  0.00    -0.549 OA
ATOM     26  O   LIG d   1       3.009  -2.763  -9.062  0.00  0.00    -0.549 OA
ENDBRANCH   3  24
TORSDOF 3
ENDMDL
MODEL 5
REMARK VINA RESULT:      -5.2      2.896      3.864
REMARK  3 active torsions:
REMARK  status: ('A' for Active; 'I' for Inactive)
REMARK    1  A    between atoms: C_4  and  O_16 
REMARK    2  A    between atoms: C_5  and  N_7 
REMARK    3  A    between atoms: C_9  and  C_14 
ROOT
ATOM      1  N   LIG d   1       5.006  -0.390  -5.958  0.00  0.00    -0.268 N 
ATOM      2  C   LIG d   1       4.079  -0.045  -7.041  0.00  0.00     0.028 C 
ATOM      3  C   LIG d   1       4.956   0.096  -8.305  0.00  0.00     0.023 C 
ATOM      4  H   LIG d   1       5.006  -0.845  -8.852  0.00  0.00     0.038 H 
ATOM      5  C   LIG d   1       6.330   0.458  -7.696  0.00  0.00     0.034 C 
ATOM      6  C   LIG d   1       6.276  -0.107  -6.294  0.00  0.00     0.221 C 
ATOM      7  O   LIG d   1       7.239  -0.282  -5.578  0.00  0.00    -0.275 OA
ATOM      8  H   LIG d   1       3.346  -0.840  -7.178  0.00  0.00     0.048 H 
ATOM      9  H   LIG d   1       3.576   0.897  -6.823  0.00  0.00     0.048 H 
ATOM     10  H   LIG d   1       7.134  -0.006  -8.267  0.00  0.00     0.036 H 
ATOM     11  H   LIG d   1       6.460   1.540  -7.665  0.00  0.00     0.036 H 
ENDROOT
BRANCH   1  12
ATOM     12  C   LIG d   1       4.617  -0.938  -4.728  0.00  0.00     0.078 A 
ATOM     13  C   LIG d   1       4.202  -0.105  -3.692  0.00  0.00     0.138 A 
ATOM     14  C   LIG d   1       3.817  -0.653  -2.479  0.00  0.00    -0.018 A 
ATOM     15  C   LIG d   1       3.847  -2.023  -2.299  0.00  0.00    -0.058 A 
ATOM     16  H   LIG d   1       3.494  -0.008  -1.675  0.00  0.00     0.066 H 
ATOM     17  C   LIG d   1       4.264  -2.850  -3.324  0.00  0.00    -0.060 A 
ATOM     18  H   LIG d   1       3.547  -2.448  -1.352  0.00  0.00     0.062 H 
ATOM     19  C   LIG d   1       4.644  -2.312  -4.540  0.00  0.00    -0.037 A 
ATOM     20  H   LIG d   1       4.290  -3.920  -3.178  0.00  0.00     0.062 H 
ATOM     21  H   LIG d   1       4.966  -2.961  -5.341  0.00  0.00     0.064 H 
BRANCH  13  22
ATOM     22  O   LIG d   1       4.172   1.242  -3.872  0.00  0.00    -0.505 OA
ATOM     23  H   LIG d   1       4.988   1.693  -3.611  0.00  0.00     0.292 HD
ENDBRANCH  13  22
ENDBRANCH   1  12
BRANCH   3  24
ATOM     24  C   LIG d   1       4.449   1.206  -9.191  0.00  0.00     0.047 C 
ATOM     25  O   LIG d   1       4.506   1.094 -10.392  0.00  0.00    -0.549 OA
ATOM     26  O   LIG d   1       3.936   2.320  -8.643  0.00  0.00    -0.549 OA
ENDBRANCH   3  24
TORSDOF 3
ENDMDL
MODEL 6
REMARK VINA RESULT:      -5.1      2.447      5.092
REMARK  3 active torsions:
REMARK  status: ('A' for Active; 'I' for Inactive)
REMARK    1  A    between atoms: C_4  and  O_16 
REMARK    2  A    between atoms: C_5  and  N_7 
REMARK    3  A    between atoms: C_9  and  C_14 
ROOT
ATOM      1  N   LIG d   1       4.123  -0.701  -6.726  0.00  0.00    -0.268 N 
ATOM      2  C   LIG d   1       3.627  -0.268  -5.415  0.00  0.00     0.028 C 
ATOM      3  C   LIG d   1       4.368  -1.148  -4.384  0.00  0.00     0.023 C 
ATOM      4  H   LIG d   1       5.276  -0.659  -4.033  0.00  0.00     0.038 H 
ATOM      5  C   LIG d   1       4.703  -2.403  -5.223  0.00  0.00     0.034 C 
ATOM      6  C   LIG d   1       4.722  -1.901  -6.650  0.00  0.00     0.221 C 
ATOM      7  O   LIG d   1       5.209  -2.495  -7.590  0.00  0.00    -0.275 OA
ATOM      8  H   LIG d   1       3.862   0.783  -5.251  0.00  0.00     0.048 H 
ATOM      9  H   LIG d   1       2.552  -0.429  -5.346  0.00  0.00     0.048 H 
ATOM     10  H   LIG d   1       5.679  -2.800  -4.943  0.00  0.00     0.036 H 
ATOM     11  H   LIG d   1       3.933  -3.163  -5.098  0.00  0.00     0.036 H 
ENDROOT
BRANCH   1  12
ATOM     12  C   LIG d   1       3.985   0.040  -7.909  0.00  0.00     0.078 A 
ATOM     13  C   LIG d   1       4.994   0.913  -8.308  0.00  0.00     0.138 A 
ATOM     14  C   LIG d   1       4.851   1.642  -9.478  0.00  0.00    -0.018 A 
ATOM     15  C   LIG d   1       3.710   1.502 -10.245  0.00  0.00    -0.058 A 
ATOM     16  H   LIG d   1       5.633   2.319  -9.789  0.00  0.00     0.066 H 
ATOM     17  C   LIG d   1       2.706   0.641  -9.846  0.00  0.00    -0.060 A 
ATOM     18  H   LIG d   1       3.601   2.072 -11.156  0.00  0.00     0.062 H 
ATOM     19  C   LIG d   1       2.843  -0.095  -8.683  0.00  0.00    -0.037 A 
ATOM     20  H   LIG d   1       1.814   0.537 -10.446  0.00  0.00     0.062 H 
ATOM     21  H   LIG d   1       2.058  -0.770  -8.376  0.00  0.00     0.064 H 
BRANCH  13  22
ATOM     22  O   LIG d   1       6.116   1.048  -7.553  0.00  0.00    -0.505 OA
ATOM     23  H   LIG d   1       6.026   0.713  -6.649  0.00  0.00     0.292 HD
ENDBRANCH  13  22
ENDBRANCH   1  12
BRANCH   3  24
ATOM     24  C   LIG d   1       3.466  -1.499  -3.228  0.00  0.00     0.047 C 
ATOM     25  O   LIG d   1       2.529  -0.787  -2.956  0.00  0.00    -0.549 OA
ATOM     26  O   LIG d   1       3.706  -2.602  -2.501  0.00  0.00    -0.549 OA
ENDBRANCH   3  24
TORSDOF 3
ENDMDL
MODEL 7
REMARK VINA RESULT:      -5.1      2.762      2.984
REMARK  3 active torsions:
REMARK  status: ('A' for Active; 'I' for Inactive)
REMARK    1  A    between atoms: C_4  and  O_16 
REMARK    2  A    between atoms: C_5  and  N_7 
REMARK    3  A    between atoms: C_9  and  C_14 
ROOT
ATOM      1  N   LIG d   1       6.206  -1.249  -4.492  0.00  0.00    -0.268 N 
ATOM      2  C   LIG d   1       6.915  -2.458  -4.059  0.00  0.00     0.028 C 
ATOM      3  C   LIG d   1       8.105  -2.609  -5.032  0.00  0.00     0.023 C 
ATOM      4  H   LIG d   1       8.998  -2.126  -4.636  0.00  0.00     0.038 H 
ATOM      5  C   LIG d   1       7.584  -1.868  -6.284  0.00  0.00     0.034 C 
ATOM      6  C   LIG d   1       6.553  -0.901  -5.742  0.00  0.00     0.221 C 
ATOM      7  O   LIG d   1       6.107   0.051  -6.348  0.00  0.00    -0.275 OA
ATOM      8  H   LIG d   1       7.277  -2.337  -3.037  0.00  0.00     0.048 H 
ATOM      9  H   LIG d   1       6.260  -3.326  -4.126  0.00  0.00     0.048 H 
ATOM     10  H   LIG d   1       8.395  -1.329  -6.775  0.00  0.00     0.036 H 
ATOM     11  H   LIG d   1       7.119  -2.569  -6.977  0.00  0.00     0.036 H 
ENDROOT
BRANCH   1  12
ATOM     12  C   LIG d   1       5.280  -0.550  -3.705  0.00  0.00     0.078 A 
ATOM     13  C   LIG d   1       3.944  -0.942  -3.687  0.00  0.00     0.138 A 
ATOM     14  C   LIG d   1       3.033  -0.247  -2.906  0.00  0.00    -0.018 A 
ATOM     15  C   LIG d   1       3.452   0.831  -2.149  0.00  0.00    -0.058 A 
ATOM     16  H   LIG d   1       1.996  -0.549  -2.889  0.00  0.00     0.066 H 
ATOM     17  C   LIG d   1       4.777   1.223  -2.172  0.00  0.00    -0.060 A 
ATOM     18  H   LIG d   1       2.740   1.371  -1.541  0.00  0.00     0.062 H 
ATOM     19  C   LIG d   1       5.693   0.532  -2.943  0.00  0.00    -0.037 A 
ATOM     20  H   LIG d   1       5.099   2.068  -1.581  0.00  0.00     0.062 H 
ATOM     21  H   LIG d   1       6.728   0.839  -2.955  0.00  0.00     0.064 H 
BRANCH  13  22
ATOM     22  O   LIG d   1       3.534  -2.003  -4.430  0.00  0.00    -0.505 OA
ATOM     23  H   LIG d   1       4.185  -2.716  -4.491  0.00  0.00     0.292 HD
ENDBRANCH  13  22
ENDBRANCH   1  12
BRANCH   3  24
ATOM     24  C   LIG d   1       8.371  -4.061  -5.337  0.00  0.00     0.047 C 
ATOM     25  O   LIG d   1       7.451  -4.808  -5.572  0.00  0.00    -0.549 OA
ATOM     26  O   LIG d   1       9.632  -4.524  -5.347  0.00  0.00    -0.549 OA
ENDBRANCH   3  24
TORSDOF 3
ENDMDL
MODEL 8
REMARK VINA RESULT:      -5.0      3.214      4.466
REMARK  3 active torsions:
REMARK  status: ('A' for Active; 'I' for Inactive)
REMARK    1  A    between atoms: C_4  and  O_16 
REMARK    2  A    between atoms: C_5  and  N_7 
REMARK    3  A    between atoms: C_9  and  C_14 
ROOT
ATOM      1  N   LIG d   1       6.659  -0.240  -4.412  0.00  0.00    -0.268 N 
ATOM      2  C   LIG d   1       7.422  -1.073  -5.349  0.00  0.00     0.028 C 
ATOM      3  C   LIG d   1       8.850  -0.483  -5.355  0.00  0.00     0.023 C 
ATOM      4  H   LIG d   1       9.484  -0.987  -4.627  0.00  0.00     0.038 H 
ATOM      5  C   LIG d   1       8.587   0.983  -4.941  0.00  0.00     0.034 C 
ATOM      6  C   LIG d   1       7.285   0.925  -4.174  0.00  0.00     0.221 C 
ATOM      7  O   LIG d   1       6.866   1.802  -3.447  0.00  0.00    -0.275 OA
ATOM      8  H   LIG d   1       7.443  -2.107  -5.004  0.00  0.00     0.048 H 
ATOM      9  H   LIG d   1       6.986  -1.017  -6.346  0.00  0.00     0.048 H 
ATOM     10  H   LIG d   1       9.392   1.350  -4.303  0.00  0.00     0.036 H 
ATOM     11  H   LIG d   1       8.481   1.615  -5.822  0.00  0.00     0.036 H 
ENDROOT
BRANCH   1  12
ATOM     12  C   LIG d   1       5.432  -0.610  -3.843  0.00  0.00     0.078 A 
ATOM     13  C   LIG d   1       4.240  -0.283  -4.484  0.00  0.00     0.138 A 
ATOM     14  C   LIG d   1       3.030  -0.653  -3.917  0.00  0.00    -0.018 A 
ATOM     15  C   LIG d   1       3.010  -1.343  -2.719  0.00  0.00    -0.058 A 
ATOM     16  H   LIG d   1       2.104  -0.401  -4.412  0.00  0.00     0.066 H 
ATOM     17  C   LIG d   1       4.193  -1.662  -2.081  0.00  0.00    -0.060 A 
ATOM     18  H   LIG d   1       2.066  -1.629  -2.279  0.00  0.00     0.062 H 
ATOM     19  C   LIG d   1       5.404  -1.303  -2.642  0.00  0.00    -0.037 A 
ATOM     20  H   LIG d   1       4.173  -2.198  -1.143  0.00  0.00     0.062 H 
ATOM     21  H   LIG d   1       6.328  -1.557  -2.143  0.00  0.00     0.064 H 
BRANCH  13  22
ATOM     22  O   LIG d   1       4.262   0.394  -5.662  0.00  0.00    -0.505 OA
ATOM     23  H   LIG d   1       3.393   0.705  -5.953  0.00  0.00     0.292 HD
ENDBRANCH  13  22
ENDBRANCH   1  12
BRANCH   3  24
ATOM     24  C   LIG d   1       9.455  -0.553  -6.734  0.00  0.00     0.047 C 
ATOM     25  O   LIG d   1       9.812   0.458  -7.290  0.00  0.00    -0.549 OA
ATOM     26  O   LIG d   1       9.597  -1.742  -7.344  0.00  0.00    -0.549 OA
ENDBRANCH   3  24
TORSDOF 3
ENDMDL
MODEL 9
REMARK VINA RESULT:      -4.8     11.107     13.046
REMARK  3 active torsions:
REMARK  status: ('A' for Active; 'I' for Inactive)
REMARK    1  A    between atoms: C_4  and  O_16 
REMARK    2  A    between atoms: C_5  and  N_7 
REMARK    3  A    between atoms: C_9  and  C_14 
ROOT
ATOM      1  N   LIG d   1      10.323   8.518  -1.600  0.00  0.00    -0.268 N 
ATOM      2  C   LIG d   1      10.946   8.537  -0.271  0.00  0.00     0.028 C 
ATOM      3  C   LIG d   1      11.352   7.074   0.014  0.00  0.00     0.023 C 
ATOM      4  H   LIG d   1      12.379   6.886  -0.298  0.00  0.00     0.038 H 
ATOM      5  C   LIG d   1      10.353   6.291  -0.869  0.00  0.00     0.034 C 
ATOM      6  C   LIG d   1       9.970   7.272  -1.956  0.00  0.00     0.221 C 
ATOM      7  O   LIG d   1       9.426   6.976  -2.999  0.00  0.00    -0.275 OA
ATOM      8  H   LIG d   1      11.827   9.178  -0.276  0.00  0.00     0.048 H 
ATOM      9  H   LIG d   1      10.232   8.883   0.476  0.00  0.00     0.048 H 
ATOM     10  H   LIG d   1      10.831   5.410  -1.298  0.00  0.00     0.036 H 
ATOM     11  H   LIG d   1       9.475   6.005  -0.290  0.00  0.00     0.036 H 
ENDROOT
BRANCH   1  12
ATOM     12  C   LIG d   1      10.118   9.656  -2.393  0.00  0.00     0.078 A 
ATOM     13  C   LIG d   1       8.988  10.446  -2.201  0.00  0.00     0.138 A 
ATOM     14  C   LIG d   1       8.791  11.570  -2.988  0.00  0.00    -0.018 A 
ATOM     15  C   LIG d   1       9.715  11.903  -3.960  0.00  0.00    -0.058 A 
ATOM     16  H   LIG d   1       7.915  12.184  -2.840  0.00  0.00     0.066 H 
ATOM     17  C   LIG d   1      10.834  11.116  -4.154  0.00  0.00    -0.060 A 
ATOM     18  H   LIG d   1       9.559  12.779  -4.572  0.00  0.00     0.062 H 
ATOM     19  C   LIG d   1      11.041   9.997  -3.370  0.00  0.00    -0.037 A 
ATOM     20  H   LIG d   1      11.552  11.378  -4.918  0.00  0.00     0.062 H 
ATOM     21  H   LIG d   1      11.919   9.386  -3.522  0.00  0.00     0.064 H 
BRANCH  13  22
ATOM     22  O   LIG d   1       8.081  10.117  -1.243  0.00  0.00    -0.505 OA
ATOM     23  H   LIG d   1       8.336   9.354  -0.705  0.00  0.00     0.292 HD
ENDBRANCH  13  22
ENDBRANCH   1  12
BRANCH   3  24
ATOM     24  C   LIG d   1      11.163   6.736   1.471  0.00  0.00     0.047 C 
ATOM     25  O   LIG d   1      11.455   7.543   2.321  0.00  0.00    -0.549 OA
ATOM     26  O   LIG d   1      10.671   5.537   1.823  0.00  0.00    -0.549 OA
ENDBRANCH   3  24
TORSDOF 3
ENDMDL
MODEL 10
REMARK VINA RESULT:      -4.7      9.077     11.861
REMARK  3 active torsions:
REMARK  status: ('A' for Active; 'I' for Inactive)
REMARK    1  A    between atoms: C_4  and  O_16 
REMARK    2  A    between atoms: C_5  and  N_7 
REMARK    3  A    between atoms: C_9  and  C_14 
ROOT
ATOM      1  N   LIG d   1      11.084   5.951  -1.629  0.00  0.00    -0.268 N 
ATOM      2  C   LIG d   1      10.416   6.321  -0.377  0.00  0.00     0.028 C 
ATOM      3  C   LIG d   1      11.344   7.356   0.296  0.00  0.00     0.023 C 
ATOM      4  H   LIG d   1      11.061   8.372   0.020  0.00  0.00     0.038 H 
ATOM      5  C   LIG d   1      12.719   6.983  -0.305  0.00  0.00     0.034 C 
ATOM      6  C   LIG d   1      12.381   6.300  -1.612  0.00  0.00     0.221 C 
ATOM      7  O   LIG d   1      13.167   6.100  -2.515  0.00  0.00    -0.275 OA
ATOM      8  H   LIG d   1       9.443   6.767  -0.586  0.00  0.00     0.048 H 
ATOM      9  H   LIG d   1      10.299   5.446   0.263  0.00  0.00     0.048 H 
ATOM     10  H   LIG d   1      13.314   7.879  -0.482  0.00  0.00     0.036 H 
ATOM     11  H   LIG d   1      13.250   6.297   0.355  0.00  0.00     0.036 H 
ENDROOT
BRANCH   1  12
ATOM     12  C   LIG d   1      10.452   5.309  -2.704  0.00  0.00     0.078 A 
ATOM     13  C   LIG d   1      10.422   3.918  -2.766  0.00  0.00     0.138 A 
ATOM     14  C   LIG d   1       9.795   3.289  -3.830  0.00  0.00    -0.018 A 
ATOM     15  C   LIG d   1       9.202   4.043  -4.826  0.00  0.00    -0.058 A 
ATOM     16  H   LIG d   1       9.769   2.211  -3.880  0.00  0.00     0.066 H 
ATOM     17  C   LIG d   1       9.237   5.423  -4.767  0.00  0.00    -0.060 A 
ATOM     18  H   LIG d   1       8.714   3.551  -5.654  0.00  0.00     0.062 H 
ATOM     19  C   LIG d   1       9.855   6.058  -3.706  0.00  0.00    -0.037 A 
ATOM     20  H   LIG d   1       8.776   6.008  -5.550  0.00  0.00     0.062 H 
ATOM     21  H   LIG d   1       9.877   7.137  -3.661  0.00  0.00     0.064 H 
BRANCH  13  22
ATOM     22  O   LIG d   1      11.004   3.179  -1.785  0.00  0.00    -0.505 OA
ATOM     23  H   LIG d   1      11.463   3.706  -1.115  0.00  0.00     0.292 HD
ENDBRANCH  13  22
ENDBRANCH   1  12
BRANCH   3  24
ATOM     24  C   LIG d   1      11.346   7.186   1.793  0.00  0.00     0.047 C 
ATOM     25  O   LIG d   1      11.100   6.108   2.279  0.00  0.00    -0.549 OA
ATOM     26  O   LIG d   1      11.620   8.234   2.587  0.00  0.00    -0.549 OA
ENDBRANCH   3  24
TORSDOF 3
ENDMDL
