MODEL 1
REMARK VINA RESULT:      -6.2      0.000      0.000
REMARK  7 active torsions:
REMARK  status: ('A' for Active; 'I' for Inactive)
REMARK    1  A    between atoms: C_1  and  C_2 
REMARK    2  A    between atoms: C_11  and  C_25 
REMARK    3  A    between atoms: C_17  and  C_22 
REMARK    4  A    between atoms: C_22  and  C_24 
REMARK    5  A    between atoms: C_26  and  C_35 
REMARK    6  A    between atoms: C_27  and  O_34 
REMARK    7  A    between atoms: C_29  and  O_33 
ROOT
ATOM      1  C   LIG d   1       6.001  -2.046  -8.358  0.00  0.00    -0.014 C 
ATOM      2  H   LIG d   1       5.708  -3.026  -8.721  0.00  0.00     0.033 H 
ATOM      3  C   LIG d   1       5.818  -1.992  -6.832  0.00  0.00    -0.044 C 
ATOM      4  C   LIG d   1       4.362  -2.216  -6.471  0.00  0.00    -0.034 C 
ATOM      5  H   LIG d   1       4.107  -3.231  -6.867  0.00  0.00     0.031 H 
ATOM      6  C   LIG d   1       3.427  -1.250  -7.171  0.00  0.00    -0.030 C 
ATOM      7  H   LIG d   1       2.395  -1.632  -7.035  0.00  0.00     0.031 H 
ATOM      8  C   LIG d   1       3.492   0.135  -6.538  0.00  0.00    -0.049 C 
ATOM      9  C   LIG d   1       3.059   0.050  -5.083  0.00  0.00    -0.046 C 
ATOM     10  C   LIG d   1       3.770  -0.993  -4.267  0.00  0.00    -0.016 C 
ATOM     11  C   LIG d   1       4.111  -2.299  -4.978  0.00  0.00    -0.031 C 
ATOM     12  H   LIG d   1       3.263  -3.017  -4.813  0.00  0.00     0.031 H 
ATOM     13  C   LIG d   1       5.358  -2.853  -4.251  0.00  0.00    -0.046 C 
ATOM     14  C   LIG d   1       5.875  -1.737  -3.337  0.00  0.00    -0.028 C 
ATOM     15  H   LIG d   1       5.599  -2.038  -2.317  0.00  0.00     0.031 H 
ATOM     16  C   LIG d   1       5.080  -0.475  -3.628  0.00  0.00     0.037 C 
ATOM     17  C   LIG d   1       5.754   0.520  -4.543  0.00  0.00    -0.040 C 
ATOM     18  C   LIG d   1       7.240   0.678  -4.241  0.00  0.00    -0.052 C 
ATOM     19  C   LIG d   1       7.919  -0.686  -4.398  0.00  0.00    -0.053 C 
ATOM     20  C   LIG d   1       7.371  -1.624  -3.332  0.00  0.00    -0.049 C 
ATOM     21  C   LIG d   1       3.679  -1.171  -8.677  0.00  0.00     0.000 C 
ATOM     22  C   LIG d   1       5.154  -0.948  -8.991  0.00  0.00     0.077 C 
ATOM     23  C   LIG d   1       5.369  -0.901 -10.506  0.00  0.00     0.003 C 
ATOM     24  C   LIG d   1       4.562   0.260 -11.092  0.00  0.00     0.058 C 
ATOM     25  H   LIG d   1       4.919   1.199 -10.662  0.00  0.00     0.059 H 
ATOM     26  C   LIG d   1       3.079   0.083 -10.775  0.00  0.00    -0.026 C 
ATOM     27  C   LIG d   1       2.868  -0.010  -9.265  0.00  0.00    -0.042 C 
ATOM     28  H   LIG d   1       6.183  -1.041  -6.470  0.00  0.00     0.027 H 
ATOM     29  H   LIG d   1       6.446  -2.792  -6.424  0.00  0.00     0.027 H 
ATOM     30  H   LIG d   1       4.474   0.578  -6.629  0.00  0.00     0.027 H 
ATOM     31  H   LIG d   1       2.779   0.797  -7.061  0.00  0.00     0.027 H 
ATOM     32  H   LIG d   1       3.204   1.030  -4.615  0.00  0.00     0.027 H 
ATOM     33  H   LIG d   1       1.982  -0.161  -5.051  0.00  0.00     0.027 H 
ATOM     34  H   LIG d   1       6.131  -3.195  -4.922  0.00  0.00     0.027 H 
ATOM     35  H   LIG d   1       5.061  -3.711  -3.625  0.00  0.00     0.027 H 
ATOM     36  H   LIG d   1       5.653   0.193  -5.571  0.00  0.00     0.028 H 
ATOM     37  H   LIG d   1       5.270   1.490  -4.435  0.00  0.00     0.028 H 
ATOM     38  H   LIG d   1       7.676   1.386  -4.947  0.00  0.00     0.027 H 
ATOM     39  H   LIG d   1       7.376   1.045  -3.226  0.00  0.00     0.027 H 
ATOM     40  H   LIG d   1       7.716  -1.088  -5.388  0.00  0.00     0.026 H 
ATOM     41  H   LIG d   1       8.996  -0.571  -4.269  0.00  0.00     0.026 H 
ATOM     42  H   LIG d   1       7.800  -2.616  -3.483  0.00  0.00     0.027 H 
ATOM     43  H   LIG d   1       7.689  -1.260  -2.353  0.00  0.00     0.027 H 
ATOM     44  H   LIG d   1       5.078  -1.834 -10.973  0.00  0.00     0.032 H 
ATOM     45  H   LIG d   1       6.423  -0.715 -10.724  0.00  0.00     0.032 H 
ATOM     46  H   LIG d   1       2.534   0.960 -11.151  0.00  0.00     0.029 H 
ATOM     47  H   LIG d   1       2.690  -0.796 -11.278  0.00  0.00     0.029 H 
ATOM     48  H   LIG d   1       3.187   0.925  -8.804  0.00  0.00     0.027 H 
ATOM     49  H   LIG d   1       1.811  -0.168  -9.055  0.00  0.00     0.027 H 
ENDROOT
BRANCH  16  50
ATOM     50  C   LIG d   1       4.748   0.206  -2.315  0.00  0.00     0.137 C 
ATOM     51  O   LIG d   1       4.803  -0.416  -1.281  0.00  0.00    -0.297 OA
BRANCH  50  52
ATOM     52  C   LIG d   1       4.353   1.660  -2.299  0.00  0.00    -0.005 C 
ATOM     53  H   LIG d   1       4.280   1.995  -3.238  0.00  0.00     0.031 H 
ATOM     54  H   LIG d   1       3.391   1.769  -1.799  0.00  0.00     0.031 H 
ATOM     55  H   LIG d   1       5.108   2.237  -1.765  0.00  0.00     0.031 H 
ENDBRANCH  50  52
ENDBRANCH  16  50
BRANCH  10  56
ATOM     56  C   LIG d   1       2.815  -1.350  -3.096  0.00  0.00    -0.058 C 
ATOM     57  H   LIG d   1       1.823  -0.950  -3.301  0.00  0.00     0.024 H 
ATOM     58  H   LIG d   1       2.756  -2.433  -2.992  0.00  0.00     0.024 H 
ATOM     59  H   LIG d   1       3.196  -0.917  -2.171  0.00  0.00     0.024 H 
ENDBRANCH  10  56
BRANCH  21  60
ATOM     60  C   LIG d   1       3.187  -2.478  -9.315  0.00  0.00    -0.057 C 
ATOM     61  H   LIG d   1       4.011  -3.190  -9.365  0.00  0.00     0.024 H 
ATOM     62  H   LIG d   1       2.382  -2.896  -8.710  0.00  0.00     0.024 H 
ATOM     63  H   LIG d   1       2.819  -2.276 -10.320  0.00  0.00     0.024 H 
ENDBRANCH  21  60
BRANCH   1  64
ATOM     64  C   LIG d   1       7.486  -1.821  -8.666  0.00  0.00    -0.060 C 
ATOM     65  H   LIG d   1       7.646  -0.777  -8.940  0.00  0.00     0.023 H 
ATOM     66  H   LIG d   1       8.081  -2.060  -7.785  0.00  0.00     0.023 H 
ATOM     67  H   LIG d   1       7.788  -2.464  -9.493  0.00  0.00     0.023 H 
ENDBRANCH   1  64
BRANCH  22  68
ATOM     68  O   LIG d   1       5.575   0.316  -8.456  0.00  0.00    -0.388 OA
ATOM     69  H   LIG d   1       4.890   0.777  -7.951  0.00  0.00     0.210 HD
ENDBRANCH  22  68
BRANCH  24  70
ATOM     70  O   LIG d   1       4.747   0.295 -12.510  0.00  0.00    -0.392 OA
ATOM     71  H   LIG d   1       5.608   0.638 -12.786  0.00  0.00     0.210 HD
ENDBRANCH  24  70
TORSDOF 7
ENDMDL
MODEL 2
REMARK VINA RESULT:      -5.9      3.309      5.765
REMARK  7 active torsions:
REMARK  status: ('A' for Active; 'I' for Inactive)
REMARK    1  A    between atoms: C_1  and  C_2 
REMARK    2  A    between atoms: C_11  and  C_25 
REMARK    3  A    between atoms: C_17  and  C_22 
REMARK    4  A    between atoms: C_22  and  C_24 
REMARK    5  A    between atoms: C_26  and  C_35 
REMARK    6  A    between atoms: C_27  and  O_34 
REMARK    7  A    between atoms: C_29  and  O_33 
ROOT
ATOM      1  C   LIG d   1      10.086   0.177  -6.484  0.00  0.00    -0.014 C 
ATOM      2  H   LIG d   1      10.066   0.597  -7.485  0.00  0.00     0.033 H 
ATOM      3  C   LIG d   1       8.761  -0.554  -6.211  0.00  0.00    -0.044 C 
ATOM      4  C   LIG d   1       7.600   0.419  -6.294  0.00  0.00    -0.034 C 
ATOM      5  H   LIG d   1       7.623   0.827  -7.335  0.00  0.00     0.031 H 
ATOM      6  C   LIG d   1       7.767   1.614  -5.376  0.00  0.00    -0.030 C 
ATOM      7  H   LIG d   1       7.008   2.366  -5.672  0.00  0.00     0.031 H 
ATOM      8  C   LIG d   1       7.499   1.236  -3.924  0.00  0.00    -0.049 C 
ATOM      9  C   LIG d   1       6.066   0.746  -3.783  0.00  0.00    -0.046 C 
ATOM     10  C   LIG d   1       5.666  -0.336  -4.747  0.00  0.00    -0.016 C 
ATOM     11  C   LIG d   1       6.241  -0.241  -6.156  0.00  0.00    -0.031 C 
ATOM     12  H   LIG d   1       5.516   0.334  -6.791  0.00  0.00     0.031 H 
ATOM     13  C   LIG d   1       6.292  -1.694  -6.681  0.00  0.00    -0.046 C 
ATOM     14  C   LIG d   1       6.018  -2.612  -5.485  0.00  0.00    -0.028 C 
ATOM     15  H   LIG d   1       4.995  -2.985  -5.626  0.00  0.00     0.031 H 
ATOM     16  C   LIG d   1       5.980  -1.758  -4.229  0.00  0.00     0.037 C 
ATOM     17  C   LIG d   1       7.251  -1.751  -3.411  0.00  0.00    -0.040 C 
ATOM     18  C   LIG d   1       7.887  -3.133  -3.305  0.00  0.00    -0.052 C 
ATOM     19  C   LIG d   1       8.203  -3.636  -4.717  0.00  0.00    -0.053 C 
ATOM     20  C   LIG d   1       6.891  -3.832  -5.465  0.00  0.00    -0.049 C 
ATOM     21  C   LIG d   1       9.135   2.281  -5.519  0.00  0.00     0.000 C 
ATOM     22  C   LIG d   1      10.270   1.266  -5.433  0.00  0.00     0.077 C 
ATOM     23  C   LIG d   1      11.619   1.967  -5.606  0.00  0.00     0.003 C 
ATOM     24  C   LIG d   1      11.798   2.997  -4.489  0.00  0.00     0.058 C 
ATOM     25  H   LIG d   1      11.795   2.486  -3.524  0.00  0.00     0.059 H 
ATOM     26  C   LIG d   1      10.663   4.019  -4.529  0.00  0.00    -0.026 C 
ATOM     27  C   LIG d   1       9.313   3.316  -4.402  0.00  0.00    -0.042 C 
ATOM     28  H   LIG d   1       8.819  -1.033  -5.244  0.00  0.00     0.027 H 
ATOM     29  H   LIG d   1       8.676  -1.325  -6.985  0.00  0.00     0.027 H 
ATOM     30  H   LIG d   1       8.202   0.500  -3.560  0.00  0.00     0.027 H 
ATOM     31  H   LIG d   1       7.607   2.138  -3.298  0.00  0.00     0.027 H 
ATOM     32  H   LIG d   1       5.917   0.386  -2.760  0.00  0.00     0.027 H 
ATOM     33  H   LIG d   1       5.390   1.600  -3.922  0.00  0.00     0.027 H 
ATOM     34  H   LIG d   1       7.226  -1.947  -7.159  0.00  0.00     0.027 H 
ATOM     35  H   LIG d   1       5.491  -1.839  -7.426  0.00  0.00     0.027 H 
ATOM     36  H   LIG d   1       7.972  -1.084  -3.869  0.00  0.00     0.028 H 
ATOM     37  H   LIG d   1       7.029  -1.390  -2.407  0.00  0.00     0.028 H 
ATOM     38  H   LIG d   1       8.809  -3.060  -2.728  0.00  0.00     0.027 H 
ATOM     39  H   LIG d   1       7.202  -3.819  -2.812  0.00  0.00     0.027 H 
ATOM     40  H   LIG d   1       8.824  -2.910  -5.237  0.00  0.00     0.026 H 
ATOM     41  H   LIG d   1       8.735  -4.585  -4.652  0.00  0.00     0.026 H 
ATOM     42  H   LIG d   1       7.114  -4.123  -6.493  0.00  0.00     0.027 H 
ATOM     43  H   LIG d   1       6.340  -4.646  -4.991  0.00  0.00     0.027 H 
ATOM     44  H   LIG d   1      11.690   2.447  -6.575  0.00  0.00     0.032 H 
ATOM     45  H   LIG d   1      12.428   1.239  -5.518  0.00  0.00     0.032 H 
ATOM     46  H   LIG d   1      10.782   4.706  -3.680  0.00  0.00     0.029 H 
ATOM     47  H   LIG d   1      10.715   4.601  -5.444  0.00  0.00     0.029 H 
ATOM     48  H   LIG d   1       9.263   2.817  -3.434  0.00  0.00     0.027 H 
ATOM     49  H   LIG d   1       8.512   4.052  -4.465  0.00  0.00     0.027 H 
ENDROOT
BRANCH  16  50
ATOM     50  C   LIG d   1       4.833  -2.227  -3.355  0.00  0.00     0.137 C 
ATOM     51  O   LIG d   1       4.110  -3.117  -3.734  0.00  0.00    -0.297 OA
BRANCH  50  52
ATOM     52  C   LIG d   1       4.597  -1.584  -2.013  0.00  0.00    -0.005 C 
ATOM     53  H   LIG d   1       3.634  -1.684  -1.762  0.00  0.00     0.031 H 
ATOM     54  H   LIG d   1       5.220  -2.070  -1.263  0.00  0.00     0.031 H 
ATOM     55  H   LIG d   1       4.850  -0.526  -2.067  0.00  0.00     0.031 H 
ENDBRANCH  50  52
ENDBRANCH  16  50
BRANCH  10  56
ATOM     56  C   LIG d   1       4.121  -0.244  -4.881  0.00  0.00    -0.058 C 
ATOM     57  H   LIG d   1       3.867   0.404  -5.719  0.00  0.00     0.024 H 
ATOM     58  H   LIG d   1       3.711  -1.239  -5.053  0.00  0.00     0.024 H 
ATOM     59  H   LIG d   1       3.700   0.169  -3.964  0.00  0.00     0.024 H 
ENDBRANCH  10  56
BRANCH  21  60
ATOM     60  C   LIG d   1       9.174   3.013  -6.868  0.00  0.00    -0.057 C 
ATOM     61  H   LIG d   1      10.166   3.438  -7.023  0.00  0.00     0.024 H 
ATOM     62  H   LIG d   1       8.953   2.308  -7.670  0.00  0.00     0.024 H 
ATOM     63  H   LIG d   1       8.432   3.810  -6.872  0.00  0.00     0.024 H 
ENDBRANCH  21  60
BRANCH   1  64
ATOM     64  C   LIG d   1      11.222  -0.850  -6.395  0.00  0.00    -0.060 C 
ATOM     65  H   LIG d   1      11.637  -1.018  -7.389  0.00  0.00     0.023 H 
ATOM     66  H   LIG d   1      12.002  -0.473  -5.734  0.00  0.00     0.023 H 
ATOM     67  H   LIG d   1      10.832  -1.788  -6.000  0.00  0.00     0.023 H 
ENDBRANCH   1  64
BRANCH  22  68
ATOM     68  O   LIG d   1      10.267   0.650  -4.136  0.00  0.00    -0.388 OA
ATOM     69  H   LIG d   1      10.828  -0.135  -4.071  0.00  0.00     0.210 HD
ENDBRANCH  22  68
BRANCH  24  70
ATOM     70  O   LIG d   1      13.050   3.667  -4.660  0.00  0.00    -0.392 OA
ATOM     71  H   LIG d   1      13.810   3.172  -4.323  0.00  0.00     0.210 HD
ENDBRANCH  24  70
TORSDOF 7
ENDMDL
MODEL 3
REMARK VINA RESULT:      -5.9      2.629      6.042
REMARK  7 active torsions:
REMARK  status: ('A' for Active; 'I' for Inactive)
REMARK    1  A    between atoms: C_1  and  C_2 
REMARK    2  A    between atoms: C_11  and  C_25 
REMARK    3  A    between atoms: C_17  and  C_22 
REMARK    4  A    between atoms: C_22  and  C_24 
REMARK    5  A    between atoms: C_26  and  C_35 
REMARK    6  A    between atoms: C_27  and  O_34 
REMARK    7  A    between atoms: C_29  and  O_33 
ROOT
ATOM      1  C   LIG d   1       4.064  -1.444  -5.693  0.00  0.00    -0.014 C 
ATOM      2  H   LIG d   1       3.169  -1.994  -5.416  0.00  0.00     0.033 H 
ATOM      3  C   LIG d   1       5.183  -2.437  -6.051  0.00  0.00    -0.044 C 
ATOM      4  C   LIG d   1       5.512  -3.307  -4.853  0.00  0.00    -0.034 C 
ATOM      5  H   LIG d   1       4.565  -3.848  -4.604  0.00  0.00     0.031 H 
ATOM      6  C   LIG d   1       5.867  -2.501  -3.619  0.00  0.00    -0.030 C 
ATOM      7  H   LIG d   1       5.860  -3.197  -2.756  0.00  0.00     0.031 H 
ATOM      8  C   LIG d   1       7.270  -1.917  -3.728  0.00  0.00    -0.049 C 
ATOM      9  C   LIG d   1       8.283  -3.044  -3.845  0.00  0.00    -0.046 C 
ATOM     10  C   LIG d   1       7.991  -4.052  -4.922  0.00  0.00    -0.016 C 
ATOM     11  C   LIG d   1       6.524  -4.397  -5.152  0.00  0.00    -0.031 C 
ATOM     12  H   LIG d   1       6.269  -5.284  -4.513  0.00  0.00     0.031 H 
ATOM     13  C   LIG d   1       6.428  -4.829  -6.634  0.00  0.00    -0.046 C 
ATOM     14  C   LIG d   1       7.760  -4.460  -7.294  0.00  0.00    -0.028 C 
ATOM     15  H   LIG d   1       8.295  -5.409  -7.433  0.00  0.00     0.031 H 
ATOM     16  C   LIG d   1       8.581  -3.661  -6.297  0.00  0.00     0.037 C 
ATOM     17  C   LIG d   1       8.544  -2.162  -6.478  0.00  0.00    -0.040 C 
ATOM     18  C   LIG d   1       8.618  -1.748  -7.944  0.00  0.00    -0.052 C 
ATOM     19  C   LIG d   1       7.435  -2.373  -8.689  0.00  0.00    -0.053 C 
ATOM     20  C   LIG d   1       7.597  -3.886  -8.671  0.00  0.00    -0.049 C 
ATOM     21  C   LIG d   1       4.845  -1.406  -3.316  0.00  0.00     0.000 C 
ATOM     22  C   LIG d   1       4.542  -0.559  -4.548  0.00  0.00     0.077 C 
ATOM     23  C   LIG d   1       3.498   0.508  -4.211  0.00  0.00     0.003 C 
ATOM     24  C   LIG d   1       4.047   1.420  -3.112  0.00  0.00     0.058 C 
ATOM     25  H   LIG d   1       4.947   1.920  -3.476  0.00  0.00     0.059 H 
ATOM     26  C   LIG d   1       4.384   0.601  -1.868  0.00  0.00    -0.026 C 
ATOM     27  C   LIG d   1       5.393  -0.493  -2.212  0.00  0.00    -0.042 C 
ATOM     28  H   LIG d   1       6.044  -1.882  -6.397  0.00  0.00     0.027 H 
ATOM     29  H   LIG d   1       4.795  -3.044  -6.876  0.00  0.00     0.027 H 
ATOM     30  H   LIG d   1       7.358  -1.223  -4.552  0.00  0.00     0.027 H 
ATOM     31  H   LIG d   1       7.495  -1.361  -2.800  0.00  0.00     0.027 H 
ATOM     32  H   LIG d   1       9.273  -2.610  -4.022  0.00  0.00     0.027 H 
ATOM     33  H   LIG d   1       8.333  -3.571  -2.883  0.00  0.00     0.027 H 
ATOM     34  H   LIG d   1       5.597  -4.385  -7.159  0.00  0.00     0.027 H 
ATOM     35  H   LIG d   1       6.301  -5.924  -6.684  0.00  0.00     0.027 H 
ATOM     36  H   LIG d   1       7.621  -1.770  -6.065  0.00  0.00     0.028 H 
ATOM     37  H   LIG d   1       9.382  -1.715  -5.945  0.00  0.00     0.028 H 
ATOM     38  H   LIG d   1       8.561  -0.661  -8.013  0.00  0.00     0.027 H 
ATOM     39  H   LIG d   1       9.554  -2.092  -8.379  0.00  0.00     0.027 H 
ATOM     40  H   LIG d   1       6.503  -2.091  -8.205  0.00  0.00     0.026 H 
ATOM     41  H   LIG d   1       7.428  -2.016  -9.720  0.00  0.00     0.026 H 
ATOM     42  H   LIG d   1       6.722  -4.339  -9.140  0.00  0.00     0.027 H 
ATOM     43  H   LIG d   1       8.476  -4.148  -9.263  0.00  0.00     0.027 H 
ATOM     44  H   LIG d   1       2.565   0.057  -3.894  0.00  0.00     0.032 H 
ATOM     45  H   LIG d   1       3.305   1.127  -5.090  0.00  0.00     0.032 H 
ATOM     46  H   LIG d   1       4.834   1.270  -1.121  0.00  0.00     0.029 H 
ATOM     47  H   LIG d   1       3.481   0.178  -1.441  0.00  0.00     0.029 H 
ATOM     48  H   LIG d   1       6.318  -0.028  -2.553  0.00  0.00     0.027 H 
ATOM     49  H   LIG d   1       5.600  -1.090  -1.324  0.00  0.00     0.027 H 
ENDROOT
BRANCH  16  50
ATOM     50  C   LIG d   1      10.021  -4.131  -6.364  0.00  0.00     0.137 C 
ATOM     51  O   LIG d   1      10.291  -5.176  -6.904  0.00  0.00    -0.297 OA
BRANCH  50  52
ATOM     52  C   LIG d   1      11.117  -3.292  -5.757  0.00  0.00    -0.005 C 
ATOM     53  H   LIG d   1      11.586  -3.820  -5.049  0.00  0.00     0.031 H 
ATOM     54  H   LIG d   1      11.828  -3.009  -6.532  0.00  0.00     0.031 H 
ATOM     55  H   LIG d   1      10.685  -2.395  -5.315  0.00  0.00     0.031 H 
ENDBRANCH  50  52
ENDBRANCH  16  50
BRANCH  10  56
ATOM     56  C   LIG d   1       8.703  -5.363  -4.490  0.00  0.00    -0.058 C 
ATOM     57  H   LIG d   1       9.532  -5.567  -5.166  0.00  0.00     0.024 H 
ATOM     58  H   LIG d   1       9.080  -5.255  -3.473  0.00  0.00     0.024 H 
ATOM     59  H   LIG d   1       7.994  -6.191  -4.527  0.00  0.00     0.024 H 
ENDBRANCH  10  56
BRANCH  21  60
ATOM     60  C   LIG d   1       3.563  -2.075  -2.799  0.00  0.00    -0.057 C 
ATOM     61  H   LIG d   1       2.752  -1.902  -3.507  0.00  0.00     0.024 H 
ATOM     62  H   LIG d   1       3.730  -3.147  -2.695  0.00  0.00     0.024 H 
ATOM     63  H   LIG d   1       3.297  -1.653  -1.831  0.00  0.00     0.024 H 
ENDBRANCH  21  60
BRANCH   1  64
ATOM     64  C   LIG d   1       3.766  -0.596  -6.936  0.00  0.00    -0.060 C 
ATOM     65  H   LIG d   1       4.683  -0.462  -7.511  0.00  0.00     0.023 H 
ATOM     66  H   LIG d   1       3.022  -1.102  -7.551  0.00  0.00     0.023 H 
ATOM     67  H   LIG d   1       3.383   0.377  -6.629  0.00  0.00     0.023 H 
ENDBRANCH   1  64
BRANCH  22  68
ATOM     68  O   LIG d   1       5.735   0.122  -4.967  0.00  0.00    -0.388 OA
ATOM     69  H   LIG d   1       6.521  -0.107  -4.452  0.00  0.00     0.210 HD
ENDBRANCH  22  68
BRANCH  24  70
ATOM     70  O   LIG d   1       3.064   2.406  -2.783  0.00  0.00    -0.392 OA
ATOM     71  H   LIG d   1       2.933   3.075  -3.470  0.00  0.00     0.210 HD
ENDBRANCH  24  70
TORSDOF 7
ENDMDL
MODEL 4
REMARK VINA RESULT:      -5.9      3.101      6.234
REMARK  7 active torsions:
REMARK  status: ('A' for Active; 'I' for Inactive)
REMARK    1  A    between atoms: C_1  and  C_2 
REMARK    2  A    between atoms: C_11  and  C_25 
REMARK    3  A    between atoms: C_17  and  C_22 
REMARK    4  A    between atoms: C_22  and  C_24 
REMARK    5  A    between atoms: C_26  and  C_35 
REMARK    6  A    between atoms: C_27  and  O_34 
REMARK    7  A    between atoms: C_29  and  O_33 
ROOT
ATOM      1  C   LIG d   1       6.776  -0.551  -5.333  0.00  0.00    -0.014 C 
ATOM      2  H   LIG d   1       6.336   0.175  -6.010  0.00  0.00     0.033 H 
ATOM      3  C   LIG d   1       6.988  -1.879  -6.080  0.00  0.00    -0.044 C 
ATOM      4  C   LIG d   1       5.658  -2.425  -6.563  0.00  0.00    -0.034 C 
ATOM      5  H   LIG d   1       5.244  -1.645  -7.249  0.00  0.00     0.031 H 
ATOM      6  C   LIG d   1       4.644  -2.579  -5.447  0.00  0.00    -0.030 C 
ATOM      7  H   LIG d   1       3.656  -2.753  -5.920  0.00  0.00     0.031 H 
ATOM      8  C   LIG d   1       4.959  -3.791  -4.579  0.00  0.00    -0.049 C 
ATOM      9  C   LIG d   1       4.902  -5.052  -5.427  0.00  0.00    -0.046 C 
ATOM     10  C   LIG d   1       5.724  -5.011  -6.685  0.00  0.00    -0.016 C 
ATOM     11  C   LIG d   1       5.786  -3.674  -7.415  0.00  0.00    -0.031 C 
ATOM     12  H   LIG d   1       4.962  -3.654  -8.177  0.00  0.00     0.031 H 
ATOM     13  C   LIG d   1       7.136  -3.676  -8.169  0.00  0.00    -0.046 C 
ATOM     14  C   LIG d   1       7.941  -4.869  -7.642  0.00  0.00    -0.028 C 
ATOM     15  H   LIG d   1       7.912  -5.622  -8.441  0.00  0.00     0.031 H 
ATOM     16  C   LIG d   1       7.184  -5.474  -6.471  0.00  0.00     0.037 C 
ATOM     17  C   LIG d   1       7.672  -5.062  -5.102  0.00  0.00    -0.040 C 
ATOM     18  C   LIG d   1       9.193  -5.018  -5.011  0.00  0.00    -0.052 C 
ATOM     19  C   LIG d   1       9.717  -4.021  -6.049  0.00  0.00    -0.053 C 
ATOM     20  C   LIG d   1       9.394  -4.556  -7.438  0.00  0.00    -0.049 C 
ATOM     21  C   LIG d   1       4.512  -1.318  -4.592  0.00  0.00     0.000 C 
ATOM     22  C   LIG d   1       5.872  -0.804  -4.132  0.00  0.00     0.077 C 
ATOM     23  C   LIG d   1       5.701   0.470  -3.303  0.00  0.00     0.003 C 
ATOM     24  C   LIG d   1       4.852   0.157  -2.068  0.00  0.00     0.058 C 
ATOM     25  H   LIG d   1       5.368  -0.587  -1.457  0.00  0.00     0.059 H 
ATOM     26  C   LIG d   1       3.488  -0.385  -2.491  0.00  0.00    -0.026 C 
ATOM     27  C   LIG d   1       3.659  -1.631  -3.357  0.00  0.00    -0.042 C 
ATOM     28  H   LIG d   1       7.495  -2.572  -5.423  0.00  0.00     0.027 H 
ATOM     29  H   LIG d   1       7.643  -1.648  -6.928  0.00  0.00     0.027 H 
ATOM     30  H   LIG d   1       5.914  -3.696  -4.081  0.00  0.00     0.027 H 
ATOM     31  H   LIG d   1       4.183  -3.878  -3.798  0.00  0.00     0.027 H 
ATOM     32  H   LIG d   1       5.226  -5.901  -4.816  0.00  0.00     0.027 H 
ATOM     33  H   LIG d   1       3.856  -5.240  -5.704  0.00  0.00     0.027 H 
ATOM     34  H   LIG d   1       7.690  -2.756  -8.063  0.00  0.00     0.027 H 
ATOM     35  H   LIG d   1       6.949  -3.826  -9.246  0.00  0.00     0.027 H 
ATOM     36  H   LIG d   1       7.293  -4.074  -4.864  0.00  0.00     0.028 H 
ATOM     37  H   LIG d   1       7.297  -5.767  -4.361  0.00  0.00     0.028 H 
ATOM     38  H   LIG d   1       9.483  -4.691  -4.011  0.00  0.00     0.027 H 
ATOM     39  H   LIG d   1       9.604  -6.007  -5.204  0.00  0.00     0.027 H 
ATOM     40  H   LIG d   1       9.245  -3.053  -5.903  0.00  0.00     0.026 H 
ATOM     41  H   LIG d   1      10.797  -3.917  -5.937  0.00  0.00     0.026 H 
ATOM     42  H   LIG d   1       9.703  -3.817  -8.179  0.00  0.00     0.027 H 
ATOM     43  H   LIG d   1       9.972  -5.467  -7.602  0.00  0.00     0.027 H 
ATOM     44  H   LIG d   1       5.239   1.259  -3.885  0.00  0.00     0.032 H 
ATOM     45  H   LIG d   1       6.675   0.819  -2.954  0.00  0.00     0.032 H 
ATOM     46  H   LIG d   1       2.927  -0.661  -1.588  0.00  0.00     0.029 H 
ATOM     47  H   LIG d   1       2.927   0.381  -3.017  0.00  0.00     0.029 H 
ATOM     48  H   LIG d   1       4.146  -2.408  -2.768  0.00  0.00     0.027 H 
ATOM     49  H   LIG d   1       2.681  -1.988  -3.678  0.00  0.00     0.027 H 
ENDROOT
BRANCH  16  50
ATOM     50  C   LIG d   1       7.242  -6.984  -6.583  0.00  0.00     0.137 C 
ATOM     51  O   LIG d   1       7.571  -7.501  -7.623  0.00  0.00    -0.297 OA
BRANCH  50  52
ATOM     52  C   LIG d   1       6.890  -7.841  -5.394  0.00  0.00    -0.005 C 
ATOM     53  H   LIG d   1       6.555  -8.728  -5.711  0.00  0.00     0.031 H 
ATOM     54  H   LIG d   1       7.776  -7.987  -4.776  0.00  0.00     0.031 H 
ATOM     55  H   LIG d   1       6.115  -7.349  -4.807  0.00  0.00     0.031 H 
ENDBRANCH  50  52
ENDBRANCH  16  50
BRANCH  10  56
ATOM     56  C   LIG d   1       5.074  -6.030  -7.659  0.00  0.00    -0.058 C 
ATOM     57  H   LIG d   1       5.849  -6.507  -8.258  0.00  0.00     0.024 H 
ATOM     58  H   LIG d   1       4.538  -6.788  -7.089  0.00  0.00     0.024 H 
ATOM     59  H   LIG d   1       4.377  -5.511  -8.317  0.00  0.00     0.024 H 
ENDBRANCH  10  56
BRANCH  21  60
ATOM     60  C   LIG d   1       3.789  -0.248  -5.422  0.00  0.00    -0.057 C 
ATOM     61  H   LIG d   1       3.142   0.341  -4.772  0.00  0.00     0.024 H 
ATOM     62  H   LIG d   1       4.525   0.406  -5.891  0.00  0.00     0.024 H 
ATOM     63  H   LIG d   1       3.189  -0.729  -6.193  0.00  0.00     0.024 H 
ENDBRANCH  21  60
BRANCH   1  64
ATOM     64  C   LIG d   1       8.147  -0.041  -4.874  0.00  0.00    -0.060 C 
ATOM     65  H   LIG d   1       8.804   0.064  -5.738  0.00  0.00     0.023 H 
ATOM     66  H   LIG d   1       8.031   0.927  -4.386  0.00  0.00     0.023 H 
ATOM     67  H   LIG d   1       8.582  -0.752  -4.171  0.00  0.00     0.023 H 
ENDBRANCH   1  64
BRANCH  22  68
ATOM     68  O   LIG d   1       6.498  -1.786  -3.291  0.00  0.00    -0.388 OA
ATOM     69  H   LIG d   1       6.885  -2.529  -3.775  0.00  0.00     0.210 HD
ENDBRANCH  22  68
BRANCH  24  70
ATOM     70  O   LIG d   1       4.676   1.351  -1.301  0.00  0.00    -0.392 OA
ATOM     71  H   LIG d   1       3.758   1.653  -1.249  0.00  0.00     0.210 HD
ENDBRANCH  24  70
TORSDOF 7
ENDMDL
MODEL 5
REMARK VINA RESULT:      -5.9      9.914     11.797
REMARK  7 active torsions:
REMARK  status: ('A' for Active; 'I' for Inactive)
REMARK    1  A    between atoms: C_1  and  C_2 
REMARK    2  A    between atoms: C_11  and  C_25 
REMARK    3  A    between atoms: C_17  and  C_22 
REMARK    4  A    between atoms: C_22  and  C_24 
REMARK    5  A    between atoms: C_26  and  C_35 
REMARK    6  A    between atoms: C_27  and  O_34 
REMARK    7  A    between atoms: C_29  and  O_33 
ROOT
ATOM      1  C   LIG d   1      10.644  10.356  -5.114  0.00  0.00    -0.014 C 
ATOM      2  H   LIG d   1      11.502  10.824  -5.588  0.00  0.00     0.033 H 
ATOM      3  C   LIG d   1      11.010   9.960  -3.674  0.00  0.00    -0.044 C 
ATOM      4  C   LIG d   1      12.152   8.961  -3.680  0.00  0.00    -0.034 C 
ATOM      5  H   LIG d   1      13.006   9.485  -4.179  0.00  0.00     0.031 H 
ATOM      6  C   LIG d   1      11.861   7.740  -4.529  0.00  0.00    -0.030 C 
ATOM      7  H   LIG d   1      12.817   7.194  -4.662  0.00  0.00     0.031 H 
ATOM      8  C   LIG d   1      10.889   6.800  -3.826  0.00  0.00    -0.049 C 
ATOM      9  C   LIG d   1      11.502   6.316  -2.522  0.00  0.00    -0.046 C 
ATOM     10  C   LIG d   1      12.012   7.403  -1.617  0.00  0.00    -0.016 C 
ATOM     11  C   LIG d   1      12.658   8.607  -2.295  0.00  0.00    -0.031 C 
ATOM     12  H   LIG d   1      13.761   8.412  -2.374  0.00  0.00     0.031 H 
ATOM     13  C   LIG d   1      12.448   9.791  -1.324  0.00  0.00    -0.046 C 
ATOM     14  C   LIG d   1      11.454   9.323  -0.256  0.00  0.00    -0.028 C 
ATOM     15  H   LIG d   1      12.050   9.161   0.652  0.00  0.00     0.031 H 
ATOM     16  C   LIG d   1      10.931   7.955  -0.660  0.00  0.00     0.037 C 
ATOM     17  C   LIG d   1       9.579   7.951  -1.335  0.00  0.00    -0.040 C 
ATOM     18  C   LIG d   1       8.596   8.917  -0.683  0.00  0.00    -0.052 C 
ATOM     19  C   LIG d   1       9.184  10.330  -0.747  0.00  0.00    -0.053 C 
ATOM     20  C   LIG d   1      10.442  10.369   0.109  0.00  0.00    -0.049 C 
ATOM     21  C   LIG d   1      11.355   8.098  -5.926  0.00  0.00     0.000 C 
ATOM     22  C   LIG d   1      10.211   9.106  -5.871  0.00  0.00     0.077 C 
ATOM     23  C   LIG d   1       9.750   9.459  -7.287  0.00  0.00     0.003 C 
ATOM     24  C   LIG d   1       9.253   8.191  -7.985  0.00  0.00     0.058 C 
ATOM     25  H   LIG d   1       8.401   7.787  -7.434  0.00  0.00     0.059 H 
ATOM     26  C   LIG d   1      10.368   7.148  -8.037  0.00  0.00    -0.026 C 
ATOM     27  C   LIG d   1      10.860   6.828  -6.628  0.00  0.00    -0.042 C 
ATOM     28  H   LIG d   1      10.130   9.565  -3.186  0.00  0.00     0.027 H 
ATOM     29  H   LIG d   1      11.309  10.887  -3.172  0.00  0.00     0.027 H 
ATOM     30  H   LIG d   1       9.926   7.262  -3.659  0.00  0.00     0.027 H 
ATOM     31  H   LIG d   1      10.725   5.915  -4.467  0.00  0.00     0.027 H 
ATOM     32  H   LIG d   1      10.756   5.723  -1.981  0.00  0.00     0.027 H 
ATOM     33  H   LIG d   1      12.336   5.642  -2.756  0.00  0.00     0.027 H 
ATOM     34  H   LIG d   1      12.101  10.690  -1.811  0.00  0.00     0.027 H 
ATOM     35  H   LIG d   1      13.406  10.032  -0.833  0.00  0.00     0.027 H 
ATOM     36  H   LIG d   1       9.692   8.238  -2.374  0.00  0.00     0.028 H 
ATOM     37  H   LIG d   1       9.161   6.946  -1.294  0.00  0.00     0.028 H 
ATOM     38  H   LIG d   1       7.651   8.889  -1.227  0.00  0.00     0.027 H 
ATOM     39  H   LIG d   1       8.428   8.632   0.353  0.00  0.00     0.027 H 
ATOM     40  H   LIG d   1       9.425  10.584  -1.777  0.00  0.00     0.026 H 
ATOM     41  H   LIG d   1       8.454  11.043  -0.360  0.00  0.00     0.026 H 
ATOM     42  H   LIG d   1      10.903  11.354   0.011  0.00  0.00     0.027 H 
ATOM     43  H   LIG d   1      10.157  10.228   1.153  0.00  0.00     0.027 H 
ATOM     44  H   LIG d   1      10.551   9.913  -7.858  0.00  0.00     0.032 H 
ATOM     45  H   LIG d   1       8.914  10.160  -7.240  0.00  0.00     0.032 H 
ATOM     46  H   LIG d   1       9.965   6.229  -8.485  0.00  0.00     0.029 H 
ATOM     47  H   LIG d   1      11.181   7.499  -8.664  0.00  0.00     0.029 H 
ATOM     48  H   LIG d   1      10.040   6.394  -6.055  0.00  0.00     0.027 H 
ATOM     49  H   LIG d   1      11.676   6.108  -6.682  0.00  0.00     0.027 H 
ENDROOT
BRANCH  16  50
ATOM     50  C   LIG d   1      10.870   7.073   0.572  0.00  0.00     0.137 C 
ATOM     51  O   LIG d   1      10.421   5.956   0.493  0.00  0.00    -0.297 OA
BRANCH  50  52
ATOM     52  C   LIG d   1      11.372   7.592   1.895  0.00  0.00    -0.005 C 
ATOM     53  H   LIG d   1      11.680   8.537   1.787  0.00  0.00     0.031 H 
ATOM     54  H   LIG d   1      10.567   7.554   2.629  0.00  0.00     0.031 H 
ATOM     55  H   LIG d   1      12.204   6.976   2.236  0.00  0.00     0.031 H 
ENDBRANCH  50  52
ENDBRANCH  16  50
BRANCH  10  56
ATOM     56  C   LIG d   1      13.101   6.746  -0.726  0.00  0.00    -0.058 C 
ATOM     57  H   LIG d   1      13.899   7.465  -0.538  0.00  0.00     0.024 H 
ATOM     58  H   LIG d   1      12.659   6.438   0.221  0.00  0.00     0.024 H 
ATOM     59  H   LIG d   1      13.512   5.875  -1.236  0.00  0.00     0.024 H 
ENDBRANCH  10  56
BRANCH  21  60
ATOM     60  C   LIG d   1      12.531   8.669  -6.731  0.00  0.00    -0.057 C 
ATOM     61  H   LIG d   1      13.470   8.330  -6.294  0.00  0.00     0.024 H 
ATOM     62  H   LIG d   1      12.466   8.324  -7.763  0.00  0.00     0.024 H 
ATOM     63  H   LIG d   1      12.493   9.758  -6.710  0.00  0.00     0.024 H 
ENDBRANCH  21  60
BRANCH   1  64
ATOM     64  C   LIG d   1       9.493  11.368  -5.050  0.00  0.00    -0.060 C 
ATOM     65  H   LIG d   1       8.916  11.204  -4.139  0.00  0.00     0.023 H 
ATOM     66  H   LIG d   1       9.898  12.380  -5.047  0.00  0.00     0.023 H 
ATOM     67  H   LIG d   1       8.847  11.238  -5.918  0.00  0.00     0.023 H 
ENDBRANCH   1  64
BRANCH  22  68
ATOM     68  O   LIG d   1       9.091   8.524  -5.185  0.00  0.00    -0.388 OA
ATOM     69  H   LIG d   1       9.237   8.389  -4.238  0.00  0.00     0.210 HD
ENDBRANCH  22  68
BRANCH  24  70
ATOM     70  O   LIG d   1       8.839   8.515  -9.315  0.00  0.00    -0.392 OA
ATOM     71  H   LIG d   1       7.932   8.845  -9.375  0.00  0.00     0.210 HD
ENDBRANCH  24  70
TORSDOF 7
ENDMDL
MODEL 6
REMARK VINA RESULT:      -5.7      3.197      5.937
REMARK  7 active torsions:
REMARK  status: ('A' for Active; 'I' for Inactive)
REMARK    1  A    between atoms: C_1  and  C_2 
REMARK    2  A    between atoms: C_11  and  C_25 
REMARK    3  A    between atoms: C_17  and  C_22 
REMARK    4  A    between atoms: C_22  and  C_24 
REMARK    5  A    between atoms: C_26  and  C_35 
REMARK    6  A    between atoms: C_27  and  O_34 
REMARK    7  A    between atoms: C_29  and  O_33 
ROOT
ATOM      1  C   LIG d   1       1.256  -3.540 -10.743  0.00  0.00    -0.014 C 
ATOM      2  H   LIG d   1       0.186  -3.362 -10.688  0.00  0.00     0.033 H 
ATOM      3  C   LIG d   1       1.994  -2.454  -9.942  0.00  0.00    -0.044 C 
ATOM      4  C   LIG d   1       1.710  -1.086 -10.531  0.00  0.00    -0.034 C 
ATOM      5  H   LIG d   1       0.602  -0.951 -10.457  0.00  0.00     0.031 H 
ATOM      6  C   LIG d   1       2.041  -1.000 -12.008  0.00  0.00    -0.030 C 
ATOM      7  H   LIG d   1       1.590  -0.064 -12.393  0.00  0.00     0.031 H 
ATOM      8  C   LIG d   1       3.546  -0.912 -12.230  0.00  0.00    -0.049 C 
ATOM      9  C   LIG d   1       4.086   0.344 -11.566  0.00  0.00    -0.046 C 
ATOM     10  C   LIG d   1       3.704   0.515 -10.122  0.00  0.00    -0.016 C 
ATOM     11  C   LIG d   1       2.303   0.057  -9.729  0.00  0.00    -0.031 C 
ATOM     12  H   LIG d   1       1.610   0.936  -9.822  0.00  0.00     0.031 H 
ATOM     13  C   LIG d   1       2.397  -0.325  -8.234  0.00  0.00    -0.046 C 
ATOM     14  C   LIG d   1       3.885  -0.352  -7.871  0.00  0.00    -0.028 C 
ATOM     15  H   LIG d   1       4.061   0.553  -7.274  0.00  0.00     0.031 H 
ATOM     16  C   LIG d   1       4.690  -0.170  -9.147  0.00  0.00     0.037 C 
ATOM     17  C   LIG d   1       5.234  -1.442  -9.757  0.00  0.00    -0.040 C 
ATOM     18  C   LIG d   1       5.781  -2.405  -8.710  0.00  0.00    -0.052 C 
ATOM     19  C   LIG d   1       4.654  -2.760  -7.735  0.00  0.00    -0.053 C 
ATOM     20  C   LIG d   1       4.255  -1.500  -6.979  0.00  0.00    -0.049 C 
ATOM     21  C   LIG d   1       1.439  -2.150 -12.815  0.00  0.00     0.000 C 
ATOM     22  C   LIG d   1       1.747  -3.504 -12.185  0.00  0.00     0.077 C 
ATOM     23  C   LIG d   1       1.107  -4.626 -13.006  0.00  0.00     0.003 C 
ATOM     24  C   LIG d   1       1.683  -4.603 -14.424  0.00  0.00     0.058 C 
ATOM     25  H   LIG d   1       2.759  -4.779 -14.378  0.00  0.00     0.059 H 
ATOM     26  C   LIG d   1       1.413  -3.250 -15.079  0.00  0.00    -0.026 C 
ATOM     27  C   LIG d   1       2.013  -2.125 -14.237  0.00  0.00    -0.042 C 
ATOM     28  H   LIG d   1       3.051  -2.682  -9.938  0.00  0.00     0.027 H 
ATOM     29  H   LIG d   1       1.612  -2.522  -8.917  0.00  0.00     0.027 H 
ATOM     30  H   LIG d   1       4.061  -1.795 -11.877  0.00  0.00     0.027 H 
ATOM     31  H   LIG d   1       3.739  -0.826 -13.314  0.00  0.00     0.027 H 
ATOM     32  H   LIG d   1       5.178   0.344 -11.648  0.00  0.00     0.027 H 
ATOM     33  H   LIG d   1       3.725   1.218 -12.124  0.00  0.00     0.027 H 
ATOM     34  H   LIG d   1       1.922  -1.265  -7.999  0.00  0.00     0.027 H 
ATOM     35  H   LIG d   1       1.901   0.454  -7.629  0.00  0.00     0.027 H 
ATOM     36  H   LIG d   1       4.445  -1.949 -10.300  0.00  0.00     0.028 H 
ATOM     37  H   LIG d   1       6.033  -1.191 -10.454  0.00  0.00     0.028 H 
ATOM     38  H   LIG d   1       6.134  -3.310  -9.205  0.00  0.00     0.027 H 
ATOM     39  H   LIG d   1       6.604  -1.939  -8.172  0.00  0.00     0.027 H 
ATOM     40  H   LIG d   1       3.801  -3.152  -8.283  0.00  0.00     0.026 H 
ATOM     41  H   LIG d   1       5.009  -3.513  -7.031  0.00  0.00     0.026 H 
ATOM     42  H   LIG d   1       3.406  -1.732  -6.334  0.00  0.00     0.027 H 
ATOM     43  H   LIG d   1       5.091  -1.195  -6.347  0.00  0.00     0.027 H 
ATOM     44  H   LIG d   1       0.029  -4.523 -13.036  0.00  0.00     0.032 H 
ATOM     45  H   LIG d   1       1.353  -5.594 -12.564  0.00  0.00     0.032 H 
ATOM     46  H   LIG d   1       1.891  -3.239 -16.068  0.00  0.00     0.029 H 
ATOM     47  H   LIG d   1       0.347  -3.106 -15.218  0.00  0.00     0.029 H 
ATOM     48  H   LIG d   1       3.094  -2.253 -14.193  0.00  0.00     0.027 H 
ATOM     49  H   LIG d   1       1.785  -1.164 -14.698  0.00  0.00     0.027 H 
ENDROOT
BRANCH  16  50
ATOM     50  C   LIG d   1       5.841   0.776  -8.868  0.00  0.00     0.137 C 
ATOM     51  O   LIG d   1       5.804   1.503  -7.905  0.00  0.00    -0.297 OA
BRANCH  50  52
ATOM     52  C   LIG d   1       7.032   0.807  -9.791  0.00  0.00    -0.005 C 
ATOM     53  H   LIG d   1       6.717   0.889 -10.737  0.00  0.00     0.031 H 
ATOM     54  H   LIG d   1       7.661   1.661  -9.542  0.00  0.00     0.031 H 
ATOM     55  H   LIG d   1       7.605  -0.113  -9.677  0.00  0.00     0.031 H 
ENDBRANCH  50  52
ENDBRANCH  16  50
BRANCH  10  56
ATOM     56  C   LIG d   1       3.781   2.039  -9.833  0.00  0.00    -0.058 C 
ATOM     57  H   LIG d   1       3.873   2.583 -10.772  0.00  0.00     0.024 H 
ATOM     58  H   LIG d   1       2.876   2.357  -9.315  0.00  0.00     0.024 H 
ATOM     59  H   LIG d   1       4.649   2.247  -9.207  0.00  0.00     0.024 H 
ENDBRANCH  10  56
BRANCH  21  60
ATOM     60  C   LIG d   1      -0.079  -1.933 -12.901  0.00  0.00    -0.057 C 
ATOM     61  H   LIG d   1      -0.478  -2.490 -13.749  0.00  0.00     0.024 H 
ATOM     62  H   LIG d   1      -0.548  -2.287 -11.982  0.00  0.00     0.024 H 
ATOM     63  H   LIG d   1      -0.288  -0.873 -13.031  0.00  0.00     0.024 H 
ENDBRANCH  21  60
BRANCH   1  64
ATOM     64  C   LIG d   1       1.571  -4.898 -10.103  0.00  0.00    -0.060 C 
ATOM     65  H   LIG d   1       0.881  -5.080  -9.279  0.00  0.00     0.023 H 
ATOM     66  H   LIG d   1       1.462  -5.685 -10.849  0.00  0.00     0.023 H 
ATOM     67  H   LIG d   1       2.594  -4.894  -9.727  0.00  0.00     0.023 H 
ENDBRANCH   1  64
BRANCH  22  68
ATOM     68  O   LIG d   1       3.166  -3.724 -12.187  0.00  0.00    -0.388 OA
ATOM     69  H   LIG d   1       3.466  -4.351 -12.859  0.00  0.00     0.210 HD
ENDBRANCH  22  68
BRANCH  24  70
ATOM     70  O   LIG d   1       1.072  -5.639 -15.198  0.00  0.00    -0.392 OA
ATOM     71  H   LIG d   1       0.194  -5.898 -14.885  0.00  0.00     0.210 HD
ENDBRANCH  24  70
TORSDOF 7
ENDMDL
MODEL 7
REMARK VINA RESULT:      -5.7      1.655      6.672
REMARK  7 active torsions:
REMARK  status: ('A' for Active; 'I' for Inactive)
REMARK    1  A    between atoms: C_1  and  C_2 
REMARK    2  A    between atoms: C_11  and  C_25 
REMARK    3  A    between atoms: C_17  and  C_22 
REMARK    4  A    between atoms: C_22  and  C_24 
REMARK    5  A    between atoms: C_26  and  C_35 
REMARK    6  A    between atoms: C_27  and  O_34 
REMARK    7  A    between atoms: C_29  and  O_33 
ROOT
ATOM      1  C   LIG d   1       6.010  -2.565  -6.142  0.00  0.00    -0.014 C 
ATOM      2  H   LIG d   1       6.985  -2.141  -5.924  0.00  0.00     0.033 H 
ATOM      3  C   LIG d   1       5.657  -2.301  -7.615  0.00  0.00    -0.044 C 
ATOM      4  C   LIG d   1       5.594  -0.808  -7.878  0.00  0.00    -0.034 C 
ATOM      5  H   LIG d   1       6.615  -0.418  -7.637  0.00  0.00     0.031 H 
ATOM      6  C   LIG d   1       4.642  -0.085  -6.947  0.00  0.00    -0.030 C 
ATOM      7  H   LIG d   1       4.837   1.001  -7.053  0.00  0.00     0.031 H 
ATOM      8  C   LIG d   1       3.191  -0.333  -7.342  0.00  0.00    -0.049 C 
ATOM      9  C   LIG d   1       2.948   0.196  -8.746  0.00  0.00    -0.046 C 
ATOM     10  C   LIG d   1       3.922  -0.287  -9.785  0.00  0.00    -0.016 C 
ATOM     11  C   LIG d   1       5.370  -0.456  -9.337  0.00  0.00    -0.031 C 
ATOM     12  H   LIG d   1       5.913   0.504  -9.544  0.00  0.00     0.031 H 
ATOM     13  C   LIG d   1       5.963  -1.551 -10.253  0.00  0.00    -0.046 C 
ATOM     14  C   LIG d   1       4.790  -2.184 -11.009  0.00  0.00    -0.028 C 
ATOM     15  H   LIG d   1       4.859  -1.802 -12.037  0.00  0.00     0.031 H 
ATOM     16  C   LIG d   1       3.497  -1.621 -10.442  0.00  0.00     0.037 C 
ATOM     17  C   LIG d   1       2.793  -2.502  -9.436  0.00  0.00    -0.040 C 
ATOM     18  C   LIG d   1       2.805  -3.973  -9.836  0.00  0.00    -0.052 C 
ATOM     19  C   LIG d   1       4.260  -4.432  -9.971  0.00  0.00    -0.053 C 
ATOM     20  C   LIG d   1       4.900  -3.676 -11.127  0.00  0.00    -0.049 C 
ATOM     21  C   LIG d   1       4.872  -0.438  -5.477  0.00  0.00     0.000 C 
ATOM     22  C   LIG d   1       4.930  -1.946  -5.261  0.00  0.00     0.077 C 
ATOM     23  C   LIG d   1       5.188  -2.258  -3.785  0.00  0.00     0.003 C 
ATOM     24  C   LIG d   1       4.045  -1.686  -2.943  0.00  0.00     0.058 C 
ATOM     25  H   LIG d   1       3.107  -2.162  -3.239  0.00  0.00     0.059 H 
ATOM     26  C   LIG d   1       3.941  -0.177  -3.154  0.00  0.00    -0.026 C 
ATOM     27  C   LIG d   1       3.729   0.138  -4.633  0.00  0.00    -0.042 C 
ATOM     28  H   LIG d   1       4.720  -2.791  -7.843  0.00  0.00     0.027 H 
ATOM     29  H   LIG d   1       6.455  -2.765  -8.205  0.00  0.00     0.027 H 
ATOM     30  H   LIG d   1       2.922  -1.377  -7.264  0.00  0.00     0.027 H 
ATOM     31  H   LIG d   1       2.536   0.230  -6.654  0.00  0.00     0.027 H 
ATOM     32  H   LIG d   1       1.933  -0.076  -9.054  0.00  0.00     0.027 H 
ATOM     33  H   LIG d   1       2.989   1.293  -8.718  0.00  0.00     0.027 H 
ATOM     34  H   LIG d   1       6.530  -2.298  -9.720  0.00  0.00     0.027 H 
ATOM     35  H   LIG d   1       6.641  -1.082 -10.986  0.00  0.00     0.027 H 
ATOM     36  H   LIG d   1       3.281  -2.412  -8.472  0.00  0.00     0.028 H 
ATOM     37  H   LIG d   1       1.759  -2.175  -9.336  0.00  0.00     0.028 H 
ATOM     38  H   LIG d   1       2.307  -4.559  -9.063  0.00  0.00     0.027 H 
ATOM     39  H   LIG d   1       2.286  -4.103 -10.783  0.00  0.00     0.027 H 
ATOM     40  H   LIG d   1       4.799  -4.228  -9.049  0.00  0.00     0.026 H 
ATOM     41  H   LIG d   1       4.284  -5.503 -10.174  0.00  0.00     0.026 H 
ATOM     42  H   LIG d   1       5.956  -3.948 -11.183  0.00  0.00     0.027 H 
ATOM     43  H   LIG d   1       4.417  -3.988 -12.055  0.00  0.00     0.027 H 
ATOM     44  H   LIG d   1       6.136  -1.849  -3.458  0.00  0.00     0.032 H 
ATOM     45  H   LIG d   1       5.202  -3.339  -3.633  0.00  0.00     0.032 H 
ATOM     46  H   LIG d   1       3.075   0.196  -2.589  0.00  0.00     0.029 H 
ATOM     47  H   LIG d   1       4.829   0.317  -2.773  0.00  0.00     0.029 H 
ATOM     48  H   LIG d   1       2.784  -0.298  -4.957  0.00  0.00     0.027 H 
ATOM     49  H   LIG d   1       3.689   1.218  -4.773  0.00  0.00     0.027 H 
ENDROOT
BRANCH  16  50
ATOM     50  C   LIG d   1       2.550  -1.325 -11.588  0.00  0.00     0.137 C 
ATOM     51  O   LIG d   1       2.975  -1.232 -12.714  0.00  0.00    -0.297 OA
BRANCH  50  52
ATOM     52  C   LIG d   1       1.078  -1.147 -11.321  0.00  0.00    -0.005 C 
ATOM     53  H   LIG d   1       0.561  -1.824 -11.845  0.00  0.00     0.031 H 
ATOM     54  H   LIG d   1       0.882  -1.283 -10.258  0.00  0.00     0.031 H 
ATOM     55  H   LIG d   1       0.772  -0.145 -11.621  0.00  0.00     0.031 H 
ENDBRANCH  50  52
ENDBRANCH  16  50
BRANCH  10  56
ATOM     56  C   LIG d   1       3.918   0.783 -10.911  0.00  0.00    -0.058 C 
ATOM     57  H   LIG d   1       3.966   0.289 -11.881  0.00  0.00     0.024 H 
ATOM     58  H   LIG d   1       3.005   1.374 -10.848  0.00  0.00     0.024 H 
ATOM     59  H   LIG d   1       4.783   1.436 -10.794  0.00  0.00     0.024 H 
ENDBRANCH  10  56
BRANCH  21  60
ATOM     60  C   LIG d   1       6.185   0.218  -5.026  0.00  0.00    -0.057 C 
ATOM     61  H   LIG d   1       7.020  -0.444  -5.257  0.00  0.00     0.024 H 
ATOM     62  H   LIG d   1       6.317   1.164  -5.551  0.00  0.00     0.024 H 
ATOM     63  H   LIG d   1       6.152   0.400  -3.953  0.00  0.00     0.024 H 
ENDBRANCH  21  60
BRANCH   1  64
ATOM     64  C   LIG d   1       6.065  -4.083  -5.933  0.00  0.00    -0.060 C 
ATOM     65  H   LIG d   1       5.286  -4.382  -5.231  0.00  0.00     0.023 H 
ATOM     66  H   LIG d   1       5.909  -4.588  -6.886  0.00  0.00     0.023 H 
ATOM     67  H   LIG d   1       7.041  -4.359  -5.532  0.00  0.00     0.023 H 
ENDBRANCH   1  64
BRANCH  22  68
ATOM     68  O   LIG d   1       3.667  -2.531  -5.612  0.00  0.00    -0.388 OA
ATOM     69  H   LIG d   1       3.737  -3.299  -6.196  0.00  0.00     0.210 HD
ENDBRANCH  22  68
BRANCH  24  70
ATOM     70  O   LIG d   1       4.293  -1.960  -1.562  0.00  0.00    -0.392 OA
ATOM     71  H   LIG d   1       5.097  -1.547  -1.217  0.00  0.00     0.210 HD
ENDBRANCH  24  70
TORSDOF 7
ENDMDL
MODEL 8
REMARK VINA RESULT:      -5.4      7.242     11.050
REMARK  7 active torsions:
REMARK  status: ('A' for Active; 'I' for Inactive)
REMARK    1  A    between atoms: C_1  and  C_2 
REMARK    2  A    between atoms: C_11  and  C_25 
REMARK    3  A    between atoms: C_17  and  C_22 
REMARK    4  A    between atoms: C_22  and  C_24 
REMARK    5  A    between atoms: C_26  and  C_35 
REMARK    6  A    between atoms: C_27  and  O_34 
REMARK    7  A    between atoms: C_29  and  O_33 
ROOT
ATOM      1  C   LIG d   1      11.513   7.965  -3.335  0.00  0.00    -0.014 C 
ATOM      2  H   LIG d   1      10.734   8.722  -3.344  0.00  0.00     0.033 H 
ATOM      3  C   LIG d   1      11.114   6.812  -4.272  0.00  0.00    -0.044 C 
ATOM      4  C   LIG d   1       9.825   6.172  -3.793  0.00  0.00    -0.034 C 
ATOM      5  H   LIG d   1       9.058   6.986  -3.816  0.00  0.00     0.031 H 
ATOM      6  C   LIG d   1       9.897   5.709  -2.351  0.00  0.00    -0.030 C 
ATOM      7  H   LIG d   1       8.862   5.478  -2.027  0.00  0.00     0.031 H 
ATOM      8  C   LIG d   1      10.716   4.430  -2.224  0.00  0.00    -0.049 C 
ATOM      9  C   LIG d   1      10.057   3.321  -3.029  0.00  0.00    -0.046 C 
ATOM     10  C   LIG d   1       9.747   3.670  -4.458  0.00  0.00    -0.016 C 
ATOM     11  C   LIG d   1       9.294   5.102  -4.727  0.00  0.00    -0.031 C 
ATOM     12  H   LIG d   1       8.172   5.127  -4.674  0.00  0.00     0.031 H 
ATOM     13  C   LIG d   1       9.712   5.402  -6.185  0.00  0.00    -0.046 C 
ATOM     14  C   LIG d   1      10.636   4.262  -6.628  0.00  0.00    -0.028 C 
ATOM     15  H   LIG d   1      10.039   3.646  -7.314  0.00  0.00     0.031 H 
ATOM     16  C   LIG d   1      10.922   3.384  -5.422  0.00  0.00     0.037 C 
ATOM     17  C   LIG d   1      12.242   3.639  -4.732  0.00  0.00    -0.040 C 
ATOM     18  C   LIG d   1      13.381   3.875  -5.718  0.00  0.00    -0.052 C 
ATOM     19  C   LIG d   1      13.031   5.084  -6.591  0.00  0.00    -0.053 C 
ATOM     20  C   LIG d   1      11.811   4.734  -7.433  0.00  0.00    -0.049 C 
ATOM     21  C   LIG d   1      10.428   6.790  -1.410  0.00  0.00     0.000 C 
ATOM     22  C   LIG d   1      11.722   7.407  -1.932  0.00  0.00     0.077 C 
ATOM     23  C   LIG d   1      12.207   8.500  -0.978  0.00  0.00     0.003 C 
ATOM     24  C   LIG d   1      12.478   7.885   0.397  0.00  0.00     0.058 C 
ATOM     25  H   LIG d   1      13.263   7.131   0.305  0.00  0.00     0.059 H 
ATOM     26  C   LIG d   1      11.207   7.235   0.941  0.00  0.00    -0.026 C 
ATOM     27  C   LIG d   1      10.696   6.175  -0.032  0.00  0.00    -0.042 C 
ATOM     28  H   LIG d   1      11.927   6.101  -4.315  0.00  0.00     0.027 H 
ATOM     29  H   LIG d   1      10.979   7.260  -5.262  0.00  0.00     0.027 H 
ATOM     30  H   LIG d   1      11.744   4.575  -2.525  0.00  0.00     0.027 H 
ATOM     31  H   LIG d   1      10.721   4.117  -1.165  0.00  0.00     0.027 H 
ATOM     32  H   LIG d   1      10.705   2.439  -3.010  0.00  0.00     0.027 H 
ATOM     33  H   LIG d   1       9.120   3.038  -2.532  0.00  0.00     0.027 H 
ATOM     34  H   LIG d   1      10.192   6.361  -6.307  0.00  0.00     0.027 H 
ATOM     35  H   LIG d   1       8.816   5.398  -6.828  0.00  0.00     0.027 H 
ATOM     36  H   LIG d   1      12.157   4.516  -4.101  0.00  0.00     0.028 H 
ATOM     37  H   LIG d   1      12.491   2.782  -4.108  0.00  0.00     0.028 H 
ATOM     38  H   LIG d   1      14.299   4.078  -5.164  0.00  0.00     0.027 H 
ATOM     39  H   LIG d   1      13.520   2.994  -6.342  0.00  0.00     0.027 H 
ATOM     40  H   LIG d   1      12.815   5.944  -5.961  0.00  0.00     0.026 H 
ATOM     41  H   LIG d   1      13.873   5.315  -7.243  0.00  0.00     0.026 H 
ATOM     42  H   LIG d   1      11.516   5.615  -8.005  0.00  0.00     0.027 H 
ATOM     43  H   LIG d   1      12.090   3.948  -8.136  0.00  0.00     0.027 H 
ATOM     44  H   LIG d   1      11.480   9.299  -0.895  0.00  0.00     0.032 H 
ATOM     45  H   LIG d   1      13.147   8.920  -1.344  0.00  0.00     0.032 H 
ATOM     46  H   LIG d   1      11.446   6.747   1.896  0.00  0.00     0.029 H 
ATOM     47  H   LIG d   1      10.450   7.990   1.128  0.00  0.00     0.029 H 
ATOM     48  H   LIG d   1      11.445   5.389  -0.126  0.00  0.00     0.027 H 
ATOM     49  H   LIG d   1       9.773   5.742   0.353  0.00  0.00     0.027 H 
ENDROOT
BRANCH  16  50
ATOM     50  C   LIG d   1      10.861   1.931  -5.851  0.00  0.00     0.137 C 
ATOM     51  O   LIG d   1      10.364   1.635  -6.910  0.00  0.00    -0.297 OA
BRANCH  50  52
ATOM     52  C   LIG d   1      11.425   0.857  -4.956  0.00  0.00    -0.005 C 
ATOM     53  H   LIG d   1      11.051  -0.030  -5.226  0.00  0.00     0.031 H 
ATOM     54  H   LIG d   1      12.510   0.838  -5.051  0.00  0.00     0.031 H 
ATOM     55  H   LIG d   1      11.153   1.066  -3.922  0.00  0.00     0.031 H 
ENDBRANCH  50  52
ENDBRANCH  16  50
BRANCH  10  56
ATOM     56  C   LIG d   1       8.583   2.737  -4.888  0.00  0.00    -0.058 C 
ATOM     57  H   LIG d   1       7.712   2.930  -4.261  0.00  0.00     0.024 H 
ATOM     58  H   LIG d   1       8.330   2.927  -5.930  0.00  0.00     0.024 H 
ATOM     59  H   LIG d   1       8.888   1.697  -4.772  0.00  0.00     0.024 H 
ENDBRANCH  10  56
BRANCH  21  60
ATOM     60  C   LIG d   1       9.346   7.868  -1.258  0.00  0.00    -0.057 C 
ATOM     61  H   LIG d   1       8.379   7.392  -1.095  0.00  0.00     0.024 H 
ATOM     62  H   LIG d   1       9.585   8.504  -0.405  0.00  0.00     0.024 H 
ATOM     63  H   LIG d   1       9.305   8.474  -2.162  0.00  0.00     0.024 H 
ENDBRANCH  21  60
BRANCH   1  64
ATOM     64  C   LIG d   1      12.814   8.579  -3.866  0.00  0.00    -0.060 C 
ATOM     65  H   LIG d   1      12.796   8.581  -4.956  0.00  0.00     0.023 H 
ATOM     66  H   LIG d   1      12.908   9.603  -3.503  0.00  0.00     0.023 H 
ATOM     67  H   LIG d   1      13.662   7.990  -3.517  0.00  0.00     0.023 H 
ENDBRANCH   1  64
BRANCH  22  68
ATOM     68  O   LIG d   1      12.744   6.400  -1.992  0.00  0.00    -0.388 OA
ATOM     69  H   LIG d   1      12.421   5.525  -2.247  0.00  0.00     0.210 HD
ENDBRANCH  22  68
BRANCH  24  70
ATOM     70  O   LIG d   1      12.914   8.908   1.295  0.00  0.00    -0.392 OA
ATOM     71  H   LIG d   1      13.384   8.576   2.072  0.00  0.00     0.210 HD
ENDBRANCH  24  70
TORSDOF 7
ENDMDL
MODEL 9
REMARK VINA RESULT:      -5.4      7.453     11.185
REMARK  7 active torsions:
REMARK  status: ('A' for Active; 'I' for Inactive)
REMARK    1  A    between atoms: C_1  and  C_2 
REMARK    2  A    between atoms: C_11  and  C_25 
REMARK    3  A    between atoms: C_17  and  C_22 
REMARK    4  A    between atoms: C_22  and  C_24 
REMARK    5  A    between atoms: C_26  and  C_35 
REMARK    6  A    between atoms: C_27  and  O_34 
REMARK    7  A    between atoms: C_29  and  O_33 
ROOT
ATOM      1  C   LIG d   1      11.350   6.700  -1.320  0.00  0.00    -0.014 C 
ATOM      2  H   LIG d   1      12.312   7.111  -1.030  0.00  0.00     0.033 H 
ATOM      3  C   LIG d   1      11.540   5.763  -2.525  0.00  0.00    -0.044 C 
ATOM      4  C   LIG d   1      12.101   6.534  -3.704  0.00  0.00    -0.034 C 
ATOM      5  H   LIG d   1      13.084   6.940  -3.358  0.00  0.00     0.031 H 
ATOM      6  C   LIG d   1      11.260   7.740  -4.073  0.00  0.00    -0.030 C 
ATOM      7  H   LIG d   1      11.858   8.359  -4.772  0.00  0.00     0.031 H 
ATOM      8  C   LIG d   1       9.988   7.323  -4.802  0.00  0.00    -0.049 C 
ATOM      9  C   LIG d   1      10.353   6.607  -6.093  0.00  0.00    -0.046 C 
ATOM     10  C   LIG d   1      11.330   5.474  -5.938  0.00  0.00    -0.016 C 
ATOM     11  C   LIG d   1      12.432   5.662  -4.900  0.00  0.00    -0.031 C 
ATOM     12  H   LIG d   1      13.323   6.112  -5.416  0.00  0.00     0.031 H 
ATOM     13  C   LIG d   1      12.814   4.236  -4.439  0.00  0.00    -0.046 C 
ATOM     14  C   LIG d   1      11.748   3.286  -4.997  0.00  0.00    -0.028 C 
ATOM     15  H   LIG d   1      12.233   2.752  -5.825  0.00  0.00     0.031 H 
ATOM     16  C   LIG d   1      10.648   4.122  -5.628  0.00  0.00     0.037 C 
ATOM     17  C   LIG d   1       9.422   4.335  -4.769  0.00  0.00    -0.040 C 
ATOM     18  C   LIG d   1       9.008   3.075  -4.018  0.00  0.00    -0.052 C 
ATOM     19  C   LIG d   1      10.172   2.631  -3.127  0.00  0.00    -0.053 C 
ATOM     20  C   LIG d   1      11.336   2.224  -4.020  0.00  0.00    -0.049 C 
ATOM     21  C   LIG d   1      10.931   8.621  -2.868  0.00  0.00     0.000 C 
ATOM     22  C   LIG d   1      10.373   7.803  -1.707  0.00  0.00     0.077 C 
ATOM     23  C   LIG d   1      10.081   8.714  -0.513  0.00  0.00     0.003 C 
ATOM     24  C   LIG d   1       9.040   9.760  -0.920  0.00  0.00     0.058 C 
ATOM     25  H   LIG d   1       8.115   9.254  -1.205  0.00  0.00     0.059 H 
ATOM     26  C   LIG d   1       9.555  10.583  -2.099  0.00  0.00    -0.026 C 
ATOM     27  C   LIG d   1       9.890   9.671  -3.276  0.00  0.00    -0.042 C 
ATOM     28  H   LIG d   1      10.591   5.299  -2.759  0.00  0.00     0.027 H 
ATOM     29  H   LIG d   1      12.243   4.989  -2.199  0.00  0.00     0.027 H 
ATOM     30  H   LIG d   1       9.347   6.711  -4.182  0.00  0.00     0.027 H 
ATOM     31  H   LIG d   1       9.421   8.231  -5.072  0.00  0.00     0.027 H 
ATOM     32  H   LIG d   1       9.436   6.227  -6.555  0.00  0.00     0.027 H 
ATOM     33  H   LIG d   1      10.782   7.339  -6.790  0.00  0.00     0.027 H 
ATOM     34  H   LIG d   1      12.899   4.139  -3.368  0.00  0.00     0.027 H 
ATOM     35  H   LIG d   1      13.790   3.964  -4.874  0.00  0.00     0.027 H 
ATOM     36  H   LIG d   1       9.623   5.111  -4.039  0.00  0.00     0.028 H 
ATOM     37  H   LIG d   1       8.594   4.655  -5.401  0.00  0.00     0.028 H 
ATOM     38  H   LIG d   1       8.138   3.297  -3.398  0.00  0.00     0.027 H 
ATOM     39  H   LIG d   1       8.760   2.287  -4.725  0.00  0.00     0.027 H 
ATOM     40  H   LIG d   1      10.471   3.448  -2.474  0.00  0.00     0.026 H 
ATOM     41  H   LIG d   1       9.859   1.780  -2.521  0.00  0.00     0.026 H 
ATOM     42  H   LIG d   1      12.191   1.973  -3.390  0.00  0.00     0.027 H 
ATOM     43  H   LIG d   1      11.049   1.331  -4.578  0.00  0.00     0.027 H 
ATOM     44  H   LIG d   1      10.982   9.200  -0.160  0.00  0.00     0.032 H 
ATOM     45  H   LIG d   1       9.657   8.128   0.305  0.00  0.00     0.032 H 
ATOM     46  H   LIG d   1       8.765  11.280  -2.410  0.00  0.00     0.029 H 
ATOM     47  H   LIG d   1      10.420  11.166  -1.799  0.00  0.00     0.029 H 
ATOM     48  H   LIG d   1       8.981   9.169  -3.607  0.00  0.00     0.027 H 
ATOM     49  H   LIG d   1      10.287  10.267  -4.098  0.00  0.00     0.027 H 
ENDROOT
BRANCH  16  50
ATOM     50  C   LIG d   1      10.230   3.473  -6.932  0.00  0.00     0.137 C 
ATOM     51  O   LIG d   1       9.249   3.866  -7.515  0.00  0.00    -0.297 OA
BRANCH  50  52
ATOM     52  C   LIG d   1      11.041   2.337  -7.503  0.00  0.00    -0.005 C 
ATOM     53  H   LIG d   1      11.967   2.368  -7.126  0.00  0.00     0.031 H 
ATOM     54  H   LIG d   1      10.573   1.389  -7.239  0.00  0.00     0.031 H 
ATOM     55  H   LIG d   1      11.086   2.431  -8.587  0.00  0.00     0.031 H 
ENDBRANCH  50  52
ENDBRANCH  16  50
BRANCH  10  56
ATOM     56  C   LIG d   1      12.027   5.314  -7.316  0.00  0.00    -0.058 C 
ATOM     57  H   LIG d   1      12.648   6.188  -7.513  0.00  0.00     0.024 H 
ATOM     58  H   LIG d   1      12.649   4.420  -7.307  0.00  0.00     0.024 H 
ATOM     59  H   LIG d   1      11.272   5.224  -8.098  0.00  0.00     0.024 H 
ENDBRANCH  10  56
BRANCH  21  60
ATOM     60  C   LIG d   1      12.213   9.349  -2.441  0.00  0.00    -0.057 C 
ATOM     61  H   LIG d   1      13.070   8.692  -2.585  0.00  0.00     0.024 H 
ATOM     62  H   LIG d   1      12.339  10.247  -3.046  0.00  0.00     0.024 H 
ATOM     63  H   LIG d   1      12.141   9.628  -1.390  0.00  0.00     0.024 H 
ENDBRANCH  21  60
BRANCH   1  64
ATOM     64  C   LIG d   1      10.789   5.871  -0.159  0.00  0.00    -0.060 C 
ATOM     65  H   LIG d   1      11.563   5.736   0.598  0.00  0.00     0.023 H 
ATOM     66  H   LIG d   1       9.938   6.390   0.281  0.00  0.00     0.023 H 
ATOM     67  H   LIG d   1      10.468   4.897  -0.529  0.00  0.00     0.023 H 
ENDBRANCH   1  64
BRANCH  22  68
ATOM     68  O   LIG d   1       9.133   7.195  -2.100  0.00  0.00    -0.388 OA
ATOM     69  H   LIG d   1       8.350   7.610  -1.712  0.00  0.00     0.210 HD
ENDBRANCH  22  68
BRANCH  24  70
ATOM     70  O   LIG d   1       8.779  10.624   0.189  0.00  0.00    -0.392 OA
ATOM     71  H   LIG d   1       7.850  10.650   0.457  0.00  0.00     0.210 HD
ENDBRANCH  24  70
TORSDOF 7
ENDMDL
MODEL 10
REMARK VINA RESULT:      -5.3      3.222      4.725
REMARK  7 active torsions:
REMARK  status: ('A' for Active; 'I' for Inactive)
REMARK    1  A    between atoms: C_1  and  C_2 
REMARK    2  A    between atoms: C_11  and  C_25 
REMARK    3  A    between atoms: C_17  and  C_22 
REMARK    4  A    between atoms: C_22  and  C_24 
REMARK    5  A    between atoms: C_26  and  C_35 
REMARK    6  A    between atoms: C_27  and  O_34 
REMARK    7  A    between atoms: C_29  and  O_33 
ROOT
ATOM      1  C   LIG d   1       7.921  -4.341  -7.150  0.00  0.00    -0.014 C 
ATOM      2  H   LIG d   1       8.764  -4.856  -6.699  0.00  0.00     0.033 H 
ATOM      3  C   LIG d   1       7.528  -3.141  -6.271  0.00  0.00    -0.044 C 
ATOM      4  C   LIG d   1       7.110  -3.617  -4.893  0.00  0.00    -0.034 C 
ATOM      5  H   LIG d   1       8.005  -4.142  -4.473  0.00  0.00     0.031 H 
ATOM      6  C   LIG d   1       6.004  -4.651  -4.937  0.00  0.00    -0.030 C 
ATOM      7  H   LIG d   1       5.932  -5.102  -3.927  0.00  0.00     0.031 H 
ATOM      8  C   LIG d   1       4.659  -4.006  -5.249  0.00  0.00    -0.049 C 
ATOM      9  C   LIG d   1       4.309  -3.006  -4.159  0.00  0.00    -0.046 C 
ATOM     10  C   LIG d   1       5.379  -1.995  -3.855  0.00  0.00    -0.016 C 
ATOM     11  C   LIG d   1       6.821  -2.488  -3.922  0.00  0.00    -0.031 C 
ATOM     12  H   LIG d   1       7.119  -2.835  -2.896  0.00  0.00     0.031 H 
ATOM     13  C   LIG d   1       7.668  -1.244  -4.273  0.00  0.00    -0.046 C 
ATOM     14  C   LIG d   1       6.689  -0.135  -4.676  0.00  0.00    -0.028 C 
ATOM     15  H   LIG d   1       6.673   0.567  -3.832  0.00  0.00     0.031 H 
ATOM     16  C   LIG d   1       5.294  -0.734  -4.745  0.00  0.00     0.037 C 
ATOM     17  C   LIG d   1       4.814  -1.099  -6.131  0.00  0.00    -0.040 C 
ATOM     18  C   LIG d   1       5.183  -0.051  -7.174  0.00  0.00    -0.052 C 
ATOM     19  C   LIG d   1       6.707   0.101  -7.196  0.00  0.00    -0.053 C 
ATOM     20  C   LIG d   1       7.157   0.665  -5.856  0.00  0.00    -0.049 C 
ATOM     21  C   LIG d   1       6.299  -5.790  -5.913  0.00  0.00     0.000 C 
ATOM     22  C   LIG d   1       6.716  -5.266  -7.283  0.00  0.00     0.077 C 
ATOM     23  C   LIG d   1       7.028  -6.433  -8.222  0.00  0.00     0.003 C 
ATOM     24  C   LIG d   1       5.773  -7.294  -8.388  0.00  0.00     0.058 C 
ATOM     25  H   LIG d   1       4.981  -6.691  -8.837  0.00  0.00     0.059 H 
ATOM     26  C   LIG d   1       5.311  -7.818  -7.030  0.00  0.00    -0.026 C 
ATOM     27  C   LIG d   1       5.043  -6.655  -6.078  0.00  0.00    -0.042 C 
ATOM     28  H   LIG d   1       6.739  -2.591  -6.766  0.00  0.00     0.027 H 
ATOM     29  H   LIG d   1       8.420  -2.507  -6.209  0.00  0.00     0.027 H 
ATOM     30  H   LIG d   1       4.649  -3.541  -6.225  0.00  0.00     0.027 H 
ATOM     31  H   LIG d   1       3.881  -4.790  -5.247  0.00  0.00     0.027 H 
ATOM     32  H   LIG d   1       3.392  -2.480  -4.445  0.00  0.00     0.027 H 
ATOM     33  H   LIG d   1       4.084  -3.559  -3.237  0.00  0.00     0.027 H 
ATOM     34  H   LIG d   1       8.394  -1.422  -5.051  0.00  0.00     0.027 H 
ATOM     35  H   LIG d   1       8.220  -0.916  -3.376  0.00  0.00     0.027 H 
ATOM     36  H   LIG d   1       5.257  -2.042  -6.430  0.00  0.00     0.028 H 
ATOM     37  H   LIG d   1       3.730  -1.212  -6.115  0.00  0.00     0.028 H 
ATOM     38  H   LIG d   1       4.834  -0.381  -8.153  0.00  0.00     0.027 H 
ATOM     39  H   LIG d   1       4.719   0.901  -6.923  0.00  0.00     0.027 H 
ATOM     40  H   LIG d   1       7.172  -0.867  -7.369  0.00  0.00     0.026 H 
ATOM     41  H   LIG d   1       6.990   0.785  -7.997  0.00  0.00     0.026 H 
ATOM     42  H   LIG d   1       8.247   0.710  -5.841  0.00  0.00     0.027 H 
ATOM     43  H   LIG d   1       6.772   1.682  -5.761  0.00  0.00     0.027 H 
ATOM     44  H   LIG d   1       7.847  -7.033  -7.844  0.00  0.00     0.032 H 
ATOM     45  H   LIG d   1       7.301  -6.052  -9.208  0.00  0.00     0.032 H 
ATOM     46  H   LIG d   1       4.375  -8.377  -7.172  0.00  0.00     0.029 H 
ATOM     47  H   LIG d   1       6.051  -8.497  -6.618  0.00  0.00     0.029 H 
ATOM     48  H   LIG d   1       4.234  -6.045  -6.480  0.00  0.00     0.027 H 
ATOM     49  H   LIG d   1       4.745  -7.043  -5.104  0.00  0.00     0.027 H 
ENDROOT
BRANCH  16  50
ATOM     50  C   LIG d   1       4.314   0.241  -4.123  0.00  0.00     0.137 C 
ATOM     51  O   LIG d   1       4.718   1.148  -3.437  0.00  0.00    -0.297 OA
BRANCH  50  52
ATOM     52  C   LIG d   1       2.835   0.078  -4.364  0.00  0.00    -0.005 C 
ATOM     53  H   LIG d   1       2.354   0.891  -4.034  0.00  0.00     0.031 H 
ATOM     54  H   LIG d   1       2.652  -0.045  -5.431  0.00  0.00     0.031 H 
ATOM     55  H   LIG d   1       2.474  -0.800  -3.829  0.00  0.00     0.031 H 
ENDBRANCH  50  52
ENDBRANCH  16  50
BRANCH  10  56
ATOM     56  C   LIG d   1       5.128  -1.526  -2.396  0.00  0.00    -0.058 C 
ATOM     57  H   LIG d   1       5.943  -1.868  -1.759  0.00  0.00     0.024 H 
ATOM     58  H   LIG d   1       5.076  -0.438  -2.367  0.00  0.00     0.024 H 
ATOM     59  H   LIG d   1       4.187  -1.944  -2.036  0.00  0.00     0.024 H 
ENDBRANCH  10  56
BRANCH  21  60
ATOM     60  C   LIG d   1       7.411  -6.661  -5.312  0.00  0.00    -0.057 C 
ATOM     61  H   LIG d   1       8.380  -6.314  -5.673  0.00  0.00     0.024 H 
ATOM     62  H   LIG d   1       7.382  -6.588  -4.225  0.00  0.00     0.024 H 
ATOM     63  H   LIG d   1       7.263  -7.698  -5.610  0.00  0.00     0.024 H 
ENDBRANCH  21  60
BRANCH   1  64
ATOM     64  C   LIG d   1       8.339  -3.806  -8.525  0.00  0.00    -0.060 C 
ATOM     65  H   LIG d   1       7.490  -3.308  -8.994  0.00  0.00     0.023 H 
ATOM     66  H   LIG d   1       9.156  -3.094  -8.405  0.00  0.00     0.023 H 
ATOM     67  H   LIG d   1       8.667  -4.634  -9.153  0.00  0.00     0.023 H 
ENDBRANCH   1  64
BRANCH  22  68
ATOM     68  O   LIG d   1       5.634  -4.522  -7.863  0.00  0.00    -0.388 OA
ATOM     69  H   LIG d   1       5.152  -3.971  -7.231  0.00  0.00     0.210 HD
ENDBRANCH  22  68
BRANCH  24  70
ATOM     70  O   LIG d   1       6.068  -8.396  -9.251  0.00  0.00    -0.392 OA
ATOM     71  H   LIG d   1       6.226  -9.229  -8.785  0.00  0.00     0.210 HD
ENDBRANCH  24  70
TORSDOF 7
ENDMDL
