MODEL 1
REMARK VINA RESULT:      -6.0      0.000      0.000
REMARK  12 active torsions:
REMARK  status: ('A' for Active; 'I' for Inactive)
REMARK    1  A    between atoms: C_1  and  C_2 
REMARK    2  A    between atoms: C_2  and  C_4 
REMARK    3  A    between atoms: C_8  and  C_38 
REMARK    4  A    between atoms: C_17  and  C_37 
REMARK    5  A    between atoms: C_18  and  C_21 
REMARK    6  A    between atoms: C_26  and  C_36 
REMARK    7  A    between atoms: C_28  and  C_34 
REMARK    8  A    between atoms: C_29  and  O_33 
REMARK    9  A    between atoms: C_30  and  C_31 
REMARK   10  A    between atoms: C_30  and  C_32 
REMARK   11  A    between atoms: C_38  and  O_40 
REMARK   12  A    between atoms: O_40  and  C_41 
ROOT
ATOM      1  C   LIG d   1       4.485  -0.311  -3.952  0.00  0.00    -0.016 C 
ATOM      2  H   LIG d   1       4.235   0.688  -4.293  0.00  0.00     0.035 H 
ATOM      3  C   LIG d   1       3.430  -1.341  -4.438  0.00  0.00    -0.045 C 
ATOM      4  C   LIG d   1       4.202  -2.361  -5.319  0.00  0.00    -0.036 C 
ATOM      5  C   LIG d   1       5.365  -1.506  -5.852  0.00  0.00     0.071 C 
ATOM      6  C   LIG d   1       5.807  -0.780  -4.556  0.00  0.00    -0.015 C 
ATOM      7  H   LIG d   1       6.231  -1.520  -3.864  0.00  0.00     0.032 H 
ATOM      8  C   LIG d   1       6.839   0.263  -4.901  0.00  0.00    -0.031 C 
ATOM      9  H   LIG d   1       6.434   0.966  -5.638  0.00  0.00     0.031 H 
ATOM     10  C   LIG d   1       7.243   1.063  -3.666  0.00  0.00    -0.049 C 
ATOM     11  C   LIG d   1       8.256   2.132  -4.062  0.00  0.00    -0.049 C 
ATOM     12  C   LIG d   1       8.612   2.034  -5.552  0.00  0.00    -0.029 C 
ATOM     13  H   LIG d   1       7.709   2.226  -6.139  0.00  0.00     0.031 H 
ATOM     14  C   LIG d   1       9.126   0.635  -5.876  0.00  0.00    -0.023 C 
ATOM     15  C   LIG d   1       8.080  -0.423  -5.497  0.00  0.00    -0.023 C 
ATOM     16  C   LIG d   1       7.683  -1.273  -6.702  0.00  0.00    -0.046 C 
ATOM     17  C   LIG d   1       6.559  -2.274  -6.372  0.00  0.00    -0.036 C 
ATOM     18  C   LIG d   1      10.444   0.404  -5.133  0.00  0.00    -0.046 C 
ATOM     19  C   LIG d   1      11.471   1.463  -5.575  0.00  0.00    -0.048 C 
ATOM     20  C   LIG d   1      10.961   2.845  -5.187  0.00  0.00    -0.023 C 
ATOM     21  H   LIG d   1      10.775   2.812  -4.083  0.00  0.00     0.032 H 
ATOM     22  C   LIG d   1       9.619   3.154  -5.840  0.00  0.00    -0.021 C 
ATOM     23  C   LIG d   1       9.097   4.436  -5.142  0.00  0.00    -0.015 C 
ATOM     24  C   LIG d   1      10.086   5.535  -5.415  0.00  0.00     0.030 C 
ATOM     25  C   LIG d   1      11.395   5.292  -5.549  0.00  0.00     0.106 C 
ATOM     26  C   LIG d   1      12.004   3.925  -5.412  0.00  0.00     0.026 C 
ATOM     27  H   LIG d   1       2.987  -1.849  -3.581  0.00  0.00     0.027 H 
ATOM     28  H   LIG d   1       2.657  -0.844  -5.018  0.00  0.00     0.027 H 
ATOM     29  H   LIG d   1       4.576  -3.190  -4.723  0.00  0.00     0.028 H 
ATOM     30  H   LIG d   1       3.581  -2.713  -6.140  0.00  0.00     0.028 H 
ATOM     31  H   LIG d   1       6.354   1.566  -3.263  0.00  0.00     0.027 H 
ATOM     32  H   LIG d   1       7.652   0.421  -2.893  0.00  0.00     0.027 H 
ATOM     33  H   LIG d   1       7.804   3.112  -3.870  0.00  0.00     0.027 H 
ATOM     34  H   LIG d   1       9.158   2.030  -3.463  0.00  0.00     0.027 H 
ATOM     35  H   LIG d   1       7.323  -0.651  -7.517  0.00  0.00     0.027 H 
ATOM     36  H   LIG d   1       8.547  -1.860  -7.028  0.00  0.00     0.027 H 
ATOM     37  H   LIG d   1       6.896  -3.001  -5.637  0.00  0.00     0.028 H 
ATOM     38  H   LIG d   1       6.278  -2.805  -7.290  0.00  0.00     0.028 H 
ATOM     39  H   LIG d   1      10.308   0.512  -4.058  0.00  0.00     0.027 H 
ATOM     40  H   LIG d   1      10.862  -0.570  -5.385  0.00  0.00     0.027 H 
ATOM     41  H   LIG d   1      12.403   1.255  -5.035  0.00  0.00     0.027 H 
ATOM     42  H   LIG d   1      11.661   1.374  -6.634  0.00  0.00     0.027 H 
ATOM     43  H   LIG d   1       8.131   4.695  -5.548  0.00  0.00     0.032 H 
ATOM     44  H   LIG d   1       9.057   4.270  -4.072  0.00  0.00     0.032 H 
ENDROOT
BRANCH   1  45
ATOM     45  C   LIG d   1       4.556  -0.353  -2.444  0.00  0.00    -0.076 C 
ATOM     46  C   LIG d   1       4.645  -1.503  -1.825  0.00  0.00    -0.099 C 
ATOM     47  H   LIG d   1       4.668  -2.423  -2.392  0.00  0.00     0.053 H 
ATOM     48  H   LIG d   1       4.696  -1.534  -0.746  0.00  0.00     0.053 H 
BRANCH  45  49
ATOM     49  C   LIG d   1       4.524   0.929  -1.653  0.00  0.00    -0.044 C 
ATOM     50  H   LIG d   1       4.154   0.726  -0.648  0.00  0.00     0.027 H 
ATOM     51  H   LIG d   1       5.531   1.344  -1.593  0.00  0.00     0.027 H 
ATOM     52  H   LIG d   1       3.865   1.644  -2.145  0.00  0.00     0.027 H 
ENDBRANCH  45  49
ENDBRANCH   1  45
BRANCH   5  53
ATOM     53  C   LIG d   1       4.832  -0.553  -6.887  0.00  0.00     0.313 C 
ATOM     54  O   LIG d   1       5.231   0.587  -6.921  0.00  0.00    -0.250 OA
BRANCH  53  55
ATOM     55  O   LIG d   1       3.912  -0.969  -7.772  0.00  0.00    -0.468 OA
BRANCH  55  56
ATOM     56  C   LIG d   1       2.762  -0.141  -7.950  0.00  0.00     0.082 C 
ATOM     57  H   LIG d   1       2.740   0.238  -8.972  0.00  0.00     0.066 H 
ATOM     58  H   LIG d   1       1.860  -0.724  -7.760  0.00  0.00     0.066 H 
ATOM     59  H   LIG d   1       2.806   0.697  -7.254  0.00  0.00     0.066 H 
ENDBRANCH  55  56
ENDBRANCH  53  55
ENDBRANCH   5  53
BRANCH  15  60
ATOM     60  C   LIG d   1       8.681  -1.371  -4.453  0.00  0.00    -0.059 C 
ATOM     61  H   LIG d   1       9.270  -0.797  -3.737  0.00  0.00     0.024 H 
ATOM     62  H   LIG d   1       7.879  -1.891  -3.929  0.00  0.00     0.024 H 
ATOM     63  H   LIG d   1       9.322  -2.100  -4.950  0.00  0.00     0.024 H 
ENDBRANCH  15  60
BRANCH  14  64
ATOM     64  C   LIG d   1       9.413   0.492  -7.379  0.00  0.00    -0.059 C 
ATOM     65  H   LIG d   1       8.762   1.162  -7.939  0.00  0.00     0.024 H 
ATOM     66  H   LIG d   1      10.455   0.749  -7.576  0.00  0.00     0.024 H 
ATOM     67  H   LIG d   1       9.229  -0.537  -7.689  0.00  0.00     0.024 H 
ENDBRANCH  14  64
BRANCH  22  68
ATOM     68  C   LIG d   1       9.721   3.469  -7.328  0.00  0.00    -0.059 C 
ATOM     69  H   LIG d   1       9.266   4.440  -7.525  0.00  0.00     0.024 H 
ATOM     70  H   LIG d   1      10.770   3.493  -7.623  0.00  0.00     0.024 H 
ATOM     71  H   LIG d   1       9.200   2.700  -7.899  0.00  0.00     0.024 H 
ENDBRANCH  22  68
BRANCH  26  72
ATOM     72  C   LIG d   1      12.930   3.969  -4.178  0.00  0.00    -0.053 C 
ATOM     73  H   LIG d   1      12.435   4.509  -3.371  0.00  0.00     0.024 H 
ATOM     74  H   LIG d   1      13.151   2.952  -3.853  0.00  0.00     0.024 H 
ATOM     75  H   LIG d   1      13.858   4.477  -4.438  0.00  0.00     0.024 H 
ENDBRANCH  26  72
BRANCH  26  76
ATOM     76  C   LIG d   1      12.879   3.642  -6.633  0.00  0.00    -0.053 C 
ATOM     77  H   LIG d   1      13.322   4.573  -6.987  0.00  0.00     0.024 H 
ATOM     78  H   LIG d   1      13.671   2.944  -6.359  0.00  0.00     0.024 H 
ATOM     79  H   LIG d   1      12.268   3.206  -7.424  0.00  0.00     0.024 H 
ENDBRANCH  26  76
BRANCH  24  80
ATOM     80  C   LIG d   1       9.619   6.852  -5.529  0.00  0.00     0.149 C 
ATOM     81  O   LIG d   1       9.539   7.376  -6.622  0.00  0.00    -0.296 OA
ATOM     82  H   LIG d   1       9.330   7.402  -4.645  0.00  0.00     0.108 H 
ENDBRANCH  24  80
BRANCH  25  83
ATOM     83  O   LIG d   1      12.210   6.327  -5.826  0.00  0.00    -0.510 OA
ATOM     84  H   LIG d   1      12.112   6.676  -6.722  0.00  0.00     0.292 HD
ENDBRANCH  25  83
TORSDOF 12
ENDMDL
MODEL 2
REMARK VINA RESULT:      -5.8      3.861      6.285
REMARK  12 active torsions:
REMARK  status: ('A' for Active; 'I' for Inactive)
REMARK    1  A    between atoms: C_1  and  C_2 
REMARK    2  A    between atoms: C_2  and  C_4 
REMARK    3  A    between atoms: C_8  and  C_38 
REMARK    4  A    between atoms: C_17  and  C_37 
REMARK    5  A    between atoms: C_18  and  C_21 
REMARK    6  A    between atoms: C_26  and  C_36 
REMARK    7  A    between atoms: C_28  and  C_34 
REMARK    8  A    between atoms: C_29  and  O_33 
REMARK    9  A    between atoms: C_30  and  C_31 
REMARK   10  A    between atoms: C_30  and  C_32 
REMARK   11  A    between atoms: C_38  and  O_40 
REMARK   12  A    between atoms: O_40  and  C_41 
ROOT
ATOM      1  C   LIG d   1       4.613  -0.097  -3.961  0.00  0.00    -0.016 C 
ATOM      2  H   LIG d   1       5.539   0.469  -3.941  0.00  0.00     0.035 H 
ATOM      3  C   LIG d   1       3.475   0.729  -4.618  0.00  0.00    -0.045 C 
ATOM      4  C   LIG d   1       3.015  -0.085  -5.858  0.00  0.00    -0.036 C 
ATOM      5  C   LIG d   1       4.297  -0.850  -6.230  0.00  0.00     0.071 C 
ATOM      6  C   LIG d   1       4.755  -1.343  -4.834  0.00  0.00    -0.015 C 
ATOM      7  H   LIG d   1       4.028  -2.078  -4.463  0.00  0.00     0.032 H 
ATOM      8  C   LIG d   1       6.118  -1.974  -4.954  0.00  0.00    -0.031 C 
ATOM      9  H   LIG d   1       6.830  -1.257  -5.381  0.00  0.00     0.031 H 
ATOM     10  C   LIG d   1       6.648  -2.399  -3.587  0.00  0.00    -0.049 C 
ATOM     11  C   LIG d   1       8.043  -2.995  -3.746  0.00  0.00    -0.049 C 
ATOM     12  C   LIG d   1       8.457  -3.052  -5.223  0.00  0.00    -0.029 C 
ATOM     13  H   LIG d   1       8.509  -2.029  -5.610  0.00  0.00     0.031 H 
ATOM     14  C   LIG d   1       7.425  -3.835  -6.026  0.00  0.00    -0.023 C 
ATOM     15  C   LIG d   1       6.034  -3.201  -5.877  0.00  0.00    -0.023 C 
ATOM     16  C   LIG d   1       5.453  -2.802  -7.232  0.00  0.00    -0.046 C 
ATOM     17  C   LIG d   1       4.103  -2.070  -7.102  0.00  0.00    -0.036 C 
ATOM     18  C   LIG d   1       7.426  -5.291  -5.554  0.00  0.00    -0.046 C 
ATOM     19  C   LIG d   1       8.828  -5.893  -5.760  0.00  0.00    -0.048 C 
ATOM     20  C   LIG d   1       9.829  -5.131  -4.903  0.00  0.00    -0.023 C 
ATOM     21  H   LIG d   1       9.449  -5.190  -3.850  0.00  0.00     0.032 H 
ATOM     22  C   LIG d   1       9.868  -3.650  -5.263  0.00  0.00    -0.021 C 
ATOM     23  C   LIG d   1      10.693  -2.967  -4.142  0.00  0.00    -0.015 C 
ATOM     24  C   LIG d   1      12.076  -3.557  -4.172  0.00  0.00     0.030 C 
ATOM     25  C   LIG d   1      12.294  -4.828  -4.529  0.00  0.00     0.106 C 
ATOM     26  C   LIG d   1      11.199  -5.787  -4.899  0.00  0.00     0.026 C 
ATOM     27  H   LIG d   1       2.646   0.838  -3.916  0.00  0.00     0.027 H 
ATOM     28  H   LIG d   1       3.842   1.707  -4.917  0.00  0.00     0.027 H 
ATOM     29  H   LIG d   1       2.216  -0.777  -5.599  0.00  0.00     0.028 H 
ATOM     30  H   LIG d   1       2.718   0.577  -6.669  0.00  0.00     0.028 H 
ATOM     31  H   LIG d   1       6.724  -1.512  -2.946  0.00  0.00     0.027 H 
ATOM     32  H   LIG d   1       5.983  -3.111  -3.108  0.00  0.00     0.027 H 
ATOM     33  H   LIG d   1       8.746  -2.352  -3.205  0.00  0.00     0.027 H 
ATOM     34  H   LIG d   1       8.070  -3.995  -3.320  0.00  0.00     0.027 H 
ATOM     35  H   LIG d   1       6.125  -2.133  -7.762  0.00  0.00     0.027 H 
ATOM     36  H   LIG d   1       5.272  -3.704  -7.824  0.00  0.00     0.027 H 
ATOM     37  H   LIG d   1       3.349  -2.729  -6.676  0.00  0.00     0.028 H 
ATOM     38  H   LIG d   1       3.774  -1.756  -8.099  0.00  0.00     0.028 H 
ATOM     39  H   LIG d   1       7.198  -5.354  -4.491  0.00  0.00     0.027 H 
ATOM     40  H   LIG d   1       6.732  -5.887  -6.145  0.00  0.00     0.027 H 
ATOM     41  H   LIG d   1       8.784  -6.937  -5.426  0.00  0.00     0.027 H 
ATOM     42  H   LIG d   1       9.085  -5.878  -6.809  0.00  0.00     0.027 H 
ATOM     43  H   LIG d   1      10.738  -1.904  -4.329  0.00  0.00     0.032 H 
ATOM     44  H   LIG d   1      10.246  -3.191  -3.181  0.00  0.00     0.032 H 
ENDROOT
BRANCH   1  45
ATOM     45  C   LIG d   1       4.199  -0.484  -2.562  0.00  0.00    -0.076 C 
ATOM     46  C   LIG d   1       4.411   0.339  -1.566  0.00  0.00    -0.099 C 
ATOM     47  H   LIG d   1       4.882   1.295  -1.745  0.00  0.00     0.053 H 
ATOM     48  H   LIG d   1       4.115   0.063  -0.564  0.00  0.00     0.053 H 
BRANCH  45  49
ATOM     49  C   LIG d   1       3.543  -1.817  -2.312  0.00  0.00    -0.044 C 
ATOM     50  H   LIG d   1       2.477  -1.743  -2.527  0.00  0.00     0.027 H 
ATOM     51  H   LIG d   1       3.993  -2.571  -2.959  0.00  0.00     0.027 H 
ATOM     52  H   LIG d   1       3.685  -2.102  -1.270  0.00  0.00     0.027 H 
ENDBRANCH  45  49
ENDBRANCH   1  45
BRANCH   5  53
ATOM     53  C   LIG d   1       5.276   0.114  -6.844  0.00  0.00     0.313 C 
ATOM     54  O   LIG d   1       4.979   0.720  -7.846  0.00  0.00    -0.250 OA
BRANCH  53  55
ATOM     55  O   LIG d   1       6.479   0.299  -6.279  0.00  0.00    -0.468 OA
BRANCH  55  56
ATOM     56  C   LIG d   1       7.579   0.539  -7.159  0.00  0.00     0.082 C 
ATOM     57  H   LIG d   1       7.732   1.614  -7.266  0.00  0.00     0.066 H 
ATOM     58  H   LIG d   1       8.481   0.083  -6.748  0.00  0.00     0.066 H 
ATOM     59  H   LIG d   1       7.365   0.104  -8.135  0.00  0.00     0.066 H 
ENDBRANCH  55  56
ENDBRANCH  53  55
ENDBRANCH   5  53
BRANCH  15  60
ATOM     60  C   LIG d   1       5.078  -4.230  -5.261  0.00  0.00    -0.059 C 
ATOM     61  H   LIG d   1       4.996  -5.092  -5.924  0.00  0.00     0.024 H 
ATOM     62  H   LIG d   1       5.464  -4.551  -4.294  0.00  0.00     0.024 H 
ATOM     63  H   LIG d   1       4.095  -3.779  -5.128  0.00  0.00     0.024 H 
ENDBRANCH  15  60
BRANCH  14  64
ATOM     64  C   LIG d   1       7.780  -3.836  -7.522  0.00  0.00    -0.059 C 
ATOM     65  H   LIG d   1       7.362  -4.724  -7.994  0.00  0.00     0.024 H 
ATOM     66  H   LIG d   1       7.365  -2.944  -7.994  0.00  0.00     0.024 H 
ATOM     67  H   LIG d   1       8.864  -3.838  -7.639  0.00  0.00     0.024 H 
ENDBRANCH  14  64
BRANCH  22  68
ATOM     68  C   LIG d   1      10.581  -3.360  -6.578  0.00  0.00    -0.059 C 
ATOM     69  H   LIG d   1      11.657  -3.460  -6.438  0.00  0.00     0.024 H 
ATOM     70  H   LIG d   1      10.246  -4.067  -7.337  0.00  0.00     0.024 H 
ATOM     71  H   LIG d   1      10.350  -2.345  -6.901  0.00  0.00     0.024 H 
ENDBRANCH  22  68
BRANCH  26  72
ATOM     72  C   LIG d   1      11.199  -6.902  -3.832  0.00  0.00    -0.053 C 
ATOM     73  H   LIG d   1      11.433  -7.856  -4.305  0.00  0.00     0.024 H 
ATOM     74  H   LIG d   1      11.949  -6.680  -3.073  0.00  0.00     0.024 H 
ATOM     75  H   LIG d   1      10.216  -6.959  -3.366  0.00  0.00     0.024 H 
ENDBRANCH  26  72
BRANCH  26  76
ATOM     76  C   LIG d   1      11.533  -6.436  -6.242  0.00  0.00    -0.053 C 
ATOM     77  H   LIG d   1      10.662  -6.389  -6.895  0.00  0.00     0.024 H 
ATOM     78  H   LIG d   1      12.364  -5.904  -6.706  0.00  0.00     0.024 H 
ATOM     79  H   LIG d   1      11.813  -7.477  -6.083  0.00  0.00     0.024 H 
ENDBRANCH  26  76
BRANCH  24  80
ATOM     80  C   LIG d   1      13.164  -2.749  -3.812  0.00  0.00     0.149 C 
ATOM     81  O   LIG d   1      13.917  -2.329  -4.667  0.00  0.00    -0.296 OA
ATOM     82  H   LIG d   1      13.332  -2.500  -2.775  0.00  0.00     0.108 H 
ENDBRANCH  24  80
BRANCH  25  83
ATOM     83  O   LIG d   1      13.565  -5.270  -4.563  0.00  0.00    -0.510 OA
ATOM     84  H   LIG d   1      13.936  -5.335  -5.453  0.00  0.00     0.292 HD
ENDBRANCH  25  83
TORSDOF 12
ENDMDL
MODEL 3
REMARK VINA RESULT:      -5.6      2.164      7.848
REMARK  12 active torsions:
REMARK  status: ('A' for Active; 'I' for Inactive)
REMARK    1  A    between atoms: C_1  and  C_2 
REMARK    2  A    between atoms: C_2  and  C_4 
REMARK    3  A    between atoms: C_8  and  C_38 
REMARK    4  A    between atoms: C_17  and  C_37 
REMARK    5  A    between atoms: C_18  and  C_21 
REMARK    6  A    between atoms: C_26  and  C_36 
REMARK    7  A    between atoms: C_28  and  C_34 
REMARK    8  A    between atoms: C_29  and  O_33 
REMARK    9  A    between atoms: C_30  and  C_31 
REMARK   10  A    between atoms: C_30  and  C_32 
REMARK   11  A    between atoms: C_38  and  O_40 
REMARK   12  A    between atoms: O_40  and  C_41 
ROOT
ATOM      1  C   LIG d   1      11.200   4.583  -3.411  0.00  0.00    -0.016 C 
ATOM      2  H   LIG d   1      10.940   3.967  -2.556  0.00  0.00     0.035 H 
ATOM      3  C   LIG d   1      12.694   5.003  -3.355  0.00  0.00    -0.045 C 
ATOM      4  C   LIG d   1      13.350   4.425  -4.640  0.00  0.00    -0.036 C 
ATOM      5  C   LIG d   1      12.468   3.195  -4.921  0.00  0.00     0.071 C 
ATOM      6  C   LIG d   1      11.056   3.799  -4.713  0.00  0.00    -0.015 C 
ATOM      7  H   LIG d   1      10.864   4.531  -5.509  0.00  0.00     0.032 H 
ATOM      8  C   LIG d   1      10.033   2.693  -4.766  0.00  0.00    -0.031 C 
ATOM      9  H   LIG d   1      10.261   1.932  -4.010  0.00  0.00     0.031 H 
ATOM     10  C   LIG d   1       8.632   3.228  -4.482  0.00  0.00    -0.049 C 
ATOM     11  C   LIG d   1       7.634   2.075  -4.504  0.00  0.00    -0.049 C 
ATOM     12  C   LIG d   1       8.321   0.753  -4.872  0.00  0.00    -0.029 C 
ATOM     13  H   LIG d   1       9.056   0.515  -4.097  0.00  0.00     0.031 H 
ATOM     14  C   LIG d   1       9.039   0.891  -6.210  0.00  0.00    -0.023 C 
ATOM     15  C   LIG d   1      10.060   2.037  -6.157  0.00  0.00    -0.023 C 
ATOM     16  C   LIG d   1      11.469   1.546  -6.480  0.00  0.00    -0.046 C 
ATOM     17  C   LIG d   1      12.529   2.655  -6.332  0.00  0.00    -0.036 C 
ATOM     18  C   LIG d   1       8.001   1.122  -7.311  0.00  0.00    -0.046 C 
ATOM     19  C   LIG d   1       7.026  -0.068  -7.351  0.00  0.00    -0.048 C 
ATOM     20  C   LIG d   1       6.280  -0.148  -6.026  0.00  0.00    -0.023 C 
ATOM     21  H   LIG d   1       5.789   0.849  -5.882  0.00  0.00     0.032 H 
ATOM     22  C   LIG d   1       7.236  -0.329  -4.852  0.00  0.00    -0.021 C 
ATOM     23  C   LIG d   1       6.382  -0.105  -3.577  0.00  0.00    -0.015 C 
ATOM     24  C   LIG d   1       5.310  -1.160  -3.558  0.00  0.00     0.030 C 
ATOM     25  C   LIG d   1       4.776  -1.646  -4.684  0.00  0.00     0.106 C 
ATOM     26  C   LIG d   1       5.161  -1.174  -6.057  0.00  0.00     0.026 C 
ATOM     27  H   LIG d   1      12.772   6.092  -3.355  0.00  0.00     0.027 H 
ATOM     28  H   LIG d   1      13.168   4.595  -2.467  0.00  0.00     0.027 H 
ATOM     29  H   LIG d   1      13.293   5.134  -5.462  0.00  0.00     0.028 H 
ATOM     30  H   LIG d   1      14.377   4.122  -4.448  0.00  0.00     0.028 H 
ATOM     31  H   LIG d   1       8.621   3.673  -3.478  0.00  0.00     0.027 H 
ATOM     32  H   LIG d   1       8.346   3.992  -5.198  0.00  0.00     0.027 H 
ATOM     33  H   LIG d   1       7.204   1.983  -3.500  0.00  0.00     0.027 H 
ATOM     34  H   LIG d   1       6.840   2.286  -5.216  0.00  0.00     0.027 H 
ATOM     35  H   LIG d   1      11.762   0.737  -5.814  0.00  0.00     0.027 H 
ATOM     36  H   LIG d   1      11.502   1.209  -7.520  0.00  0.00     0.027 H 
ATOM     37  H   LIG d   1      12.356   3.449  -7.054  0.00  0.00     0.028 H 
ATOM     38  H   LIG d   1      13.520   2.223  -6.514  0.00  0.00     0.028 H 
ATOM     39  H   LIG d   1       7.414   2.017  -7.108  0.00  0.00     0.027 H 
ATOM     40  H   LIG d   1       8.481   1.176  -8.287  0.00  0.00     0.027 H 
ATOM     41  H   LIG d   1       6.310   0.127  -8.159  0.00  0.00     0.027 H 
ATOM     42  H   LIG d   1       7.563  -0.977  -7.579  0.00  0.00     0.027 H 
ATOM     43  H   LIG d   1       7.012  -0.198  -2.705  0.00  0.00     0.032 H 
ATOM     44  H   LIG d   1       5.905   0.867  -3.631  0.00  0.00     0.032 H 
ENDROOT
BRANCH   1  45
ATOM     45  C   LIG d   1      10.340   5.823  -3.450  0.00  0.00    -0.076 C 
ATOM     46  C   LIG d   1       9.760   6.252  -2.357  0.00  0.00    -0.099 C 
ATOM     47  H   LIG d   1       9.896   5.719  -1.428  0.00  0.00     0.053 H 
ATOM     48  H   LIG d   1       9.144   7.139  -2.385  0.00  0.00     0.053 H 
BRANCH  45  49
ATOM     49  C   LIG d   1      10.149   6.567  -4.747  0.00  0.00    -0.044 C 
ATOM     50  H   LIG d   1       9.836   7.590  -4.536  0.00  0.00     0.027 H 
ATOM     51  H   LIG d   1      11.089   6.581  -5.300  0.00  0.00     0.027 H 
ATOM     52  H   LIG d   1       9.385   6.068  -5.343  0.00  0.00     0.027 H 
ENDBRANCH  45  49
ENDBRANCH   1  45
BRANCH   5  53
ATOM     53  C   LIG d   1      12.788   2.128  -3.909  0.00  0.00     0.313 C 
ATOM     54  O   LIG d   1      11.897   1.601  -3.286  0.00  0.00    -0.250 OA
BRANCH  53  55
ATOM     55  O   LIG d   1      14.062   1.762  -3.699  0.00  0.00    -0.468 OA
BRANCH  55  56
ATOM     56  C   LIG d   1      14.307   0.374  -3.463  0.00  0.00     0.082 C 
ATOM     57  H   LIG d   1      13.569  -0.011  -2.759  0.00  0.00     0.066 H 
ATOM     58  H   LIG d   1      14.234  -0.174  -4.402  0.00  0.00     0.066 H 
ATOM     59  H   LIG d   1      15.306   0.248  -3.046  0.00  0.00     0.066 H 
ENDBRANCH  55  56
ENDBRANCH  53  55
ENDBRANCH   5  53
BRANCH  15  60
ATOM     60  C   LIG d   1       9.693   3.085  -7.215  0.00  0.00    -0.059 C 
ATOM     61  H   LIG d   1      10.595   3.399  -7.742  0.00  0.00     0.024 H 
ATOM     62  H   LIG d   1       8.989   2.653  -7.925  0.00  0.00     0.024 H 
ATOM     63  H   LIG d   1       9.237   3.947  -6.729  0.00  0.00     0.024 H 
ENDBRANCH  15  60
BRANCH  14  64
ATOM     64  C   LIG d   1       9.800  -0.398  -6.559  0.00  0.00    -0.059 C 
ATOM     65  H   LIG d   1       9.757  -0.565  -7.635  0.00  0.00     0.024 H 
ATOM     66  H   LIG d   1      10.841  -0.300  -6.248  0.00  0.00     0.024 H 
ATOM     67  H   LIG d   1       9.345  -1.242  -6.041  0.00  0.00     0.024 H 
ENDBRANCH  14  64
BRANCH  22  68
ATOM     68  C   LIG d   1       7.822  -1.732  -4.752  0.00  0.00    -0.059 C 
ATOM     69  H   LIG d   1       7.884  -2.171  -5.748  0.00  0.00     0.024 H 
ATOM     70  H   LIG d   1       8.819  -1.680  -4.316  0.00  0.00     0.024 H 
ATOM     71  H   LIG d   1       7.182  -2.350  -4.122  0.00  0.00     0.024 H 
ENDBRANCH  22  68
BRANCH  26  72
ATOM     72  C   LIG d   1       3.911  -0.509  -6.671  0.00  0.00    -0.053 C 
ATOM     73  H   LIG d   1       3.923  -0.644  -7.753  0.00  0.00     0.024 H 
ATOM     74  H   LIG d   1       3.014  -0.969  -6.257  0.00  0.00     0.024 H 
ATOM     75  H   LIG d   1       3.914   0.555  -6.437  0.00  0.00     0.024 H 
ENDBRANCH  26  72
BRANCH  26  76
ATOM     76  C   LIG d   1       5.510  -2.385  -6.923  0.00  0.00    -0.053 C 
ATOM     77  H   LIG d   1       6.060  -3.112  -6.326  0.00  0.00     0.024 H 
ATOM     78  H   LIG d   1       4.592  -2.841  -7.296  0.00  0.00     0.024 H 
ATOM     79  H   LIG d   1       6.125  -2.065  -7.764  0.00  0.00     0.024 H 
ENDBRANCH  26  76
BRANCH  24  80
ATOM     80  C   LIG d   1       4.859  -1.643  -2.321  0.00  0.00     0.149 C 
ATOM     81  O   LIG d   1       4.294  -0.896  -1.547  0.00  0.00    -0.296 OA
ATOM     82  H   LIG d   1       5.014  -2.678  -2.055  0.00  0.00     0.108 H 
ENDBRANCH  24  80
BRANCH  25  83
ATOM     83  O   LIG d   1       3.845  -2.613  -4.581  0.00  0.00    -0.510 OA
ATOM     84  H   LIG d   1       4.160  -3.417  -4.148  0.00  0.00     0.292 HD
ENDBRANCH  25  83
TORSDOF 12
ENDMDL
MODEL 4
REMARK VINA RESULT:      -5.6      5.992     10.133
REMARK  12 active torsions:
REMARK  status: ('A' for Active; 'I' for Inactive)
REMARK    1  A    between atoms: C_1  and  C_2 
REMARK    2  A    between atoms: C_2  and  C_4 
REMARK    3  A    between atoms: C_8  and  C_38 
REMARK    4  A    between atoms: C_17  and  C_37 
REMARK    5  A    between atoms: C_18  and  C_21 
REMARK    6  A    between atoms: C_26  and  C_36 
REMARK    7  A    between atoms: C_28  and  C_34 
REMARK    8  A    between atoms: C_29  and  O_33 
REMARK    9  A    between atoms: C_30  and  C_31 
REMARK   10  A    between atoms: C_30  and  C_32 
REMARK   11  A    between atoms: C_38  and  O_40 
REMARK   12  A    between atoms: O_40  and  C_41 
ROOT
ATOM      1  C   LIG d   1       0.198  -7.211 -10.972  0.00  0.00    -0.016 C 
ATOM      2  H   LIG d   1       0.136  -6.925  -9.927  0.00  0.00     0.035 H 
ATOM      3  C   LIG d   1      -1.101  -7.930 -11.426  0.00  0.00    -0.045 C 
ATOM      4  C   LIG d   1      -1.693  -7.063 -12.571  0.00  0.00    -0.036 C 
ATOM      5  C   LIG d   1      -1.173  -5.661 -12.210  0.00  0.00     0.071 C 
ATOM      6  C   LIG d   1       0.305  -5.980 -11.869  0.00  0.00    -0.015 C 
ATOM      7  H   LIG d   1       0.819  -6.296 -12.787  0.00  0.00     0.032 H 
ATOM      8  C   LIG d   1       0.960  -4.746 -11.305  0.00  0.00    -0.031 C 
ATOM      9  H   LIG d   1       0.410  -4.396 -10.423  0.00  0.00     0.031 H 
ATOM     10  C   LIG d   1       2.396  -5.035 -10.875  0.00  0.00    -0.049 C 
ATOM     11  C   LIG d   1       3.010  -3.775 -10.274  0.00  0.00    -0.049 C 
ATOM     12  C   LIG d   1       2.034  -2.593 -10.348  0.00  0.00    -0.029 C 
ATOM     13  H   LIG d   1       1.153  -2.829  -9.744  0.00  0.00     0.031 H 
ATOM     14  C   LIG d   1       1.599  -2.363 -11.791  0.00  0.00    -0.023 C 
ATOM     15  C   LIG d   1       0.956  -3.633 -12.367  0.00  0.00    -0.023 C 
ATOM     16  C   LIG d   1      -0.469  -3.371 -12.849  0.00  0.00    -0.046 C 
ATOM     17  C   LIG d   1      -1.172  -4.652 -13.336  0.00  0.00    -0.036 C 
ATOM     18  C   LIG d   1       2.814  -1.931 -12.615  0.00  0.00    -0.046 C 
ATOM     19  C   LIG d   1       3.397  -0.635 -12.024  0.00  0.00    -0.048 C 
ATOM     20  C   LIG d   1       3.878  -0.907 -10.605  0.00  0.00    -0.023 C 
ATOM     21  H   LIG d   1       4.609  -1.753 -10.678  0.00  0.00     0.032 H 
ATOM     22  C   LIG d   1       2.744  -1.393  -9.709  0.00  0.00    -0.021 C 
ATOM     23  C   LIG d   1       3.422  -1.895  -8.409  0.00  0.00    -0.015 C 
ATOM     24  C   LIG d   1       4.128  -0.724  -7.783  0.00  0.00     0.030 C 
ATOM     25  C   LIG d   1       4.663   0.255  -8.521  0.00  0.00     0.106 C 
ATOM     26  C   LIG d   1       4.644   0.269 -10.023  0.00  0.00     0.026 C 
ATOM     27  H   LIG d   1      -0.860  -8.927 -11.800  0.00  0.00     0.027 H 
ATOM     28  H   LIG d   1      -1.802  -8.001 -10.599  0.00  0.00     0.027 H 
ATOM     29  H   LIG d   1      -1.310  -7.378 -13.539  0.00  0.00     0.028 H 
ATOM     30  H   LIG d   1      -2.781  -7.083 -12.550  0.00  0.00     0.028 H 
ATOM     31  H   LIG d   1       2.383  -5.814 -10.101  0.00  0.00     0.027 H 
ATOM     32  H   LIG d   1       2.995  -5.389 -11.707  0.00  0.00     0.027 H 
ATOM     33  H   LIG d   1       3.237  -3.981  -9.222  0.00  0.00     0.027 H 
ATOM     34  H   LIG d   1       3.929  -3.524 -10.797  0.00  0.00     0.027 H 
ATOM     35  H   LIG d   1      -1.080  -2.958 -12.050  0.00  0.00     0.027 H 
ATOM     36  H   LIG d   1      -0.439  -2.680 -13.697  0.00  0.00     0.027 H 
ATOM     37  H   LIG d   1      -0.669  -5.056 -14.212  0.00  0.00     0.028 H 
ATOM     38  H   LIG d   1      -2.206  -4.407 -13.606  0.00  0.00     0.028 H 
ATOM     39  H   LIG d   1       3.596  -2.688 -12.577  0.00  0.00     0.027 H 
ATOM     40  H   LIG d   1       2.523  -1.712 -13.643  0.00  0.00     0.027 H 
ATOM     41  H   LIG d   1       4.253  -0.351 -12.649  0.00  0.00     0.027 H 
ATOM     42  H   LIG d   1       2.662   0.154 -12.068  0.00  0.00     0.027 H 
ATOM     43  H   LIG d   1       2.667  -2.278  -7.737  0.00  0.00     0.032 H 
ATOM     44  H   LIG d   1       4.162  -2.647  -8.658  0.00  0.00     0.032 H 
ENDROOT
BRANCH   1  45
ATOM     45  C   LIG d   1       1.375  -8.128 -11.200  0.00  0.00    -0.076 C 
ATOM     46  C   LIG d   1       1.973  -8.692 -10.180  0.00  0.00    -0.099 C 
ATOM     47  H   LIG d   1       1.623  -8.502  -9.176  0.00  0.00     0.053 H 
ATOM     48  H   LIG d   1       2.815  -9.348 -10.343  0.00  0.00     0.053 H 
BRANCH  45  49
ATOM     49  C   LIG d   1       1.863  -8.393 -12.601  0.00  0.00    -0.044 C 
ATOM     50  H   LIG d   1       2.127  -7.449 -13.078  0.00  0.00     0.027 H 
ATOM     51  H   LIG d   1       2.741  -9.039 -12.563  0.00  0.00     0.027 H 
ATOM     52  H   LIG d   1       1.076  -8.883 -13.174  0.00  0.00     0.027 H 
ENDBRANCH  45  49
ENDBRANCH   1  45
BRANCH   5  53
ATOM     53  C   LIG d   1      -1.937  -5.152 -11.017  0.00  0.00     0.313 C 
ATOM     54  O   LIG d   1      -1.359  -4.934  -9.979  0.00  0.00    -0.250 OA
BRANCH  53  55
ATOM     55  O   LIG d   1      -3.259  -4.942 -11.107  0.00  0.00    -0.468 OA
BRANCH  55  56
ATOM     56  C   LIG d   1      -3.960  -4.688  -9.888  0.00  0.00     0.082 C 
ATOM     57  H   LIG d   1      -3.685  -5.440  -9.147  0.00  0.00     0.066 H 
ATOM     58  H   LIG d   1      -3.696  -3.698  -9.515  0.00  0.00     0.066 H 
ATOM     59  H   LIG d   1      -5.034  -4.734 -10.070  0.00  0.00     0.066 H 
ENDBRANCH  55  56
ENDBRANCH  53  55
ENDBRANCH   5  53
BRANCH  15  60
ATOM     60  C   LIG d   1       1.766  -4.097 -13.584  0.00  0.00    -0.059 C 
ATOM     61  H   LIG d   1       2.740  -3.605 -13.581  0.00  0.00     0.024 H 
ATOM     62  H   LIG d   1       1.905  -5.177 -13.538  0.00  0.00     0.024 H 
ATOM     63  H   LIG d   1       1.231  -3.837 -14.498  0.00  0.00     0.024 H 
ENDBRANCH  15  60
BRANCH  14  64
ATOM     64  C   LIG d   1       0.559  -1.234 -11.877  0.00  0.00    -0.059 C 
ATOM     65  H   LIG d   1       0.145  -1.045 -10.887  0.00  0.00     0.024 H 
ATOM     66  H   LIG d   1       1.038  -0.327 -12.249  0.00  0.00     0.024 H 
ATOM     67  H   LIG d   1      -0.241  -1.526 -12.557  0.00  0.00     0.024 H 
ENDBRANCH  14  64
BRANCH  22  68
ATOM     68  C   LIG d   1       1.769  -0.294  -9.305  0.00  0.00    -0.059 C 
ATOM     69  H   LIG d   1       0.821  -0.741  -9.006  0.00  0.00     0.024 H 
ATOM     70  H   LIG d   1       2.184   0.271  -8.471  0.00  0.00     0.024 H 
ATOM     71  H   LIG d   1       1.605   0.375 -10.150  0.00  0.00     0.024 H 
ENDBRANCH  22  68
BRANCH  26  72
ATOM     72  C   LIG d   1       6.110   0.171 -10.492  0.00  0.00    -0.053 C 
ATOM     73  H   LIG d   1       6.191  -0.583 -11.276  0.00  0.00     0.024 H 
ATOM     74  H   LIG d   1       6.433   1.136 -10.883  0.00  0.00     0.024 H 
ATOM     75  H   LIG d   1       6.743  -0.110  -9.651  0.00  0.00     0.024 H 
ENDBRANCH  26  72
BRANCH  26  76
ATOM     76  C   LIG d   1       4.096   1.612 -10.505  0.00  0.00    -0.053 C 
ATOM     77  H   LIG d   1       4.853   2.384 -10.365  0.00  0.00     0.024 H 
ATOM     78  H   LIG d   1       3.840   1.543 -11.563  0.00  0.00     0.024 H 
ATOM     79  H   LIG d   1       3.205   1.868  -9.932  0.00  0.00     0.024 H 
ENDBRANCH  26  76
BRANCH  24  80
ATOM     80  C   LIG d   1       4.226  -0.662  -6.386  0.00  0.00     0.149 C 
ATOM     81  O   LIG d   1       3.632   0.202  -5.773  0.00  0.00    -0.296 OA
ATOM     82  H   LIG d   1       4.831  -1.381  -5.854  0.00  0.00     0.108 H 
ENDBRANCH  24  80
BRANCH  25  83
ATOM     83  O   LIG d   1       5.248   1.286  -7.883  0.00  0.00    -0.510 OA
ATOM     84  H   LIG d   1       4.926   1.425  -6.982  0.00  0.00     0.292 HD
ENDBRANCH  25  83
TORSDOF 12
ENDMDL
MODEL 5
REMARK VINA RESULT:      -5.6      4.358      7.241
REMARK  12 active torsions:
REMARK  status: ('A' for Active; 'I' for Inactive)
REMARK    1  A    between atoms: C_1  and  C_2 
REMARK    2  A    between atoms: C_2  and  C_4 
REMARK    3  A    between atoms: C_8  and  C_38 
REMARK    4  A    between atoms: C_17  and  C_37 
REMARK    5  A    between atoms: C_18  and  C_21 
REMARK    6  A    between atoms: C_26  and  C_36 
REMARK    7  A    between atoms: C_28  and  C_34 
REMARK    8  A    between atoms: C_29  and  O_33 
REMARK    9  A    between atoms: C_30  and  C_31 
REMARK   10  A    between atoms: C_30  and  C_32 
REMARK   11  A    between atoms: C_38  and  O_40 
REMARK   12  A    between atoms: O_40  and  C_41 
ROOT
ATOM      1  C   LIG d   1       6.729  -7.462  -7.607  0.00  0.00    -0.016 C 
ATOM      2  H   LIG d   1       6.086  -6.842  -8.223  0.00  0.00     0.035 H 
ATOM      3  C   LIG d   1       7.691  -8.305  -8.486  0.00  0.00    -0.045 C 
ATOM      4  C   LIG d   1       9.129  -7.880  -8.078  0.00  0.00    -0.036 C 
ATOM      5  C   LIG d   1       8.909  -6.432  -7.605  0.00  0.00     0.071 C 
ATOM      6  C   LIG d   1       7.640  -6.602  -6.733  0.00  0.00    -0.015 C 
ATOM      7  H   LIG d   1       7.896  -7.203  -5.850  0.00  0.00     0.032 H 
ATOM      8  C   LIG d   1       7.143  -5.243  -6.312  0.00  0.00    -0.031 C 
ATOM      9  H   LIG d   1       6.944  -4.624  -7.194  0.00  0.00     0.031 H 
ATOM     10  C   LIG d   1       5.843  -5.356  -5.519  0.00  0.00    -0.049 C 
ATOM     11  C   LIG d   1       5.352  -3.961  -5.147  0.00  0.00    -0.049 C 
ATOM     12  C   LIG d   1       6.340  -2.883  -5.614  0.00  0.00    -0.029 C 
ATOM     13  H   LIG d   1       6.397  -2.912  -6.706  0.00  0.00     0.031 H 
ATOM     14  C   LIG d   1       7.725  -3.156  -5.037  0.00  0.00    -0.023 C 
ATOM     15  C   LIG d   1       8.212  -4.553  -5.448  0.00  0.00    -0.023 C 
ATOM     16  C   LIG d   1       9.535  -4.482  -6.207  0.00  0.00    -0.046 C 
ATOM     17  C   LIG d   1       9.995  -5.860  -6.721  0.00  0.00    -0.036 C 
ATOM     18  C   LIG d   1       7.667  -3.013  -3.514  0.00  0.00    -0.046 C 
ATOM     19  C   LIG d   1       7.212  -1.588  -3.152  0.00  0.00    -0.048 C 
ATOM     20  C   LIG d   1       5.805  -1.362  -3.688  0.00  0.00    -0.023 C 
ATOM     21  H   LIG d   1       5.169  -2.175  -3.253  0.00  0.00     0.032 H 
ATOM     22  C   LIG d   1       5.745  -1.531  -5.202  0.00  0.00    -0.021 C 
ATOM     23  C   LIG d   1       4.237  -1.560  -5.561  0.00  0.00    -0.015 C 
ATOM     24  C   LIG d   1       3.647  -0.239  -5.151  0.00  0.00     0.030 C 
ATOM     25  C   LIG d   1       4.104   0.441  -4.093  0.00  0.00     0.106 C 
ATOM     26  C   LIG d   1       5.210  -0.051  -3.204  0.00  0.00     0.026 C 
ATOM     27  H   LIG d   1       7.545  -9.367  -8.280  0.00  0.00     0.027 H 
ATOM     28  H   LIG d   1       7.516  -8.102  -9.539  0.00  0.00     0.027 H 
ATOM     29  H   LIG d   1       9.504  -8.497  -7.266  0.00  0.00     0.028 H 
ATOM     30  H   LIG d   1       9.798  -7.903  -8.936  0.00  0.00     0.028 H 
ATOM     31  H   LIG d   1       5.082  -5.830  -6.153  0.00  0.00     0.027 H 
ATOM     32  H   LIG d   1       5.972  -5.963  -4.629  0.00  0.00     0.027 H 
ATOM     33  H   LIG d   1       4.390  -3.799  -5.645  0.00  0.00     0.027 H 
ATOM     34  H   LIG d   1       5.215  -3.891  -4.070  0.00  0.00     0.027 H 
ATOM     35  H   LIG d   1       9.453  -3.832  -7.074  0.00  0.00     0.027 H 
ATOM     36  H   LIG d   1      10.316  -4.116  -5.533  0.00  0.00     0.027 H 
ATOM     37  H   LIG d   1      10.204  -6.529  -5.890  0.00  0.00     0.028 H 
ATOM     38  H   LIG d   1      10.911  -5.731  -7.308  0.00  0.00     0.028 H 
ATOM     39  H   LIG d   1       6.942  -3.704  -3.087  0.00  0.00     0.027 H 
ATOM     40  H   LIG d   1       8.655  -3.155  -3.077  0.00  0.00     0.027 H 
ATOM     41  H   LIG d   1       7.199  -1.521  -2.057  0.00  0.00     0.027 H 
ATOM     42  H   LIG d   1       7.921  -0.867  -3.532  0.00  0.00     0.027 H 
ATOM     43  H   LIG d   1       4.127  -1.703  -6.626  0.00  0.00     0.032 H 
ATOM     44  H   LIG d   1       3.748  -2.344  -4.994  0.00  0.00     0.032 H 
ENDROOT
BRANCH   1  45
ATOM     45  C   LIG d   1       5.904  -8.390  -6.748  0.00  0.00    -0.076 C 
ATOM     46  C   LIG d   1       4.668  -8.665  -7.083  0.00  0.00    -0.099 C 
ATOM     47  H   LIG d   1       4.239  -8.230  -7.974  0.00  0.00     0.053 H 
ATOM     48  H   LIG d   1       4.077  -9.329  -6.469  0.00  0.00     0.053 H 
BRANCH  45  49
ATOM     49  C   LIG d   1       6.502  -8.997  -5.506  0.00  0.00    -0.044 C 
ATOM     50  H   LIG d   1       6.262 -10.060  -5.470  0.00  0.00     0.027 H 
ATOM     51  H   LIG d   1       7.585  -8.869  -5.524  0.00  0.00     0.027 H 
ATOM     52  H   LIG d   1       6.093  -8.501  -4.625  0.00  0.00     0.027 H 
ENDBRANCH  45  49
ENDBRANCH   1  45
BRANCH   5  53
ATOM     53  C   LIG d   1       8.663  -5.561  -8.807  0.00  0.00     0.313 C 
ATOM     54  O   LIG d   1       9.474  -5.522  -9.701  0.00  0.00    -0.250 OA
BRANCH  53  55
ATOM     55  O   LIG d   1       7.542  -4.826  -8.885  0.00  0.00    -0.468 OA
BRANCH  55  56
ATOM     56  C   LIG d   1       7.672  -3.496  -9.392  0.00  0.00     0.082 C 
ATOM     57  H   LIG d   1       7.065  -2.818  -8.792  0.00  0.00     0.066 H 
ATOM     58  H   LIG d   1       8.717  -3.188  -9.343  0.00  0.00     0.066 H 
ATOM     59  H   LIG d   1       7.333  -3.468 -10.428  0.00  0.00     0.066 H 
ENDBRANCH  55  56
ENDBRANCH  53  55
ENDBRANCH   5  53
BRANCH  15  60
ATOM     60  C   LIG d   1       8.459  -5.389  -4.187  0.00  0.00    -0.059 C 
ATOM     61  H   LIG d   1       8.835  -6.373  -4.471  0.00  0.00     0.024 H 
ATOM     62  H   LIG d   1       9.192  -4.888  -3.556  0.00  0.00     0.024 H 
ATOM     63  H   LIG d   1       7.524  -5.503  -3.638  0.00  0.00     0.024 H 
ENDBRANCH  15  60
BRANCH  14  64
ATOM     64  C   LIG d   1       8.746  -2.132  -5.557  0.00  0.00    -0.059 C 
ATOM     65  H   LIG d   1       9.348  -1.765  -4.726  0.00  0.00     0.024 H 
ATOM     66  H   LIG d   1       9.395  -2.608  -6.293  0.00  0.00     0.024 H 
ATOM     67  H   LIG d   1       8.222  -1.297  -6.022  0.00  0.00     0.024 H 
ENDBRANCH  14  64
BRANCH  22  68
ATOM     68  C   LIG d   1       6.362  -0.370  -5.972  0.00  0.00    -0.059 C 
ATOM     69  H   LIG d   1       6.860   0.304  -5.275  0.00  0.00     0.024 H 
ATOM     70  H   LIG d   1       7.090  -0.754  -6.687  0.00  0.00     0.024 H 
ATOM     71  H   LIG d   1       5.580   0.170  -6.505  0.00  0.00     0.024 H 
ENDBRANCH  22  68
BRANCH  26  72
ATOM     72  C   LIG d   1       4.594  -0.285  -1.808  0.00  0.00    -0.053 C 
ATOM     73  H   LIG d   1       3.536  -0.020  -1.830  0.00  0.00     0.024 H 
ATOM     74  H   LIG d   1       4.700  -1.335  -1.535  0.00  0.00     0.024 H 
ATOM     75  H   LIG d   1       5.108   0.335  -1.075  0.00  0.00     0.024 H 
ENDBRANCH  26  72
BRANCH  26  76
ATOM     76  C   LIG d   1       6.264   1.047  -3.062  0.00  0.00    -0.053 C 
ATOM     77  H   LIG d   1       5.771   2.007  -2.910  0.00  0.00     0.024 H 
ATOM     78  H   LIG d   1       6.904   0.828  -2.207  0.00  0.00     0.024 H 
ATOM     79  H   LIG d   1       6.869   1.089  -3.967  0.00  0.00     0.024 H 
ENDBRANCH  26  76
BRANCH  24  80
ATOM     80  C   LIG d   1       2.586   0.290  -5.900  0.00  0.00     0.149 C 
ATOM     81  O   LIG d   1       2.793   1.179  -6.701  0.00  0.00    -0.296 OA
ATOM     82  H   LIG d   1       1.586  -0.093  -5.766  0.00  0.00     0.108 H 
ENDBRANCH  24  80
BRANCH  25  83
ATOM     83  O   LIG d   1       3.544   1.633  -3.812  0.00  0.00    -0.510 OA
ATOM     84  H   LIG d   1       2.636   1.725  -4.131  0.00  0.00     0.292 HD
ENDBRANCH  25  83
TORSDOF 12
ENDMDL
MODEL 6
REMARK VINA RESULT:      -5.5      6.706      9.111
REMARK  12 active torsions:
REMARK  status: ('A' for Active; 'I' for Inactive)
REMARK    1  A    between atoms: C_1  and  C_2 
REMARK    2  A    between atoms: C_2  and  C_4 
REMARK    3  A    between atoms: C_8  and  C_38 
REMARK    4  A    between atoms: C_17  and  C_37 
REMARK    5  A    between atoms: C_18  and  C_21 
REMARK    6  A    between atoms: C_26  and  C_36 
REMARK    7  A    between atoms: C_28  and  C_34 
REMARK    8  A    between atoms: C_29  and  O_33 
REMARK    9  A    between atoms: C_30  and  C_31 
REMARK   10  A    between atoms: C_30  and  C_32 
REMARK   11  A    between atoms: C_38  and  O_40 
REMARK   12  A    between atoms: O_40  and  C_41 
ROOT
ATOM      1  C   LIG d   1      12.390   8.155  -0.814  0.00  0.00    -0.016 C 
ATOM      2  H   LIG d   1      12.118   9.173  -1.074  0.00  0.00     0.035 H 
ATOM      3  C   LIG d   1      11.746   7.737   0.536  0.00  0.00    -0.045 C 
ATOM      4  C   LIG d   1      10.838   6.517   0.218  0.00  0.00    -0.036 C 
ATOM      5  C   LIG d   1      10.462   6.775  -1.252  0.00  0.00     0.071 C 
ATOM      6  C   LIG d   1      11.842   7.165  -1.839  0.00  0.00    -0.015 C 
ATOM      7  H   LIG d   1      12.497   6.283  -1.816  0.00  0.00     0.032 H 
ATOM      8  C   LIG d   1      11.659   7.640  -3.258  0.00  0.00    -0.031 C 
ATOM      9  H   LIG d   1      10.958   8.482  -3.286  0.00  0.00     0.031 H 
ATOM     10  C   LIG d   1      12.983   8.116  -3.851  0.00  0.00    -0.049 C 
ATOM     11  C   LIG d   1      12.749   8.626  -5.270  0.00  0.00    -0.049 C 
ATOM     12  C   LIG d   1      11.285   8.442  -5.691  0.00  0.00    -0.029 C 
ATOM     13  H   LIG d   1      10.654   9.048  -5.034  0.00  0.00     0.031 H 
ATOM     14  C   LIG d   1      10.881   6.978  -5.555  0.00  0.00    -0.023 C 
ATOM     15  C   LIG d   1      11.095   6.493  -4.114  0.00  0.00    -0.023 C 
ATOM     16  C   LIG d   1       9.799   5.969  -3.501  0.00  0.00    -0.046 C 
ATOM     17  C   LIG d   1       9.963   5.572  -2.021  0.00  0.00    -0.036 C 
ATOM     18  C   LIG d   1      11.692   6.143  -6.549  0.00  0.00    -0.046 C 
ATOM     19  C   LIG d   1      11.414   6.639  -7.979  0.00  0.00    -0.048 C 
ATOM     20  C   LIG d   1      11.880   8.083  -8.105  0.00  0.00    -0.023 C 
ATOM     21  H   LIG d   1      12.962   8.090  -7.814  0.00  0.00     0.032 H 
ATOM     22  C   LIG d   1      11.163   8.995  -7.116  0.00  0.00    -0.021 C 
ATOM     23  C   LIG d   1      11.929  10.343  -7.156  0.00  0.00    -0.015 C 
ATOM     24  C   LIG d   1      11.819  10.886  -8.554  0.00  0.00     0.030 C 
ATOM     25  C   LIG d   1      11.756  10.081  -9.622  0.00  0.00     0.106 C 
ATOM     26  C   LIG d   1      11.821   8.583  -9.538  0.00  0.00     0.026 C 
ATOM     27  H   LIG d   1      12.525   7.447   1.243  0.00  0.00     0.027 H 
ATOM     28  H   LIG d   1      11.158   8.556   0.942  0.00  0.00     0.027 H 
ATOM     29  H   LIG d   1      11.388   5.584   0.315  0.00  0.00     0.028 H 
ATOM     30  H   LIG d   1       9.949   6.521   0.845  0.00  0.00     0.028 H 
ATOM     31  H   LIG d   1      13.363   8.949  -3.245  0.00  0.00     0.027 H 
ATOM     32  H   LIG d   1      13.725   7.325  -3.850  0.00  0.00     0.027 H 
ATOM     33  H   LIG d   1      12.991   9.695  -5.287  0.00  0.00     0.027 H 
ATOM     34  H   LIG d   1      13.400   8.100  -5.965  0.00  0.00     0.027 H 
ATOM     35  H   LIG d   1       9.016   6.722  -3.542  0.00  0.00     0.027 H 
ATOM     36  H   LIG d   1       9.486   5.069  -4.040  0.00  0.00     0.027 H 
ATOM     37  H   LIG d   1      10.656   4.740  -1.922  0.00  0.00     0.028 H 
ATOM     38  H   LIG d   1       8.987   5.267  -1.627  0.00  0.00     0.028 H 
ATOM     39  H   LIG d   1      12.760   6.254  -6.367  0.00  0.00     0.027 H 
ATOM     40  H   LIG d   1      11.389   5.097  -6.508  0.00  0.00     0.027 H 
ATOM     41  H   LIG d   1      11.998   6.008  -8.660  0.00  0.00     0.027 H 
ATOM     42  H   LIG d   1      10.367   6.520  -8.214  0.00  0.00     0.027 H 
ATOM     43  H   LIG d   1      11.480  11.030  -6.454  0.00  0.00     0.032 H 
ATOM     44  H   LIG d   1      12.976  10.167  -6.938  0.00  0.00     0.032 H 
ENDROOT
BRANCH   1  45
ATOM     45  C   LIG d   1      13.890   8.019  -0.708  0.00  0.00    -0.076 C 
ATOM     46  C   LIG d   1      14.639   9.090  -0.617  0.00  0.00    -0.099 C 
ATOM     47  H   LIG d   1      14.184  10.070  -0.618  0.00  0.00     0.053 H 
ATOM     48  H   LIG d   1      15.712   8.994  -0.541  0.00  0.00     0.053 H 
BRANCH  45  49
ATOM     49  C   LIG d   1      14.525   6.653  -0.707  0.00  0.00    -0.044 C 
ATOM     50  H   LIG d   1      15.588   6.747  -0.483  0.00  0.00     0.027 H 
ATOM     51  H   LIG d   1      14.048   6.031   0.051  0.00  0.00     0.027 H 
ATOM     52  H   LIG d   1      14.399   6.193  -1.687  0.00  0.00     0.027 H 
ENDBRANCH  45  49
ENDBRANCH   1  45
BRANCH   5  53
ATOM     53  C   LIG d   1       9.476   7.910  -1.308  0.00  0.00     0.313 C 
ATOM     54  O   LIG d   1       8.388   7.791  -0.798  0.00  0.00    -0.250 OA
BRANCH  53  55
ATOM     55  O   LIG d   1       9.807   9.056  -1.925  0.00  0.00    -0.468 OA
BRANCH  55  56
ATOM     56  C   LIG d   1       9.324  10.268  -1.344  0.00  0.00     0.082 C 
ATOM     57  H   LIG d   1       9.999  10.585  -0.549  0.00  0.00     0.066 H 
ATOM     58  H   LIG d   1       9.274  11.045  -2.109  0.00  0.00     0.066 H 
ATOM     59  H   LIG d   1       8.329  10.102  -0.930  0.00  0.00     0.066 H 
ENDBRANCH  55  56
ENDBRANCH  53  55
ENDBRANCH   5  53
BRANCH  15  60
ATOM     60  C   LIG d   1      12.095   5.331  -4.119  0.00  0.00    -0.059 C 
ATOM     61  H   LIG d   1      11.950   4.731  -5.018  0.00  0.00     0.024 H 
ATOM     62  H   LIG d   1      13.111   5.725  -4.106  0.00  0.00     0.024 H 
ATOM     63  H   LIG d   1      11.936   4.710  -3.238  0.00  0.00     0.024 H 
ENDBRANCH  15  60
BRANCH  14  64
ATOM     64  C   LIG d   1       9.395   6.785  -5.897  0.00  0.00    -0.059 C 
ATOM     65  H   LIG d   1       8.815   6.729  -4.976  0.00  0.00     0.024 H 
ATOM     66  H   LIG d   1       9.048   7.630  -6.494  0.00  0.00     0.024 H 
ATOM     67  H   LIG d   1       9.267   5.863  -6.464  0.00  0.00     0.024 H 
ENDBRANCH  14  64
BRANCH  22  68
ATOM     68  C   LIG d   1       9.718   9.295  -7.497  0.00  0.00    -0.059 C 
ATOM     69  H   LIG d   1       9.299   8.440  -8.028  0.00  0.00     0.024 H 
ATOM     70  H   LIG d   1       9.136   9.483  -6.595  0.00  0.00     0.024 H 
ATOM     71  H   LIG d   1       9.686  10.174  -8.140  0.00  0.00     0.024 H 
ENDBRANCH  22  68
BRANCH  26  72
ATOM     72  C   LIG d   1      13.115   8.148 -10.257  0.00  0.00    -0.053 C 
ATOM     73  H   LIG d   1      13.785   7.672  -9.540  0.00  0.00     0.024 H 
ATOM     74  H   LIG d   1      12.871   7.442 -11.050  0.00  0.00     0.024 H 
ATOM     75  H   LIG d   1      13.604   9.022 -10.685  0.00  0.00     0.024 H 
ENDBRANCH  26  72
BRANCH  26  76
ATOM     76  C   LIG d   1      10.644   7.987 -10.311  0.00  0.00    -0.053 C 
ATOM     77  H   LIG d   1       9.746   8.027  -9.693  0.00  0.00     0.024 H 
ATOM     78  H   LIG d   1      10.482   8.560 -11.225  0.00  0.00     0.024 H 
ATOM     79  H   LIG d   1      10.864   6.951 -10.566  0.00  0.00     0.024 H 
ENDBRANCH  26  76
BRANCH  24  80
ATOM     80  C   LIG d   1      11.785  12.275  -8.740  0.00  0.00     0.149 C 
ATOM     81  O   LIG d   1      10.718  12.856  -8.779  0.00  0.00    -0.296 OA
ATOM     82  H   LIG d   1      12.705  12.830  -8.847  0.00  0.00     0.108 H 
ENDBRANCH  24  80
BRANCH  25  83
ATOM     83  O   LIG d   1      11.625  10.646 -10.837  0.00  0.00    -0.510 OA
ATOM     84  H   LIG d   1      12.383  10.504 -11.420  0.00  0.00     0.292 HD
ENDBRANCH  25  83
TORSDOF 12
ENDMDL
MODEL 7
REMARK VINA RESULT:      -5.3      2.332      7.844
REMARK  12 active torsions:
REMARK  status: ('A' for Active; 'I' for Inactive)
REMARK    1  A    between atoms: C_1  and  C_2 
REMARK    2  A    between atoms: C_2  and  C_4 
REMARK    3  A    between atoms: C_8  and  C_38 
REMARK    4  A    between atoms: C_17  and  C_37 
REMARK    5  A    between atoms: C_18  and  C_21 
REMARK    6  A    between atoms: C_26  and  C_36 
REMARK    7  A    between atoms: C_28  and  C_34 
REMARK    8  A    between atoms: C_29  and  O_33 
REMARK    9  A    between atoms: C_30  and  C_31 
REMARK   10  A    between atoms: C_30  and  C_32 
REMARK   11  A    between atoms: C_38  and  O_40 
REMARK   12  A    between atoms: O_40  and  C_41 
ROOT
ATOM      1  C   LIG d   1      12.244   3.450  -5.137  0.00  0.00    -0.016 C 
ATOM      2  H   LIG d   1      11.839   3.432  -4.131  0.00  0.00     0.035 H 
ATOM      3  C   LIG d   1      13.797   3.431  -5.108  0.00  0.00    -0.045 C 
ATOM      4  C   LIG d   1      14.223   2.144  -5.866  0.00  0.00    -0.036 C 
ATOM      5  C   LIG d   1      13.017   1.219  -5.626  0.00  0.00     0.071 C 
ATOM      6  C   LIG d   1      11.845   2.194  -5.908  0.00  0.00    -0.015 C 
ATOM      7  H   LIG d   1      11.854   2.457  -6.975  0.00  0.00     0.032 H 
ATOM      8  C   LIG d   1      10.545   1.523  -5.547  0.00  0.00    -0.031 C 
ATOM      9  H   LIG d   1      10.562   1.207  -4.498  0.00  0.00     0.031 H 
ATOM     10  C   LIG d   1       9.367   2.476  -5.729  0.00  0.00    -0.049 C 
ATOM     11  C   LIG d   1       8.077   1.774  -5.316  0.00  0.00    -0.049 C 
ATOM     12  C   LIG d   1       8.343   0.316  -4.916  0.00  0.00    -0.029 C 
ATOM     13  H   LIG d   1       8.997   0.309  -4.038  0.00  0.00     0.031 H 
ATOM     14  C   LIG d   1       9.035  -0.422  -6.057  0.00  0.00    -0.023 C 
ATOM     15  C   LIG d   1      10.345   0.284  -6.437  0.00  0.00    -0.023 C 
ATOM     16  C   LIG d   1      11.543  -0.655  -6.309  0.00  0.00    -0.046 C 
ATOM     17  C   LIG d   1      12.881   0.057  -6.584  0.00  0.00    -0.036 C 
ATOM     18  C   LIG d   1       8.080  -0.501  -7.250  0.00  0.00    -0.046 C 
ATOM     19  C   LIG d   1       6.802  -1.250  -6.832  0.00  0.00    -0.048 C 
ATOM     20  C   LIG d   1       6.099  -0.462  -5.734  0.00  0.00    -0.023 C 
ATOM     21  H   LIG d   1       5.921   0.564  -6.148  0.00  0.00     0.032 H 
ATOM     22  C   LIG d   1       6.991  -0.283  -4.511  0.00  0.00    -0.021 C 
ATOM     23  C   LIG d   1       6.272   0.759  -3.616  0.00  0.00    -0.015 C 
ATOM     24  C   LIG d   1       4.942   0.179  -3.223  0.00  0.00     0.030 C 
ATOM     25  C   LIG d   1       4.261  -0.641  -4.032  0.00  0.00     0.106 C 
ATOM     26  C   LIG d   1       4.731  -1.032  -5.404  0.00  0.00     0.026 C 
ATOM     27  H   LIG d   1      14.186   4.312  -5.622  0.00  0.00     0.027 H 
ATOM     28  H   LIG d   1      14.155   3.408  -4.083  0.00  0.00     0.027 H 
ATOM     29  H   LIG d   1      14.353   2.338  -6.928  0.00  0.00     0.028 H 
ATOM     30  H   LIG d   1      15.123   1.717  -5.428  0.00  0.00     0.028 H 
ATOM     31  H   LIG d   1       9.511   3.345  -5.073  0.00  0.00     0.027 H 
ATOM     32  H   LIG d   1       9.296   2.829  -6.752  0.00  0.00     0.027 H 
ATOM     33  H   LIG d   1       7.665   2.309  -4.452  0.00  0.00     0.027 H 
ATOM     34  H   LIG d   1       7.360   1.805  -6.132  0.00  0.00     0.027 H 
ATOM     35  H   LIG d   1      11.606  -1.071  -5.306  0.00  0.00     0.027 H 
ATOM     36  H   LIG d   1      11.450  -1.458  -7.046  0.00  0.00     0.027 H 
ATOM     37  H   LIG d   1      12.927   0.402  -7.614  0.00  0.00     0.028 H 
ATOM     38  H   LIG d   1      13.700  -0.652  -6.413  0.00  0.00     0.028 H 
ATOM     39  H   LIG d   1       7.783   0.494  -7.576  0.00  0.00     0.027 H 
ATOM     40  H   LIG d   1       8.530  -1.068  -8.065  0.00  0.00     0.027 H 
ATOM     41  H   LIG d   1       6.152  -1.300  -7.715  0.00  0.00     0.027 H 
ATOM     42  H   LIG d   1       7.046  -2.257  -6.528  0.00  0.00     0.027 H 
ATOM     43  H   LIG d   1       6.871   0.948  -2.736  0.00  0.00     0.032 H 
ATOM     44  H   LIG d   1       6.096   1.662  -4.188  0.00  0.00     0.032 H 
ENDROOT
BRANCH   1  45
ATOM     45  C   LIG d   1      11.779   4.684  -5.872  0.00  0.00    -0.076 C 
ATOM     46  C   LIG d   1      11.966   4.785  -7.165  0.00  0.00    -0.099 C 
ATOM     47  H   LIG d   1      12.452   3.985  -7.705  0.00  0.00     0.053 H 
ATOM     48  H   LIG d   1      11.634   5.668  -7.691  0.00  0.00     0.053 H 
BRANCH  45  49
ATOM     49  C   LIG d   1      11.102   5.799  -5.119  0.00  0.00    -0.044 C 
ATOM     50  H   LIG d   1      10.021   5.676  -5.182  0.00  0.00     0.027 H 
ATOM     51  H   LIG d   1      11.411   5.772  -4.074  0.00  0.00     0.027 H 
ATOM     52  H   LIG d   1      11.385   6.757  -5.556  0.00  0.00     0.027 H 
ENDBRANCH  45  49
ENDBRANCH   1  45
BRANCH   5  53
ATOM     53  C   LIG d   1      13.039   0.753  -4.196  0.00  0.00     0.313 C 
ATOM     54  O   LIG d   1      12.219   1.168  -3.412  0.00  0.00    -0.250 OA
BRANCH  53  55
ATOM     55  O   LIG d   1      13.971  -0.125  -3.790  0.00  0.00    -0.468 OA
BRANCH  55  56
ATOM     56  C   LIG d   1      14.819   0.281  -2.715  0.00  0.00     0.082 C 
ATOM     57  H   LIG d   1      15.330   1.207  -2.983  0.00  0.00     0.066 H 
ATOM     58  H   LIG d   1      14.219   0.445  -1.819  0.00  0.00     0.066 H 
ATOM     59  H   LIG d   1      15.557  -0.497  -2.520  0.00  0.00     0.066 H 
ENDBRANCH  55  56
ENDBRANCH  53  55
ENDBRANCH   5  53
BRANCH  15  60
ATOM     60  C   LIG d   1      10.270   0.724  -7.904  0.00  0.00    -0.059 C 
ATOM     61  H   LIG d   1      10.642  -0.078  -8.543  0.00  0.00     0.024 H 
ATOM     62  H   LIG d   1       9.236   0.945  -8.164  0.00  0.00     0.024 H 
ATOM     63  H   LIG d   1      10.881   1.616  -8.047  0.00  0.00     0.024 H 
ENDBRANCH  15  60
BRANCH  14  64
ATOM     64  C   LIG d   1       9.381  -1.862  -5.647  0.00  0.00    -0.059 C 
ATOM     65  H   LIG d   1      10.440  -1.924  -5.397  0.00  0.00     0.024 H 
ATOM     66  H   LIG d   1       8.786  -2.145  -4.778  0.00  0.00     0.024 H 
ATOM     67  H   LIG d   1       9.162  -2.539  -6.473  0.00  0.00     0.024 H 
ENDBRANCH  14  64
BRANCH  22  68
ATOM     68  C   LIG d   1       7.148  -1.550  -3.678  0.00  0.00    -0.059 C 
ATOM     69  H   LIG d   1       7.444  -2.375  -4.325  0.00  0.00     0.024 H 
ATOM     70  H   LIG d   1       7.914  -1.393  -2.918  0.00  0.00     0.024 H 
ATOM     71  H   LIG d   1       6.200  -1.788  -3.195  0.00  0.00     0.024 H 
ENDBRANCH  22  68
BRANCH  26  72
ATOM     72  C   LIG d   1       3.711  -0.456  -6.409  0.00  0.00    -0.053 C 
ATOM     73  H   LIG d   1       4.243  -0.011  -7.251  0.00  0.00     0.024 H 
ATOM     74  H   LIG d   1       3.064  -1.255  -6.770  0.00  0.00     0.024 H 
ATOM     75  H   LIG d   1       3.108   0.307  -5.918  0.00  0.00     0.024 H 
ENDBRANCH  26  72
BRANCH  26  76
ATOM     76  C   LIG d   1       4.691  -2.555  -5.532  0.00  0.00    -0.053 C 
ATOM     77  H   LIG d   1       4.561  -2.999  -4.544  0.00  0.00     0.024 H 
ATOM     78  H   LIG d   1       3.858  -2.845  -6.173  0.00  0.00     0.024 H 
ATOM     79  H   LIG d   1       5.625  -2.907  -5.968  0.00  0.00     0.024 H 
ENDBRANCH  26  76
BRANCH  24  80
ATOM     80  C   LIG d   1       4.402   0.511  -1.972  0.00  0.00     0.149 C 
ATOM     81  O   LIG d   1       3.472   1.288  -1.898  0.00  0.00    -0.296 OA
ATOM     82  H   LIG d   1       4.813   0.075  -1.073  0.00  0.00     0.108 H 
ENDBRANCH  24  80
BRANCH  25  83
ATOM     83  O   LIG d   1       3.093  -1.144  -3.592  0.00  0.00    -0.510 OA
ATOM     84  H   LIG d   1       2.859  -0.869  -2.695  0.00  0.00     0.292 HD
ENDBRANCH  25  83
TORSDOF 12
ENDMDL
MODEL 8
REMARK VINA RESULT:      -5.2      3.903      7.281
REMARK  12 active torsions:
REMARK  status: ('A' for Active; 'I' for Inactive)
REMARK    1  A    between atoms: C_1  and  C_2 
REMARK    2  A    between atoms: C_2  and  C_4 
REMARK    3  A    between atoms: C_8  and  C_38 
REMARK    4  A    between atoms: C_17  and  C_37 
REMARK    5  A    between atoms: C_18  and  C_21 
REMARK    6  A    between atoms: C_26  and  C_36 
REMARK    7  A    between atoms: C_28  and  C_34 
REMARK    8  A    between atoms: C_29  and  O_33 
REMARK    9  A    between atoms: C_30  and  C_31 
REMARK   10  A    between atoms: C_30  and  C_32 
REMARK   11  A    between atoms: C_38  and  O_40 
REMARK   12  A    between atoms: O_40  and  C_41 
ROOT
ATOM      1  C   LIG d   1      12.577   1.468  -4.059  0.00  0.00    -0.016 C 
ATOM      2  H   LIG d   1      12.298   1.472  -3.010  0.00  0.00     0.035 H 
ATOM      3  C   LIG d   1      12.044   0.194  -4.768  0.00  0.00    -0.045 C 
ATOM      4  C   LIG d   1      11.095   0.695  -5.892  0.00  0.00    -0.036 C 
ATOM      5  C   LIG d   1      10.599   2.033  -5.317  0.00  0.00     0.071 C 
ATOM      6  C   LIG d   1      11.929   2.636  -4.800  0.00  0.00    -0.015 C 
ATOM      7  H   LIG d   1      12.572   2.865  -5.661  0.00  0.00     0.032 H 
ATOM      8  C   LIG d   1      11.634   3.893  -4.023  0.00  0.00    -0.031 C 
ATOM      9  H   LIG d   1      10.945   3.674  -3.199  0.00  0.00     0.031 H 
ATOM     10  C   LIG d   1      12.909   4.478  -3.421  0.00  0.00    -0.049 C 
ATOM     11  C   LIG d   1      12.563   5.723  -2.611  0.00  0.00    -0.049 C 
ATOM     12  C   LIG d   1      11.066   6.048  -2.704  0.00  0.00    -0.029 C 
ATOM     13  H   LIG d   1      10.502   5.221  -2.261  0.00  0.00     0.031 H 
ATOM     14  C   LIG d   1      10.654   6.204  -4.164  0.00  0.00    -0.023 C 
ATOM     15  C   LIG d   1      10.983   4.929  -4.954  0.00  0.00    -0.023 C 
ATOM     16  C   LIG d   1       9.736   4.339  -5.608  0.00  0.00    -0.046 C 
ATOM     17  C   LIG d   1      10.020   3.003  -6.321  0.00  0.00    -0.036 C 
ATOM     18  C   LIG d   1      11.365   7.424  -4.754  0.00  0.00    -0.046 C 
ATOM     19  C   LIG d   1      10.974   8.679  -3.954  0.00  0.00    -0.048 C 
ATOM     20  C   LIG d   1      11.448   8.523  -2.516  0.00  0.00    -0.023 C 
ATOM     21  H   LIG d   1      12.551   8.332  -2.569  0.00  0.00     0.032 H 
ATOM     22  C   LIG d   1      10.832   7.299  -1.849  0.00  0.00    -0.021 C 
ATOM     23  C   LIG d   1      11.610   7.106  -0.522  0.00  0.00    -0.015 C 
ATOM     24  C   LIG d   1      11.390   8.335   0.316  0.00  0.00     0.030 C 
ATOM     25  C   LIG d   1      11.225   9.544  -0.232  0.00  0.00     0.106 C 
ATOM     26  C   LIG d   1      11.275   9.800  -1.712  0.00  0.00     0.026 C 
ATOM     27  H   LIG d   1      12.876  -0.362  -5.204  0.00  0.00     0.027 H 
ATOM     28  H   LIG d   1      11.505  -0.432  -4.063  0.00  0.00     0.027 H 
ATOM     29  H   LIG d   1      11.637   0.853  -6.821  0.00  0.00     0.028 H 
ATOM     30  H   LIG d   1      10.263   0.008  -6.031  0.00  0.00     0.028 H 
ATOM     31  H   LIG d   1      13.351   3.738  -2.742  0.00  0.00     0.027 H 
ATOM     32  H   LIG d   1      13.637   4.716  -4.189  0.00  0.00     0.027 H 
ATOM     33  H   LIG d   1      12.818   5.524  -1.564  0.00  0.00     0.027 H 
ATOM     34  H   LIG d   1      13.144   6.571  -2.966  0.00  0.00     0.027 H 
ATOM     35  H   LIG d   1       8.963   4.145  -4.868  0.00  0.00     0.027 H 
ATOM     36  H   LIG d   1       9.365   5.034  -6.367  0.00  0.00     0.027 H 
ATOM     37  H   LIG d   1      10.706   3.150  -7.152  0.00  0.00     0.028 H 
ATOM     38  H   LIG d   1       9.076   2.603  -6.711  0.00  0.00     0.028 H 
ATOM     39  H   LIG d   1      12.446   7.315  -4.681  0.00  0.00     0.027 H 
ATOM     40  H   LIG d   1      11.052   7.590  -5.784  0.00  0.00     0.027 H 
ATOM     41  H   LIG d   1      11.489   9.531  -4.416  0.00  0.00     0.027 H 
ATOM     42  H   LIG d   1       9.909   8.844  -4.023  0.00  0.00     0.027 H 
ATOM     43  H   LIG d   1      11.232   6.233  -0.010  0.00  0.00     0.032 H 
ATOM     44  H   LIG d   1      12.669   7.023  -0.738  0.00  0.00     0.032 H 
ENDROOT
BRANCH   1  45
ATOM     45  C   LIG d   1      14.078   1.524  -4.207  0.00  0.00    -0.076 C 
ATOM     46  C   LIG d   1      14.611   1.874  -5.352  0.00  0.00    -0.099 C 
ATOM     47  H   LIG d   1      13.976   2.124  -6.189  0.00  0.00     0.053 H 
ATOM     48  H   LIG d   1      15.685   1.913  -5.458  0.00  0.00     0.053 H 
BRANCH  45  49
ATOM     49  C   LIG d   1      14.964   1.175  -3.039  0.00  0.00    -0.044 C 
ATOM     50  H   LIG d   1      15.418   2.084  -2.644  0.00  0.00     0.027 H 
ATOM     51  H   LIG d   1      14.368   0.697  -2.261  0.00  0.00     0.027 H 
ATOM     52  H   LIG d   1      15.747   0.491  -3.368  0.00  0.00     0.027 H 
ENDBRANCH  45  49
ENDBRANCH   1  45
BRANCH   5  53
ATOM     53  C   LIG d   1       9.628   1.752  -4.202  0.00  0.00     0.313 C 
ATOM     54  O   LIG d   1       9.763   2.297  -3.132  0.00  0.00    -0.250 OA
BRANCH  53  55
ATOM     55  O   LIG d   1       8.613   0.895  -4.395  0.00  0.00    -0.468 OA
BRANCH  55  56
ATOM     56  C   LIG d   1       7.346   1.257  -3.844  0.00  0.00     0.082 C 
ATOM     57  H   LIG d   1       7.211   2.336  -3.920  0.00  0.00     0.066 H 
ATOM     58  H   LIG d   1       6.551   0.752  -4.396  0.00  0.00     0.066 H 
ATOM     59  H   LIG d   1       7.306   0.958  -2.796  0.00  0.00     0.066 H 
ENDBRANCH  55  56
ENDBRANCH  53  55
ENDBRANCH   5  53
BRANCH  15  60
ATOM     60  C   LIG d   1      11.962   5.278  -6.082  0.00  0.00    -0.059 C 
ATOM     61  H   LIG d   1      12.021   4.444  -6.783  0.00  0.00     0.024 H 
ATOM     62  H   LIG d   1      11.612   6.167  -6.605  0.00  0.00     0.024 H 
ATOM     63  H   LIG d   1      12.949   5.468  -5.660  0.00  0.00     0.024 H 
ENDBRANCH  15  60
BRANCH  14  64
ATOM     64  C   LIG d   1       9.141   6.451  -4.283  0.00  0.00    -0.059 C 
ATOM     65  H   LIG d   1       8.624   5.497  -4.373  0.00  0.00     0.024 H 
ATOM     66  H   LIG d   1       8.788   6.973  -3.393  0.00  0.00     0.024 H 
ATOM     67  H   LIG d   1       8.939   7.059  -5.164  0.00  0.00     0.024 H 
ENDBRANCH  14  64
BRANCH  22  68
ATOM     68  C   LIG d   1       9.364   7.478  -1.480  0.00  0.00    -0.059 C 
ATOM     69  H   LIG d   1       8.965   8.353  -1.994  0.00  0.00     0.024 H 
ATOM     70  H   LIG d   1       8.802   6.594  -1.780  0.00  0.00     0.024 H 
ATOM     71  H   LIG d   1       9.274   7.618  -0.403  0.00  0.00     0.024 H 
ENDBRANCH  22  68
BRANCH  26  72
ATOM     72  C   LIG d   1      12.497  10.705  -1.970  0.00  0.00    -0.053 C 
ATOM     73  H   LIG d   1      12.530  10.977  -3.026  0.00  0.00     0.024 H 
ATOM     74  H   LIG d   1      12.416  11.608  -1.365  0.00  0.00     0.024 H 
ATOM     75  H   LIG d   1      13.408  10.170  -1.705  0.00  0.00     0.024 H 
ENDBRANCH  26  72
BRANCH  26  76
ATOM     76  C   LIG d   1      10.028  10.581  -2.127  0.00  0.00    -0.053 C 
ATOM     77  H   LIG d   1       9.971  10.622  -3.215  0.00  0.00     0.024 H 
ATOM     78  H   LIG d   1       9.140  10.084  -1.735  0.00  0.00     0.024 H 
ATOM     79  H   LIG d   1      10.084  11.593  -1.728  0.00  0.00     0.024 H 
ENDBRANCH  26  76
BRANCH  24  80
ATOM     80  C   LIG d   1      11.360   8.204   1.712  0.00  0.00     0.149 C 
ATOM     81  O   LIG d   1      12.168   8.800   2.395  0.00  0.00    -0.296 OA
ATOM     82  H   LIG d   1      10.618   7.575   2.180  0.00  0.00     0.108 H 
ENDBRANCH  24  80
BRANCH  25  83
ATOM     83  O   LIG d   1      11.000  10.589   0.587  0.00  0.00    -0.510 OA
ATOM     84  H   LIG d   1      11.329  11.432   0.248  0.00  0.00     0.292 HD
ENDBRANCH  25  83
TORSDOF 12
ENDMDL
MODEL 9
REMARK VINA RESULT:      -5.2      4.234      7.245
REMARK  12 active torsions:
REMARK  status: ('A' for Active; 'I' for Inactive)
REMARK    1  A    between atoms: C_1  and  C_2 
REMARK    2  A    between atoms: C_2  and  C_4 
REMARK    3  A    between atoms: C_8  and  C_38 
REMARK    4  A    between atoms: C_17  and  C_37 
REMARK    5  A    between atoms: C_18  and  C_21 
REMARK    6  A    between atoms: C_26  and  C_36 
REMARK    7  A    between atoms: C_28  and  C_34 
REMARK    8  A    between atoms: C_29  and  O_33 
REMARK    9  A    between atoms: C_30  and  C_31 
REMARK   10  A    between atoms: C_30  and  C_32 
REMARK   11  A    between atoms: C_38  and  O_40 
REMARK   12  A    between atoms: O_40  and  C_41 
ROOT
ATOM      1  C   LIG d   1      10.602   2.817  -7.320  0.00  0.00    -0.016 C 
ATOM      2  H   LIG d   1      10.884   3.748  -7.802  0.00  0.00     0.035 H 
ATOM      3  C   LIG d   1      11.425   1.629  -7.888  0.00  0.00    -0.045 C 
ATOM      4  C   LIG d   1      12.207   1.036  -6.683  0.00  0.00    -0.036 C 
ATOM      5  C   LIG d   1      12.363   2.264  -5.769  0.00  0.00     0.071 C 
ATOM      6  C   LIG d   1      10.931   2.853  -5.829  0.00  0.00    -0.015 C 
ATOM      7  H   LIG d   1      10.242   2.157  -5.332  0.00  0.00     0.032 H 
ATOM      8  C   LIG d   1      10.916   4.189  -5.131  0.00  0.00    -0.031 C 
ATOM      9  H   LIG d   1      11.648   4.863  -5.591  0.00  0.00     0.031 H 
ATOM     10  C   LIG d   1       9.543   4.847  -5.239  0.00  0.00    -0.049 C 
ATOM     11  C   LIG d   1       9.579   6.212  -4.556  0.00  0.00    -0.049 C 
ATOM     12  C   LIG d   1      10.948   6.474  -3.915  0.00  0.00    -0.029 C 
ATOM     13  H   LIG d   1      11.705   6.500  -4.705  0.00  0.00     0.031 H 
ATOM     14  C   LIG d   1      11.291   5.356  -2.936  0.00  0.00    -0.023 C 
ATOM     15  C   LIG d   1      11.279   3.996  -3.649  0.00  0.00    -0.023 C 
ATOM     16  C   LIG d   1      12.625   3.287  -3.525  0.00  0.00    -0.046 C 
ATOM     17  C   LIG d   1      12.672   1.967  -4.319  0.00  0.00    -0.036 C 
ATOM     18  C   LIG d   1      10.293   5.385  -1.776  0.00  0.00    -0.046 C 
ATOM     19  C   LIG d   1      10.371   6.751  -1.071  0.00  0.00    -0.048 C 
ATOM     20  C   LIG d   1       9.967   7.843  -2.051  0.00  0.00    -0.023 C 
ATOM     21  H   LIG d   1       8.945   7.571  -2.421  0.00  0.00     0.032 H 
ATOM     22  C   LIG d   1      10.876   7.866  -3.275  0.00  0.00    -0.021 C 
ATOM     23  C   LIG d   1      10.186   8.808  -4.294  0.00  0.00    -0.015 C 
ATOM     24  C   LIG d   1      10.105  10.173  -3.667  0.00  0.00     0.030 C 
ATOM     25  C   LIG d   1       9.958  10.337  -2.348  0.00  0.00     0.106 C 
ATOM     26  C   LIG d   1       9.829   9.198  -1.378  0.00  0.00     0.026 C 
ATOM     27  H   LIG d   1      10.752   0.877  -8.301  0.00  0.00     0.027 H 
ATOM     28  H   LIG d   1      12.111   1.978  -8.654  0.00  0.00     0.027 H 
ATOM     29  H   LIG d   1      11.631   0.259  -6.186  0.00  0.00     0.028 H 
ATOM     30  H   LIG d   1      13.182   0.669  -6.997  0.00  0.00     0.028 H 
ATOM     31  H   LIG d   1       9.306   5.000  -6.299  0.00  0.00     0.027 H 
ATOM     32  H   LIG d   1       8.769   4.225  -4.801  0.00  0.00     0.027 H 
ATOM     33  H   LIG d   1       9.394   6.974  -5.321  0.00  0.00     0.027 H 
ATOM     34  H   LIG d   1       8.802   6.268  -3.798  0.00  0.00     0.027 H 
ATOM     35  H   LIG d   1      13.431   3.912  -3.902  0.00  0.00     0.027 H 
ATOM     36  H   LIG d   1      12.803   3.035  -2.475  0.00  0.00     0.027 H 
ATOM     37  H   LIG d   1      11.960   1.251  -3.915  0.00  0.00     0.028 H 
ATOM     38  H   LIG d   1      13.680   1.544  -4.241  0.00  0.00     0.028 H 
ATOM     39  H   LIG d   1       9.273   5.264  -2.139  0.00  0.00     0.027 H 
ATOM     40  H   LIG d   1      10.543   4.627  -1.035  0.00  0.00     0.027 H 
ATOM     41  H   LIG d   1       9.655   6.727  -0.239  0.00  0.00     0.027 H 
ATOM     42  H   LIG d   1      11.361   6.902  -0.667  0.00  0.00     0.027 H 
ATOM     43  H   LIG d   1      10.774   8.848  -5.199  0.00  0.00     0.032 H 
ATOM     44  H   LIG d   1       9.177   8.457  -4.481  0.00  0.00     0.032 H 
ENDROOT
BRANCH   1  45
ATOM     45  C   LIG d   1       9.132   2.540  -7.524  0.00  0.00    -0.076 C 
ATOM     46  C   LIG d   1       8.489   1.766  -6.685  0.00  0.00    -0.099 C 
ATOM     47  H   LIG d   1       9.010   1.326  -5.847  0.00  0.00     0.053 H 
ATOM     48  H   LIG d   1       7.438   1.568  -6.830  0.00  0.00     0.053 H 
BRANCH  45  49
ATOM     49  C   LIG d   1       8.405   3.153  -8.692  0.00  0.00    -0.044 C 
ATOM     50  H   LIG d   1       9.093   3.780  -9.260  0.00  0.00     0.027 H 
ATOM     51  H   LIG d   1       8.018   2.361  -9.336  0.00  0.00     0.027 H 
ATOM     52  H   LIG d   1       7.576   3.761  -8.327  0.00  0.00     0.027 H 
ENDBRANCH  45  49
ENDBRANCH   1  45
BRANCH   5  53
ATOM     53  C   LIG d   1      13.386   3.189  -6.370  0.00  0.00     0.313 C 
ATOM     54  O   LIG d   1      14.500   2.785  -6.610  0.00  0.00    -0.250 OA
BRANCH  53  55
ATOM     55  O   LIG d   1      13.062   4.464  -6.641  0.00  0.00    -0.468 OA
BRANCH  55  56
ATOM     56  C   LIG d   1      14.046   5.459  -6.351  0.00  0.00     0.082 C 
ATOM     57  H   LIG d   1      13.665   6.440  -6.636  0.00  0.00     0.066 H 
ATOM     58  H   LIG d   1      14.268   5.451  -5.284  0.00  0.00     0.066 H 
ATOM     59  H   LIG d   1      14.955   5.245  -6.913  0.00  0.00     0.066 H 
ENDBRANCH  55  56
ENDBRANCH  53  55
ENDBRANCH   5  53
BRANCH  15  60
ATOM     60  C   LIG d   1      10.230   3.093  -2.988  0.00  0.00    -0.059 C 
ATOM     61  H   LIG d   1      10.130   2.171  -3.563  0.00  0.00     0.024 H 
ATOM     62  H   LIG d   1      10.544   2.855  -1.972  0.00  0.00     0.024 H 
ATOM     63  H   LIG d   1       9.271   3.610  -2.960  0.00  0.00     0.024 H 
ENDBRANCH  15  60
BRANCH  14  64
ATOM     64  C   LIG d   1      12.694   5.559  -2.342  0.00  0.00    -0.059 C 
ATOM     65  H   LIG d   1      13.445   5.279  -3.079  0.00  0.00     0.024 H 
ATOM     66  H   LIG d   1      12.824   6.607  -2.070  0.00  0.00     0.024 H 
ATOM     67  H   LIG d   1      12.807   4.937  -1.453  0.00  0.00     0.024 H 
ENDBRANCH  14  64
BRANCH  22  68
ATOM     68  C   LIG d   1      12.258   8.446  -3.000  0.00  0.00    -0.059 C 
ATOM     69  H   LIG d   1      12.986   7.637  -2.934  0.00  0.00     0.024 H 
ATOM     70  H   LIG d   1      12.538   9.120  -3.809  0.00  0.00     0.024 H 
ATOM     71  H   LIG d   1      12.240   8.997  -2.059  0.00  0.00     0.024 H 
ENDBRANCH  22  68
BRANCH  26  72
ATOM     72  C   LIG d   1       8.418   9.290  -0.761  0.00  0.00    -0.053 C 
ATOM     73  H   LIG d   1       8.028   8.285  -0.594  0.00  0.00     0.024 H 
ATOM     74  H   LIG d   1       8.469   9.822   0.188  0.00  0.00     0.024 H 
ATOM     75  H   LIG d   1       7.758   9.826  -1.443  0.00  0.00     0.024 H 
ENDBRANCH  26  72
BRANCH  26  76
ATOM     76  C   LIG d   1      10.839   9.387  -0.245  0.00  0.00    -0.053 C 
ATOM     77  H   LIG d   1      10.982  10.452  -0.061  0.00  0.00     0.024 H 
ATOM     78  H   LIG d   1      10.463   8.909   0.660  0.00  0.00     0.024 H 
ATOM     79  H   LIG d   1      11.790   8.935  -0.527  0.00  0.00     0.024 H 
ENDBRANCH  26  76
BRANCH  24  80
ATOM     80  C   LIG d   1      10.183  11.302  -4.495  0.00  0.00     0.149 C 
ATOM     81  O   LIG d   1       9.175  11.915  -4.784  0.00  0.00    -0.296 OA
ATOM     82  H   LIG d   1      11.140  11.629  -4.875  0.00  0.00     0.108 H 
ENDBRANCH  24  80
BRANCH  25  83
ATOM     83  O   LIG d   1       9.928  11.593  -1.862  0.00  0.00    -0.510 OA
ATOM     84  H   LIG d   1       9.713  12.265  -2.523  0.00  0.00     0.292 HD
ENDBRANCH  25  83
TORSDOF 12
ENDMDL
