MODEL 1
REMARK VINA RESULT:      -7.2      0.000      0.000
REMARK  6 active torsions:
REMARK  status: ('A' for Active; 'I' for Inactive)
REMARK    1  A    between atoms: C_1  and  O_2 
REMARK    2  A    between atoms: O_2  and  C_3 
REMARK    3  A    between atoms: C_6  and  C_9 
REMARK    4  A    between atoms: C_9  and  C_10 
REMARK    5  A    between atoms: C_10  and  N_11 
REMARK    6  A    between atoms: C_21  and  C_24 
ROOT
ATOM      1  N   LIG d   1       4.309  -7.786  -7.313  0.00  0.00    -0.266 N 
ATOM      2  C   LIG d   1       4.732  -6.699  -6.419  0.00  0.00     0.034 C 
ATOM      3  C   LIG d   1       4.516  -5.371  -7.099  0.00  0.00     0.051 A 
ATOM      4  C   LIG d   1       4.336  -5.296  -8.470  0.00  0.00     0.130 A 
ATOM      5  C   LIG d   1       4.143  -4.060  -9.089  0.00  0.00    -0.019 A 
ATOM      6  C   LIG d   1       4.126  -2.911  -8.353  0.00  0.00    -0.044 A 
ATOM      7  C   LIG d   1       4.298  -2.973  -6.970  0.00  0.00     0.065 A 
ATOM      8  C   LIG d   1       4.499  -4.210  -6.335  0.00  0.00     0.146 A 
ATOM      9  O   LIG d   1       4.672  -4.268  -5.000  0.00  0.00    -0.462 OA
ATOM     10  C   LIG d   1       4.668  -3.191  -4.212  0.00  0.00     0.104 A 
ATOM     11  C   LIG d   1       4.489  -1.933  -4.695  0.00  0.00     0.064 A 
ATOM     12  C   LIG d   1       4.292  -1.753  -6.143  0.00  0.00     0.200 A 
ATOM     13  O   LIG d   1       4.126  -0.649  -6.633  0.00  0.00    -0.286 OA
ATOM     14  O   LIG d   1       4.344  -6.420  -9.233  0.00  0.00    -0.476 OA
ATOM     15  C   LIG d   1       4.898  -7.602  -8.650  0.00  0.00     0.144 C 
ATOM     16  H   LIG d   1       4.139  -6.735  -5.493  0.00  0.00     0.048 H 
ATOM     17  H   LIG d   1       5.798  -6.816  -6.178  0.00  0.00     0.048 H 
ATOM     18  H   LIG d   1       4.007  -4.013 -10.159  0.00  0.00     0.065 H 
ATOM     19  H   LIG d   1       3.976  -1.958  -8.839  0.00  0.00     0.063 H 
ATOM     20  H   LIG d   1       4.812  -3.323  -3.150  0.00  0.00     0.104 H 
ATOM     21  H   LIG d   1       5.989  -7.497  -8.557  0.00  0.00     0.087 H 
ATOM     22  H   LIG d   1       4.665  -8.473  -9.277  0.00  0.00     0.087 H 
ENDROOT
BRANCH   1  23
ATOM     23  C   LIG d   1       4.668  -9.097  -6.755  0.00  0.00     0.006 C 
ATOM     24  H   LIG d   1       4.589  -9.863  -7.541  0.00  0.00     0.043 H 
ATOM     25  H   LIG d   1       3.983  -9.344  -5.931  0.00  0.00     0.043 H 
BRANCH  23  26
ATOM     26  C   LIG d   1       6.103  -9.050  -6.229  0.00  0.00    -0.015 C 
ATOM     27  H   LIG d   1       6.497  -8.027  -6.324  0.00  0.00     0.033 H 
ATOM     28  H   LIG d   1       6.731  -9.740  -6.813  0.00  0.00     0.033 H 
BRANCH  26  29
ATOM     29  C   LIG d   1       6.121  -9.463  -4.779  0.00  0.00    -0.046 A 
ATOM     30  C   LIG d   1       5.031 -10.115  -4.234  0.00  0.00    -0.055 A 
ATOM     31  C   LIG d   1       5.045 -10.493  -2.905  0.00  0.00    -0.020 A 
ATOM     32  H   LIG d   1       4.167 -10.329  -4.847  0.00  0.00     0.062 H 
ATOM     33  C   LIG d   1       6.153 -10.217  -2.118  0.00  0.00     0.120 A 
ATOM     34  H   LIG d   1       4.193 -11.003  -2.480  0.00  0.00     0.065 H 
ATOM     35  C   LIG d   1       7.245  -9.562  -2.667  0.00  0.00    -0.020 A 
ATOM     36  C   LIG d   1       7.229  -9.191  -3.998  0.00  0.00    -0.055 A 
ATOM     37  H   LIG d   1       8.109  -9.345  -2.057  0.00  0.00     0.065 H 
ATOM     38  H   LIG d   1       8.081  -8.685  -4.428  0.00  0.00     0.062 H 
BRANCH  33  39
ATOM     39  O   LIG d   1       6.168 -10.588  -0.810  0.00  0.00    -0.495 OA
BRANCH  39  40
ATOM     40  C   LIG d   1       6.210 -11.989  -0.535  0.00  0.00     0.079 C 
ATOM     41  H   LIG d   1       5.188 -12.396  -0.548  0.00  0.00     0.066 H 
ATOM     42  H   LIG d   1       6.658 -12.155   0.456  0.00  0.00     0.066 H 
ATOM     43  H   LIG d   1       6.816 -12.495  -1.301  0.00  0.00     0.066 H 
ENDBRANCH  39  40
ENDBRANCH  33  39
ENDBRANCH  26  29
ENDBRANCH  23  26
ENDBRANCH   1  23
BRANCH  11  44
ATOM     44  C   LIG d   1       4.494  -0.765  -3.781  0.00  0.00    -0.011 A 
ATOM     45  C   LIG d   1       3.313  -0.357  -3.162  0.00  0.00    -0.054 A 
ATOM     46  C   LIG d   1       3.323   0.731  -2.312  0.00  0.00    -0.061 A 
ATOM     47  H   LIG d   1       2.393  -0.891  -3.346  0.00  0.00     0.062 H 
ATOM     48  C   LIG d   1       4.502   1.415  -2.075  0.00  0.00    -0.062 A 
ATOM     49  H   LIG d   1       2.409   1.048  -1.831  0.00  0.00     0.062 H 
ATOM     50  C   LIG d   1       5.675   1.015  -2.687  0.00  0.00    -0.061 A 
ATOM     51  H   LIG d   1       4.505   2.265  -1.409  0.00  0.00     0.062 H 
ATOM     52  C   LIG d   1       5.679  -0.074  -3.534  0.00  0.00    -0.054 A 
ATOM     53  H   LIG d   1       6.593   1.554  -2.498  0.00  0.00     0.062 H 
ATOM     54  H   LIG d   1       6.597  -0.389  -4.007  0.00  0.00     0.062 H 
ENDBRANCH  11  44
TORSDOF 6
ENDMDL
MODEL 2
REMARK VINA RESULT:      -7.0      6.963     12.446
REMARK  6 active torsions:
REMARK  status: ('A' for Active; 'I' for Inactive)
REMARK    1  A    between atoms: C_1  and  O_2 
REMARK    2  A    between atoms: O_2  and  C_3 
REMARK    3  A    between atoms: C_6  and  C_9 
REMARK    4  A    between atoms: C_9  and  C_10 
REMARK    5  A    between atoms: C_10  and  N_11 
REMARK    6  A    between atoms: C_21  and  C_24 
ROOT
ATOM      1  N   LIG d   1      10.804   5.261  -4.580  0.00  0.00    -0.266 N 
ATOM      2  C   LIG d   1       9.612   4.508  -4.164  0.00  0.00     0.034 C 
ATOM      3  C   LIG d   1       9.245   3.510  -5.233  0.00  0.00     0.051 A 
ATOM      4  C   LIG d   1       9.745   3.632  -6.519  0.00  0.00     0.130 A 
ATOM      5  C   LIG d   1       9.394   2.705  -7.502  0.00  0.00    -0.019 A 
ATOM      6  C   LIG d   1       8.557   1.668  -7.210  0.00  0.00    -0.044 A 
ATOM      7  C   LIG d   1       8.053   1.529  -5.917  0.00  0.00     0.065 A 
ATOM      8  C   LIG d   1       8.394   2.458  -4.919  0.00  0.00     0.146 A 
ATOM      9  O   LIG d   1       7.901   2.327  -3.671  0.00  0.00    -0.462 OA
ATOM     10  C   LIG d   1       7.079   1.341  -3.308  0.00  0.00     0.104 A 
ATOM     11  C   LIG d   1       6.665   0.377  -4.172  0.00  0.00     0.064 A 
ATOM     12  C   LIG d   1       7.143   0.425  -5.565  0.00  0.00     0.200 A 
ATOM     13  O   LIG d   1       6.805  -0.412  -6.385  0.00  0.00    -0.286 OA
ATOM     14  O   LIG d   1      10.582   4.651  -6.845  0.00  0.00    -0.476 OA
ATOM     15  C   LIG d   1      10.632   5.766  -5.952  0.00  0.00     0.144 C 
ATOM     16  H   LIG d   1       9.824   3.975  -3.226  0.00  0.00     0.048 H 
ATOM     17  H   LIG d   1       8.774   5.203  -4.011  0.00  0.00     0.048 H 
ATOM     18  H   LIG d   1       9.787   2.812  -8.503  0.00  0.00     0.065 H 
ATOM     19  H   LIG d   1       8.290   0.954  -7.976  0.00  0.00     0.063 H 
ATOM     20  H   LIG d   1       6.729   1.306  -2.286  0.00  0.00     0.104 H 
ATOM     21  H   LIG d   1       9.695   6.340  -6.016  0.00  0.00     0.087 H 
ATOM     22  H   LIG d   1      11.479   6.416  -6.212  0.00  0.00     0.087 H 
ENDROOT
BRANCH   1  23
ATOM     23  C   LIG d   1      11.084   6.360  -3.645  0.00  0.00     0.006 C 
ATOM     24  H   LIG d   1      11.284   7.281  -4.213  0.00  0.00     0.043 H 
ATOM     25  H   LIG d   1      11.964   6.106  -3.036  0.00  0.00     0.043 H 
BRANCH  23  26
ATOM     26  C   LIG d   1       9.876   6.574  -2.733  0.00  0.00    -0.015 C 
ATOM     27  H   LIG d   1       9.304   5.637  -2.655  0.00  0.00     0.033 H 
ATOM     28  H   LIG d   1       9.233   7.361  -3.154  0.00  0.00     0.033 H 
BRANCH  26  29
ATOM     29  C   LIG d   1      10.348   6.991  -1.363  0.00  0.00    -0.046 A 
ATOM     30  C   LIG d   1      10.421   8.331  -1.037  0.00  0.00    -0.055 A 
ATOM     31  C   LIG d   1      10.854   8.715   0.218  0.00  0.00    -0.020 A 
ATOM     32  H   LIG d   1      10.140   9.080  -1.763  0.00  0.00     0.062 H 
ATOM     33  C   LIG d   1      11.215   7.753   1.150  0.00  0.00     0.120 A 
ATOM     34  H   LIG d   1      10.910   9.763   0.473  0.00  0.00     0.065 H 
ATOM     35  C   LIG d   1      11.141   6.408   0.820  0.00  0.00    -0.020 A 
ATOM     36  C   LIG d   1      10.703   6.030  -0.434  0.00  0.00    -0.055 A 
ATOM     37  H   LIG d   1      11.423   5.658   1.543  0.00  0.00     0.065 H 
ATOM     38  H   LIG d   1      10.640   4.982  -0.690  0.00  0.00     0.062 H 
BRANCH  33  39
ATOM     39  O   LIG d   1      11.642   8.129   2.385  0.00  0.00    -0.495 OA
BRANCH  39  40
ATOM     40  C   LIG d   1      12.168   9.451   2.514  0.00  0.00     0.079 C 
ATOM     41  H   LIG d   1      12.206   9.929   1.523  0.00  0.00     0.066 H 
ATOM     42  H   LIG d   1      13.183   9.403   2.936  0.00  0.00     0.066 H 
ATOM     43  H   LIG d   1      11.521  10.040   3.180  0.00  0.00     0.066 H 
ENDBRANCH  39  40
ENDBRANCH  33  39
ENDBRANCH  26  29
ENDBRANCH  23  26
ENDBRANCH   1  23
BRANCH  11  44
ATOM     44  C   LIG d   1       5.749  -0.699  -3.723  0.00  0.00    -0.011 A 
ATOM     45  C   LIG d   1       4.943  -0.508  -2.601  0.00  0.00    -0.054 A 
ATOM     46  C   LIG d   1       4.092  -1.514  -2.188  0.00  0.00    -0.061 A 
ATOM     47  H   LIG d   1       4.984   0.423  -2.058  0.00  0.00     0.062 H 
ATOM     48  C   LIG d   1       4.039  -2.708  -2.884  0.00  0.00    -0.062 A 
ATOM     49  H   LIG d   1       3.467  -1.367  -1.319  0.00  0.00     0.062 H 
ATOM     50  C   LIG d   1       4.837  -2.902  -3.996  0.00  0.00    -0.061 A 
ATOM     51  H   LIG d   1       3.372  -3.491  -2.557  0.00  0.00     0.062 H 
ATOM     52  C   LIG d   1       5.687  -1.903  -4.423  0.00  0.00    -0.054 A 
ATOM     53  H   LIG d   1       4.791  -3.838  -4.536  0.00  0.00     0.062 H 
ATOM     54  H   LIG d   1       6.306  -2.054  -5.295  0.00  0.00     0.062 H 
ENDBRANCH  11  44
TORSDOF 6
ENDMDL
MODEL 3
REMARK VINA RESULT:      -6.9      7.295     11.152
REMARK  6 active torsions:
REMARK  status: ('A' for Active; 'I' for Inactive)
REMARK    1  A    between atoms: C_1  and  O_2 
REMARK    2  A    between atoms: O_2  and  C_3 
REMARK    3  A    between atoms: C_6  and  C_9 
REMARK    4  A    between atoms: C_9  and  C_10 
REMARK    5  A    between atoms: C_10  and  N_11 
REMARK    6  A    between atoms: C_21  and  C_24 
ROOT
ATOM      1  N   LIG d   1       8.656   2.551  -5.994  0.00  0.00    -0.266 N 
ATOM      2  C   LIG d   1       9.218   3.322  -4.876  0.00  0.00     0.034 C 
ATOM      3  C   LIG d   1       9.572   4.710  -5.346  0.00  0.00     0.051 A 
ATOM      4  C   LIG d   1       9.698   4.992  -6.695  0.00  0.00     0.130 A 
ATOM      5  C   LIG d   1      10.033   6.280  -7.118  0.00  0.00    -0.019 A 
ATOM      6  C   LIG d   1      10.237   7.276  -6.209  0.00  0.00    -0.044 A 
ATOM      7  C   LIG d   1      10.105   7.008  -4.847  0.00  0.00     0.065 A 
ATOM      8  C   LIG d   1       9.774   5.715  -4.408  0.00  0.00     0.146 A 
ATOM      9  O   LIG d   1       9.654   5.455  -3.091  0.00  0.00    -0.462 OA
ATOM     10  C   LIG d   1       9.837   6.375  -2.142  0.00  0.00     0.104 A 
ATOM     11  C   LIG d   1      10.164   7.663  -2.425  0.00  0.00     0.064 A 
ATOM     12  C   LIG d   1      10.323   8.058  -3.836  0.00  0.00     0.200 A 
ATOM     13  O   LIG d   1      10.616   9.199  -4.151  0.00  0.00    -0.286 OA
ATOM     14  O   LIG d   1       9.500   4.024  -7.628  0.00  0.00    -0.476 OA
ATOM     15  C   LIG d   1       9.525   2.668  -7.177  0.00  0.00     0.144 C 
ATOM     16  H   LIG d   1       8.475   3.389  -4.068  0.00  0.00     0.048 H 
ATOM     17  H   LIG d   1      10.122   2.821  -4.502  0.00  0.00     0.048 H 
ATOM     18  H   LIG d   1      10.132   6.487  -8.173  0.00  0.00     0.065 H 
ATOM     19  H   LIG d   1      10.495   8.271  -6.544  0.00  0.00     0.063 H 
ATOM     20  H   LIG d   1       9.720   6.086  -1.107  0.00  0.00     0.104 H 
ATOM     21  H   LIG d   1      10.552   2.382  -6.907  0.00  0.00     0.087 H 
ATOM     22  H   LIG d   1       9.155   2.003  -7.970  0.00  0.00     0.087 H 
ENDROOT
BRANCH   1  23
ATOM     23  C   LIG d   1       8.465   1.143  -5.619  0.00  0.00     0.006 C 
ATOM     24  H   LIG d   1       9.269   0.535  -6.057  0.00  0.00     0.043 H 
ATOM     25  H   LIG d   1       7.493   0.793  -5.997  0.00  0.00     0.043 H 
BRANCH  23  26
ATOM     26  C   LIG d   1       8.497   1.013  -4.095  0.00  0.00    -0.015 C 
ATOM     27  H   LIG d   1       8.635   2.007  -3.644  0.00  0.00     0.033 H 
ATOM     28  H   LIG d   1       9.330   0.358  -3.800  0.00  0.00     0.033 H 
BRANCH  26  29
ATOM     29  C   LIG d   1       7.197   0.419  -3.614  0.00  0.00    -0.046 A 
ATOM     30  C   LIG d   1       7.010  -0.949  -3.647  0.00  0.00    -0.055 A 
ATOM     31  C   LIG d   1       5.819  -1.495  -3.207  0.00  0.00    -0.020 A 
ATOM     32  H   LIG d   1       7.794  -1.593  -4.018  0.00  0.00     0.062 H 
ATOM     33  C   LIG d   1       4.812  -0.668  -2.731  0.00  0.00     0.120 A 
ATOM     34  H   LIG d   1       5.674  -2.565  -3.233  0.00  0.00     0.065 H 
ATOM     35  C   LIG d   1       5.003   0.705  -2.699  0.00  0.00    -0.020 A 
ATOM     36  C   LIG d   1       6.197   1.246  -3.136  0.00  0.00    -0.055 A 
ATOM     37  H   LIG d   1       4.220   1.351  -2.331  0.00  0.00     0.065 H 
ATOM     38  H   LIG d   1       6.348   2.315  -3.106  0.00  0.00     0.062 H 
BRANCH  33  39
ATOM     39  O   LIG d   1       3.640  -1.204  -2.299  0.00  0.00    -0.495 OA
BRANCH  39  40
ATOM     40  C   LIG d   1       2.467  -0.886  -3.049  0.00  0.00     0.079 C 
ATOM     41  H   LIG d   1       2.753  -0.569  -4.062  0.00  0.00     0.066 H 
ATOM     42  H   LIG d   1       1.921  -0.071  -2.551  0.00  0.00     0.066 H 
ATOM     43  H   LIG d   1       1.820  -1.774  -3.112  0.00  0.00     0.066 H 
ENDBRANCH  39  40
ENDBRANCH  33  39
ENDBRANCH  26  29
ENDBRANCH  23  26
ENDBRANCH   1  23
BRANCH  11  44
ATOM     44  C   LIG d   1      10.359   8.651  -1.337  0.00  0.00    -0.011 A 
ATOM     45  C   LIG d   1      11.597   8.759  -0.704  0.00  0.00    -0.054 A 
ATOM     46  C   LIG d   1      11.772   9.681   0.308  0.00  0.00    -0.061 A 
ATOM     47  H   LIG d   1      12.416   8.124  -1.005  0.00  0.00     0.062 H 
ATOM     48  C   LIG d   1      10.724  10.496   0.694  0.00  0.00    -0.062 A 
ATOM     49  H   LIG d   1      12.731   9.767   0.799  0.00  0.00     0.062 H 
ATOM     50  C   LIG d   1       9.494  10.393   0.071  0.00  0.00    -0.061 A 
ATOM     51  H   LIG d   1      10.866  11.216   1.487  0.00  0.00     0.062 H 
ATOM     52  C   LIG d   1       9.308   9.479  -0.947  0.00  0.00    -0.054 A 
ATOM     53  H   LIG d   1       8.678  11.032   0.377  0.00  0.00     0.062 H 
ATOM     54  H   LIG d   1       8.349   9.403  -1.436  0.00  0.00     0.062 H 
ENDBRANCH  11  44
TORSDOF 6
ENDMDL
MODEL 4
REMARK VINA RESULT:      -6.9      2.965      4.523
REMARK  6 active torsions:
REMARK  status: ('A' for Active; 'I' for Inactive)
REMARK    1  A    between atoms: C_1  and  O_2 
REMARK    2  A    between atoms: O_2  and  C_3 
REMARK    3  A    between atoms: C_6  and  C_9 
REMARK    4  A    between atoms: C_9  and  C_10 
REMARK    5  A    between atoms: C_10  and  N_11 
REMARK    6  A    between atoms: C_21  and  C_24 
ROOT
ATOM      1  N   LIG d   1       6.236  -4.954  -5.336  0.00  0.00    -0.266 N 
ATOM      2  C   LIG d   1       6.822  -3.631  -5.594  0.00  0.00     0.034 C 
ATOM      3  C   LIG d   1       6.128  -2.596  -4.747  0.00  0.00     0.051 A 
ATOM      4  C   LIG d   1       4.899  -2.861  -4.166  0.00  0.00     0.130 A 
ATOM      5  C   LIG d   1       4.263  -1.893  -3.388  0.00  0.00    -0.019 A 
ATOM      6  C   LIG d   1       4.844  -0.675  -3.187  0.00  0.00    -0.044 A 
ATOM      7  C   LIG d   1       6.085  -0.397  -3.759  0.00  0.00     0.065 A 
ATOM      8  C   LIG d   1       6.733  -1.361  -4.549  0.00  0.00     0.146 A 
ATOM      9  O   LIG d   1       7.930  -1.089  -5.107  0.00  0.00    -0.462 OA
ATOM     10  C   LIG d   1       8.561   0.077  -4.956  0.00  0.00     0.104 A 
ATOM     11  C   LIG d   1       8.046   1.098  -4.223  0.00  0.00     0.064 A 
ATOM     12  C   LIG d   1       6.740   0.909  -3.568  0.00  0.00     0.200 A 
ATOM     13  O   LIG d   1       6.229   1.790  -2.897  0.00  0.00    -0.286 OA
ATOM     14  O   LIG d   1       4.293  -4.064  -4.344  0.00  0.00    -0.476 OA
ATOM     15  C   LIG d   1       4.768  -4.883  -5.415  0.00  0.00     0.144 C 
ATOM     16  H   LIG d   1       7.893  -3.649  -5.344  0.00  0.00     0.048 H 
ATOM     17  H   LIG d   1       6.698  -3.376  -6.657  0.00  0.00     0.048 H 
ATOM     18  H   LIG d   1       3.303  -2.110  -2.943  0.00  0.00     0.065 H 
ATOM     19  H   LIG d   1       4.345   0.070  -2.583  0.00  0.00     0.063 H 
ATOM     20  H   LIG d   1       9.519   0.215  -5.436  0.00  0.00     0.104 H 
ATOM     21  H   LIG d   1       4.474  -4.444  -6.381  0.00  0.00     0.087 H 
ATOM     22  H   LIG d   1       4.347  -5.894  -5.329  0.00  0.00     0.087 H 
ENDROOT
BRANCH   1  23
ATOM     23  C   LIG d   1       6.766  -5.956  -6.272  0.00  0.00     0.006 C 
ATOM     24  H   LIG d   1       7.343  -5.452  -7.060  0.00  0.00     0.043 H 
ATOM     25  H   LIG d   1       5.932  -6.511  -6.725  0.00  0.00     0.043 H 
BRANCH  23  26
ATOM     26  C   LIG d   1       7.674  -6.928  -5.516  0.00  0.00    -0.015 C 
ATOM     27  H   LIG d   1       8.192  -6.393  -4.706  0.00  0.00     0.033 H 
ATOM     28  H   LIG d   1       8.417  -7.350  -6.209  0.00  0.00     0.033 H 
BRANCH  26  29
ATOM     29  C   LIG d   1       6.843  -8.042  -4.933  0.00  0.00    -0.046 A 
ATOM     30  C   LIG d   1       5.608  -8.339  -5.477  0.00  0.00    -0.055 A 
ATOM     31  C   LIG d   1       4.844  -9.359  -4.943  0.00  0.00    -0.020 A 
ATOM     32  H   LIG d   1       5.238  -7.773  -6.320  0.00  0.00     0.062 H 
ATOM     33  C   LIG d   1       5.318 -10.086  -3.861  0.00  0.00     0.120 A 
ATOM     34  H   LIG d   1       3.879  -9.591  -5.369  0.00  0.00     0.065 H 
ATOM     35  C   LIG d   1       6.558  -9.786  -3.316  0.00  0.00    -0.020 A 
ATOM     36  C   LIG d   1       7.320  -8.768  -3.857  0.00  0.00    -0.055 A 
ATOM     37  H   LIG d   1       6.929 -10.349  -2.473  0.00  0.00     0.065 H 
ATOM     38  H   LIG d   1       8.288  -8.537  -3.437  0.00  0.00     0.062 H 
BRANCH  33  39
ATOM     39  O   LIG d   1       4.568 -11.090  -3.334  0.00  0.00    -0.495 OA
BRANCH  39  40
ATOM     40  C   LIG d   1       3.149 -10.960  -3.437  0.00  0.00     0.079 C 
ATOM     41  H   LIG d   1       2.782 -10.295  -2.641  0.00  0.00     0.066 H 
ATOM     42  H   LIG d   1       2.681 -11.950  -3.331  0.00  0.00     0.066 H 
ATOM     43  H   LIG d   1       2.890 -10.535  -4.418  0.00  0.00     0.066 H 
ENDBRANCH  39  40
ENDBRANCH  33  39
ENDBRANCH  26  29
ENDBRANCH  23  26
ENDBRANCH   1  23
BRANCH  11  44
ATOM     44  C   LIG d   1       8.784   2.377  -4.084  0.00  0.00    -0.011 A 
ATOM     45  C   LIG d   1       8.542   3.423  -4.974  0.00  0.00    -0.054 A 
ATOM     46  C   LIG d   1       9.231   4.612  -4.840  0.00  0.00    -0.061 A 
ATOM     47  H   LIG d   1       7.817   3.304  -5.765  0.00  0.00     0.062 H 
ATOM     48  C   LIG d   1      10.160   4.765  -3.827  0.00  0.00    -0.062 A 
ATOM     49  H   LIG d   1       9.044   5.424  -5.528  0.00  0.00     0.062 H 
ATOM     50  C   LIG d   1      10.404   3.731  -2.942  0.00  0.00    -0.061 A 
ATOM     51  H   LIG d   1      10.696   5.697  -3.726  0.00  0.00     0.062 H 
ATOM     52  C   LIG d   1       9.717   2.540  -3.062  0.00  0.00    -0.054 A 
ATOM     53  H   LIG d   1      11.131   3.856  -2.153  0.00  0.00     0.062 H 
ATOM     54  H   LIG d   1       9.905   1.734  -2.368  0.00  0.00     0.062 H 
ENDBRANCH  11  44
TORSDOF 6
ENDMDL
MODEL 5
REMARK VINA RESULT:      -6.9      6.622     11.746
REMARK  6 active torsions:
REMARK  status: ('A' for Active; 'I' for Inactive)
REMARK    1  A    between atoms: C_1  and  O_2 
REMARK    2  A    between atoms: O_2  and  C_3 
REMARK    3  A    between atoms: C_6  and  C_9 
REMARK    4  A    between atoms: C_9  and  C_10 
REMARK    5  A    between atoms: C_10  and  N_11 
REMARK    6  A    between atoms: C_21  and  C_24 
ROOT
ATOM      1  N   LIG d   1      12.251   3.261  -4.530  0.00  0.00    -0.266 N 
ATOM      2  C   LIG d   1      10.800   3.038  -4.472  0.00  0.00     0.034 C 
ATOM      3  C   LIG d   1      10.485   1.634  -4.922  0.00  0.00     0.051 A 
ATOM      4  C   LIG d   1      11.411   0.893  -5.636  0.00  0.00     0.130 A 
ATOM      5  C   LIG d   1      11.106  -0.404  -6.053  0.00  0.00    -0.019 A 
ATOM      6  C   LIG d   1       9.894  -0.959  -5.761  0.00  0.00    -0.044 A 
ATOM      7  C   LIG d   1       8.955  -0.226  -5.036  0.00  0.00     0.065 A 
ATOM      8  C   LIG d   1       9.247   1.083  -4.615  0.00  0.00     0.146 A 
ATOM      9  O   LIG d   1       8.336   1.792  -3.920  0.00  0.00    -0.462 OA
ATOM     10  C   LIG d   1       7.131   1.320  -3.595  0.00  0.00     0.104 A 
ATOM     11  C   LIG d   1       6.716   0.073  -3.942  0.00  0.00     0.064 A 
ATOM     12  C   LIG d   1       7.633  -0.790  -4.707  0.00  0.00     0.200 A 
ATOM     13  O   LIG d   1       7.316  -1.917  -5.045  0.00  0.00    -0.286 OA
ATOM     14  O   LIG d   1      12.628   1.412  -5.943  0.00  0.00    -0.476 OA
ATOM     15  C   LIG d   1      12.779   2.830  -5.835  0.00  0.00     0.144 C 
ATOM     16  H   LIG d   1      10.449   3.177  -3.439  0.00  0.00     0.048 H 
ATOM     17  H   LIG d   1      10.292   3.755  -5.132  0.00  0.00     0.048 H 
ATOM     18  H   LIG d   1      11.835  -0.972  -6.612  0.00  0.00     0.065 H 
ATOM     19  H   LIG d   1       9.665  -1.964  -6.087  0.00  0.00     0.063 H 
ATOM     20  H   LIG d   1       6.458   1.953  -3.035  0.00  0.00     0.104 H 
ATOM     21  H   LIG d   1      12.217   3.328  -6.639  0.00  0.00     0.087 H 
ATOM     22  H   LIG d   1      13.842   3.100  -5.909  0.00  0.00     0.087 H 
ENDROOT
BRANCH   1  23
ATOM     23  C   LIG d   1      12.578   4.669  -4.268  0.00  0.00     0.006 C 
ATOM     24  H   LIG d   1      11.757   5.308  -4.624  0.00  0.00     0.043 H 
ATOM     25  H   LIG d   1      13.505   4.934  -4.798  0.00  0.00     0.043 H 
BRANCH  23  26
ATOM     26  C   LIG d   1      12.773   4.876  -2.765  0.00  0.00    -0.015 C 
ATOM     27  H   LIG d   1      13.735   5.379  -2.585  0.00  0.00     0.033 H 
ATOM     28  H   LIG d   1      12.769   3.900  -2.257  0.00  0.00     0.033 H 
BRANCH  26  29
ATOM     29  C   LIG d   1      11.652   5.728  -2.226  0.00  0.00    -0.046 A 
ATOM     30  C   LIG d   1      11.427   5.790  -0.864  0.00  0.00    -0.055 A 
ATOM     31  C   LIG d   1      10.399   6.569  -0.368  0.00  0.00    -0.020 A 
ATOM     32  H   LIG d   1      12.054   5.229  -0.186  0.00  0.00     0.062 H 
ATOM     33  C   LIG d   1       9.594   7.289  -1.239  0.00  0.00     0.120 A 
ATOM     34  H   LIG d   1      10.224   6.619   0.697  0.00  0.00     0.065 H 
ATOM     35  C   LIG d   1       9.821   7.224  -2.605  0.00  0.00    -0.020 A 
ATOM     36  C   LIG d   1      10.853   6.448  -3.096  0.00  0.00    -0.055 A 
ATOM     37  H   LIG d   1       9.195   7.783  -3.284  0.00  0.00     0.065 H 
ATOM     38  H   LIG d   1      11.035   6.401  -4.159  0.00  0.00     0.062 H 
BRANCH  33  39
ATOM     39  O   LIG d   1       8.582   8.056  -0.752  0.00  0.00    -0.495 OA
BRANCH  39  40
ATOM     40  C   LIG d   1       8.764   9.472  -0.795  0.00  0.00     0.079 C 
ATOM     41  H   LIG d   1       9.573   9.717  -1.499  0.00  0.00     0.066 H 
ATOM     42  H   LIG d   1       9.028   9.839   0.208  0.00  0.00     0.066 H 
ATOM     43  H   LIG d   1       7.831   9.952  -1.127  0.00  0.00     0.066 H 
ENDBRANCH  39  40
ENDBRANCH  33  39
ENDBRANCH  26  29
ENDBRANCH  23  26
ENDBRANCH   1  23
BRANCH  11  44
ATOM     44  C   LIG d   1       5.366  -0.409  -3.561  0.00  0.00    -0.011 A 
ATOM     45  C   LIG d   1       4.230   0.237  -4.047  0.00  0.00    -0.054 A 
ATOM     46  C   LIG d   1       2.977  -0.216  -3.688  0.00  0.00    -0.061 A 
ATOM     47  H   LIG d   1       4.331   1.089  -4.702  0.00  0.00     0.062 H 
ATOM     48  C   LIG d   1       2.847  -1.308  -2.849  0.00  0.00    -0.062 A 
ATOM     49  H   LIG d   1       2.095   0.283  -4.065  0.00  0.00     0.062 H 
ATOM     50  C   LIG d   1       3.970  -1.951  -2.364  0.00  0.00    -0.061 A 
ATOM     51  H   LIG d   1       1.864  -1.658  -2.572  0.00  0.00     0.062 H 
ATOM     52  C   LIG d   1       5.229  -1.511  -2.719  0.00  0.00    -0.054 A 
ATOM     53  H   LIG d   1       3.862  -2.803  -1.708  0.00  0.00     0.062 H 
ATOM     54  H   LIG d   1       6.105  -2.018  -2.344  0.00  0.00     0.062 H 
ENDBRANCH  11  44
TORSDOF 6
ENDMDL
MODEL 6
REMARK VINA RESULT:      -6.3      8.554     12.645
REMARK  6 active torsions:
REMARK  status: ('A' for Active; 'I' for Inactive)
REMARK    1  A    between atoms: C_1  and  O_2 
REMARK    2  A    between atoms: O_2  and  C_3 
REMARK    3  A    between atoms: C_6  and  C_9 
REMARK    4  A    between atoms: C_9  and  C_10 
REMARK    5  A    between atoms: C_10  and  N_11 
REMARK    6  A    between atoms: C_21  and  C_24 
ROOT
ATOM      1  N   LIG d   1       9.265   3.621  -3.582  0.00  0.00    -0.266 N 
ATOM      2  C   LIG d   1      10.240   4.272  -2.695  0.00  0.00     0.034 C 
ATOM      3  C   LIG d   1      10.262   5.754  -2.969  0.00  0.00     0.051 A 
ATOM      4  C   LIG d   1       9.732   6.268  -4.140  0.00  0.00     0.130 A 
ATOM      5  C   LIG d   1       9.764   7.642  -4.386  0.00  0.00    -0.019 A 
ATOM      6  C   LIG d   1      10.313   8.496  -3.475  0.00  0.00    -0.044 A 
ATOM      7  C   LIG d   1      10.843   7.993  -2.287  0.00  0.00     0.065 A 
ATOM      8  C   LIG d   1      10.823   6.611  -2.030  0.00  0.00     0.146 A 
ATOM      9  O   LIG d   1      11.342   6.126  -0.885  0.00  0.00    -0.462 OA
ATOM     10  C   LIG d   1      11.895   6.896   0.054  0.00  0.00     0.104 A 
ATOM     11  C   LIG d   1      11.985   8.246  -0.067  0.00  0.00     0.064 A 
ATOM     12  C   LIG d   1      11.450   8.884  -1.282  0.00  0.00     0.200 A 
ATOM     13  O   LIG d   1      11.502  10.091  -1.446  0.00  0.00    -0.286 OA
ATOM     14  O   LIG d   1       9.175   5.447  -5.069  0.00  0.00    -0.476 OA
ATOM     15  C   LIG d   1       9.478   4.053  -4.973  0.00  0.00     0.144 C 
ATOM     16  H   LIG d   1       9.954   4.099  -1.647  0.00  0.00     0.048 H 
ATOM     17  H   LIG d   1      11.239   3.853  -2.877  0.00  0.00     0.048 H 
ATOM     18  H   LIG d   1       9.350   8.031  -5.305  0.00  0.00     0.065 H 
ATOM     19  H   LIG d   1      10.333   9.558  -3.671  0.00  0.00     0.063 H 
ATOM     20  H   LIG d   1      12.287   6.428   0.945  0.00  0.00     0.104 H 
ATOM     21  H   LIG d   1      10.526   3.877  -5.255  0.00  0.00     0.087 H 
ATOM     22  H   LIG d   1       8.818   3.480  -5.640  0.00  0.00     0.087 H 
ENDROOT
BRANCH   1  23
ATOM     23  C   LIG d   1       9.344   2.158  -3.466  0.00  0.00     0.006 C 
ATOM     24  H   LIG d   1       8.980   1.849  -2.476  0.00  0.00     0.043 H 
ATOM     25  H   LIG d   1      10.389   1.837  -3.590  0.00  0.00     0.043 H 
BRANCH  23  26
ATOM     26  C   LIG d   1       8.481   1.514  -4.552  0.00  0.00    -0.015 C 
ATOM     27  H   LIG d   1       9.098   0.832  -5.156  0.00  0.00     0.033 H 
ATOM     28  H   LIG d   1       8.061   2.298  -5.200  0.00  0.00     0.033 H 
BRANCH  26  29
ATOM     29  C   LIG d   1       7.359   0.740  -3.909  0.00  0.00    -0.046 A 
ATOM     30  C   LIG d   1       6.319   1.413  -3.296  0.00  0.00    -0.055 A 
ATOM     31  C   LIG d   1       5.290   0.705  -2.706  0.00  0.00    -0.020 A 
ATOM     32  H   LIG d   1       6.310   2.493  -3.278  0.00  0.00     0.062 H 
ATOM     33  C   LIG d   1       5.302  -0.683  -2.728  0.00  0.00     0.120 A 
ATOM     34  H   LIG d   1       4.477   1.231  -2.227  0.00  0.00     0.065 H 
ATOM     35  C   LIG d   1       6.347  -1.356  -3.343  0.00  0.00    -0.020 A 
ATOM     36  C   LIG d   1       7.370  -0.643  -3.937  0.00  0.00    -0.055 A 
ATOM     37  H   LIG d   1       6.359  -2.435  -3.361  0.00  0.00     0.065 H 
ATOM     38  H   LIG d   1       8.182  -1.166  -4.421  0.00  0.00     0.062 H 
BRANCH  33  39
ATOM     39  O   LIG d   1       4.290  -1.381  -2.147  0.00  0.00    -0.495 OA
BRANCH  39  40
ATOM     40  C   LIG d   1       2.996  -1.260  -2.739  0.00  0.00     0.079 C 
ATOM     41  H   LIG d   1       2.336  -0.694  -2.066  0.00  0.00     0.066 H 
ATOM     42  H   LIG d   1       2.574  -2.262  -2.908  0.00  0.00     0.066 H 
ATOM     43  H   LIG d   1       3.081  -0.732  -3.701  0.00  0.00     0.066 H 
ENDBRANCH  39  40
ENDBRANCH  33  39
ENDBRANCH  26  29
ENDBRANCH  23  26
ENDBRANCH   1  23
BRANCH  11  44
ATOM     44  C   LIG d   1      12.610   9.061   1.003  0.00  0.00    -0.011 A 
ATOM     45  C   LIG d   1      13.902   9.560   0.837  0.00  0.00    -0.054 A 
ATOM     46  C   LIG d   1      14.479  10.318   1.836  0.00  0.00    -0.061 A 
ATOM     47  H   LIG d   1      14.450   9.353  -0.070  0.00  0.00     0.062 H 
ATOM     48  C   LIG d   1      13.778  10.584   2.998  0.00  0.00    -0.062 A 
ATOM     49  H   LIG d   1      15.480  10.705   1.708  0.00  0.00     0.062 H 
ATOM     50  C   LIG d   1      12.497  10.092   3.167  0.00  0.00    -0.061 A 
ATOM     51  H   LIG d   1      14.234  11.178   3.776  0.00  0.00     0.062 H 
ATOM     52  C   LIG d   1      11.907   9.337   2.174  0.00  0.00    -0.054 A 
ATOM     53  H   LIG d   1      11.954  10.302   4.078  0.00  0.00     0.062 H 
ATOM     54  H   LIG d   1      10.905   8.958   2.305  0.00  0.00     0.062 H 
ENDBRANCH  11  44
TORSDOF 6
ENDMDL
MODEL 7
REMARK VINA RESULT:      -6.3      3.270      5.364
REMARK  6 active torsions:
REMARK  status: ('A' for Active; 'I' for Inactive)
REMARK    1  A    between atoms: C_1  and  O_2 
REMARK    2  A    between atoms: O_2  and  C_3 
REMARK    3  A    between atoms: C_6  and  C_9 
REMARK    4  A    between atoms: C_9  and  C_10 
REMARK    5  A    between atoms: C_10  and  N_11 
REMARK    6  A    between atoms: C_21  and  C_24 
ROOT
ATOM      1  N   LIG d   1       4.162  -3.281 -11.760  0.00  0.00    -0.266 N 
ATOM      2  C   LIG d   1       4.689  -2.949 -10.429  0.00  0.00     0.034 C 
ATOM      3  C   LIG d   1       3.932  -1.774  -9.864  0.00  0.00     0.051 A 
ATOM      4  C   LIG d   1       3.173  -0.957 -10.684  0.00  0.00     0.130 A 
ATOM      5  C   LIG d   1       2.481   0.132 -10.151  0.00  0.00    -0.019 A 
ATOM      6  C   LIG d   1       2.540   0.403  -8.815  0.00  0.00    -0.044 A 
ATOM      7  C   LIG d   1       3.295  -0.417  -7.975  0.00  0.00     0.065 A 
ATOM      8  C   LIG d   1       4.001  -1.513  -8.501  0.00  0.00     0.146 A 
ATOM      9  O   LIG d   1       4.735  -2.300  -7.690  0.00  0.00    -0.462 OA
ATOM     10  C   LIG d   1       4.842  -2.101  -6.375  0.00  0.00     0.104 A 
ATOM     11  C   LIG d   1       4.216  -1.077  -5.737  0.00  0.00     0.064 A 
ATOM     12  C   LIG d   1       3.387  -0.152  -6.529  0.00  0.00     0.200 A 
ATOM     13  O   LIG d   1       2.802   0.784  -6.011  0.00  0.00    -0.286 OA
ATOM     14  O   LIG d   1       3.089  -1.199 -12.019  0.00  0.00    -0.476 OA
ATOM     15  C   LIG d   1       4.073  -2.067 -12.588  0.00  0.00     0.144 C 
ATOM     16  H   LIG d   1       4.570  -3.815  -9.762  0.00  0.00     0.048 H 
ATOM     17  H   LIG d   1       5.755  -2.691 -10.510  0.00  0.00     0.048 H 
ATOM     18  H   LIG d   1       1.895   0.764 -10.801  0.00  0.00     0.065 H 
ATOM     19  H   LIG d   1       2.002   1.247  -8.409  0.00  0.00     0.063 H 
ATOM     20  H   LIG d   1       5.450  -2.779  -5.794  0.00  0.00     0.104 H 
ATOM     21  H   LIG d   1       5.051  -1.564 -12.607  0.00  0.00     0.087 H 
ATOM     22  H   LIG d   1       3.782  -2.342 -13.612  0.00  0.00     0.087 H 
ENDROOT
BRANCH   1  23
ATOM     23  C   LIG d   1       4.990  -4.304 -12.414  0.00  0.00     0.006 C 
ATOM     24  H   LIG d   1       5.856  -4.536 -11.776  0.00  0.00     0.043 H 
ATOM     25  H   LIG d   1       5.341  -3.925 -13.385  0.00  0.00     0.043 H 
BRANCH  23  26
ATOM     26  C   LIG d   1       4.160  -5.570 -12.629  0.00  0.00    -0.015 C 
ATOM     27  H   LIG d   1       4.646  -6.204 -13.386  0.00  0.00     0.033 H 
ATOM     28  H   LIG d   1       3.153  -5.294 -12.976  0.00  0.00     0.033 H 
BRANCH  26  29
ATOM     29  C   LIG d   1       4.054  -6.329 -11.331  0.00  0.00    -0.046 A 
ATOM     30  C   LIG d   1       5.199  -6.684 -10.644  0.00  0.00    -0.055 A 
ATOM     31  C   LIG d   1       5.103  -7.380  -9.454  0.00  0.00    -0.020 A 
ATOM     32  H   LIG d   1       6.169  -6.419 -11.037  0.00  0.00     0.062 H 
ATOM     33  C   LIG d   1       3.857  -7.722  -8.950  0.00  0.00     0.120 A 
ATOM     34  H   LIG d   1       5.999  -7.657  -8.917  0.00  0.00     0.065 H 
ATOM     35  C   LIG d   1       2.709  -7.364  -9.641  0.00  0.00    -0.020 A 
ATOM     36  C   LIG d   1       2.810  -6.664 -10.828  0.00  0.00    -0.055 A 
ATOM     37  H   LIG d   1       1.738  -7.630  -9.251  0.00  0.00     0.065 H 
ATOM     38  H   LIG d   1       1.916  -6.380 -11.364  0.00  0.00     0.062 H 
BRANCH  33  39
ATOM     39  O   LIG d   1       3.762  -8.407  -7.779  0.00  0.00    -0.495 OA
BRANCH  39  40
ATOM     40  C   LIG d   1       4.675  -8.046  -6.741  0.00  0.00     0.079 C 
ATOM     41  H   LIG d   1       5.487  -7.435  -7.163  0.00  0.00     0.066 H 
ATOM     42  H   LIG d   1       5.097  -8.956  -6.291  0.00  0.00     0.066 H 
ATOM     43  H   LIG d   1       4.143  -7.469  -5.970  0.00  0.00     0.066 H 
ENDBRANCH  39  40
ENDBRANCH  33  39
ENDBRANCH  26  29
ENDBRANCH  23  26
ENDBRANCH   1  23
BRANCH  11  44
ATOM     44  C   LIG d   1       4.366  -0.894  -4.273  0.00  0.00    -0.011 A 
ATOM     45  C   LIG d   1       3.890  -1.867  -3.394  0.00  0.00    -0.054 A 
ATOM     46  C   LIG d   1       4.033  -1.691  -2.033  0.00  0.00    -0.061 A 
ATOM     47  H   LIG d   1       3.412  -2.755  -3.778  0.00  0.00     0.062 H 
ATOM     48  C   LIG d   1       4.646  -0.554  -1.540  0.00  0.00    -0.062 A 
ATOM     49  H   LIG d   1       3.665  -2.445  -1.351  0.00  0.00     0.062 H 
ATOM     50  C   LIG d   1       5.119   0.414  -2.407  0.00  0.00    -0.061 A 
ATOM     51  H   LIG d   1       4.755  -0.421  -0.474  0.00  0.00     0.062 H 
ATOM     52  C   LIG d   1       4.988   0.248  -3.770  0.00  0.00    -0.054 A 
ATOM     53  H   LIG d   1       5.597   1.302  -2.016  0.00  0.00     0.062 H 
ATOM     54  H   LIG d   1       5.362   1.002  -4.446  0.00  0.00     0.062 H 
ENDBRANCH  11  44
TORSDOF 6
ENDMDL
MODEL 8
REMARK VINA RESULT:      -6.3      3.439      4.974
REMARK  6 active torsions:
REMARK  status: ('A' for Active; 'I' for Inactive)
REMARK    1  A    between atoms: C_1  and  O_2 
REMARK    2  A    between atoms: O_2  and  C_3 
REMARK    3  A    between atoms: C_6  and  C_9 
REMARK    4  A    between atoms: C_9  and  C_10 
REMARK    5  A    between atoms: C_10  and  N_11 
REMARK    6  A    between atoms: C_21  and  C_24 
ROOT
ATOM      1  N   LIG d   1       6.297  -5.051  -5.238  0.00  0.00    -0.266 N 
ATOM      2  C   LIG d   1       6.898  -3.740  -5.521  0.00  0.00     0.034 C 
ATOM      3  C   LIG d   1       6.179  -2.673  -4.737  0.00  0.00     0.051 A 
ATOM      4  C   LIG d   1       4.929  -2.912  -4.193  0.00  0.00     0.130 A 
ATOM      5  C   LIG d   1       4.270  -1.914  -3.474  0.00  0.00    -0.019 A 
ATOM      6  C   LIG d   1       4.849  -0.692  -3.294  0.00  0.00    -0.044 A 
ATOM      7  C   LIG d   1       6.112  -0.440  -3.830  0.00  0.00     0.065 A 
ATOM      8  C   LIG d   1       6.783  -1.434  -4.562  0.00  0.00     0.146 A 
ATOM      9  O   LIG d   1       8.001  -1.187  -5.085  0.00  0.00    -0.462 OA
ATOM     10  C   LIG d   1       8.632  -0.019  -4.953  0.00  0.00     0.104 A 
ATOM     11  C   LIG d   1       8.096   1.030  -4.275  0.00  0.00     0.064 A 
ATOM     12  C   LIG d   1       6.766   0.870  -3.663  0.00  0.00     0.200 A 
ATOM     13  O   LIG d   1       6.235   1.776  -3.043  0.00  0.00    -0.286 OA
ATOM     14  O   LIG d   1       4.323  -4.119  -4.349  0.00  0.00    -0.476 OA
ATOM     15  C   LIG d   1       4.833  -4.977  -5.373  0.00  0.00     0.144 C 
ATOM     16  H   LIG d   1       7.959  -3.754  -5.231  0.00  0.00     0.048 H 
ATOM     17  H   LIG d   1       6.814  -3.523  -6.596  0.00  0.00     0.048 H 
ATOM     18  H   LIG d   1       3.293  -2.111  -3.056  0.00  0.00     0.065 H 
ATOM     19  H   LIG d   1       4.333   0.076  -2.736  0.00  0.00     0.063 H 
ATOM     20  H   LIG d   1       9.608   0.098  -5.402  0.00  0.00     0.104 H 
ATOM     21  H   LIG d   1       4.577  -4.572  -6.363  0.00  0.00     0.087 H 
ATOM     22  H   LIG d   1       4.403  -5.983  -5.266  0.00  0.00     0.087 H 
ENDROOT
BRANCH   1  23
ATOM     23  C   LIG d   1       6.855  -6.088  -6.117  0.00  0.00     0.006 C 
ATOM     24  H   LIG d   1       7.871  -5.800  -6.423  0.00  0.00     0.043 H 
ATOM     25  H   LIG d   1       6.219  -6.193  -7.008  0.00  0.00     0.043 H 
BRANCH  23  26
ATOM     26  C   LIG d   1       6.906  -7.419  -5.365  0.00  0.00    -0.015 C 
ATOM     27  H   LIG d   1       6.976  -8.246  -6.088  0.00  0.00     0.033 H 
ATOM     28  H   LIG d   1       5.993  -7.536  -4.763  0.00  0.00     0.033 H 
BRANCH  26  29
ATOM     29  C   LIG d   1       8.111  -7.439  -4.459  0.00  0.00    -0.046 A 
ATOM     30  C   LIG d   1       8.153  -8.310  -3.387  0.00  0.00    -0.055 A 
ATOM     31  C   LIG d   1       9.256  -8.330  -2.556  0.00  0.00    -0.020 A 
ATOM     32  H   LIG d   1       7.324  -8.976  -3.199  0.00  0.00     0.062 H 
ATOM     33  C   LIG d   1      10.321  -7.474  -2.798  0.00  0.00     0.120 A 
ATOM     34  H   LIG d   1       9.289  -9.011  -1.718  0.00  0.00     0.065 H 
ATOM     35  C   LIG d   1      10.276  -6.601  -3.874  0.00  0.00    -0.020 A 
ATOM     36  C   LIG d   1       9.173  -6.589  -4.706  0.00  0.00    -0.055 A 
ATOM     37  H   LIG d   1      11.103  -5.934  -4.064  0.00  0.00     0.065 H 
ATOM     38  H   LIG d   1       9.139  -5.913  -5.547  0.00  0.00     0.062 H 
BRANCH  33  39
ATOM     39  O   LIG d   1      11.407  -7.492  -1.980  0.00  0.00    -0.495 OA
BRANCH  39  40
ATOM     40  C   LIG d   1      11.198  -7.923  -0.634  0.00  0.00     0.079 C 
ATOM     41  H   LIG d   1      11.157  -7.047   0.030  0.00  0.00     0.066 H 
ATOM     42  H   LIG d   1      12.025  -8.579  -0.325  0.00  0.00     0.066 H 
ATOM     43  H   LIG d   1      10.249  -8.477  -0.570  0.00  0.00     0.066 H 
ENDBRANCH  39  40
ENDBRANCH  33  39
ENDBRANCH  26  29
ENDBRANCH  23  26
ENDBRANCH   1  23
BRANCH  11  44
ATOM     44  C   LIG d   1       8.835   2.311  -4.156  0.00  0.00    -0.011 A 
ATOM     45  C   LIG d   1       9.714   2.514  -3.093  0.00  0.00    -0.054 A 
ATOM     46  C   LIG d   1      10.399   3.708  -2.988  0.00  0.00    -0.061 A 
ATOM     47  H   LIG d   1       9.858   1.740  -2.355  0.00  0.00     0.062 H 
ATOM     48  C   LIG d   1      10.215   4.700  -3.933  0.00  0.00    -0.062 A 
ATOM     49  H   LIG d   1      11.081   3.867  -2.164  0.00  0.00     0.062 H 
ATOM     50  C   LIG d   1       9.344   4.503  -4.989  0.00  0.00    -0.061 A 
ATOM     51  H   LIG d   1      10.754   5.632  -3.846  0.00  0.00     0.062 H 
ATOM     52  C   LIG d   1       8.658   3.312  -5.109  0.00  0.00    -0.054 A 
ATOM     53  H   LIG d   1       9.204   5.282  -5.725  0.00  0.00     0.062 H 
ATOM     54  H   LIG d   1       7.982   3.158  -5.937  0.00  0.00     0.062 H 
ENDBRANCH  11  44
TORSDOF 6
ENDMDL
MODEL 9
REMARK VINA RESULT:      -6.3      3.225      6.151
REMARK  6 active torsions:
REMARK  status: ('A' for Active; 'I' for Inactive)
REMARK    1  A    between atoms: C_1  and  O_2 
REMARK    2  A    between atoms: O_2  and  C_3 
REMARK    3  A    between atoms: C_6  and  C_9 
REMARK    4  A    between atoms: C_9  and  C_10 
REMARK    5  A    between atoms: C_10  and  N_11 
REMARK    6  A    between atoms: C_21  and  C_24 
ROOT
ATOM      1  N   LIG d   1       4.658  -7.305  -8.479  0.00  0.00    -0.266 N 
ATOM      2  C   LIG d   1       4.318  -6.352  -7.413  0.00  0.00     0.034 C 
ATOM      3  C   LIG d   1       5.571  -5.945  -6.680  0.00  0.00     0.051 A 
ATOM      4  C   LIG d   1       6.731  -6.694  -6.786  0.00  0.00     0.130 A 
ATOM      5  C   LIG d   1       7.883  -6.311  -6.098  0.00  0.00    -0.019 A 
ATOM      6  C   LIG d   1       7.882  -5.194  -5.314  0.00  0.00    -0.044 A 
ATOM      7  C   LIG d   1       6.723  -4.426  -5.204  0.00  0.00     0.065 A 
ATOM      8  C   LIG d   1       5.554  -4.804  -5.887  0.00  0.00     0.146 A 
ATOM      9  O   LIG d   1       4.433  -4.066  -5.775  0.00  0.00    -0.462 OA
ATOM     10  C   LIG d   1       4.353  -2.961  -5.030  0.00  0.00     0.104 A 
ATOM     11  C   LIG d   1       5.405  -2.485  -4.314  0.00  0.00     0.064 A 
ATOM     12  C   LIG d   1       6.683  -3.217  -4.363  0.00  0.00     0.200 A 
ATOM     13  O   LIG d   1       7.661  -2.837  -3.741  0.00  0.00    -0.286 OA
ATOM     14  O   LIG d   1       6.768  -7.810  -7.559  0.00  0.00    -0.476 OA
ATOM     15  C   LIG d   1       5.514  -8.378  -7.947  0.00  0.00     0.144 C 
ATOM     16  H   LIG d   1       3.848  -5.462  -7.854  0.00  0.00     0.048 H 
ATOM     17  H   LIG d   1       3.620  -6.825  -6.708  0.00  0.00     0.048 H 
ATOM     18  H   LIG d   1       8.781  -6.904  -6.186  0.00  0.00     0.065 H 
ATOM     19  H   LIG d   1       8.778  -4.902  -4.784  0.00  0.00     0.063 H 
ATOM     20  H   LIG d   1       3.416  -2.425  -4.994  0.00  0.00     0.104 H 
ATOM     21  H   LIG d   1       5.025  -8.838  -7.076  0.00  0.00     0.087 H 
ATOM     22  H   LIG d   1       5.672  -9.140  -8.724  0.00  0.00     0.087 H 
ENDROOT
BRANCH   1  23
ATOM     23  C   LIG d   1       3.445  -7.857  -9.098  0.00  0.00     0.006 C 
ATOM     24  H   LIG d   1       2.592  -7.722  -8.417  0.00  0.00     0.043 H 
ATOM     25  H   LIG d   1       3.590  -8.930  -9.295  0.00  0.00     0.043 H 
BRANCH  23  26
ATOM     26  C   LIG d   1       3.168  -7.129 -10.415  0.00  0.00    -0.015 C 
ATOM     27  H   LIG d   1       3.242  -7.841 -11.251  0.00  0.00     0.033 H 
ATOM     28  H   LIG d   1       3.906  -6.325 -10.552  0.00  0.00     0.033 H 
BRANCH  26  29
ATOM     29  C   LIG d   1       1.782  -6.537 -10.380  0.00  0.00    -0.046 A 
ATOM     30  C   LIG d   1       1.612  -5.171 -10.503  0.00  0.00    -0.055 A 
ATOM     31  C   LIG d   1       0.342  -4.627 -10.470  0.00  0.00    -0.020 A 
ATOM     32  H   LIG d   1       2.471  -4.528 -10.624  0.00  0.00     0.062 H 
ATOM     33  C   LIG d   1      -0.762  -5.453 -10.314  0.00  0.00     0.120 A 
ATOM     34  H   LIG d   1       0.210  -3.560 -10.567  0.00  0.00     0.065 H 
ATOM     35  C   LIG d   1      -0.588  -6.823 -10.190  0.00  0.00    -0.020 A 
ATOM     36  C   LIG d   1       0.683  -7.363 -10.228  0.00  0.00    -0.055 A 
ATOM     37  H   LIG d   1      -1.445  -7.468 -10.067  0.00  0.00     0.065 H 
ATOM     38  H   LIG d   1       0.819  -8.431 -10.138  0.00  0.00     0.062 H 
BRANCH  33  39
ATOM     39  O   LIG d   1      -2.011  -4.919 -10.281  0.00  0.00    -0.495 OA
BRANCH  39  40
ATOM     40  C   LIG d   1      -3.011  -5.653  -9.573  0.00  0.00     0.079 C 
ATOM     41  H   LIG d   1      -3.401  -5.039  -8.747  0.00  0.00     0.066 H 
ATOM     42  H   LIG d   1      -2.571  -6.576  -9.167  0.00  0.00     0.066 H 
ATOM     43  H   LIG d   1      -3.833  -5.909 -10.258  0.00  0.00     0.066 H 
ENDBRANCH  39  40
ENDBRANCH  33  39
ENDBRANCH  26  29
ENDBRANCH  23  26
ENDBRANCH   1  23
BRANCH  11  44
ATOM     44  C   LIG d   1       5.270  -1.254  -3.498  0.00  0.00    -0.011 A 
ATOM     45  C   LIG d   1       4.480  -1.261  -2.349  0.00  0.00    -0.054 A 
ATOM     46  C   LIG d   1       4.357  -0.112  -1.593  0.00  0.00    -0.061 A 
ATOM     47  H   LIG d   1       3.965  -2.161  -2.051  0.00  0.00     0.062 H 
ATOM     48  C   LIG d   1       5.016   1.043  -1.974  0.00  0.00    -0.062 A 
ATOM     49  H   LIG d   1       3.746  -0.115  -0.702  0.00  0.00     0.062 H 
ATOM     50  C   LIG d   1       5.801   1.055  -3.113  0.00  0.00    -0.061 A 
ATOM     51  H   LIG d   1       4.918   1.939  -1.379  0.00  0.00     0.062 H 
ATOM     52  C   LIG d   1       5.936  -0.089  -3.873  0.00  0.00    -0.054 A 
ATOM     53  H   LIG d   1       6.313   1.960  -3.406  0.00  0.00     0.062 H 
ATOM     54  H   LIG d   1       6.552  -0.080  -4.759  0.00  0.00     0.062 H 
ENDBRANCH  11  44
TORSDOF 6
ENDMDL
