MODEL 1
REMARK VINA RESULT:      -7.0      0.000      0.000
REMARK  7 active torsions:
REMARK  status: ('A' for Active; 'I' for Inactive)
REMARK    1  A    between atoms: C_1  and  C_2 
REMARK    2  A    between atoms: C_16  and  C_19 
REMARK    3  A    between atoms: C_19  and  C_20 
REMARK    4  A    between atoms: C_20  and  C_21 
REMARK       I    between atoms: C_21  and  N_23 
REMARK    5  A    between atoms: N_26  and  C_29 
REMARK    6  A    between atoms: C_29  and  C_30 
REMARK    7  A    between atoms: C_30  and  C_31 
ROOT
ATOM      1  C   LIG d   1       2.853  -0.349  -9.209  0.00  0.00    -0.028 A 
ATOM      2  C   LIG d   1       2.402  -0.195  -7.915  0.00  0.00    -0.039 A 
ATOM      3  C   LIG d   1       3.295   0.050  -6.888  0.00  0.00     0.042 A 
ATOM      4  C   LIG d   1       4.650   0.141  -7.161  0.00  0.00    -0.036 A 
ATOM      5  C   LIG d   1       5.105  -0.012  -8.451  0.00  0.00     0.005 A 
ATOM      6  C   LIG d   1       4.214  -0.265  -9.491  0.00  0.00     0.042 A 
ATOM      7  N   LIG d   1       4.905  -0.389 -10.699  0.00  0.00    -0.283 N 
ATOM      8  C   LIG d   1       6.235  -0.236 -10.542  0.00  0.00     0.243 A 
ATOM      9  O   LIG d   1       7.077  -0.289 -11.413  0.00  0.00    -0.273 OA
ATOM     10  C   LIG d   1       6.469   0.029  -9.079  0.00  0.00     0.136 A 
ATOM     11  C   LIG d   1       7.400  -1.031  -8.477  0.00  0.00     0.080 A 
ATOM     12  H   LIG d   1       7.386  -1.968  -9.034  0.00  0.00     0.043 H 
ATOM     13  C   LIG d   1       8.801  -0.356  -8.466  0.00  0.00     0.065 A 
ATOM     14  H   LIG d   1       9.554  -0.938  -9.000  0.00  0.00     0.042 H 
ATOM     15  C   LIG d   1       8.576   1.037  -9.090  0.00  0.00     0.021 C 
ATOM     16  H   LIG d   1       8.806   1.017 -10.155  0.00  0.00     0.047 H 
ATOM     17  N   LIG d   1       7.131   1.326  -8.853  0.00  0.00    -0.295 N 
ATOM     18  C   LIG d   1       9.110  -0.218  -6.994  0.00  0.00     0.227 A 
ATOM     19  O   LIG d   1      10.119   0.274  -6.532  0.00  0.00    -0.275 OA
ATOM     20  N   LIG d   1       8.100  -0.722  -6.278  0.00  0.00    -0.241 N 
ATOM     21  C   LIG d   1       7.078  -1.219  -7.012  0.00  0.00     0.228 A 
ATOM     22  O   LIG d   1       6.067  -1.729  -6.578  0.00  0.00    -0.275 OA
ATOM     23 CL   LIG d   1       2.721   0.244  -5.260  0.00  0.00    -0.084 Cl
ATOM     24  H   LIG d   1       1.345  -0.264  -7.702  0.00  0.00     0.064 H 
ATOM     25  H   LIG d   1       5.351   0.330  -6.361  0.00  0.00     0.064 H 
ATOM     26  H   LIG d   1       4.478  -0.565 -11.552  0.00  0.00     0.155 HD
ATOM     27  H   LIG d   1       6.795   2.022  -9.502  0.00  0.00     0.123 HD
ENDROOT
BRANCH  15  28
ATOM     28  C   LIG d   1       9.439   2.083  -8.380  0.00  0.00    -0.029 C 
ATOM     29  H   LIG d   1       8.866   2.539  -7.573  0.00  0.00     0.029 H 
ATOM     30  H   LIG d   1      10.327   1.603  -7.968  0.00  0.00     0.029 H 
BRANCH  28  31
ATOM     31  C   LIG d   1       9.859   3.161  -9.381  0.00  0.00     0.025 C 
ATOM     32  H   LIG d   1      10.900   3.432  -9.207  0.00  0.00     0.036 H 
ATOM     33  H   LIG d   1       9.749   2.778 -10.395  0.00  0.00     0.036 H 
BRANCH  31  34
ATOM     34  C   LIG d   1       8.986   4.376  -9.205  0.00  0.00     0.210 C 
ATOM     35  O   LIG d   1       7.832   4.354  -9.579  0.00  0.00    -0.276 OA
ATOM     36  N   LIG d   1       9.487   5.488  -8.630  0.00  0.00    -0.329 N 
ATOM     37  H   LIG d   1      10.409   5.506  -8.331  0.00  0.00     0.145 HD
ATOM     38  H   LIG d   1       8.924   6.271  -8.517  0.00  0.00     0.145 HD
ENDBRANCH  31  34
ENDBRANCH  28  31
ENDBRANCH  15  28
BRANCH   1  39
ATOM     39  C   LIG d   1       1.871  -0.616 -10.321  0.00  0.00    -0.038 C 
ATOM     40  H   LIG d   1       1.656   0.314 -10.847  0.00  0.00     0.028 H 
ATOM     41  H   LIG d   1       2.298  -1.337 -11.017  0.00  0.00     0.028 H 
ATOM     42  H   LIG d   1       0.949  -1.018  -9.900  0.00  0.00     0.028 H 
ENDBRANCH   1  39
BRANCH  20  43
ATOM     43  C   LIG d   1       8.100  -0.745  -4.812  0.00  0.00     0.026 C 
ATOM     44  H   LIG d   1       7.536  -1.610  -4.461  0.00  0.00     0.047 H 
ATOM     45  H   LIG d   1       9.125  -0.807  -4.450  0.00  0.00     0.047 H 
BRANCH  43  46
ATOM     46  C   LIG d   1       7.449   0.536  -4.283  0.00  0.00    -0.011 C 
ATOM     47  H   LIG d   1       8.176   1.097  -3.696  0.00  0.00     0.033 H 
ATOM     48  H   LIG d   1       7.112   1.145  -5.122  0.00  0.00     0.033 H 
BRANCH  46  49
ATOM     49  C   LIG d   1       6.271   0.179  -3.415  0.00  0.00    -0.046 A 
ATOM     50  C   LIG d   1       5.529   1.177  -2.810  0.00  0.00    -0.059 A 
ATOM     51  C   LIG d   1       4.445   0.849  -2.017  0.00  0.00    -0.061 A 
ATOM     52  H   LIG d   1       5.795   2.213  -2.961  0.00  0.00     0.062 H 
ATOM     53  C   LIG d   1       4.108  -0.477  -1.821  0.00  0.00    -0.062 A 
ATOM     54  H   LIG d   1       3.864   1.629  -1.549  0.00  0.00     0.062 H 
ATOM     55  C   LIG d   1       4.854  -1.476  -2.420  0.00  0.00    -0.061 A 
ATOM     56  H   LIG d   1       3.264  -0.733  -1.198  0.00  0.00     0.062 H 
ATOM     57  C   LIG d   1       5.935  -1.148  -3.217  0.00  0.00    -0.059 A 
ATOM     58  H   LIG d   1       4.590  -2.511  -2.267  0.00  0.00     0.062 H 
ATOM     59  H   LIG d   1       6.516  -1.928  -3.686  0.00  0.00     0.062 H 
ENDBRANCH  46  49
ENDBRANCH  43  46
ENDBRANCH  20  43
TORSDOF 7
ENDMDL
MODEL 2
REMARK VINA RESULT:      -7.0      2.876      5.203
REMARK  7 active torsions:
REMARK  status: ('A' for Active; 'I' for Inactive)
REMARK    1  A    between atoms: C_1  and  C_2 
REMARK    2  A    between atoms: C_16  and  C_19 
REMARK    3  A    between atoms: C_19  and  C_20 
REMARK    4  A    between atoms: C_20  and  C_21 
REMARK       I    between atoms: C_21  and  N_23 
REMARK    5  A    between atoms: N_26  and  C_29 
REMARK    6  A    between atoms: C_29  and  C_30 
REMARK    7  A    between atoms: C_30  and  C_31 
ROOT
ATOM      1  C   LIG d   1       8.111  -3.783  -7.872  0.00  0.00    -0.028 A 
ATOM      2  C   LIG d   1       7.239  -4.526  -7.104  0.00  0.00    -0.039 A 
ATOM      3  C   LIG d   1       5.943  -4.088  -6.898  0.00  0.00     0.042 A 
ATOM      4  C   LIG d   1       5.520  -2.898  -7.467  0.00  0.00    -0.036 A 
ATOM      5  C   LIG d   1       6.387  -2.154  -8.234  0.00  0.00     0.005 A 
ATOM      6  C   LIG d   1       7.696  -2.583  -8.442  0.00  0.00     0.042 A 
ATOM      7  N   LIG d   1       8.382  -1.666  -9.242  0.00  0.00    -0.283 N 
ATOM      8  C   LIG d   1       7.610  -0.620  -9.594  0.00  0.00     0.243 A 
ATOM      9  O   LIG d   1       7.938   0.323 -10.283  0.00  0.00    -0.273 OA
ATOM     10  C   LIG d   1       6.257  -0.856  -8.979  0.00  0.00     0.136 A 
ATOM     11  C   LIG d   1       5.875   0.297  -8.043  0.00  0.00     0.080 A 
ATOM     12  H   LIG d   1       6.745   0.831  -7.658  0.00  0.00     0.043 H 
ATOM     13  C   LIG d   1       4.943   1.201  -8.898  0.00  0.00     0.065 A 
ATOM     14  H   LIG d   1       5.295   2.231  -8.961  0.00  0.00     0.042 H 
ATOM     15  C   LIG d   1       4.878   0.512 -10.277  0.00  0.00     0.021 C 
ATOM     16  H   LIG d   1       5.608   0.952 -10.956  0.00  0.00     0.047 H 
ATOM     17  N   LIG d   1       5.192  -0.920  -9.998  0.00  0.00    -0.295 N 
ATOM     18  C   LIG d   1       3.608   1.084  -8.200  0.00  0.00     0.227 A 
ATOM     19  O   LIG d   1       2.584   1.633  -8.550  0.00  0.00    -0.275 OA
ATOM     20  N   LIG d   1       3.730   0.282  -7.137  0.00  0.00    -0.241 N 
ATOM     21  C   LIG d   1       4.974  -0.216  -6.943  0.00  0.00     0.228 A 
ATOM     22  O   LIG d   1       5.316  -0.954  -6.045  0.00  0.00    -0.275 OA
ATOM     23 CL   LIG d   1       4.849  -5.027  -5.931  0.00  0.00    -0.084 Cl
ATOM     24  H   LIG d   1       7.569  -5.454  -6.661  0.00  0.00     0.064 H 
ATOM     25  H   LIG d   1       4.509  -2.553  -7.307  0.00  0.00     0.064 H 
ATOM     26  H   LIG d   1       9.308  -1.769  -9.511  0.00  0.00     0.155 HD
ATOM     27  H   LIG d   1       5.518  -1.384 -10.833  0.00  0.00     0.123 HD
ENDROOT
BRANCH  15  28
ATOM     28  C   LIG d   1       3.469   0.630 -10.864  0.00  0.00    -0.029 C 
ATOM     29  H   LIG d   1       2.771   0.920 -10.079  0.00  0.00     0.029 H 
ATOM     30  H   LIG d   1       3.465   1.384 -11.650  0.00  0.00     0.029 H 
BRANCH  28  31
ATOM     31  C   LIG d   1       3.047  -0.720 -11.449  0.00  0.00     0.025 C 
ATOM     32  H   LIG d   1       3.205  -0.714 -12.527  0.00  0.00     0.036 H 
ATOM     33  H   LIG d   1       3.643  -1.513 -10.999  0.00  0.00     0.036 H 
BRANCH  31  34
ATOM     34  C   LIG d   1       1.589  -0.960 -11.155  0.00  0.00     0.210 C 
ATOM     35  O   LIG d   1       0.827  -1.244 -12.055  0.00  0.00    -0.276 OA
ATOM     36  N   LIG d   1       1.131  -0.859  -9.892  0.00  0.00    -0.329 N 
ATOM     37  H   LIG d   1       1.740  -0.632  -9.172  0.00  0.00     0.145 HD
ATOM     38  H   LIG d   1       0.191  -1.014  -9.702  0.00  0.00     0.145 HD
ENDBRANCH  31  34
ENDBRANCH  28  31
ENDBRANCH  15  28
BRANCH   1  39
ATOM     39  C   LIG d   1       9.521  -4.269  -8.089  0.00  0.00    -0.038 C 
ATOM     40  H   LIG d   1      10.017  -4.388  -7.127  0.00  0.00     0.028 H 
ATOM     41  H   LIG d   1       9.499  -5.227  -8.608  0.00  0.00     0.028 H 
ATOM     42  H   LIG d   1      10.067  -3.542  -8.692  0.00  0.00     0.028 H 
ENDBRANCH   1  39
BRANCH  20  43
ATOM     43  C   LIG d   1       2.611  -0.027  -6.244  0.00  0.00     0.026 C 
ATOM     44  H   LIG d   1       1.675   0.024  -6.802  0.00  0.00     0.047 H 
ATOM     45  H   LIG d   1       2.737  -1.030  -5.838  0.00  0.00     0.047 H 
BRANCH  43  46
ATOM     46  C   LIG d   1       2.576   0.987  -5.099  0.00  0.00    -0.011 C 
ATOM     47  H   LIG d   1       3.128   1.882  -5.390  0.00  0.00     0.033 H 
ATOM     48  H   LIG d   1       1.542   1.253  -4.880  0.00  0.00     0.033 H 
BRANCH  46  49
ATOM     49  C   LIG d   1       3.210   0.383  -3.873  0.00  0.00    -0.046 A 
ATOM     50  C   LIG d   1       3.952   1.175  -3.016  0.00  0.00    -0.059 A 
ATOM     51  C   LIG d   1       4.530   0.620  -1.889  0.00  0.00    -0.061 A 
ATOM     52  H   LIG d   1       4.077   2.227  -3.226  0.00  0.00     0.062 H 
ATOM     53  C   LIG d   1       4.374  -0.727  -1.623  0.00  0.00    -0.062 A 
ATOM     54  H   LIG d   1       5.106   1.240  -1.218  0.00  0.00     0.062 H 
ATOM     55  C   LIG d   1       3.637  -1.520  -2.483  0.00  0.00    -0.061 A 
ATOM     56  H   LIG d   1       4.828  -1.160  -0.745  0.00  0.00     0.062 H 
ATOM     57  C   LIG d   1       3.055  -0.965  -3.608  0.00  0.00    -0.059 A 
ATOM     58  H   LIG d   1       3.515  -2.572  -2.276  0.00  0.00     0.062 H 
ATOM     59  H   LIG d   1       2.479  -1.585  -4.279  0.00  0.00     0.062 H 
ENDBRANCH  46  49
ENDBRANCH  43  46
ENDBRANCH  20  43
TORSDOF 7
ENDMDL
MODEL 3
REMARK VINA RESULT:      -6.9      2.885      6.732
REMARK  7 active torsions:
REMARK  status: ('A' for Active; 'I' for Inactive)
REMARK    1  A    between atoms: C_1  and  C_2 
REMARK    2  A    between atoms: C_16  and  C_19 
REMARK    3  A    between atoms: C_19  and  C_20 
REMARK    4  A    between atoms: C_20  and  C_21 
REMARK       I    between atoms: C_21  and  N_23 
REMARK    5  A    between atoms: N_26  and  C_29 
REMARK    6  A    between atoms: C_29  and  C_30 
REMARK    7  A    between atoms: C_30  and  C_31 
ROOT
ATOM      1  C   LIG d   1       3.636  -1.565  -3.296  0.00  0.00    -0.028 A 
ATOM      2  C   LIG d   1       3.060  -0.324  -3.475  0.00  0.00    -0.039 A 
ATOM      3  C   LIG d   1       3.089   0.287  -4.715  0.00  0.00     0.042 A 
ATOM      4  C   LIG d   1       3.699  -0.350  -5.783  0.00  0.00    -0.036 A 
ATOM      5  C   LIG d   1       4.275  -1.588  -5.609  0.00  0.00     0.005 A 
ATOM      6  C   LIG d   1       4.257  -2.209  -4.363  0.00  0.00     0.042 A 
ATOM      7  N   LIG d   1       4.905  -3.445  -4.431  0.00  0.00    -0.283 N 
ATOM      8  C   LIG d   1       5.373  -3.707  -5.667  0.00  0.00     0.243 A 
ATOM      9  O   LIG d   1       5.972  -4.701  -6.018  0.00  0.00    -0.273 OA
ATOM     10  C   LIG d   1       4.996  -2.532  -6.528  0.00  0.00     0.136 A 
ATOM     11  C   LIG d   1       6.244  -1.883  -7.140  0.00  0.00     0.080 A 
ATOM     12  H   LIG d   1       7.145  -2.073  -6.557  0.00  0.00     0.043 H 
ATOM     13  C   LIG d   1       6.322  -2.469  -8.578  0.00  0.00     0.065 A 
ATOM     14  H   LIG d   1       7.274  -2.959  -8.783  0.00  0.00     0.042 H 
ATOM     15  C   LIG d   1       5.124  -3.436  -8.679  0.00  0.00     0.021 C 
ATOM     16  H   LIG d   1       5.439  -4.455  -8.454  0.00  0.00     0.047 H 
ATOM     17  N   LIG d   1       4.149  -2.934  -7.667  0.00  0.00    -0.295 N 
ATOM     18  C   LIG d   1       6.087  -1.264  -9.459  0.00  0.00     0.227 A 
ATOM     19  O   LIG d   1       6.057  -1.277 -10.672  0.00  0.00    -0.275 OA
ATOM     20  N   LIG d   1       5.918  -0.180  -8.694  0.00  0.00    -0.241 N 
ATOM     21  C   LIG d   1       5.994  -0.409  -7.363  0.00  0.00     0.228 A 
ATOM     22  O   LIG d   1       5.879   0.422  -6.487  0.00  0.00    -0.275 OA
ATOM     23 CL   LIG d   1       2.361   1.848  -4.935  0.00  0.00    -0.084 Cl
ATOM     24  H   LIG d   1       2.583   0.172  -2.643  0.00  0.00     0.064 H 
ATOM     25  H   LIG d   1       3.724   0.125  -6.753  0.00  0.00     0.064 H 
ATOM     26  H   LIG d   1       5.007  -4.045  -3.676  0.00  0.00     0.155 HD
ATOM     27  H   LIG d   1       3.504  -3.663  -7.398  0.00  0.00     0.123 HD
ENDROOT
BRANCH  15  28
ATOM     28  C   LIG d   1       4.503  -3.369 -10.076  0.00  0.00    -0.029 C 
ATOM     29  H   LIG d   1       3.637  -2.707 -10.058  0.00  0.00     0.029 H 
ATOM     30  H   LIG d   1       5.238  -2.984 -10.783  0.00  0.00     0.029 H 
BRANCH  28  31
ATOM     31  C   LIG d   1       4.065  -4.771 -10.507  0.00  0.00     0.025 C 
ATOM     32  H   LIG d   1       4.597  -5.055 -11.414  0.00  0.00     0.036 H 
ATOM     33  H   LIG d   1       4.294  -5.482  -9.713  0.00  0.00     0.036 H 
BRANCH  31  34
ATOM     34  C   LIG d   1       2.582  -4.773 -10.771  0.00  0.00     0.210 C 
ATOM     35  O   LIG d   1       2.168  -4.899 -11.905  0.00  0.00    -0.276 OA
ATOM     36  N   LIG d   1       1.715  -4.638  -9.749  0.00  0.00    -0.329 N 
ATOM     37  H   LIG d   1       2.046  -4.537  -8.842  0.00  0.00     0.145 HD
ATOM     38  H   LIG d   1       0.759  -4.640  -9.919  0.00  0.00     0.145 HD
ENDBRANCH  31  34
ENDBRANCH  28  31
ENDBRANCH  15  28
BRANCH   1  39
ATOM     39  C   LIG d   1       3.600  -2.222  -1.940  0.00  0.00    -0.038 C 
ATOM     40  H   LIG d   1       2.571  -2.265  -1.585  0.00  0.00     0.028 H 
ATOM     41  H   LIG d   1       4.001  -3.232  -2.015  0.00  0.00     0.028 H 
ATOM     42  H   LIG d   1       4.202  -1.642  -1.241  0.00  0.00     0.028 H 
ENDBRANCH   1  39
BRANCH  20  43
ATOM     43  C   LIG d   1       5.677   1.154  -9.251  0.00  0.00     0.026 C 
ATOM     44  H   LIG d   1       6.334   1.875  -8.765  0.00  0.00     0.047 H 
ATOM     45  H   LIG d   1       5.879   1.142 -10.322  0.00  0.00     0.047 H 
BRANCH  43  46
ATOM     46  C   LIG d   1       4.218   1.550  -9.011  0.00  0.00    -0.011 C 
ATOM     47  H   LIG d   1       4.002   1.509  -7.943  0.00  0.00     0.033 H 
ATOM     48  H   LIG d   1       4.052   2.564  -9.376  0.00  0.00     0.033 H 
BRANCH  46  49
ATOM     49  C   LIG d   1       3.311   0.597  -9.743  0.00  0.00    -0.046 A 
ATOM     50  C   LIG d   1       3.448   0.423 -11.109  0.00  0.00    -0.059 A 
ATOM     51  C   LIG d   1       2.618  -0.456 -11.780  0.00  0.00    -0.061 A 
ATOM     52  H   LIG d   1       4.206   0.971 -11.649  0.00  0.00     0.062 H 
ATOM     53  C   LIG d   1       1.645  -1.153 -11.089  0.00  0.00    -0.062 A 
ATOM     54  H   LIG d   1       2.728  -0.595 -12.845  0.00  0.00     0.062 H 
ATOM     55  C   LIG d   1       1.504  -0.974  -9.725  0.00  0.00    -0.061 A 
ATOM     56  H   LIG d   1       0.995  -1.837 -11.614  0.00  0.00     0.062 H 
ATOM     57  C   LIG d   1       2.337  -0.099  -9.052  0.00  0.00    -0.059 A 
ATOM     58  H   LIG d   1       0.744  -1.519  -9.185  0.00  0.00     0.062 H 
ATOM     59  H   LIG d   1       2.226   0.039  -7.987  0.00  0.00     0.062 H 
ENDBRANCH  46  49
ENDBRANCH  43  46
ENDBRANCH  20  43
TORSDOF 7
ENDMDL
MODEL 4
REMARK VINA RESULT:      -6.9      2.157      2.593
REMARK  7 active torsions:
REMARK  status: ('A' for Active; 'I' for Inactive)
REMARK    1  A    between atoms: C_1  and  C_2 
REMARK    2  A    between atoms: C_16  and  C_19 
REMARK    3  A    between atoms: C_19  and  C_20 
REMARK    4  A    between atoms: C_20  and  C_21 
REMARK       I    between atoms: C_21  and  N_23 
REMARK    5  A    between atoms: N_26  and  C_29 
REMARK    6  A    between atoms: C_29  and  C_30 
REMARK    7  A    between atoms: C_30  and  C_31 
ROOT
ATOM      1  C   LIG d   1       3.048  -0.316  -9.274  0.00  0.00    -0.028 A 
ATOM      2  C   LIG d   1       2.503   0.038  -8.057  0.00  0.00    -0.039 A 
ATOM      3  C   LIG d   1       3.240  -0.098  -6.895  0.00  0.00     0.042 A 
ATOM      4  C   LIG d   1       4.533  -0.593  -6.954  0.00  0.00    -0.036 A 
ATOM      5  C   LIG d   1       5.080  -0.948  -8.166  0.00  0.00     0.005 A 
ATOM      6  C   LIG d   1       4.344  -0.820  -9.341  0.00  0.00     0.042 A 
ATOM      7  N   LIG d   1       5.102  -1.246 -10.434  0.00  0.00    -0.283 N 
ATOM      8  C   LIG d   1       6.329  -1.666 -10.070  0.00  0.00     0.243 A 
ATOM      9  O   LIG d   1       7.198  -2.086 -10.804  0.00  0.00    -0.273 OA
ATOM     10  C   LIG d   1       6.416  -1.498  -8.577  0.00  0.00     0.136 A 
ATOM     11  C   LIG d   1       6.708  -2.841  -7.894  0.00  0.00     0.080 A 
ATOM     12  H   LIG d   1       6.391  -3.694  -8.494  0.00  0.00     0.043 H 
ATOM     13  C   LIG d   1       8.241  -2.821  -7.636  0.00  0.00     0.065 A 
ATOM     14  H   LIG d   1       8.755  -3.675  -8.079  0.00  0.00     0.042 H 
ATOM     15  C   LIG d   1       8.724  -1.475  -8.215  0.00  0.00     0.021 C 
ATOM     16  H   LIG d   1       9.091  -1.609  -9.233  0.00  0.00     0.047 H 
ATOM     17  N   LIG d   1       7.517  -0.598  -8.187  0.00  0.00    -0.295 N 
ATOM     18  C   LIG d   1       8.341  -2.799  -6.129  0.00  0.00     0.227 A 
ATOM     19  O   LIG d   1       9.375  -2.770  -5.496  0.00  0.00    -0.275 OA
ATOM     20  N   LIG d   1       7.113  -2.816  -5.601  0.00  0.00    -0.241 N 
ATOM     21  C   LIG d   1       6.108  -2.848  -6.507  0.00  0.00     0.228 A 
ATOM     22  O   LIG d   1       4.922  -2.875  -6.258  0.00  0.00    -0.275 OA
ATOM     23 CL   LIG d   1       2.550   0.350  -5.366  0.00  0.00    -0.084 Cl
ATOM     24  H   LIG d   1       1.495   0.426  -8.011  0.00  0.00     0.064 H 
ATOM     25  H   LIG d   1       5.111  -0.702  -6.048  0.00  0.00     0.064 H 
ATOM     26  H   LIG d   1       4.782  -1.241 -11.350  0.00  0.00     0.155 HD
ATOM     27  H   LIG d   1       7.612   0.163  -8.843  0.00  0.00     0.123 HD
ENDROOT
BRANCH  15  28
ATOM     28  C   LIG d   1       9.821  -0.878  -7.330  0.00  0.00    -0.029 C 
ATOM     29  H   LIG d   1       9.932  -1.484  -6.431  0.00  0.00     0.029 H 
ATOM     30  H   LIG d   1      10.763  -0.865  -7.878  0.00  0.00     0.029 H 
BRANCH  28  31
ATOM     31  C   LIG d   1       9.438   0.551  -6.939  0.00  0.00     0.025 C 
ATOM     32  H   LIG d   1      10.067   1.257  -7.480  0.00  0.00     0.036 H 
ATOM     33  H   LIG d   1       8.393   0.729  -7.191  0.00  0.00     0.036 H 
BRANCH  31  34
ATOM     34  C   LIG d   1       9.636   0.735  -5.457  0.00  0.00     0.210 C 
ATOM     35  O   LIG d   1       9.031   1.605  -4.866  0.00  0.00    -0.276 OA
ATOM     36  N   LIG d   1      10.485  -0.069  -4.786  0.00  0.00    -0.329 N 
ATOM     37  H   LIG d   1      10.969  -0.765  -5.257  0.00  0.00     0.145 HD
ATOM     38  H   LIG d   1      10.613   0.049  -3.831  0.00  0.00     0.145 HD
ENDBRANCH  31  34
ENDBRANCH  28  31
ENDBRANCH  15  28
BRANCH   1  39
ATOM     39  C   LIG d   1       2.235  -0.163 -10.534  0.00  0.00    -0.038 C 
ATOM     40  H   LIG d   1       2.491  -0.961 -11.230  0.00  0.00     0.028 H 
ATOM     41  H   LIG d   1       1.174  -0.219 -10.291  0.00  0.00     0.028 H 
ATOM     42  H   LIG d   1       2.453   0.802 -10.991  0.00  0.00     0.028 H 
ENDBRANCH   1  39
BRANCH  20  43
ATOM     43  C   LIG d   1       6.870  -2.809  -4.156  0.00  0.00     0.026 C 
ATOM     44  H   LIG d   1       5.810  -2.981  -3.964  0.00  0.00     0.047 H 
ATOM     45  H   LIG d   1       7.457  -3.597  -3.686  0.00  0.00     0.047 H 
BRANCH  43  46
ATOM     46  C   LIG d   1       7.279  -1.453  -3.577  0.00  0.00    -0.011 C 
ATOM     47  H   LIG d   1       7.973  -1.606  -2.750  0.00  0.00     0.033 H 
ATOM     48  H   LIG d   1       7.763  -0.858  -4.352  0.00  0.00     0.033 H 
BRANCH  46  49
ATOM     49  C   LIG d   1       6.056  -0.730  -3.078  0.00  0.00    -0.046 A 
ATOM     50  C   LIG d   1       4.960  -1.448  -2.636  0.00  0.00    -0.059 A 
ATOM     51  C   LIG d   1       3.839  -0.784  -2.174  0.00  0.00    -0.061 A 
ATOM     52  H   LIG d   1       4.982  -2.528  -2.648  0.00  0.00     0.062 H 
ATOM     53  C   LIG d   1       3.809   0.598  -2.163  0.00  0.00    -0.062 A 
ATOM     54  H   LIG d   1       2.985  -1.345  -1.825  0.00  0.00     0.062 H 
ATOM     55  C   LIG d   1       4.902   1.316  -2.611  0.00  0.00    -0.061 A 
ATOM     56  H   LIG d   1       2.932   1.117  -1.805  0.00  0.00     0.062 H 
ATOM     57  C   LIG d   1       6.026   0.653  -3.069  0.00  0.00    -0.059 A 
ATOM     58  H   LIG d   1       4.879   2.396  -2.603  0.00  0.00     0.062 H 
ATOM     59  H   LIG d   1       6.879   1.214  -3.418  0.00  0.00     0.062 H 
ENDBRANCH  46  49
ENDBRANCH  43  46
ENDBRANCH  20  43
TORSDOF 7
ENDMDL
MODEL 5
REMARK VINA RESULT:      -6.9      3.131      7.061
REMARK  7 active torsions:
REMARK  status: ('A' for Active; 'I' for Inactive)
REMARK    1  A    between atoms: C_1  and  C_2 
REMARK    2  A    between atoms: C_16  and  C_19 
REMARK    3  A    between atoms: C_19  and  C_20 
REMARK    4  A    between atoms: C_20  and  C_21 
REMARK       I    between atoms: C_21  and  N_23 
REMARK    5  A    between atoms: N_26  and  C_29 
REMARK    6  A    between atoms: C_29  and  C_30 
REMARK    7  A    between atoms: C_30  and  C_31 
ROOT
ATOM      1  C   LIG d   1      10.272  -0.365  -5.950  0.00  0.00    -0.028 A 
ATOM      2  C   LIG d   1       9.986   0.800  -6.632  0.00  0.00    -0.039 A 
ATOM      3  C   LIG d   1       8.701   1.313  -6.630  0.00  0.00     0.042 A 
ATOM      4  C   LIG d   1       7.697   0.653  -5.939  0.00  0.00    -0.036 A 
ATOM      5  C   LIG d   1       7.979  -0.509  -5.258  0.00  0.00     0.005 A 
ATOM      6  C   LIG d   1       9.268  -1.037  -5.259  0.00  0.00     0.042 A 
ATOM      7  N   LIG d   1       9.306  -2.216  -4.511  0.00  0.00    -0.283 N 
ATOM      8  C   LIG d   1       8.102  -2.530  -3.994  0.00  0.00     0.243 A 
ATOM      9  O   LIG d   1       7.839  -3.492  -3.304  0.00  0.00    -0.273 OA
ATOM     10  C   LIG d   1       7.151  -1.448  -4.428  0.00  0.00     0.136 A 
ATOM     11  C   LIG d   1       5.986  -2.038  -5.233  0.00  0.00     0.080 A 
ATOM     12  H   LIG d   1       6.240  -2.988  -5.703  0.00  0.00     0.043 H 
ATOM     13  C   LIG d   1       4.826  -2.163  -4.206  0.00  0.00     0.065 A 
ATOM     14  H   LIG d   1       4.435  -3.179  -4.133  0.00  0.00     0.042 H 
ATOM     15  C   LIG d   1       5.419  -1.659  -2.874  0.00  0.00     0.021 C 
ATOM     16  H   LIG d   1       5.781  -2.498  -2.278  0.00  0.00     0.047 H 
ATOM     17  N   LIG d   1       6.539  -0.758  -3.277  0.00  0.00    -0.295 N 
ATOM     18  C   LIG d   1       3.799  -1.180  -4.717  0.00  0.00     0.227 A 
ATOM     19  O   LIG d   1       2.727  -0.952  -4.197  0.00  0.00    -0.275 OA
ATOM     20  N   LIG d   1       4.256  -0.599  -5.832  0.00  0.00    -0.241 N 
ATOM     21  C   LIG d   1       5.483  -1.014  -6.225  0.00  0.00     0.228 A 
ATOM     22  O   LIG d   1       6.086  -0.631  -7.204  0.00  0.00    -0.275 OA
ATOM     23 CL   LIG d   1       8.347   2.780  -7.489  0.00  0.00    -0.084 Cl
ATOM     24  H   LIG d   1      10.768   1.315  -7.169  0.00  0.00     0.064 H 
ATOM     25  H   LIG d   1       6.693   1.051  -5.937  0.00  0.00     0.064 H 
ATOM     26  H   LIG d   1      10.107  -2.748  -4.379  0.00  0.00     0.155 HD
ATOM     27  H   LIG d   1       7.203  -0.653  -2.524  0.00  0.00     0.123 HD
ENDROOT
BRANCH  15  28
ATOM     28  C   LIG d   1       4.370  -0.866  -2.091  0.00  0.00    -0.029 C 
ATOM     29  H   LIG d   1       3.511  -0.669  -2.731  0.00  0.00     0.029 H 
ATOM     30  H   LIG d   1       4.052  -1.443  -1.223  0.00  0.00     0.029 H 
BRANCH  28  31
ATOM     31  C   LIG d   1       4.976   0.461  -1.628  0.00  0.00     0.025 C 
ATOM     32  H   LIG d   1       4.454   0.807  -0.737  0.00  0.00     0.036 H 
ATOM     33  H   LIG d   1       6.031   0.317  -1.397  0.00  0.00     0.036 H 
BRANCH  31  34
ATOM     34  C   LIG d   1       4.836   1.485  -2.724  0.00  0.00     0.210 C 
ATOM     35  O   LIG d   1       5.826   1.958  -3.243  0.00  0.00    -0.276 OA
ATOM     36  N   LIG d   1       3.611   1.876  -3.128  0.00  0.00    -0.329 N 
ATOM     37  H   LIG d   1       2.820   1.498  -2.713  0.00  0.00     0.145 HD
ATOM     38  H   LIG d   1       3.521   2.536  -3.834  0.00  0.00     0.145 HD
ENDBRANCH  31  34
ENDBRANCH  28  31
ENDBRANCH  15  28
BRANCH   1  39
ATOM     39  C   LIG d   1      11.675  -0.915  -5.960  0.00  0.00    -0.038 C 
ATOM     40  H   LIG d   1      11.956  -1.175  -6.979  0.00  0.00     0.028 H 
ATOM     41  H   LIG d   1      12.362  -0.163  -5.573  0.00  0.00     0.028 H 
ATOM     42  H   LIG d   1      11.719  -1.805  -5.332  0.00  0.00     0.028 H 
ENDBRANCH   1  39
BRANCH  20  43
ATOM     43  C   LIG d   1       3.487   0.401  -6.577  0.00  0.00     0.026 C 
ATOM     44  H   LIG d   1       2.872   0.977  -5.885  0.00  0.00     0.047 H 
ATOM     45  H   LIG d   1       4.171   1.070  -7.098  0.00  0.00     0.047 H 
BRANCH  43  46
ATOM     46  C   LIG d   1       2.586  -0.303  -7.595  0.00  0.00    -0.011 C 
ATOM     47  H   LIG d   1       2.655  -1.382  -7.455  0.00  0.00     0.033 H 
ATOM     48  H   LIG d   1       1.555   0.018  -7.449  0.00  0.00     0.033 H 
BRANCH  46  49
ATOM     49  C   LIG d   1       3.031   0.052  -8.989  0.00  0.00    -0.046 A 
ATOM     50  C   LIG d   1       2.795  -0.823 -10.034  0.00  0.00    -0.059 A 
ATOM     51  C   LIG d   1       3.201  -0.495 -11.315  0.00  0.00    -0.061 A 
ATOM     52  H   LIG d   1       2.292  -1.760  -9.849  0.00  0.00     0.062 H 
ATOM     53  C   LIG d   1       3.849   0.702 -11.550  0.00  0.00    -0.062 A 
ATOM     54  H   LIG d   1       3.012  -1.177 -12.131  0.00  0.00     0.062 H 
ATOM     55  C   LIG d   1       4.090   1.574 -10.504  0.00  0.00    -0.061 A 
ATOM     56  H   LIG d   1       4.168   0.957 -12.550  0.00  0.00     0.062 H 
ATOM     57  C   LIG d   1       3.682   1.249  -9.224  0.00  0.00    -0.059 A 
ATOM     58  H   LIG d   1       4.597   2.509 -10.688  0.00  0.00     0.062 H 
ATOM     59  H   LIG d   1       3.870   1.931  -8.408  0.00  0.00     0.062 H 
ENDBRANCH  46  49
ENDBRANCH  43  46
ENDBRANCH  20  43
TORSDOF 7
ENDMDL
MODEL 6
REMARK VINA RESULT:      -6.8      3.513      5.564
REMARK  7 active torsions:
REMARK  status: ('A' for Active; 'I' for Inactive)
REMARK    1  A    between atoms: C_1  and  C_2 
REMARK    2  A    between atoms: C_16  and  C_19 
REMARK    3  A    between atoms: C_19  and  C_20 
REMARK    4  A    between atoms: C_20  and  C_21 
REMARK       I    between atoms: C_21  and  N_23 
REMARK    5  A    between atoms: N_26  and  C_29 
REMARK    6  A    between atoms: C_29  and  C_30 
REMARK    7  A    between atoms: C_30  and  C_31 
ROOT
ATOM      1  C   LIG d   1       2.409  -2.059  -9.829  0.00  0.00    -0.028 A 
ATOM      2  C   LIG d   1       2.956  -3.283 -10.157  0.00  0.00    -0.039 A 
ATOM      3  C   LIG d   1       3.952  -3.836  -9.372  0.00  0.00     0.042 A 
ATOM      4  C   LIG d   1       4.401  -3.157  -8.251  0.00  0.00    -0.036 A 
ATOM      5  C   LIG d   1       3.858  -1.937  -7.920  0.00  0.00     0.005 A 
ATOM      6  C   LIG d   1       2.859  -1.369  -8.707  0.00  0.00     0.042 A 
ATOM      7  N   LIG d   1       2.474  -0.134  -8.180  0.00  0.00    -0.283 N 
ATOM      8  C   LIG d   1       3.162   0.180  -7.064  0.00  0.00     0.243 A 
ATOM      9  O   LIG d   1       3.037   1.184  -6.396  0.00  0.00    -0.273 OA
ATOM     10  C   LIG d   1       4.104  -0.964  -6.803  0.00  0.00     0.136 A 
ATOM     11  C   LIG d   1       5.559  -0.477  -6.787  0.00  0.00     0.080 A 
ATOM     12  H   LIG d   1       5.701   0.441  -7.357  0.00  0.00     0.043 H 
ATOM     13  C   LIG d   1       5.897  -0.310  -5.279  0.00  0.00     0.065 A 
ATOM     14  H   LIG d   1       6.243   0.695  -5.033  0.00  0.00     0.042 H 
ATOM     15  C   LIG d   1       4.599  -0.688  -4.536  0.00  0.00     0.021 C 
ATOM     16  H   LIG d   1       4.018   0.205  -4.308  0.00  0.00     0.047 H 
ATOM     17  N   LIG d   1       3.869  -1.581  -5.484  0.00  0.00    -0.295 N 
ATOM     18  C   LIG d   1       6.953  -1.363  -5.039  0.00  0.00     0.227 A 
ATOM     19  O   LIG d   1       7.494  -1.585  -3.976  0.00  0.00    -0.275 OA
ATOM     20  N   LIG d   1       7.200  -2.014  -6.181  0.00  0.00    -0.241 N 
ATOM     21  C   LIG d   1       6.473  -1.592  -7.242  0.00  0.00     0.228 A 
ATOM     22  O   LIG d   1       6.536  -2.030  -8.371  0.00  0.00    -0.275 OA
ATOM     23 CL   LIG d   1       4.636  -5.376  -9.790  0.00  0.00    -0.084 Cl
ATOM     24  H   LIG d   1       2.604  -3.812 -11.031  0.00  0.00     0.064 H 
ATOM     25  H   LIG d   1       5.179  -3.586  -7.637  0.00  0.00     0.064 H 
ATOM     26  H   LIG d   1       1.790   0.433  -8.571  0.00  0.00     0.155 HD
ATOM     27  H   LIG d   1       2.884  -1.605  -5.267  0.00  0.00     0.123 HD
ENDROOT
BRANCH  15  28
ATOM     28  C   LIG d   1       4.925  -1.452  -3.251  0.00  0.00    -0.029 C 
ATOM     29  H   LIG d   1       4.582  -2.482  -3.343  0.00  0.00     0.029 H 
ATOM     30  H   LIG d   1       6.002  -1.442  -3.085  0.00  0.00     0.029 H 
BRANCH  28  31
ATOM     31  C   LIG d   1       4.220  -0.784  -2.068  0.00  0.00     0.025 C 
ATOM     32  H   LIG d   1       3.156  -1.016  -2.101  0.00  0.00     0.036 H 
ATOM     33  H   LIG d   1       4.644  -1.155  -1.136  0.00  0.00     0.036 H 
BRANCH  31  34
ATOM     34  C   LIG d   1       4.411   0.708  -2.149  0.00  0.00     0.210 C 
ATOM     35  O   LIG d   1       5.522   1.185  -2.038  0.00  0.00    -0.276 OA
ATOM     36  N   LIG d   1       3.349   1.514  -2.345  0.00  0.00    -0.329 N 
ATOM     37  H   LIG d   1       2.461   1.134  -2.434  0.00  0.00     0.145 HD
ATOM     38  H   LIG d   1       3.473   2.476  -2.397  0.00  0.00     0.145 HD
ENDBRANCH  31  34
ENDBRANCH  28  31
ENDBRANCH  15  28
BRANCH   1  39
ATOM     39  C   LIG d   1       1.325  -1.466 -10.691  0.00  0.00    -0.038 C 
ATOM     40  H   LIG d   1       1.363  -0.379 -10.626  0.00  0.00     0.028 H 
ATOM     41  H   LIG d   1       1.475  -1.773 -11.726  0.00  0.00     0.028 H 
ATOM     42  H   LIG d   1       0.353  -1.817 -10.345  0.00  0.00     0.028 H 
ENDBRANCH   1  39
BRANCH  20  43
ATOM     43  C   LIG d   1       8.185  -3.095  -6.282  0.00  0.00     0.026 C 
ATOM     44  H   LIG d   1       8.109  -3.566  -7.262  0.00  0.00     0.047 H 
ATOM     45  H   LIG d   1       9.186  -2.685  -6.152  0.00  0.00     0.047 H 
BRANCH  43  46
ATOM     46  C   LIG d   1       7.913  -4.135  -5.193  0.00  0.00    -0.011 C 
ATOM     47  H   LIG d   1       8.812  -4.729  -5.026  0.00  0.00     0.033 H 
ATOM     48  H   LIG d   1       7.634  -3.629  -4.269  0.00  0.00     0.033 H 
BRANCH  46  49
ATOM     49  C   LIG d   1       6.789  -5.038  -5.631  0.00  0.00    -0.046 A 
ATOM     50  C   LIG d   1       5.501  -4.807  -5.183  0.00  0.00    -0.059 A 
ATOM     51  C   LIG d   1       4.470  -5.634  -5.588  0.00  0.00    -0.061 A 
ATOM     52  H   LIG d   1       5.302  -3.979  -4.519  0.00  0.00     0.062 H 
ATOM     53  C   LIG d   1       4.727  -6.696  -6.434  0.00  0.00    -0.062 A 
ATOM     54  H   LIG d   1       3.464  -5.451  -5.242  0.00  0.00     0.062 H 
ATOM     55  C   LIG d   1       6.016  -6.931  -6.877  0.00  0.00    -0.061 A 
ATOM     56  H   LIG d   1       3.922  -7.344  -6.748  0.00  0.00     0.062 H 
ATOM     57  C   LIG d   1       7.047  -6.102  -6.476  0.00  0.00    -0.059 A 
ATOM     58  H   LIG d   1       6.216  -7.761  -7.538  0.00  0.00     0.062 H 
ATOM     59  H   LIG d   1       8.053  -6.285  -6.822  0.00  0.00     0.062 H 
ENDBRANCH  46  49
ENDBRANCH  43  46
ENDBRANCH  20  43
TORSDOF 7
ENDMDL
MODEL 7
REMARK VINA RESULT:      -6.6      2.823      6.636
REMARK  7 active torsions:
REMARK  status: ('A' for Active; 'I' for Inactive)
REMARK    1  A    between atoms: C_1  and  C_2 
REMARK    2  A    between atoms: C_16  and  C_19 
REMARK    3  A    between atoms: C_19  and  C_20 
REMARK    4  A    between atoms: C_20  and  C_21 
REMARK       I    between atoms: C_21  and  N_23 
REMARK    5  A    between atoms: N_26  and  C_29 
REMARK    6  A    between atoms: C_29  and  C_30 
REMARK    7  A    between atoms: C_30  and  C_31 
ROOT
ATOM      1  C   LIG d   1      10.133   0.966  -7.198  0.00  0.00    -0.028 A 
ATOM      2  C   LIG d   1       9.284   1.727  -7.976  0.00  0.00    -0.039 A 
ATOM      3  C   LIG d   1       7.927   1.460  -7.995  0.00  0.00     0.042 A 
ATOM      4  C   LIG d   1       7.418   0.424  -7.229  0.00  0.00    -0.036 A 
ATOM      5  C   LIG d   1       8.262  -0.337  -6.453  0.00  0.00     0.005 A 
ATOM      6  C   LIG d   1       9.630  -0.081  -6.431  0.00  0.00     0.042 A 
ATOM      7  N   LIG d   1      10.276  -0.983  -5.582  0.00  0.00    -0.283 N 
ATOM      8  C   LIG d   1       9.418  -1.853  -5.016  0.00  0.00     0.243 A 
ATOM      9  O   LIG d   1       9.695  -2.742  -4.238  0.00  0.00    -0.273 OA
ATOM     10  C   LIG d   1       8.047  -1.501  -5.527  0.00  0.00     0.136 A 
ATOM     11  C   LIG d   1       7.413  -2.693  -6.254  0.00  0.00     0.080 A 
ATOM     12  H   LIG d   1       8.156  -3.391  -6.642  0.00  0.00     0.043 H 
ATOM     13  C   LIG d   1       6.473  -3.339  -5.197  0.00  0.00     0.065 A 
ATOM     14  H   LIG d   1       6.691  -4.394  -5.027  0.00  0.00     0.042 H 
ATOM     15  C   LIG d   1       6.656  -2.483  -3.927  0.00  0.00     0.021 C 
ATOM     16  H   LIG d   1       7.395  -2.937  -3.266  0.00  0.00     0.047 H 
ATOM     17  N   LIG d   1       7.122  -1.157  -4.430  0.00  0.00    -0.295 N 
ATOM     18  C   LIG d   1       5.095  -3.117  -5.775  0.00  0.00     0.227 A 
ATOM     19  O   LIG d   1       4.054  -3.463  -5.257  0.00  0.00    -0.275 OA
ATOM     20  N   LIG d   1       5.200  -2.478  -6.945  0.00  0.00    -0.241 N 
ATOM     21  C   LIG d   1       6.468  -2.194  -7.323  0.00  0.00     0.228 A 
ATOM     22  O   LIG d   1       6.800  -1.630  -8.344  0.00  0.00    -0.275 OA
ATOM     23 CL   LIG d   1       6.863   2.422  -8.974  0.00  0.00    -0.084 Cl
ATOM     24  H   LIG d   1       9.681   2.536  -8.571  0.00  0.00     0.064 H 
ATOM     25  H   LIG d   1       6.359   0.213  -7.243  0.00  0.00     0.064 H 
ATOM     26  H   LIG d   1      11.232  -0.983  -5.418  0.00  0.00     0.155 HD
ATOM     27  H   LIG d   1       7.599  -0.646  -3.702  0.00  0.00     0.123 HD
ENDROOT
BRANCH  15  28
ATOM     28  C   LIG d   1       5.320  -2.321  -3.198  0.00  0.00    -0.029 C 
ATOM     29  H   LIG d   1       4.510  -2.657  -3.845  0.00  0.00     0.029 H 
ATOM     30  H   LIG d   1       5.329  -2.918  -2.287  0.00  0.00     0.029 H 
BRANCH  28  31
ATOM     31  C   LIG d   1       5.110  -0.848  -2.841  0.00  0.00     0.025 C 
ATOM     32  H   LIG d   1       5.004  -0.747  -1.761  0.00  0.00     0.036 H 
ATOM     33  H   LIG d   1       5.968  -0.267  -3.177  0.00  0.00     0.036 H 
BRANCH  31  34
ATOM     34  C   LIG d   1       3.863  -0.341  -3.518  0.00  0.00     0.210 C 
ATOM     35  O   LIG d   1       3.793   0.817  -3.873  0.00  0.00    -0.276 OA
ATOM     36  N   LIG d   1       2.826  -1.174  -3.730  0.00  0.00    -0.329 N 
ATOM     37  H   LIG d   1       2.881  -2.100  -3.447  0.00  0.00     0.145 HD
ATOM     38  H   LIG d   1       2.022  -0.848  -4.167  0.00  0.00     0.145 HD
ENDBRANCH  31  34
ENDBRANCH  28  31
ENDBRANCH  15  28
BRANCH   1  39
ATOM     39  C   LIG d   1      11.610   1.265  -7.186  0.00  0.00    -0.038 C 
ATOM     40  H   LIG d   1      12.113   0.583  -6.501  0.00  0.00     0.028 H 
ATOM     41  H   LIG d   1      12.015   1.137  -8.189  0.00  0.00     0.028 H 
ATOM     42  H   LIG d   1      11.769   2.293  -6.858  0.00  0.00     0.028 H 
ENDBRANCH   1  39
BRANCH  20  43
ATOM     43  C   LIG d   1       4.037  -2.122  -7.762  0.00  0.00     0.026 C 
ATOM     44  H   LIG d   1       4.333  -2.057  -8.809  0.00  0.00     0.047 H 
ATOM     45  H   LIG d   1       3.266  -2.884  -7.648  0.00  0.00     0.047 H 
BRANCH  43  46
ATOM     46  C   LIG d   1       3.488  -0.769  -7.303  0.00  0.00    -0.011 C 
ATOM     47  H   LIG d   1       2.451  -0.886  -6.988  0.00  0.00     0.033 H 
ATOM     48  H   LIG d   1       4.082  -0.400  -6.467  0.00  0.00     0.033 H 
BRANCH  46  49
ATOM     49  C   LIG d   1       3.558   0.214  -8.442  0.00  0.00    -0.046 A 
ATOM     50  C   LIG d   1       3.195   1.533  -8.241  0.00  0.00    -0.059 A 
ATOM     51  C   LIG d   1       3.263   2.436  -9.286  0.00  0.00    -0.061 A 
ATOM     52  H   LIG d   1       2.861   1.858  -7.267  0.00  0.00     0.062 H 
ATOM     53  C   LIG d   1       3.687   2.018 -10.534  0.00  0.00    -0.062 A 
ATOM     54  H   LIG d   1       2.983   3.466  -9.128  0.00  0.00     0.062 H 
ATOM     55  C   LIG d   1       4.044   0.698 -10.737  0.00  0.00    -0.061 A 
ATOM     56  H   LIG d   1       3.737   2.723 -11.351  0.00  0.00     0.062 H 
ATOM     57  C   LIG d   1       3.980  -0.204  -9.691  0.00  0.00    -0.059 A 
ATOM     58  H   LIG d   1       4.375   0.372 -11.711  0.00  0.00     0.062 H 
ATOM     59  H   LIG d   1       4.260  -1.235  -9.849  0.00  0.00     0.062 H 
ENDBRANCH  46  49
ENDBRANCH  43  46
ENDBRANCH  20  43
TORSDOF 7
ENDMDL
MODEL 8
REMARK VINA RESULT:      -6.6      4.281      6.432
REMARK  7 active torsions:
REMARK  status: ('A' for Active; 'I' for Inactive)
REMARK    1  A    between atoms: C_1  and  C_2 
REMARK    2  A    between atoms: C_16  and  C_19 
REMARK    3  A    between atoms: C_19  and  C_20 
REMARK    4  A    between atoms: C_20  and  C_21 
REMARK       I    between atoms: C_21  and  N_23 
REMARK    5  A    between atoms: N_26  and  C_29 
REMARK    6  A    between atoms: C_29  and  C_30 
REMARK    7  A    between atoms: C_30  and  C_31 
ROOT
ATOM      1  C   LIG d   1       3.525   0.359 -10.096  0.00  0.00    -0.028 A 
ATOM      2  C   LIG d   1       2.596  -0.516 -10.621  0.00  0.00    -0.039 A 
ATOM      3  C   LIG d   1       2.282  -1.685  -9.952  0.00  0.00     0.042 A 
ATOM      4  C   LIG d   1       2.903  -1.979  -8.749  0.00  0.00    -0.036 A 
ATOM      5  C   LIG d   1       3.830  -1.108  -8.222  0.00  0.00     0.005 A 
ATOM      6  C   LIG d   1       4.157   0.069  -8.890  0.00  0.00     0.042 A 
ATOM      7  N   LIG d   1       5.120   0.781  -8.169  0.00  0.00    -0.283 N 
ATOM      8  C   LIG d   1       5.475   0.149  -7.034  0.00  0.00     0.243 A 
ATOM      9  O   LIG d   1       6.283   0.532  -6.215  0.00  0.00    -0.273 OA
ATOM     10  C   LIG d   1       4.663  -1.117  -6.972  0.00  0.00     0.136 A 
ATOM     11  C   LIG d   1       5.578  -2.347  -6.911  0.00  0.00     0.080 A 
ATOM     12  H   LIG d   1       6.564  -2.158  -7.334  0.00  0.00     0.043 H 
ATOM     13  C   LIG d   1       5.629  -2.719  -5.402  0.00  0.00     0.065 A 
ATOM     14  H   LIG d   1       6.647  -2.753  -5.011  0.00  0.00     0.042 H 
ATOM     15  C   LIG d   1       4.759  -1.656  -4.701  0.00  0.00     0.021 C 
ATOM     16  H   LIG d   1       5.382  -0.844  -4.325  0.00  0.00     0.047 H 
ATOM     17  N   LIG d   1       3.825  -1.175  -5.761  0.00  0.00    -0.295 N 
ATOM     18  C   LIG d   1       4.942  -4.063  -5.351  0.00  0.00     0.227 A 
ATOM     19  O   LIG d   1       4.755  -4.717  -4.346  0.00  0.00    -0.275 OA
ATOM     20  N   LIG d   1       4.570  -4.421  -6.585  0.00  0.00    -0.241 N 
ATOM     21  C   LIG d   1       4.885  -3.528  -7.552  0.00  0.00     0.228 A 
ATOM     22  O   LIG d   1       4.653  -3.646  -8.736  0.00  0.00    -0.275 OA
ATOM     23 CL   LIG d   1       1.112  -2.783 -10.617  0.00  0.00    -0.084 Cl
ATOM     24  H   LIG d   1       2.111  -0.287 -11.558  0.00  0.00     0.064 H 
ATOM     25  H   LIG d   1       2.660  -2.892  -8.225  0.00  0.00     0.064 H 
ATOM     26  H   LIG d   1       5.490   1.631  -8.454  0.00  0.00     0.155 HD
ATOM     27  H   LIG d   1       3.460  -0.263  -5.529  0.00  0.00     0.123 HD
ENDROOT
BRANCH  15  28
ATOM     28  C   LIG d   1       3.965  -2.289  -3.556  0.00  0.00    -0.029 C 
ATOM     29  H   LIG d   1       2.899  -2.153  -3.735  0.00  0.00     0.029 H 
ATOM     30  H   LIG d   1       4.191  -3.354  -3.503  0.00  0.00     0.029 H 
BRANCH  28  31
ATOM     31  C   LIG d   1       4.351  -1.619  -2.236  0.00  0.00     0.025 C 
ATOM     32  H   LIG d   1       3.886  -2.152  -1.408  0.00  0.00     0.036 H 
ATOM     33  H   LIG d   1       5.435  -1.643  -2.120  0.00  0.00     0.036 H 
BRANCH  31  34
ATOM     34  C   LIG d   1       3.879  -0.188  -2.243  0.00  0.00     0.210 C 
ATOM     35  O   LIG d   1       2.862   0.112  -2.833  0.00  0.00    -0.276 OA
ATOM     36  N   LIG d   1       4.585   0.757  -1.593  0.00  0.00    -0.329 N 
ATOM     37  H   LIG d   1       5.398   0.518  -1.121  0.00  0.00     0.145 HD
ATOM     38  H   LIG d   1       4.280   1.680  -1.597  0.00  0.00     0.145 HD
ENDBRANCH  31  34
ENDBRANCH  28  31
ENDBRANCH  15  28
BRANCH   1  39
ATOM     39  C   LIG d   1       3.860   1.630 -10.833  0.00  0.00    -0.038 C 
ATOM     40  H   LIG d   1       4.912   1.618 -11.117  0.00  0.00     0.028 H 
ATOM     41  H   LIG d   1       3.243   1.704 -11.728  0.00  0.00     0.028 H 
ATOM     42  H   LIG d   1       3.667   2.486 -10.186  0.00  0.00     0.028 H 
ENDBRANCH   1  39
BRANCH  20  43
ATOM     43  C   LIG d   1       3.882  -5.682  -6.872  0.00  0.00     0.026 C 
ATOM     44  H   LIG d   1       3.452  -6.080  -5.952  0.00  0.00     0.047 H 
ATOM     45  H   LIG d   1       3.089  -5.506  -7.598  0.00  0.00     0.047 H 
BRANCH  43  46
ATOM     46  C   LIG d   1       4.883  -6.690  -7.443  0.00  0.00    -0.011 C 
ATOM     47  H   LIG d   1       4.364  -7.377  -8.112  0.00  0.00     0.033 H 
ATOM     48  H   LIG d   1       5.656  -6.158  -7.997  0.00  0.00     0.033 H 
BRANCH  46  49
ATOM     49  C   LIG d   1       5.513  -7.465  -6.316  0.00  0.00    -0.046 A 
ATOM     50  C   LIG d   1       6.813  -7.191  -5.931  0.00  0.00    -0.059 A 
ATOM     51  C   LIG d   1       7.390  -7.901  -4.894  0.00  0.00    -0.061 A 
ATOM     52  H   LIG d   1       7.375  -6.421  -6.439  0.00  0.00     0.062 H 
ATOM     53  C   LIG d   1       6.672  -8.889  -4.248  0.00  0.00    -0.062 A 
ATOM     54  H   LIG d   1       8.404  -7.684  -4.591  0.00  0.00     0.062 H 
ATOM     55  C   LIG d   1       5.375  -9.167  -4.637  0.00  0.00    -0.061 A 
ATOM     56  H   LIG d   1       7.124  -9.445  -3.440  0.00  0.00     0.062 H 
ATOM     57  C   LIG d   1       4.795  -8.455  -5.671  0.00  0.00    -0.059 A 
ATOM     58  H   LIG d   1       4.814  -9.938  -4.132  0.00  0.00     0.062 H 
ATOM     59  H   LIG d   1       3.782  -8.672  -5.974  0.00  0.00     0.062 H 
ENDBRANCH  46  49
ENDBRANCH  43  46
ENDBRANCH  20  43
TORSDOF 7
ENDMDL
MODEL 9
REMARK VINA RESULT:      -6.6      3.650      5.556
REMARK  7 active torsions:
REMARK  status: ('A' for Active; 'I' for Inactive)
REMARK    1  A    between atoms: C_1  and  C_2 
REMARK    2  A    between atoms: C_16  and  C_19 
REMARK    3  A    between atoms: C_19  and  C_20 
REMARK    4  A    between atoms: C_20  and  C_21 
REMARK       I    between atoms: C_21  and  N_23 
REMARK    5  A    between atoms: N_26  and  C_29 
REMARK    6  A    between atoms: C_29  and  C_30 
REMARK    7  A    between atoms: C_30  and  C_31 
ROOT
ATOM      1  C   LIG d   1       2.700  -2.123 -10.901  0.00  0.00    -0.028 A 
ATOM      2  C   LIG d   1       2.682  -3.498 -10.789  0.00  0.00    -0.039 A 
ATOM      3  C   LIG d   1       3.116  -4.109  -9.627  0.00  0.00     0.042 A 
ATOM      4  C   LIG d   1       3.571  -3.337  -8.571  0.00  0.00    -0.036 A 
ATOM      5  C   LIG d   1       3.591  -1.965  -8.679  0.00  0.00     0.005 A 
ATOM      6  C   LIG d   1       3.162  -1.340  -9.847  0.00  0.00     0.042 A 
ATOM      7  N   LIG d   1       3.281   0.047  -9.724  0.00  0.00    -0.283 N 
ATOM      8  C   LIG d   1       3.776   0.410  -8.524  0.00  0.00     0.243 A 
ATOM      9  O   LIG d   1       3.984   1.541  -8.140  0.00  0.00    -0.273 OA
ATOM     10  C   LIG d   1       4.007  -0.860  -7.750  0.00  0.00     0.136 A 
ATOM     11  C   LIG d   1       5.480  -0.989  -7.343  0.00  0.00     0.080 A 
ATOM     12  H   LIG d   1       6.147  -0.426  -7.996  0.00  0.00     0.043 H 
ATOM     13  C   LIG d   1       5.520  -0.494  -5.869  0.00  0.00     0.065 A 
ATOM     14  H   LIG d   1       6.225   0.324  -5.718  0.00  0.00     0.042 H 
ATOM     15  C   LIG d   1       4.067  -0.091  -5.545  0.00  0.00     0.021 C 
ATOM     16  H   LIG d   1       3.927   0.979  -5.699  0.00  0.00     0.047 H 
ATOM     17  N   LIG d   1       3.235  -0.888  -6.494  0.00  0.00    -0.295 N 
ATOM     18  C   LIG d   1       5.895  -1.736  -5.095  0.00  0.00     0.227 A 
ATOM     19  O   LIG d   1       6.029  -1.798  -3.890  0.00  0.00    -0.275 OA
ATOM     20  N   LIG d   1       6.057  -2.757  -5.943  0.00  0.00    -0.241 N 
ATOM     21  C   LIG d   1       5.855  -2.450  -7.245  0.00  0.00     0.228 A 
ATOM     22  O   LIG d   1       5.954  -3.212  -8.183  0.00  0.00    -0.275 OA
ATOM     23 CL   LIG d   1       3.089  -5.840  -9.490  0.00  0.00    -0.084 Cl
ATOM     24  H   LIG d   1       2.326  -4.100 -11.612  0.00  0.00     0.064 H 
ATOM     25  H   LIG d   1       3.911  -3.812  -7.662  0.00  0.00     0.064 H 
ATOM     26  H   LIG d   1       3.037   0.675 -10.421  0.00  0.00     0.155 HD
ATOM     27  H   LIG d   1       2.328  -0.463  -6.618  0.00  0.00     0.123 HD
ENDROOT
BRANCH  15  28
ATOM     28  C   LIG d   1       3.718  -0.471  -4.104  0.00  0.00    -0.029 C 
ATOM     29  H   LIG d   1       2.718  -0.903  -4.074  0.00  0.00     0.029 H 
ATOM     30  H   LIG d   1       4.440  -1.200  -3.736  0.00  0.00     0.029 H 
BRANCH  28  31
ATOM     31  C   LIG d   1       3.761   0.780  -3.223  0.00  0.00     0.025 C 
ATOM     32  H   LIG d   1       4.336   1.558  -3.724  0.00  0.00     0.036 H 
ATOM     33  H   LIG d   1       2.746   1.135  -3.048  0.00  0.00     0.036 H 
BRANCH  31  34
ATOM     34  C   LIG d   1       4.410   0.443  -1.906  0.00  0.00     0.210 C 
ATOM     35  O   LIG d   1       4.846   1.329  -1.200  0.00  0.00    -0.276 OA
ATOM     36  N   LIG d   1       4.506  -0.842  -1.511  0.00  0.00    -0.329 N 
ATOM     37  H   LIG d   1       4.157  -1.550  -2.075  0.00  0.00     0.145 HD
ATOM     38  H   LIG d   1       4.924  -1.059  -0.662  0.00  0.00     0.145 HD
ENDBRANCH  31  34
ENDBRANCH  28  31
ENDBRANCH  15  28
BRANCH   1  39
ATOM     39  C   LIG d   1       2.226  -1.467 -12.173  0.00  0.00    -0.038 C 
ATOM     40  H   LIG d   1       2.845  -0.596 -12.385  0.00  0.00     0.028 H 
ATOM     41  H   LIG d   1       2.301  -2.176 -12.997  0.00  0.00     0.028 H 
ATOM     42  H   LIG d   1       1.188  -1.155 -12.055  0.00  0.00     0.028 H 
ENDBRANCH   1  39
BRANCH  20  43
ATOM     43  C   LIG d   1       6.432  -4.103  -5.501  0.00  0.00     0.026 C 
ATOM     44  H   LIG d   1       6.205  -4.215  -4.440  0.00  0.00     0.047 H 
ATOM     45  H   LIG d   1       5.871  -4.842  -6.073  0.00  0.00     0.047 H 
BRANCH  43  46
ATOM     46  C   LIG d   1       7.931  -4.314  -5.725  0.00  0.00    -0.011 C 
ATOM     47  H   LIG d   1       8.080  -5.094  -6.473  0.00  0.00     0.033 H 
ATOM     48  H   LIG d   1       8.380  -3.385  -6.076  0.00  0.00     0.033 H 
BRANCH  46  49
ATOM     49  C   LIG d   1       8.580  -4.729  -4.431  0.00  0.00    -0.046 A 
ATOM     50  C   LIG d   1       8.937  -3.773  -3.498  0.00  0.00    -0.059 A 
ATOM     51  C   LIG d   1       9.528  -4.155  -2.308  0.00  0.00    -0.061 A 
ATOM     52  H   LIG d   1       8.750  -2.728  -3.698  0.00  0.00     0.062 H 
ATOM     53  C   LIG d   1       9.770  -5.492  -2.054  0.00  0.00    -0.062 A 
ATOM     54  H   LIG d   1       9.803  -3.408  -1.578  0.00  0.00     0.062 H 
ATOM     55  C   LIG d   1       9.419  -6.448  -2.990  0.00  0.00    -0.061 A 
ATOM     56  H   LIG d   1      10.235  -5.790  -1.126  0.00  0.00     0.062 H 
ATOM     57  C   LIG d   1       8.824  -6.067  -4.178  0.00  0.00    -0.059 A 
ATOM     58  H   LIG d   1       9.609  -7.492  -2.791  0.00  0.00     0.062 H 
ATOM     59  H   LIG d   1       8.549  -6.813  -4.908  0.00  0.00     0.062 H 
ENDBRANCH  46  49
ENDBRANCH  43  46
ENDBRANCH  20  43
TORSDOF 7
ENDMDL
