MODEL 1
REMARK VINA RESULT:      -5.3      0.000      0.000
REMARK  16 active torsions:
REMARK  status: ('A' for Active; 'I' for Inactive)
REMARK    1  A    between atoms: C_1  and  C_2 
REMARK    2  A    between atoms: C_2  and  C_3 
REMARK       I    between atoms: N_6  and  C_25 
REMARK    3  A    between atoms: C_9  and  C_11 
REMARK    4  A    between atoms: C_11  and  C_12 
REMARK       I    between atoms: C_12  and  N_14 
REMARK    5  A    between atoms: N_14  and  C_15 
REMARK       I    between atoms: N_14  and  C_17 
REMARK    6  A    between atoms: C_15  and  C_16 
REMARK       I    between atoms: C_17  and  N_19 
REMARK    7  A    between atoms: N_19  and  C_20 
REMARK    8  A    between atoms: C_20  and  C_21 
REMARK    9  A    between atoms: C_21  and  C_22 
REMARK   10  A    between atoms: C_22  and  N_71 
REMARK   11  A    between atoms: C_23  and  N_71 
REMARK   12  A    between atoms: C_24  and  N_71 
REMARK   13  A    between atoms: C_25  and  C_27 
REMARK   14  A    between atoms: C_27  and  C_28 
REMARK   15  A    between atoms: C_27  and  C_29 
REMARK   16  A    between atoms: C_27  and  C_30 
ROOT
ATOM      1  C   LIG d   1       6.212  -2.416  -6.317  0.00  0.00    -0.022 C 
ATOM      2  H   LIG d   1       6.989  -2.551  -7.070  0.00  0.00     0.032 H 
ATOM      3  C   LIG d   1       6.693  -1.418  -5.259  0.00  0.00     0.018 C 
ATOM      4  N   LIG d   1       5.692  -1.347  -4.186  0.00  0.00    -0.301 N 
ATOM      5  C   LIG d   1       5.262  -2.592  -3.536  0.00  0.00     0.015 C 
ATOM      6  C   LIG d   1       4.797  -3.577  -4.614  0.00  0.00    -0.034 C 
ATOM      7  C   LIG d   1       5.910  -3.759  -5.647  0.00  0.00    -0.027 C 
ATOM      8  H   LIG d   1       6.809  -4.127  -5.152  0.00  0.00     0.031 H 
ATOM      9  C   LIG d   1       5.176  -0.161  -3.806  0.00  0.00     0.221 C 
ATOM     10  O   LIG d   1       5.604   0.867  -4.286  0.00  0.00    -0.275 OA
ATOM     11  H   LIG d   1       6.814  -0.435  -5.712  0.00  0.00     0.047 H 
ATOM     12  H   LIG d   1       7.646  -1.752  -4.847  0.00  0.00     0.047 H 
ATOM     13  H   LIG d   1       4.439  -2.383  -2.853  0.00  0.00     0.046 H 
ATOM     14  H   LIG d   1       6.096  -3.025  -2.983  0.00  0.00     0.046 H 
ATOM     15  H   LIG d   1       3.906  -3.185  -5.104  0.00  0.00     0.028 H 
ATOM     16  H   LIG d   1       4.567  -4.538  -4.154  0.00  0.00     0.028 H 
ENDROOT
BRANCH   7  17
ATOM     17  C   LIG d   1       5.463  -4.768  -6.707  0.00  0.00     0.028 C 
ATOM     18  H   LIG d   1       6.297  -4.990  -7.373  0.00  0.00     0.036 H 
ATOM     19  H   LIG d   1       4.640  -4.347  -7.284  0.00  0.00     0.036 H 
BRANCH  17  20
ATOM     20  C   LIG d   1       5.007  -6.036  -6.033  0.00  0.00     0.223 C 
ATOM     21  O   LIG d   1       3.847  -6.166  -5.707  0.00  0.00    -0.275 OA
ATOM     22  N   LIG d   1       5.889  -7.026  -5.793  0.00  0.00    -0.226 N 
ATOM     23  C   LIG d   1       5.482  -8.161  -5.191  0.00  0.00     0.308 C 
ATOM     24  O   LIG d   1       4.318  -8.291  -4.863  0.00  0.00    -0.252 OA
ATOM     25  N   LIG d   1       6.362  -9.153  -4.955  0.00  0.00    -0.299 N 
ATOM     26  H   LIG d   1       7.291  -9.049  -5.217  0.00  0.00     0.150 HD
BRANCH  22  27
ATOM     27  C   LIG d   1       7.292  -6.870  -6.188  0.00  0.00     0.021 C 
ATOM     28  H   LIG d   1       7.673  -7.821  -6.557  0.00  0.00     0.047 H 
ATOM     29  H   LIG d   1       7.365  -6.119  -6.975  0.00  0.00     0.047 H 
BRANCH  27  30
ATOM     30  C   LIG d   1       8.115  -6.422  -4.979  0.00  0.00    -0.049 C 
ATOM     31  H   LIG d   1       8.919  -5.763  -5.310  0.00  0.00     0.025 H 
ATOM     32  H   LIG d   1       7.473  -5.888  -4.280  0.00  0.00     0.025 H 
ATOM     33  H   LIG d   1       8.542  -7.296  -4.487  0.00  0.00     0.025 H 
ENDBRANCH  27  30
ENDBRANCH  22  27
BRANCH  25  34
ATOM     34  C   LIG d   1       5.918 -10.388  -4.305  0.00  0.00     0.018 C 
ATOM     35  H   LIG d   1       4.914 -10.248  -3.905  0.00  0.00     0.046 H 
ATOM     36  H   LIG d   1       5.909 -11.200  -5.034  0.00  0.00     0.046 H 
BRANCH  34  37
ATOM     37  C   LIG d   1       6.877 -10.739  -3.165  0.00  0.00     0.003 C 
ATOM     38  H   LIG d   1       6.853 -11.814  -2.989  0.00  0.00     0.033 H 
ATOM     39  H   LIG d   1       7.889 -10.438  -3.436  0.00  0.00     0.033 H 
BRANCH  37  40
ATOM     40  C   LIG d   1       6.449 -10.003  -1.895  0.00  0.00    -0.031 C 
ATOM     41  H   LIG d   1       5.829  -9.148  -2.161  0.00  0.00     0.082 H 
ATOM     42  H   LIG d   1       5.881 -10.680  -1.257  0.00  0.00     0.082 H 
BRANCH  40  43
ATOM     43  N   LIG d   1       7.659  -9.559  -1.170  0.00  0.00     0.231 N 
ATOM     44  H   LIG d   1       7.376  -8.997  -0.360  0.00  0.00     0.203 HD
BRANCH  43  45
ATOM     45  C   LIG d   1       8.423 -10.733  -0.698  0.00  0.00    -0.043 C 
ATOM     46  H   LIG d   1       9.279 -10.919  -1.347  0.00  0.00     0.078 H 
ATOM     47  H   LIG d   1       8.772 -10.544   0.317  0.00  0.00     0.078 H 
ATOM     48  H   LIG d   1       7.769 -11.605  -0.700  0.00  0.00     0.078 H 
ENDBRANCH  43  45
BRANCH  43  49
ATOM     49  C   LIG d   1       8.503  -8.730  -2.056  0.00  0.00    -0.043 C 
ATOM     50  H   LIG d   1       8.966  -9.373  -2.805  0.00  0.00     0.078 H 
ATOM     51  H   LIG d   1       7.875  -7.989  -2.551  0.00  0.00     0.078 H 
ATOM     52  H   LIG d   1       9.279  -8.224  -1.482  0.00  0.00     0.078 H 
ENDBRANCH  43  49
ENDBRANCH  40  43
ENDBRANCH  37  40
ENDBRANCH  34  37
ENDBRANCH  25  34
ENDBRANCH  17  20
ENDBRANCH   7  17
BRANCH   1  53
ATOM     53  C   LIG d   1       4.942  -1.882  -6.983  0.00  0.00    -0.051 C 
ATOM     54  H   LIG d   1       4.601  -2.590  -7.737  0.00  0.00     0.027 H 
ATOM     55  H   LIG d   1       4.164  -1.751  -6.230  0.00  0.00     0.027 H 
BRANCH  53  56
ATOM     56  C   LIG d   1       5.241  -0.535  -7.645  0.00  0.00    -0.065 C 
ATOM     57  H   LIG d   1       5.097   0.266  -6.920  0.00  0.00     0.023 H 
ATOM     58  H   LIG d   1       6.272  -0.524  -7.998  0.00  0.00     0.023 H 
ATOM     59  H   LIG d   1       4.566  -0.387  -8.488  0.00  0.00     0.023 H 
ENDBRANCH  53  56
ENDBRANCH   1  53
BRANCH   9  60
ATOM     60  C   LIG d   1       4.068  -0.114  -2.786  0.00  0.00     0.039 C 
BRANCH  60  61
ATOM     61  C   LIG d   1       4.460  -0.953  -1.568  0.00  0.00    -0.052 C 
ATOM     62  H   LIG d   1       5.546  -1.045  -1.525  0.00  0.00     0.024 H 
ATOM     63  H   LIG d   1       4.100  -0.468  -0.660  0.00  0.00     0.024 H 
ATOM     64  H   LIG d   1       4.015  -1.945  -1.652  0.00  0.00     0.024 H 
ENDBRANCH  60  61
BRANCH  60  65
ATOM     65  C   LIG d   1       3.833   1.335  -2.353  0.00  0.00    -0.052 C 
ATOM     66  H   LIG d   1       4.335   1.515  -1.403  0.00  0.00     0.024 H 
ATOM     67  H   LIG d   1       4.233   2.010  -3.110  0.00  0.00     0.024 H 
ATOM     68  H   LIG d   1       2.763   1.510  -2.238  0.00  0.00     0.024 H 
ENDBRANCH  60  65
BRANCH  60  69
ATOM     69  C   LIG d   1       2.785  -0.677  -3.400  0.00  0.00    -0.052 C 
ATOM     70  H   LIG d   1       2.455  -1.542  -2.825  0.00  0.00     0.024 H 
ATOM     71  H   LIG d   1       2.008   0.088  -3.384  0.00  0.00     0.024 H 
ATOM     72  H   LIG d   1       2.977  -0.977  -4.431  0.00  0.00     0.024 H 
ENDBRANCH  60  69
ENDBRANCH   9  60
TORSDOF 16
ENDMDL
MODEL 2
REMARK VINA RESULT:      -5.3      1.393      1.892
REMARK  16 active torsions:
REMARK  status: ('A' for Active; 'I' for Inactive)
REMARK    1  A    between atoms: C_1  and  C_2 
REMARK    2  A    between atoms: C_2  and  C_3 
REMARK       I    between atoms: N_6  and  C_25 
REMARK    3  A    between atoms: C_9  and  C_11 
REMARK    4  A    between atoms: C_11  and  C_12 
REMARK       I    between atoms: C_12  and  N_14 
REMARK    5  A    between atoms: N_14  and  C_15 
REMARK       I    between atoms: N_14  and  C_17 
REMARK    6  A    between atoms: C_15  and  C_16 
REMARK       I    between atoms: C_17  and  N_19 
REMARK    7  A    between atoms: N_19  and  C_20 
REMARK    8  A    between atoms: C_20  and  C_21 
REMARK    9  A    between atoms: C_21  and  C_22 
REMARK   10  A    between atoms: C_22  and  N_71 
REMARK   11  A    between atoms: C_23  and  N_71 
REMARK   12  A    between atoms: C_24  and  N_71 
REMARK   13  A    between atoms: C_25  and  C_27 
REMARK   14  A    between atoms: C_27  and  C_28 
REMARK   15  A    between atoms: C_27  and  C_29 
REMARK   16  A    between atoms: C_27  and  C_30 
ROOT
ATOM      1  C   LIG d   1       7.082  -1.980  -5.894  0.00  0.00    -0.022 C 
ATOM      2  H   LIG d   1       7.994  -2.041  -6.487  0.00  0.00     0.032 H 
ATOM      3  C   LIG d   1       7.279  -0.972  -4.757  0.00  0.00     0.018 C 
ATOM      4  N   LIG d   1       6.091  -0.997  -3.892  0.00  0.00    -0.301 N 
ATOM      5  C   LIG d   1       5.644  -2.284  -3.342  0.00  0.00     0.015 C 
ATOM      6  C   LIG d   1       5.467  -3.278  -4.495  0.00  0.00    -0.034 C 
ATOM      7  C   LIG d   1       6.764  -3.355  -5.301  0.00  0.00    -0.027 C 
ATOM      8  H   LIG d   1       7.579  -3.666  -4.648  0.00  0.00     0.031 H 
ATOM      9  C   LIG d   1       5.424   0.139  -3.608  0.00  0.00     0.221 C 
ATOM     10  O   LIG d   1       5.854   1.206  -3.992  0.00  0.00    -0.275 OA
ATOM     11  H   LIG d   1       7.407   0.027  -5.173  0.00  0.00     0.047 H 
ATOM     12  H   LIG d   1       8.160  -1.242  -4.175  0.00  0.00     0.047 H 
ATOM     13  H   LIG d   1       4.694  -2.150  -2.825  0.00  0.00     0.046 H 
ATOM     14  H   LIG d   1       6.390  -2.665  -2.644  0.00  0.00     0.046 H 
ATOM     15  H   LIG d   1       4.656  -2.943  -5.142  0.00  0.00     0.028 H 
ATOM     16  H   LIG d   1       5.228  -4.262  -4.093  0.00  0.00     0.028 H 
ENDROOT
BRANCH   7  17
ATOM     17  C   LIG d   1       6.602  -4.372  -6.433  0.00  0.00     0.028 C 
ATOM     18  H   LIG d   1       7.385  -4.218  -7.175  0.00  0.00     0.036 H 
ATOM     19  H   LIG d   1       5.626  -4.241  -6.901  0.00  0.00     0.036 H 
BRANCH  17  20
ATOM     20  C   LIG d   1       6.708  -5.768  -5.873  0.00  0.00     0.223 C 
ATOM     21  O   LIG d   1       7.752  -6.149  -5.390  0.00  0.00    -0.275 OA
ATOM     22  N   LIG d   1       5.641  -6.591  -5.908  0.00  0.00    -0.226 N 
ATOM     23  C   LIG d   1       5.735  -7.837  -5.407  0.00  0.00     0.308 C 
ATOM     24  O   LIG d   1       6.783  -8.221  -4.923  0.00  0.00    -0.252 OA
ATOM     25  N   LIG d   1       4.667  -8.659  -5.438  0.00  0.00    -0.299 N 
ATOM     26  H   LIG d   1       3.831  -8.353  -5.824  0.00  0.00     0.150 HD
BRANCH  22  27
ATOM     27  C   LIG d   1       4.378  -6.129  -6.492  0.00  0.00     0.021 C 
ATOM     28  H   LIG d   1       3.544  -6.564  -5.942  0.00  0.00     0.047 H 
ATOM     29  H   LIG d   1       4.327  -5.041  -6.430  0.00  0.00     0.047 H 
BRANCH  27  30
ATOM     30  C   LIG d   1       4.306  -6.561  -7.958  0.00  0.00    -0.049 C 
ATOM     31  H   LIG d   1       4.730  -7.559  -8.064  0.00  0.00     0.025 H 
ATOM     32  H   LIG d   1       3.265  -6.573  -8.280  0.00  0.00     0.025 H 
ATOM     33  H   LIG d   1       4.869  -5.859  -8.572  0.00  0.00     0.025 H 
ENDBRANCH  27  30
ENDBRANCH  22  27
BRANCH  25  34
ATOM     34  C   LIG d   1       4.769 -10.013  -4.888  0.00  0.00     0.018 C 
ATOM     35  H   LIG d   1       4.221 -10.707  -5.526  0.00  0.00     0.046 H 
ATOM     36  H   LIG d   1       5.817 -10.310  -4.844  0.00  0.00     0.046 H 
BRANCH  34  37
ATOM     37  C   LIG d   1       4.172 -10.038  -3.479  0.00  0.00     0.003 C 
ATOM     38  H   LIG d   1       4.114  -9.020  -3.092  0.00  0.00     0.033 H 
ATOM     39  H   LIG d   1       3.172 -10.470  -3.515  0.00  0.00     0.033 H 
BRANCH  37  40
ATOM     40  C   LIG d   1       5.060 -10.883  -2.564  0.00  0.00    -0.031 C 
ATOM     41  H   LIG d   1       4.831 -10.655  -1.523  0.00  0.00     0.082 H 
ATOM     42  H   LIG d   1       4.876 -11.939  -2.755  0.00  0.00     0.082 H 
BRANCH  40  43
ATOM     43  N   LIG d   1       6.477 -10.578  -2.860  0.00  0.00     0.231 N 
ATOM     44  H   LIG d   1       6.527 -10.040  -3.733  0.00  0.00     0.203 HD
BRANCH  43  45
ATOM     45  C   LIG d   1       7.059  -9.773  -1.766  0.00  0.00    -0.043 C 
ATOM     46  H   LIG d   1       7.946  -9.242  -2.112  0.00  0.00     0.078 H 
ATOM     47  H   LIG d   1       6.317  -9.053  -1.422  0.00  0.00     0.078 H 
ATOM     48  H   LIG d   1       7.331 -10.436  -0.945  0.00  0.00     0.078 H 
ENDBRANCH  43  45
BRANCH  43  49
ATOM     49  C   LIG d   1       7.240 -11.833  -3.026  0.00  0.00    -0.043 C 
ATOM     50  H   LIG d   1       7.279 -12.351  -2.067  0.00  0.00     0.078 H 
ATOM     51  H   LIG d   1       6.734 -12.460  -3.759  0.00  0.00     0.078 H 
ATOM     52  H   LIG d   1       8.254 -11.622  -3.366  0.00  0.00     0.078 H 
ENDBRANCH  43  49
ENDBRANCH  40  43
ENDBRANCH  37  40
ENDBRANCH  34  37
ENDBRANCH  25  34
ENDBRANCH  17  20
ENDBRANCH   7  17
BRANCH   1  53
ATOM     53  C   LIG d   1       5.922  -1.527  -6.783  0.00  0.00    -0.051 C 
ATOM     54  H   LIG d   1       5.805  -2.226  -7.611  0.00  0.00     0.027 H 
ATOM     55  H   LIG d   1       5.004  -1.501  -6.197  0.00  0.00     0.027 H 
BRANCH  53  56
ATOM     56  C   LIG d   1       6.216  -0.130  -7.332  0.00  0.00    -0.065 C 
ATOM     57  H   LIG d   1       6.689   0.473  -6.557  0.00  0.00     0.023 H 
ATOM     58  H   LIG d   1       6.884  -0.209  -8.189  0.00  0.00     0.023 H 
ATOM     59  H   LIG d   1       5.283   0.342  -7.641  0.00  0.00     0.023 H 
ENDBRANCH  53  56
ENDBRANCH   1  53
BRANCH   9  60
ATOM     60  C   LIG d   1       4.145   0.083  -2.815  0.00  0.00     0.039 C 
BRANCH  60  61
ATOM     61  C   LIG d   1       4.343  -0.813  -1.590  0.00  0.00    -0.052 C 
ATOM     62  H   LIG d   1       3.700  -1.689  -1.674  0.00  0.00     0.024 H 
ATOM     63  H   LIG d   1       5.384  -1.130  -1.536  0.00  0.00     0.024 H 
ATOM     64  H   LIG d   1       4.084  -0.257  -0.688  0.00  0.00     0.024 H 
ENDBRANCH  60  61
BRANCH  60  65
ATOM     65  C   LIG d   1       3.763   1.494  -2.359  0.00  0.00    -0.052 C 
ATOM     66  H   LIG d   1       3.186   1.984  -3.142  0.00  0.00     0.024 H 
ATOM     67  H   LIG d   1       3.166   1.432  -1.450  0.00  0.00     0.024 H 
ATOM     68  H   LIG d   1       4.669   2.067  -2.161  0.00  0.00     0.024 H 
ENDBRANCH  60  65
BRANCH  60  69
ATOM     69  C   LIG d   1       3.027  -0.489  -3.689  0.00  0.00    -0.052 C 
ATOM     70  H   LIG d   1       3.358  -1.428  -4.134  0.00  0.00     0.024 H 
ATOM     71  H   LIG d   1       2.142  -0.669  -3.077  0.00  0.00     0.024 H 
ATOM     72  H   LIG d   1       2.783   0.222  -4.479  0.00  0.00     0.024 H 
ENDBRANCH  60  69
ENDBRANCH   9  60
TORSDOF 16
ENDMDL
MODEL 3
REMARK VINA RESULT:      -5.3      8.035     11.406
REMARK  16 active torsions:
REMARK  status: ('A' for Active; 'I' for Inactive)
REMARK    1  A    between atoms: C_1  and  C_2 
REMARK    2  A    between atoms: C_2  and  C_3 
REMARK       I    between atoms: N_6  and  C_25 
REMARK    3  A    between atoms: C_9  and  C_11 
REMARK    4  A    between atoms: C_11  and  C_12 
REMARK       I    between atoms: C_12  and  N_14 
REMARK    5  A    between atoms: N_14  and  C_15 
REMARK       I    between atoms: N_14  and  C_17 
REMARK    6  A    between atoms: C_15  and  C_16 
REMARK       I    between atoms: C_17  and  N_19 
REMARK    7  A    between atoms: N_19  and  C_20 
REMARK    8  A    between atoms: C_20  and  C_21 
REMARK    9  A    between atoms: C_21  and  C_22 
REMARK   10  A    between atoms: C_22  and  N_71 
REMARK   11  A    between atoms: C_23  and  N_71 
REMARK   12  A    between atoms: C_24  and  N_71 
REMARK   13  A    between atoms: C_25  and  C_27 
REMARK   14  A    between atoms: C_27  and  C_28 
REMARK   15  A    between atoms: C_27  and  C_29 
REMARK   16  A    between atoms: C_27  and  C_30 
ROOT
ATOM      1  C   LIG d   1      11.491   5.652  -1.132  0.00  0.00    -0.022 C 
ATOM      2  H   LIG d   1      11.615   4.578  -0.987  0.00  0.00     0.032 H 
ATOM      3  C   LIG d   1      11.029   6.294   0.180  0.00  0.00     0.018 C 
ATOM      4  N   LIG d   1      10.740   7.714  -0.065  0.00  0.00    -0.301 N 
ATOM      5  C   LIG d   1       9.812   8.070  -1.147  0.00  0.00     0.015 C 
ATOM      6  C   LIG d   1      10.286   7.407  -2.444  0.00  0.00    -0.034 C 
ATOM      7  C   LIG d   1      10.439   5.902  -2.216  0.00  0.00    -0.027 C 
ATOM      8  H   LIG d   1       9.484   5.484  -1.898  0.00  0.00     0.031 H 
ATOM      9  C   LIG d   1      11.317   8.672   0.687  0.00  0.00     0.221 C 
ATOM     10  O   LIG d   1      12.010   8.363   1.634  0.00  0.00    -0.275 OA
ATOM     11  H   LIG d   1      11.817   6.205   0.927  0.00  0.00     0.047 H 
ATOM     12  H   LIG d   1      10.128   5.795   0.536  0.00  0.00     0.047 H 
ATOM     13  H   LIG d   1       9.797   9.152  -1.274  0.00  0.00     0.046 H 
ATOM     14  H   LIG d   1       8.810   7.717  -0.902  0.00  0.00     0.046 H 
ATOM     15  H   LIG d   1      11.247   7.829  -2.738  0.00  0.00     0.028 H 
ATOM     16  H   LIG d   1       9.555   7.583  -3.232  0.00  0.00     0.028 H 
ENDROOT
BRANCH   7  17
ATOM     17  C   LIG d   1      10.880   5.231  -3.519  0.00  0.00     0.028 C 
ATOM     18  H   LIG d   1      11.762   4.618  -3.331  0.00  0.00     0.036 H 
ATOM     19  H   LIG d   1      11.120   5.996  -4.258  0.00  0.00     0.036 H 
BRANCH  17  20
ATOM     20  C   LIG d   1       9.765   4.361  -4.039  0.00  0.00     0.223 C 
ATOM     21  O   LIG d   1       8.924   4.829  -4.776  0.00  0.00    -0.275 OA
ATOM     22  N   LIG d   1       9.702   3.062  -3.685  0.00  0.00    -0.226 N 
ATOM     23  C   LIG d   1       8.706   2.284  -4.150  0.00  0.00     0.308 C 
ATOM     24  O   LIG d   1       7.862   2.753  -4.890  0.00  0.00    -0.252 OA
ATOM     25  N   LIG d   1       8.646   0.984  -3.801  0.00  0.00    -0.299 N 
ATOM     26  H   LIG d   1       9.319   0.609  -3.211  0.00  0.00     0.150 HD
BRANCH  22  27
ATOM     27  C   LIG d   1      10.719   2.496  -2.794  0.00  0.00     0.021 C 
ATOM     28  H   LIG d   1      11.109   3.279  -2.144  0.00  0.00     0.047 H 
ATOM     29  H   LIG d   1      10.272   1.708  -2.187  0.00  0.00     0.047 H 
BRANCH  27  30
ATOM     30  C   LIG d   1      11.860   1.911  -3.629  0.00  0.00    -0.049 C 
ATOM     31  H   LIG d   1      12.814   2.273  -3.246  0.00  0.00     0.025 H 
ATOM     32  H   LIG d   1      11.834   0.823  -3.567  0.00  0.00     0.025 H 
ATOM     33  H   LIG d   1      11.745   2.219  -4.668  0.00  0.00     0.025 H 
ENDBRANCH  27  30
ENDBRANCH  22  27
BRANCH  25  34
ATOM     34  C   LIG d   1       7.565   0.137  -4.311  0.00  0.00     0.018 C 
ATOM     35  H   LIG d   1       7.263   0.487  -5.299  0.00  0.00     0.046 H 
ATOM     36  H   LIG d   1       7.914  -0.894  -4.382  0.00  0.00     0.046 H 
BRANCH  34  37
ATOM     37  C   LIG d   1       6.370   0.205  -3.359  0.00  0.00     0.003 C 
ATOM     38  H   LIG d   1       6.672   0.694  -2.432  0.00  0.00     0.033 H 
ATOM     39  H   LIG d   1       5.566   0.776  -3.824  0.00  0.00     0.033 H 
BRANCH  37  40
ATOM     40  C   LIG d   1       5.878  -1.211  -3.054  0.00  0.00    -0.031 C 
ATOM     41  H   LIG d   1       5.548  -1.687  -3.976  0.00  0.00     0.082 H 
ATOM     42  H   LIG d   1       6.690  -1.790  -2.616  0.00  0.00     0.082 H 
BRANCH  40  43
ATOM     43  N   LIG d   1       4.764  -1.130  -2.085  0.00  0.00     0.231 N 
ATOM     44  H   LIG d   1       5.043  -1.600  -1.216  0.00  0.00     0.203 HD
BRANCH  43  45
ATOM     45  C   LIG d   1       4.455   0.284  -1.788  0.00  0.00    -0.043 C 
ATOM     46  H   LIG d   1       3.376   0.443  -1.766  0.00  0.00     0.078 H 
ATOM     47  H   LIG d   1       4.880   0.544  -0.819  0.00  0.00     0.078 H 
ATOM     48  H   LIG d   1       4.899   0.913  -2.560  0.00  0.00     0.078 H 
ENDBRANCH  43  45
BRANCH  43  49
ATOM     49  C   LIG d   1       3.569  -1.805  -2.633  0.00  0.00    -0.043 C 
ATOM     50  H   LIG d   1       2.680  -1.390  -2.157  0.00  0.00     0.078 H 
ATOM     51  H   LIG d   1       3.524  -1.628  -3.707  0.00  0.00     0.078 H 
ATOM     52  H   LIG d   1       3.614  -2.878  -2.443  0.00  0.00     0.078 H 
ENDBRANCH  43  49
ENDBRANCH  40  43
ENDBRANCH  37  40
ENDBRANCH  34  37
ENDBRANCH  25  34
ENDBRANCH  17  20
ENDBRANCH   7  17
BRANCH   1  53
ATOM     53  C   LIG d   1      12.823   6.268  -1.562  0.00  0.00    -0.051 C 
ATOM     54  H   LIG d   1      13.106   5.878  -2.540  0.00  0.00     0.027 H 
ATOM     55  H   LIG d   1      12.720   7.352  -1.620  0.00  0.00     0.027 H 
BRANCH  53  56
ATOM     56  C   LIG d   1      13.903   5.913  -0.538  0.00  0.00    -0.065 C 
ATOM     57  H   LIG d   1      13.953   6.692   0.223  0.00  0.00     0.023 H 
ATOM     58  H   LIG d   1      13.660   4.961  -0.068  0.00  0.00     0.023 H 
ATOM     59  H   LIG d   1      14.868   5.834  -1.041  0.00  0.00     0.023 H 
ENDBRANCH  53  56
ENDBRANCH   1  53
BRANCH   9  60
ATOM     60  C   LIG d   1      11.102  10.125   0.352  0.00  0.00     0.039 C 
BRANCH  60  61
ATOM     61  C   LIG d   1      11.641  10.996   1.489  0.00  0.00    -0.052 C 
ATOM     62  H   LIG d   1      11.573  10.448   2.429  0.00  0.00     0.024 H 
ATOM     63  H   LIG d   1      12.682  11.250   1.290  0.00  0.00     0.024 H 
ATOM     64  H   LIG d   1      11.050  11.910   1.558  0.00  0.00     0.024 H 
ENDBRANCH  60  61
BRANCH  60  65
ATOM     65  C   LIG d   1      11.839  10.465  -0.945  0.00  0.00    -0.052 C 
ATOM     66  H   LIG d   1      11.120  10.797  -1.694  0.00  0.00     0.024 H 
ATOM     67  H   LIG d   1      12.561  11.259  -0.755  0.00  0.00     0.024 H 
ATOM     68  H   LIG d   1      12.360   9.579  -1.308  0.00  0.00     0.024 H 
ENDBRANCH  60  65
BRANCH  60  69
ATOM     69  C   LIG d   1       9.606  10.390   0.173  0.00  0.00    -0.052 C 
ATOM     70  H   LIG d   1       9.397  11.442   0.367  0.00  0.00     0.024 H 
ATOM     71  H   LIG d   1       9.312  10.143  -0.847  0.00  0.00     0.024 H 
ATOM     72  H   LIG d   1       9.040   9.773   0.872  0.00  0.00     0.024 H 
ENDBRANCH  60  69
ENDBRANCH   9  60
TORSDOF 16
ENDMDL
MODEL 4
REMARK VINA RESULT:      -5.2      7.976     11.667
REMARK  16 active torsions:
REMARK  status: ('A' for Active; 'I' for Inactive)
REMARK    1  A    between atoms: C_1  and  C_2 
REMARK    2  A    between atoms: C_2  and  C_3 
REMARK       I    between atoms: N_6  and  C_25 
REMARK    3  A    between atoms: C_9  and  C_11 
REMARK    4  A    between atoms: C_11  and  C_12 
REMARK       I    between atoms: C_12  and  N_14 
REMARK    5  A    between atoms: N_14  and  C_15 
REMARK       I    between atoms: N_14  and  C_17 
REMARK    6  A    between atoms: C_15  and  C_16 
REMARK       I    between atoms: C_17  and  N_19 
REMARK    7  A    between atoms: N_19  and  C_20 
REMARK    8  A    between atoms: C_20  and  C_21 
REMARK    9  A    between atoms: C_21  and  C_22 
REMARK   10  A    between atoms: C_22  and  N_71 
REMARK   11  A    between atoms: C_23  and  N_71 
REMARK   12  A    between atoms: C_24  and  N_71 
REMARK   13  A    between atoms: C_25  and  C_27 
REMARK   14  A    between atoms: C_27  and  C_28 
REMARK   15  A    between atoms: C_27  and  C_29 
REMARK   16  A    between atoms: C_27  and  C_30 
ROOT
ATOM      1  C   LIG d   1      11.289   5.061  -1.279  0.00  0.00    -0.022 C 
ATOM      2  H   LIG d   1      11.573   4.060  -0.954  0.00  0.00     0.032 H 
ATOM      3  C   LIG d   1      10.757   5.855  -0.082  0.00  0.00     0.018 C 
ATOM      4  N   LIG d   1      10.258   7.152  -0.560  0.00  0.00    -0.301 N 
ATOM      5  C   LIG d   1       9.271   7.173  -1.648  0.00  0.00     0.015 C 
ATOM      6  C   LIG d   1       9.820   6.363  -2.827  0.00  0.00    -0.034 C 
ATOM      7  C   LIG d   1      10.196   4.961  -2.347  0.00  0.00    -0.027 C 
ATOM      8  H   LIG d   1       9.317   4.474  -1.922  0.00  0.00     0.031 H 
ATOM      9  C   LIG d   1      10.698   8.302  -0.010  0.00  0.00     0.221 C 
ATOM     10  O   LIG d   1      11.443   8.270   0.946  0.00  0.00    -0.275 OA
ATOM     11  H   LIG d   1      11.560   6.014   0.636  0.00  0.00     0.047 H 
ATOM     12  H   LIG d   1       9.945   5.305   0.392  0.00  0.00     0.047 H 
ATOM     13  H   LIG d   1       9.095   8.202  -1.962  0.00  0.00     0.046 H 
ATOM     14  H   LIG d   1       8.336   6.730  -1.305  0.00  0.00     0.046 H 
ATOM     15  H   LIG d   1      10.703   6.859  -3.230  0.00  0.00     0.028 H 
ATOM     16  H   LIG d   1       9.058   6.290  -3.604  0.00  0.00     0.028 H 
ENDROOT
BRANCH   7  17
ATOM     17  C   LIG d   1      10.712   4.137  -3.529  0.00  0.00     0.028 C 
ATOM     18  H   LIG d   1      11.544   3.513  -3.201  0.00  0.00     0.036 H 
ATOM     19  H   LIG d   1      11.050   4.809  -4.318  0.00  0.00     0.036 H 
BRANCH  17  20
ATOM     20  C   LIG d   1       9.603   3.262  -4.054  0.00  0.00     0.223 C 
ATOM     21  O   LIG d   1       8.822   2.746  -3.284  0.00  0.00    -0.275 OA
ATOM     22  N   LIG d   1       9.478   3.055  -5.379  0.00  0.00    -0.226 N 
ATOM     23  C   LIG d   1       8.486   2.274  -5.849  0.00  0.00     0.308 C 
ATOM     24  O   LIG d   1       7.703   1.754  -5.077  0.00  0.00    -0.252 OA
ATOM     25  N   LIG d   1       8.358   2.070  -7.175  0.00  0.00    -0.299 N 
ATOM     26  H   LIG d   1       8.982   2.485  -7.792  0.00  0.00     0.150 HD
BRANCH  22  27
ATOM     27  C   LIG d   1      10.421   3.681  -6.311  0.00  0.00     0.021 C 
ATOM     28  H   LIG d   1      11.389   3.796  -5.824  0.00  0.00     0.047 H 
ATOM     29  H   LIG d   1      10.530   3.051  -7.194  0.00  0.00     0.047 H 
BRANCH  27  30
ATOM     30  C   LIG d   1       9.892   5.055  -6.726  0.00  0.00    -0.049 C 
ATOM     31  H   LIG d   1      10.007   5.178  -7.803  0.00  0.00     0.025 H 
ATOM     32  H   LIG d   1       8.837   5.132  -6.463  0.00  0.00     0.025 H 
ATOM     33  H   LIG d   1      10.453   5.832  -6.209  0.00  0.00     0.025 H 
ENDBRANCH  27  30
ENDBRANCH  22  27
BRANCH  25  34
ATOM     34  C   LIG d   1       7.276   1.225  -7.685  0.00  0.00     0.018 C 
ATOM     35  H   LIG d   1       7.694   0.303  -8.090  0.00  0.00     0.046 H 
ATOM     36  H   LIG d   1       6.587   0.987  -6.874  0.00  0.00     0.046 H 
BRANCH  34  37
ATOM     37  C   LIG d   1       6.524   1.970  -8.790  0.00  0.00     0.003 C 
ATOM     38  H   LIG d   1       6.214   2.948  -8.422  0.00  0.00     0.033 H 
ATOM     39  H   LIG d   1       7.177   2.098  -9.653  0.00  0.00     0.033 H 
BRANCH  37  40
ATOM     40  C   LIG d   1       5.290   1.164  -9.200  0.00  0.00    -0.031 C 
ATOM     41  H   LIG d   1       4.936   1.510 -10.171  0.00  0.00     0.082 H 
ATOM     42  H   LIG d   1       5.551   0.108  -9.262  0.00  0.00     0.082 H 
BRANCH  40  43
ATOM     43  N   LIG d   1       4.241   1.343  -8.173  0.00  0.00     0.231 N 
ATOM     44  H   LIG d   1       4.644   1.832  -7.366  0.00  0.00     0.203 HD
BRANCH  43  45
ATOM     45  C   LIG d   1       3.132   2.152  -8.720  0.00  0.00    -0.043 C 
ATOM     46  H   LIG d   1       3.020   3.079  -8.158  0.00  0.00     0.078 H 
ATOM     47  H   LIG d   1       3.343   2.383  -9.764  0.00  0.00     0.078 H 
ATOM     48  H   LIG d   1       2.208   1.575  -8.656  0.00  0.00     0.078 H 
ENDBRANCH  43  45
BRANCH  43  49
ATOM     49  C   LIG d   1       3.736   0.026  -7.732  0.00  0.00    -0.043 C 
ATOM     50  H   LIG d   1       3.295   0.131  -6.741  0.00  0.00     0.078 H 
ATOM     51  H   LIG d   1       2.977  -0.315  -8.435  0.00  0.00     0.078 H 
ATOM     52  H   LIG d   1       4.548  -0.701  -7.692  0.00  0.00     0.078 H 
ENDBRANCH  43  49
ENDBRANCH  40  43
ENDBRANCH  37  40
ENDBRANCH  34  37
ENDBRANCH  25  34
ENDBRANCH  17  20
ENDBRANCH   7  17
BRANCH   1  53
ATOM     53  C   LIG d   1      12.509   5.774  -1.865  0.00  0.00    -0.051 C 
ATOM     54  H   LIG d   1      12.872   5.222  -2.731  0.00  0.00     0.027 H 
ATOM     55  H   LIG d   1      12.229   6.783  -2.168  0.00  0.00     0.027 H 
BRANCH  53  56
ATOM     56  C   LIG d   1      13.612   5.848  -0.807  0.00  0.00    -0.065 C 
ATOM     57  H   LIG d   1      13.747   6.884  -0.495  0.00  0.00     0.023 H 
ATOM     58  H   LIG d   1      13.332   5.243   0.054  0.00  0.00     0.023 H 
ATOM     59  H   LIG d   1      14.545   5.472  -1.228  0.00  0.00     0.023 H 
ENDBRANCH  53  56
ENDBRANCH   1  53
BRANCH   9  60
ATOM     60  C   LIG d   1      10.266   9.626  -0.586  0.00  0.00     0.039 C 
BRANCH  60  61
ATOM     61  C   LIG d   1      10.717  10.757   0.342  0.00  0.00    -0.052 C 
ATOM     62  H   LIG d   1      10.254  10.630   1.320  0.00  0.00     0.024 H 
ATOM     63  H   LIG d   1      11.802  10.730   0.446  0.00  0.00     0.024 H 
ATOM     64  H   LIG d   1      10.416  11.715  -0.081  0.00  0.00     0.024 H 
ENDBRANCH  60  61
BRANCH  60  65
ATOM     65  C   LIG d   1      10.898   9.815  -1.966  0.00  0.00    -0.052 C 
ATOM     66  H   LIG d   1      11.837  10.358  -1.863  0.00  0.00     0.024 H 
ATOM     67  H   LIG d   1      11.088   8.840  -2.415  0.00  0.00     0.024 H 
ATOM     68  H   LIG d   1      10.217  10.381  -2.602  0.00  0.00     0.024 H 
ENDBRANCH  60  65
BRANCH  60  69
ATOM     69  C   LIG d   1       8.742   9.652  -0.715  0.00  0.00    -0.052 C 
ATOM     70  H   LIG d   1       8.444  10.492  -1.342  0.00  0.00     0.024 H 
ATOM     71  H   LIG d   1       8.399   8.721  -1.167  0.00  0.00     0.024 H 
ATOM     72  H   LIG d   1       8.295   9.761   0.274  0.00  0.00     0.024 H 
ENDBRANCH  60  69
ENDBRANCH   9  60
TORSDOF 16
ENDMDL
MODEL 5
REMARK VINA RESULT:      -5.2      5.036      7.282
REMARK  16 active torsions:
REMARK  status: ('A' for Active; 'I' for Inactive)
REMARK    1  A    between atoms: C_1  and  C_2 
REMARK    2  A    between atoms: C_2  and  C_3 
REMARK       I    between atoms: N_6  and  C_25 
REMARK    3  A    between atoms: C_9  and  C_11 
REMARK    4  A    between atoms: C_11  and  C_12 
REMARK       I    between atoms: C_12  and  N_14 
REMARK    5  A    between atoms: N_14  and  C_15 
REMARK       I    between atoms: N_14  and  C_17 
REMARK    6  A    between atoms: C_15  and  C_16 
REMARK       I    between atoms: C_17  and  N_19 
REMARK    7  A    between atoms: N_19  and  C_20 
REMARK    8  A    between atoms: C_20  and  C_21 
REMARK    9  A    between atoms: C_21  and  C_22 
REMARK   10  A    between atoms: C_22  and  N_71 
REMARK   11  A    between atoms: C_23  and  N_71 
REMARK   12  A    between atoms: C_24  and  N_71 
REMARK   13  A    between atoms: C_25  and  C_27 
REMARK   14  A    between atoms: C_27  and  C_28 
REMARK   15  A    between atoms: C_27  and  C_29 
REMARK   16  A    between atoms: C_27  and  C_30 
ROOT
ATOM      1  C   LIG d   1       6.503  -1.231  -6.962  0.00  0.00    -0.022 C 
ATOM      2  H   LIG d   1       7.362  -1.342  -7.623  0.00  0.00     0.032 H 
ATOM      3  C   LIG d   1       6.962  -1.349  -5.505  0.00  0.00     0.018 C 
ATOM      4  N   LIG d   1       5.778  -1.327  -4.634  0.00  0.00    -0.301 N 
ATOM      5  C   LIG d   1       4.693  -2.283  -4.892  0.00  0.00     0.015 C 
ATOM      6  C   LIG d   1       4.261  -2.156  -6.356  0.00  0.00    -0.034 C 
ATOM      7  C   LIG d   1       5.481  -2.330  -7.261  0.00  0.00    -0.027 C 
ATOM      8  H   LIG d   1       5.933  -3.305  -7.078  0.00  0.00     0.031 H 
ATOM      9  C   LIG d   1       5.690  -0.447  -3.617  0.00  0.00     0.221 C 
ATOM     10  O   LIG d   1       6.629   0.275  -3.358  0.00  0.00    -0.275 OA
ATOM     11  H   LIG d   1       7.612  -0.511  -5.258  0.00  0.00     0.047 H 
ATOM     12  H   LIG d   1       7.501  -2.285  -5.364  0.00  0.00     0.047 H 
ATOM     13  H   LIG d   1       3.848  -2.062  -4.240  0.00  0.00     0.046 H 
ATOM     14  H   LIG d   1       5.045  -3.298  -4.703  0.00  0.00     0.046 H 
ATOM     15  H   LIG d   1       3.823  -1.171  -6.521  0.00  0.00     0.028 H 
ATOM     16  H   LIG d   1       3.523  -2.924  -6.586  0.00  0.00     0.028 H 
ENDROOT
BRANCH   7  17
ATOM     17  C   LIG d   1       5.047  -2.238  -8.726  0.00  0.00     0.028 C 
ATOM     18  H   LIG d   1       5.930  -2.219  -9.366  0.00  0.00     0.036 H 
ATOM     19  H   LIG d   1       4.471  -1.324  -8.877  0.00  0.00     0.036 H 
BRANCH  17  20
ATOM     20  C   LIG d   1       4.198  -3.432  -9.075  0.00  0.00     0.223 C 
ATOM     21  O   LIG d   1       4.662  -4.549  -8.998  0.00  0.00    -0.275 OA
ATOM     22  N   LIG d   1       2.922  -3.259  -9.472  0.00  0.00    -0.226 N 
ATOM     23  C   LIG d   1       2.162  -4.327  -9.783  0.00  0.00     0.308 C 
ATOM     24  O   LIG d   1       2.627  -5.448  -9.706  0.00  0.00    -0.252 OA
ATOM     25  N   LIG d   1       0.883  -4.154 -10.175  0.00  0.00    -0.299 N 
ATOM     26  H   LIG d   1       0.512  -3.259 -10.236  0.00  0.00     0.150 HD
BRANCH  22  27
ATOM     27  C   LIG d   1       2.360  -1.908  -9.564  0.00  0.00     0.021 C 
ATOM     28  H   LIG d   1       1.294  -1.943  -9.346  0.00  0.00     0.047 H 
ATOM     29  H   LIG d   1       2.858  -1.259  -8.843  0.00  0.00     0.047 H 
BRANCH  27  30
ATOM     30  C   LIG d   1       2.576  -1.361 -10.976  0.00  0.00    -0.049 C 
ATOM     31  H   LIG d   1       1.676  -0.842 -11.307  0.00  0.00     0.025 H 
ATOM     32  H   LIG d   1       3.415  -0.666 -10.972  0.00  0.00     0.025 H 
ATOM     33  H   LIG d   1       2.790  -2.186 -11.656  0.00  0.00     0.025 H 
ENDBRANCH  27  30
ENDBRANCH  22  27
BRANCH  25  34
ATOM     34  C   LIG d   1       0.056  -5.315 -10.508  0.00  0.00     0.018 C 
ATOM     35  H   LIG d   1       0.150  -5.537 -11.571  0.00  0.00     0.046 H 
ATOM     36  H   LIG d   1       0.388  -6.177  -9.927  0.00  0.00     0.046 H 
BRANCH  34  37
ATOM     37  C   LIG d   1      -1.407  -5.011 -10.178  0.00  0.00     0.003 C 
ATOM     38  H   LIG d   1      -1.468  -4.071  -9.629  0.00  0.00     0.033 H 
ATOM     39  H   LIG d   1      -1.979  -4.929 -11.102  0.00  0.00     0.033 H 
BRANCH  37  40
ATOM     40  C   LIG d   1      -1.982  -6.140  -9.321  0.00  0.00    -0.031 C 
ATOM     41  H   LIG d   1      -1.575  -7.094  -9.655  0.00  0.00     0.082 H 
ATOM     42  H   LIG d   1      -1.716  -5.976  -8.278  0.00  0.00     0.082 H 
BRANCH  40  43
ATOM     43  N   LIG d   1      -3.456  -6.133  -9.450  0.00  0.00     0.231 N 
ATOM     44  H   LIG d   1      -3.870  -6.435  -8.561  0.00  0.00     0.203 HD
BRANCH  43  45
ATOM     45  C   LIG d   1      -3.928  -4.768  -9.762  0.00  0.00    -0.043 C 
ATOM     46  H   LIG d   1      -3.734  -4.095  -8.927  0.00  0.00     0.078 H 
ATOM     47  H   LIG d   1      -3.407  -4.407 -10.648  0.00  0.00     0.078 H 
ATOM     48  H   LIG d   1      -5.000  -4.802  -9.961  0.00  0.00     0.078 H 
ENDBRANCH  43  45
BRANCH  43  49
ATOM     49  C   LIG d   1      -3.874  -7.069 -10.515  0.00  0.00    -0.043 C 
ATOM     50  H   LIG d   1      -3.777  -6.571 -11.480  0.00  0.00     0.078 H 
ATOM     51  H   LIG d   1      -3.227  -7.945 -10.490  0.00  0.00     0.078 H 
ATOM     52  H   LIG d   1      -4.909  -7.378 -10.368  0.00  0.00     0.078 H 
ENDBRANCH  43  49
ENDBRANCH  40  43
ENDBRANCH  37  40
ENDBRANCH  34  37
ENDBRANCH  25  34
ENDBRANCH  17  20
ENDBRANCH   7  17
BRANCH   1  53
ATOM     53  C   LIG d   1       5.859   0.139  -7.186  0.00  0.00    -0.051 C 
ATOM     54  H   LIG d   1       4.929   0.017  -7.739  0.00  0.00     0.027 H 
ATOM     55  H   LIG d   1       5.651   0.604  -6.222  0.00  0.00     0.027 H 
BRANCH  53  56
ATOM     56  C   LIG d   1       6.816   1.027  -7.984  0.00  0.00    -0.065 C 
ATOM     57  H   LIG d   1       7.792   1.039  -7.498  0.00  0.00     0.023 H 
ATOM     58  H   LIG d   1       6.918   0.635  -8.995  0.00  0.00     0.023 H 
ATOM     59  H   LIG d   1       6.419   2.042  -8.025  0.00  0.00     0.023 H 
ENDBRANCH  53  56
ENDBRANCH   1  53
BRANCH   9  60
ATOM     60  C   LIG d   1       4.424  -0.359  -2.804  0.00  0.00     0.039 C 
BRANCH  60  61
ATOM     61  C   LIG d   1       3.254   0.005  -3.721  0.00  0.00    -0.052 C 
ATOM     62  H   LIG d   1       2.439  -0.702  -3.566  0.00  0.00     0.024 H 
ATOM     63  H   LIG d   1       2.910   1.013  -3.488  0.00  0.00     0.024 H 
ATOM     64  H   LIG d   1       3.580  -0.038  -4.760  0.00  0.00     0.024 H 
ENDBRANCH  60  61
BRANCH  60  65
ATOM     65  C   LIG d   1       4.150  -1.709  -2.138  0.00  0.00    -0.052 C 
ATOM     66  H   LIG d   1       4.459  -2.512  -2.806  0.00  0.00     0.024 H 
ATOM     67  H   LIG d   1       4.710  -1.775  -1.205  0.00  0.00     0.024 H 
ATOM     68  H   LIG d   1       3.083  -1.800  -1.930  0.00  0.00     0.024 H 
ENDBRANCH  60  65
BRANCH  60  69
ATOM     69  C   LIG d   1       4.582   0.717  -1.729  0.00  0.00    -0.052 C 
ATOM     70  H   LIG d   1       5.504   0.544  -1.173  0.00  0.00     0.024 H 
ATOM     71  H   LIG d   1       4.621   1.700  -2.200  0.00  0.00     0.024 H 
ATOM     72  H   LIG d   1       3.733   0.676  -1.045  0.00  0.00     0.024 H 
ENDBRANCH  60  69
ENDBRANCH   9  60
TORSDOF 16
ENDMDL
MODEL 6
REMARK VINA RESULT:      -5.1      1.758      2.365
REMARK  16 active torsions:
REMARK  status: ('A' for Active; 'I' for Inactive)
REMARK    1  A    between atoms: C_1  and  C_2 
REMARK    2  A    between atoms: C_2  and  C_3 
REMARK       I    between atoms: N_6  and  C_25 
REMARK    3  A    between atoms: C_9  and  C_11 
REMARK    4  A    between atoms: C_11  and  C_12 
REMARK       I    between atoms: C_12  and  N_14 
REMARK    5  A    between atoms: N_14  and  C_15 
REMARK       I    between atoms: N_14  and  C_17 
REMARK    6  A    between atoms: C_15  and  C_16 
REMARK       I    between atoms: C_17  and  N_19 
REMARK    7  A    between atoms: N_19  and  C_20 
REMARK    8  A    between atoms: C_20  and  C_21 
REMARK    9  A    between atoms: C_21  and  C_22 
REMARK   10  A    between atoms: C_22  and  N_71 
REMARK   11  A    between atoms: C_23  and  N_71 
REMARK   12  A    between atoms: C_24  and  N_71 
REMARK   13  A    between atoms: C_25  and  C_27 
REMARK   14  A    between atoms: C_27  and  C_28 
REMARK   15  A    between atoms: C_27  and  C_29 
REMARK   16  A    between atoms: C_27  and  C_30 
ROOT
ATOM      1  C   LIG d   1       6.062  -2.075  -6.596  0.00  0.00    -0.022 C 
ATOM      2  H   LIG d   1       6.811  -2.150  -7.385  0.00  0.00     0.032 H 
ATOM      3  C   LIG d   1       6.646  -1.305  -5.408  0.00  0.00     0.018 C 
ATOM      4  N   LIG d   1       5.674  -1.326  -4.307  0.00  0.00    -0.301 N 
ATOM      5  C   LIG d   1       5.151  -2.621  -3.850  0.00  0.00     0.015 C 
ATOM      6  C   LIG d   1       4.584  -3.377  -5.056  0.00  0.00    -0.034 C 
ATOM      7  C   LIG d   1       5.659  -3.480  -6.140  0.00  0.00    -0.027 C 
ATOM      8  H   LIG d   1       6.531  -3.995  -5.739  0.00  0.00     0.031 H 
ATOM      9  C   LIG d   1       5.268  -0.179  -3.726  0.00  0.00     0.221 C 
ATOM     10  O   LIG d   1       5.774   0.875  -4.049  0.00  0.00    -0.275 OA
ATOM     11  H   LIG d   1       6.842  -0.274  -5.703  0.00  0.00     0.047 H 
ATOM     12  H   LIG d   1       7.574  -1.777  -5.085  0.00  0.00     0.047 H 
ATOM     13  H   LIG d   1       4.361  -2.458  -3.117  0.00  0.00     0.046 H 
ATOM     14  H   LIG d   1       5.955  -3.204  -3.400  0.00  0.00     0.046 H 
ATOM     15  H   LIG d   1       3.721  -2.840  -5.450  0.00  0.00     0.028 H 
ATOM     16  H   LIG d   1       4.281  -4.378  -4.749  0.00  0.00     0.028 H 
ENDROOT
BRANCH   7  17
ATOM     17  C   LIG d   1       5.107  -4.265  -7.333  0.00  0.00     0.028 C 
ATOM     18  H   LIG d   1       5.852  -4.285  -8.129  0.00  0.00     0.036 H 
ATOM     19  H   LIG d   1       4.200  -3.782  -7.696  0.00  0.00     0.036 H 
BRANCH  17  20
ATOM     20  C   LIG d   1       4.791  -5.674  -6.904  0.00  0.00     0.223 C 
ATOM     21  O   LIG d   1       3.674  -5.957  -6.527  0.00  0.00    -0.275 OA
ATOM     22  N   LIG d   1       5.749  -6.621  -6.940  0.00  0.00    -0.226 N 
ATOM     23  C   LIG d   1       5.466  -7.881  -6.557  0.00  0.00     0.308 C 
ATOM     24  O   LIG d   1       4.346  -8.165  -6.179  0.00  0.00    -0.252 OA
ATOM     25  N   LIG d   1       6.423  -8.830  -6.598  0.00  0.00    -0.299 N 
ATOM     26  H   LIG d   1       7.317  -8.603  -6.900  0.00  0.00     0.150 HD
BRANCH  22  27
ATOM     27  C   LIG d   1       7.099  -6.279  -7.396  0.00  0.00     0.021 C 
ATOM     28  H   LIG d   1       7.310  -5.237  -7.159  0.00  0.00     0.047 H 
ATOM     29  H   LIG d   1       7.825  -6.920  -6.894  0.00  0.00     0.047 H 
BRANCH  27  30
ATOM     30  C   LIG d   1       7.195  -6.489  -8.909  0.00  0.00    -0.049 C 
ATOM     31  H   LIG d   1       7.606  -5.593  -9.374  0.00  0.00     0.025 H 
ATOM     32  H   LIG d   1       7.846  -7.337  -9.116  0.00  0.00     0.025 H 
ATOM     33  H   LIG d   1       6.202  -6.685  -9.312  0.00  0.00     0.025 H 
ENDBRANCH  27  30
ENDBRANCH  22  27
BRANCH  25  34
ATOM     34  C   LIG d   1       6.113 -10.201  -6.187  0.00  0.00     0.018 C 
ATOM     35  H   LIG d   1       5.045 -10.383  -6.302  0.00  0.00     0.046 H 
ATOM     36  H   LIG d   1       6.671 -10.901  -6.810  0.00  0.00     0.046 H 
BRANCH  34  37
ATOM     37  C   LIG d   1       6.509 -10.396  -4.721  0.00  0.00     0.003 C 
ATOM     38  H   LIG d   1       7.462 -10.923  -4.670  0.00  0.00     0.033 H 
ATOM     39  H   LIG d   1       6.605  -9.424  -4.238  0.00  0.00     0.033 H 
BRANCH  37  40
ATOM     40  C   LIG d   1       5.432 -11.216  -4.008  0.00  0.00    -0.031 C 
ATOM     41  H   LIG d   1       5.510 -12.260  -4.309  0.00  0.00     0.082 H 
ATOM     42  H   LIG d   1       5.572 -11.137  -2.930  0.00  0.00     0.082 H 
BRANCH  40  43
ATOM     43  N   LIG d   1       4.104 -10.671  -4.364  0.00  0.00     0.231 N 
ATOM     44  H   LIG d   1       4.217  -9.985  -5.119  0.00  0.00     0.203 HD
BRANCH  43  45
ATOM     45  C   LIG d   1       3.222 -11.761  -4.832  0.00  0.00    -0.043 C 
ATOM     46  H   LIG d   1       2.365 -11.871  -4.168  0.00  0.00     0.078 H 
ATOM     47  H   LIG d   1       2.873 -11.527  -5.838  0.00  0.00     0.078 H 
ATOM     48  H   LIG d   1       3.789 -12.692  -4.852  0.00  0.00     0.078 H 
ENDBRANCH  43  45
BRANCH  43  49
ATOM     49  C   LIG d   1       3.502 -10.002  -3.193  0.00  0.00    -0.043 C 
ATOM     50  H   LIG d   1       3.957  -9.018  -3.076  0.00  0.00     0.078 H 
ATOM     51  H   LIG d   1       2.431  -9.890  -3.360  0.00  0.00     0.078 H 
ATOM     52  H   LIG d   1       3.669 -10.588  -2.289  0.00  0.00     0.078 H 
ENDBRANCH  43  49
ENDBRANCH  40  43
ENDBRANCH  37  40
ENDBRANCH  34  37
ENDBRANCH  25  34
ENDBRANCH  17  20
ENDBRANCH   7  17
BRANCH   1  53
ATOM     53  C   LIG d   1       4.831  -1.339  -7.128  0.00  0.00    -0.051 C 
ATOM     54  H   LIG d   1       4.376  -1.921  -7.929  0.00  0.00     0.027 H 
ATOM     55  H   LIG d   1       4.110  -1.207  -6.321  0.00  0.00     0.027 H 
BRANCH  53  56
ATOM     56  C   LIG d   1       5.249   0.031  -7.666  0.00  0.00    -0.065 C 
ATOM     57  H   LIG d   1       4.360   0.612  -7.913  0.00  0.00     0.023 H 
ATOM     58  H   LIG d   1       5.828   0.558  -6.908  0.00  0.00     0.023 H 
ATOM     59  H   LIG d   1       5.857  -0.101  -8.561  0.00  0.00     0.023 H 
ENDBRANCH  53  56
ENDBRANCH   1  53
BRANCH   9  60
ATOM     60  C   LIG d   1       4.187  -0.207  -2.677  0.00  0.00     0.039 C 
BRANCH  60  61
ATOM     61  C   LIG d   1       2.833  -0.456  -3.346  0.00  0.00    -0.052 C 
ATOM     62  H   LIG d   1       2.313   0.493  -3.477  0.00  0.00     0.024 H 
ATOM     63  H   LIG d   1       2.989  -0.923  -4.319  0.00  0.00     0.024 H 
ATOM     64  H   LIG d   1       2.234  -1.116  -2.718  0.00  0.00     0.024 H 
ENDBRANCH  60  61
BRANCH  60  65
ATOM     65  C   LIG d   1       4.475  -1.327  -1.676  0.00  0.00    -0.052 C 
ATOM     66  H   LIG d   1       3.783  -2.152  -1.845  0.00  0.00     0.024 H 
ATOM     67  H   LIG d   1       5.499  -1.678  -1.807  0.00  0.00     0.024 H 
ATOM     68  H   LIG d   1       4.348  -0.948  -0.661  0.00  0.00     0.024 H 
ENDBRANCH  60  65
BRANCH  60  69
ATOM     69  C   LIG d   1       4.153   1.135  -1.944  0.00  0.00    -0.052 C 
ATOM     70  H   LIG d   1       3.267   1.693  -2.247  0.00  0.00     0.024 H 
ATOM     71  H   LIG d   1       4.124   0.962  -0.868  0.00  0.00     0.024 H 
ATOM     72  H   LIG d   1       5.046   1.709  -2.195  0.00  0.00     0.024 H 
ENDBRANCH  60  69
ENDBRANCH   9  60
TORSDOF 16
ENDMDL
MODEL 7
REMARK VINA RESULT:      -5.1      4.712      6.275
REMARK  16 active torsions:
REMARK  status: ('A' for Active; 'I' for Inactive)
REMARK    1  A    between atoms: C_1  and  C_2 
REMARK    2  A    between atoms: C_2  and  C_3 
REMARK       I    between atoms: N_6  and  C_25 
REMARK    3  A    between atoms: C_9  and  C_11 
REMARK    4  A    between atoms: C_11  and  C_12 
REMARK       I    between atoms: C_12  and  N_14 
REMARK    5  A    between atoms: N_14  and  C_15 
REMARK       I    between atoms: N_14  and  C_17 
REMARK    6  A    between atoms: C_15  and  C_16 
REMARK       I    between atoms: C_17  and  N_19 
REMARK    7  A    between atoms: N_19  and  C_20 
REMARK    8  A    between atoms: C_20  and  C_21 
REMARK    9  A    between atoms: C_21  and  C_22 
REMARK   10  A    between atoms: C_22  and  N_71 
REMARK   11  A    between atoms: C_23  and  N_71 
REMARK   12  A    between atoms: C_24  and  N_71 
REMARK   13  A    between atoms: C_25  and  C_27 
REMARK   14  A    between atoms: C_27  and  C_28 
REMARK   15  A    between atoms: C_27  and  C_29 
REMARK   16  A    between atoms: C_27  and  C_30 
ROOT
ATOM      1  C   LIG d   1       6.336  -3.117  -5.594  0.00  0.00    -0.022 C 
ATOM      2  H   LIG d   1       6.506  -3.662  -6.523  0.00  0.00     0.032 H 
ATOM      3  C   LIG d   1       5.834  -1.706  -5.914  0.00  0.00     0.018 C 
ATOM      4  N   LIG d   1       5.735  -0.944  -4.661  0.00  0.00    -0.301 N 
ATOM      5  C   LIG d   1       6.913  -0.866  -3.786  0.00  0.00     0.015 C 
ATOM      6  C   LIG d   1       7.403  -2.287  -3.491  0.00  0.00    -0.034 C 
ATOM      7  C   LIG d   1       7.647  -3.023  -4.810  0.00  0.00    -0.027 C 
ATOM      8  H   LIG d   1       8.384  -2.477  -5.399  0.00  0.00     0.031 H 
ATOM      9  C   LIG d   1       4.585  -0.329  -4.321  0.00  0.00     0.221 C 
ATOM     10  O   LIG d   1       3.649  -0.324  -5.092  0.00  0.00    -0.275 OA
ATOM     11  H   LIG d   1       4.853  -1.765  -6.384  0.00  0.00     0.047 H 
ATOM     12  H   LIG d   1       6.534  -1.211  -6.587  0.00  0.00     0.047 H 
ATOM     13  H   LIG d   1       6.643  -0.371  -2.853  0.00  0.00     0.046 H 
ATOM     14  H   LIG d   1       7.703  -0.304  -4.283  0.00  0.00     0.046 H 
ATOM     15  H   LIG d   1       6.648  -2.820  -2.912  0.00  0.00     0.028 H 
ATOM     16  H   LIG d   1       8.332  -2.241  -2.922  0.00  0.00     0.028 H 
ENDROOT
BRANCH   7  17
ATOM     17  C   LIG d   1       8.170  -4.432  -4.519  0.00  0.00     0.028 C 
ATOM     18  H   LIG d   1       7.653  -5.149  -5.156  0.00  0.00     0.036 H 
ATOM     19  H   LIG d   1       7.987  -4.677  -3.473  0.00  0.00     0.036 H 
BRANCH  17  20
ATOM     20  C   LIG d   1       9.650  -4.486  -4.798  0.00  0.00     0.223 C 
ATOM     21  O   LIG d   1      10.050  -4.525  -5.942  0.00  0.00    -0.275 OA
ATOM     22  N   LIG d   1      10.529  -4.490  -3.777  0.00  0.00    -0.226 N 
ATOM     23  C   LIG d   1      11.851  -4.537  -4.026  0.00  0.00     0.308 C 
ATOM     24  O   LIG d   1      12.254  -4.577  -5.173  0.00  0.00    -0.252 OA
ATOM     25  N   LIG d   1      12.731  -4.536  -3.005  0.00  0.00    -0.299 N 
ATOM     26  H   LIG d   1      12.410  -4.504  -2.089  0.00  0.00     0.150 HD
BRANCH  22  27
ATOM     27  C   LIG d   1      10.045  -4.442  -2.394  0.00  0.00     0.021 C 
ATOM     28  H   LIG d   1      10.774  -3.924  -1.772  0.00  0.00     0.047 H 
ATOM     29  H   LIG d   1       9.094  -3.908  -2.361  0.00  0.00     0.047 H 
BRANCH  27  30
ATOM     30  C   LIG d   1       9.848  -5.866  -1.873  0.00  0.00    -0.049 C 
ATOM     31  H   LIG d   1      10.046  -6.578  -2.675  0.00  0.00     0.025 H 
ATOM     32  H   LIG d   1      10.536  -6.049  -1.048  0.00  0.00     0.025 H 
ATOM     33  H   LIG d   1       8.822  -5.988  -1.524  0.00  0.00     0.025 H 
ENDBRANCH  27  30
ENDBRANCH  22  27
BRANCH  25  34
ATOM     34  C   LIG d   1      14.169  -4.582  -3.276  0.00  0.00     0.018 C 
ATOM     35  H   LIG d   1      14.626  -5.379  -2.689  0.00  0.00     0.046 H 
ATOM     36  H   LIG d   1      14.333  -4.774  -4.338  0.00  0.00     0.046 H 
BRANCH  34  37
ATOM     37  C   LIG d   1      14.804  -3.243  -2.897  0.00  0.00     0.003 C 
ATOM     38  H   LIG d   1      14.142  -2.707  -2.216  0.00  0.00     0.033 H 
ATOM     39  H   LIG d   1      15.761  -3.420  -2.407  0.00  0.00     0.033 H 
BRANCH  37  40
ATOM     40  C   LIG d   1      15.024  -2.407  -4.159  0.00  0.00    -0.031 C 
ATOM     41  H   LIG d   1      16.085  -2.397  -4.408  0.00  0.00     0.082 H 
ATOM     42  H   LIG d   1      14.460  -2.840  -4.984  0.00  0.00     0.082 H 
BRANCH  40  43
ATOM     43  N   LIG d   1      14.538  -1.032  -3.911  0.00  0.00     0.231 N 
ATOM     44  H   LIG d   1      14.914  -0.410  -4.635  0.00  0.00     0.203 HD
BRANCH  43  45
ATOM     45  C   LIG d   1      13.062  -1.001  -3.968  0.00  0.00    -0.043 C 
ATOM     46  H   LIG d   1      12.664  -2.002  -4.134  0.00  0.00     0.078 H 
ATOM     47  H   LIG d   1      12.679  -0.610  -3.027  0.00  0.00     0.078 H 
ATOM     48  H   LIG d   1      12.753  -0.348  -4.785  0.00  0.00     0.078 H 
ENDBRANCH  43  45
BRANCH  43  49
ATOM     49  C   LIG d   1      15.002  -0.564  -2.588  0.00  0.00    -0.043 C 
ATOM     50  H   LIG d   1      14.392   0.286  -2.280  0.00  0.00     0.078 H 
ATOM     51  H   LIG d   1      14.891  -1.373  -1.867  0.00  0.00     0.078 H 
ATOM     52  H   LIG d   1      16.048  -0.260  -2.635  0.00  0.00     0.078 H 
ENDBRANCH  43  49
ENDBRANCH  40  43
ENDBRANCH  37  40
ENDBRANCH  34  37
ENDBRANCH  25  34
ENDBRANCH  17  20
ENDBRANCH   7  17
BRANCH   1  53
ATOM     53  C   LIG d   1       5.291  -3.853  -4.753  0.00  0.00    -0.051 C 
ATOM     54  H   LIG d   1       5.761  -4.253  -3.856  0.00  0.00     0.027 H 
ATOM     55  H   LIG d   1       4.499  -3.160  -4.470  0.00  0.00     0.027 H 
BRANCH  53  56
ATOM     56  C   LIG d   1       4.694  -5.000  -5.571  0.00  0.00    -0.065 C 
ATOM     57  H   LIG d   1       3.780  -4.662  -6.060  0.00  0.00     0.023 H 
ATOM     58  H   LIG d   1       5.412  -5.320  -6.326  0.00  0.00     0.023 H 
ATOM     59  H   LIG d   1       4.464  -5.836  -4.910  0.00  0.00     0.023 H 
ENDBRANCH  53  56
ENDBRANCH   1  53
BRANCH   9  60
ATOM     60  C   LIG d   1       4.463   0.352  -2.982  0.00  0.00     0.039 C 
BRANCH  60  61
ATOM     61  C   LIG d   1       4.392  -0.705  -1.877  0.00  0.00    -0.052 C 
ATOM     62  H   LIG d   1       3.454  -1.256  -1.961  0.00  0.00     0.024 H 
ATOM     63  H   LIG d   1       5.229  -1.396  -1.980  0.00  0.00     0.024 H 
ATOM     64  H   LIG d   1       4.440  -0.217  -0.904  0.00  0.00     0.024 H 
ENDBRANCH  60  61
BRANCH  60  65
ATOM     65  C   LIG d   1       5.680   1.249  -2.751  0.00  0.00    -0.052 C 
ATOM     66  H   LIG d   1       6.591   0.668  -2.893  0.00  0.00     0.024 H 
ATOM     67  H   LIG d   1       5.661   2.077  -3.460  0.00  0.00     0.024 H 
ATOM     68  H   LIG d   1       5.653   1.642  -1.734  0.00  0.00     0.024 H 
ENDBRANCH  60  65
BRANCH  60  69
ATOM     69  C   LIG d   1       3.191   1.201  -2.956  0.00  0.00    -0.052 C 
ATOM     70  H   LIG d   1       3.220   1.875  -2.099  0.00  0.00     0.024 H 
ATOM     71  H   LIG d   1       3.123   1.784  -3.875  0.00  0.00     0.024 H 
ATOM     72  H   LIG d   1       2.320   0.549  -2.875  0.00  0.00     0.024 H 
ENDBRANCH  60  69
ENDBRANCH   9  60
TORSDOF 16
ENDMDL
MODEL 8
REMARK VINA RESULT:      -5.1      8.163     11.768
REMARK  16 active torsions:
REMARK  status: ('A' for Active; 'I' for Inactive)
REMARK    1  A    between atoms: C_1  and  C_2 
REMARK    2  A    between atoms: C_2  and  C_3 
REMARK       I    between atoms: N_6  and  C_25 
REMARK    3  A    between atoms: C_9  and  C_11 
REMARK    4  A    between atoms: C_11  and  C_12 
REMARK       I    between atoms: C_12  and  N_14 
REMARK    5  A    between atoms: N_14  and  C_15 
REMARK       I    between atoms: N_14  and  C_17 
REMARK    6  A    between atoms: C_15  and  C_16 
REMARK       I    between atoms: C_17  and  N_19 
REMARK    7  A    between atoms: N_19  and  C_20 
REMARK    8  A    between atoms: C_20  and  C_21 
REMARK    9  A    between atoms: C_21  and  C_22 
REMARK   10  A    between atoms: C_22  and  N_71 
REMARK   11  A    between atoms: C_23  and  N_71 
REMARK   12  A    between atoms: C_24  and  N_71 
REMARK   13  A    between atoms: C_25  and  C_27 
REMARK   14  A    between atoms: C_27  and  C_28 
REMARK   15  A    between atoms: C_27  and  C_29 
REMARK   16  A    between atoms: C_27  and  C_30 
ROOT
ATOM      1  C   LIG d   1       9.908   6.678  -1.598  0.00  0.00    -0.022 C 
ATOM      2  H   LIG d   1       9.300   5.814  -1.330  0.00  0.00     0.032 H 
ATOM      3  C   LIG d   1       9.198   7.960  -1.149  0.00  0.00     0.018 C 
ATOM      4  N   LIG d   1       9.964   9.117  -1.632  0.00  0.00    -0.301 N 
ATOM      5  C   LIG d   1      10.290   9.204  -3.061  0.00  0.00     0.015 C 
ATOM      6  C   LIG d   1      10.986   7.908  -3.488  0.00  0.00    -0.034 C 
ATOM      7  C   LIG d   1      10.106   6.714  -3.115  0.00  0.00    -0.027 C 
ATOM      8  H   LIG d   1       9.138   6.809  -3.606  0.00  0.00     0.031 H 
ATOM      9  C   LIG d   1      10.361  10.082  -0.778  0.00  0.00     0.221 C 
ATOM     10  O   LIG d   1      10.010  10.046   0.382  0.00  0.00    -0.275 OA
ATOM     11  H   LIG d   1       9.143   7.985  -0.062  0.00  0.00     0.047 H 
ATOM     12  H   LIG d   1       8.192   7.988  -1.568  0.00  0.00     0.047 H 
ATOM     13  H   LIG d   1      10.955  10.050  -3.234  0.00  0.00     0.046 H 
ATOM     14  H   LIG d   1       9.375   9.333  -3.640  0.00  0.00     0.046 H 
ATOM     15  H   LIG d   1      11.946   7.826  -2.978  0.00  0.00     0.028 H 
ATOM     16  H   LIG d   1      11.147   7.919  -4.566  0.00  0.00     0.028 H 
ENDROOT
BRANCH   7  17
ATOM     17  C   LIG d   1      10.783   5.419  -3.571  0.00  0.00     0.028 C 
ATOM     18  H   LIG d   1      11.279   4.949  -2.721  0.00  0.00     0.036 H 
ATOM     19  H   LIG d   1      11.521   5.647  -4.341  0.00  0.00     0.036 H 
BRANCH  17  20
ATOM     20  C   LIG d   1       9.746   4.480  -4.130  0.00  0.00     0.223 C 
ATOM     21  O   LIG d   1       8.941   4.880  -4.943  0.00  0.00    -0.275 OA
ATOM     22  N   LIG d   1       9.713   3.194  -3.727  0.00  0.00    -0.226 N 
ATOM     23  C   LIG d   1       8.787   2.354  -4.227  0.00  0.00     0.308 C 
ATOM     24  O   LIG d   1       7.978   2.755  -5.043  0.00  0.00    -0.252 OA
ATOM     25  N   LIG d   1       8.757   1.067  -3.828  0.00  0.00    -0.299 N 
ATOM     26  H   LIG d   1       9.402   0.746  -3.178  0.00  0.00     0.150 HD
BRANCH  22  27
ATOM     27  C   LIG d   1      10.687   2.710  -2.744  0.00  0.00     0.021 C 
ATOM     28  H   LIG d   1      11.021   3.541  -2.124  0.00  0.00     0.047 H 
ATOM     29  H   LIG d   1      10.221   1.950  -2.116  0.00  0.00     0.047 H 
BRANCH  27  30
ATOM     30  C   LIG d   1      11.888   2.102  -3.473  0.00  0.00    -0.049 C 
ATOM     31  H   LIG d   1      12.627   1.772  -2.743  0.00  0.00     0.025 H 
ATOM     32  H   LIG d   1      11.558   1.250  -4.066  0.00  0.00     0.025 H 
ATOM     33  H   LIG d   1      12.333   2.852  -4.127  0.00  0.00     0.025 H 
ENDBRANCH  27  30
ENDBRANCH  22  27
BRANCH  25  34
ATOM     34  C   LIG d   1       7.753   0.153  -4.377  0.00  0.00     0.018 C 
ATOM     35  H   LIG d   1       7.217   0.644  -5.189  0.00  0.00     0.046 H 
ATOM     36  H   LIG d   1       8.246  -0.743  -4.756  0.00  0.00     0.046 H 
BRANCH  34  37
ATOM     37  C   LIG d   1       6.763  -0.237  -3.277  0.00  0.00     0.003 C 
ATOM     38  H   LIG d   1       6.192  -1.109  -3.595  0.00  0.00     0.033 H 
ATOM     39  H   LIG d   1       7.309  -0.476  -2.364  0.00  0.00     0.033 H 
BRANCH  37  40
ATOM     40  C   LIG d   1       5.810   0.929  -3.011  0.00  0.00    -0.031 C 
ATOM     41  H   LIG d   1       6.371   1.774  -2.613  0.00  0.00     0.082 H 
ATOM     42  H   LIG d   1       5.325   1.221  -3.942  0.00  0.00     0.082 H 
BRANCH  40  43
ATOM     43  N   LIG d   1       4.779   0.491  -2.045  0.00  0.00     0.231 N 
ATOM     44  H   LIG d   1       5.099   0.707  -1.095  0.00  0.00     0.203 HD
BRANCH  43  45
ATOM     45  C   LIG d   1       3.512   1.209  -2.300  0.00  0.00    -0.043 C 
ATOM     46  H   LIG d   1       2.663   0.533  -2.203  0.00  0.00     0.078 H 
ATOM     47  H   LIG d   1       3.414   2.021  -1.581  0.00  0.00     0.078 H 
ATOM     48  H   LIG d   1       3.535   1.620  -3.310  0.00  0.00     0.078 H 
ENDBRANCH  43  45
BRANCH  43  49
ATOM     49  C   LIG d   1       4.565  -0.966  -2.161  0.00  0.00    -0.043 C 
ATOM     50  H   LIG d   1       3.531  -1.150  -2.450  0.00  0.00     0.078 H 
ATOM     51  H   LIG d   1       5.233  -1.362  -2.925  0.00  0.00     0.078 H 
ATOM     52  H   LIG d   1       4.769  -1.460  -1.210  0.00  0.00     0.078 H 
ENDBRANCH  43  49
ENDBRANCH  40  43
ENDBRANCH  37  40
ENDBRANCH  34  37
ENDBRANCH  25  34
ENDBRANCH  17  20
ENDBRANCH   7  17
BRANCH   1  53
ATOM     53  C   LIG d   1      11.269   6.579  -0.907  0.00  0.00    -0.051 C 
ATOM     54  H   LIG d   1      11.808   5.712  -1.287  0.00  0.00     0.027 H 
ATOM     55  H   LIG d   1      11.846   7.482  -1.110  0.00  0.00     0.027 H 
BRANCH  53  56
ATOM     56  C   LIG d   1      11.066   6.433   0.602  0.00  0.00    -0.065 C 
ATOM     57  H   LIG d   1      11.348   5.426   0.911  0.00  0.00     0.023 H 
ATOM     58  H   LIG d   1      11.686   7.160   1.125  0.00  0.00     0.023 H 
ATOM     59  H   LIG d   1      10.017   6.607   0.846  0.00  0.00     0.023 H 
ENDBRANCH  53  56
ENDBRANCH   1  53
BRANCH   9  60
ATOM     60  C   LIG d   1      11.243  11.203  -1.265  0.00  0.00     0.039 C 
BRANCH  60  61
ATOM     61  C   LIG d   1      12.593  10.635  -1.707  0.00  0.00    -0.052 C 
ATOM     62  H   LIG d   1      12.788   9.704  -1.173  0.00  0.00     0.024 H 
ATOM     63  H   LIG d   1      12.573  10.441  -2.779  0.00  0.00     0.024 H 
ATOM     64  H   LIG d   1      13.381  11.354  -1.482  0.00  0.00     0.024 H 
ENDBRANCH  60  61
BRANCH  60  65
ATOM     65  C   LIG d   1      10.572  11.903  -2.448  0.00  0.00    -0.052 C 
ATOM     66  H   LIG d   1       9.598  11.451  -2.633  0.00  0.00     0.024 H 
ATOM     67  H   LIG d   1      10.445  12.961  -2.220  0.00  0.00     0.024 H 
ATOM     68  H   LIG d   1      11.197  11.795  -3.335  0.00  0.00     0.024 H 
ENDBRANCH  60  65
BRANCH  60  69
ATOM     69  C   LIG d   1      11.460  12.209  -0.133  0.00  0.00    -0.052 C 
ATOM     70  H   LIG d   1      11.682  13.189  -0.555  0.00  0.00     0.024 H 
ATOM     71  H   LIG d   1      10.558  12.271   0.477  0.00  0.00     0.024 H 
ATOM     72  H   LIG d   1      12.295  11.883   0.488  0.00  0.00     0.024 H 
ENDBRANCH  60  69
ENDBRANCH   9  60
TORSDOF 16
ENDMDL
MODEL 9
REMARK VINA RESULT:      -4.8      2.443      3.247
REMARK  16 active torsions:
REMARK  status: ('A' for Active; 'I' for Inactive)
REMARK    1  A    between atoms: C_1  and  C_2 
REMARK    2  A    between atoms: C_2  and  C_3 
REMARK       I    between atoms: N_6  and  C_25 
REMARK    3  A    between atoms: C_9  and  C_11 
REMARK    4  A    between atoms: C_11  and  C_12 
REMARK       I    between atoms: C_12  and  N_14 
REMARK    5  A    between atoms: N_14  and  C_15 
REMARK       I    between atoms: N_14  and  C_17 
REMARK    6  A    between atoms: C_15  and  C_16 
REMARK       I    between atoms: C_17  and  N_19 
REMARK    7  A    between atoms: N_19  and  C_20 
REMARK    8  A    between atoms: C_20  and  C_21 
REMARK    9  A    between atoms: C_21  and  C_22 
REMARK   10  A    between atoms: C_22  and  N_71 
REMARK   11  A    between atoms: C_23  and  N_71 
REMARK   12  A    between atoms: C_24  and  N_71 
REMARK   13  A    between atoms: C_25  and  C_27 
REMARK   14  A    between atoms: C_27  and  C_28 
REMARK   15  A    between atoms: C_27  and  C_29 
REMARK   16  A    between atoms: C_27  and  C_30 
ROOT
ATOM      1  C   LIG d   1       7.557  -1.527  -6.019  0.00  0.00    -0.022 C 
ATOM      2  H   LIG d   1       8.199  -1.257  -6.857  0.00  0.00     0.032 H 
ATOM      3  C   LIG d   1       6.797  -0.288  -5.536  0.00  0.00     0.018 C 
ATOM      4  N   LIG d   1       6.038  -0.639  -4.328  0.00  0.00    -0.301 N 
ATOM      5  C   LIG d   1       6.749  -1.256  -3.201  0.00  0.00     0.015 C 
ATOM      6  C   LIG d   1       7.510  -2.485  -3.710  0.00  0.00    -0.034 C 
ATOM      7  C   LIG d   1       8.413  -2.074  -4.874  0.00  0.00    -0.027 C 
ATOM      8  H   LIG d   1       9.108  -1.304  -4.540  0.00  0.00     0.031 H 
ATOM      9  C   LIG d   1       4.713  -0.400  -4.257  0.00  0.00     0.221 C 
ATOM     10  O   LIG d   1       4.155   0.191  -5.156  0.00  0.00    -0.275 OA
ATOM     11  H   LIG d   1       6.112   0.047  -6.314  0.00  0.00     0.047 H 
ATOM     12  H   LIG d   1       7.504   0.509  -5.304  0.00  0.00     0.047 H 
ATOM     13  H   LIG d   1       6.031  -1.561  -2.439  0.00  0.00     0.046 H 
ATOM     14  H   LIG d   1       7.454  -0.542  -2.775  0.00  0.00     0.046 H 
ATOM     15  H   LIG d   1       6.799  -3.238  -4.050  0.00  0.00     0.028 H 
ATOM     16  H   LIG d   1       8.118  -2.896  -2.904  0.00  0.00     0.028 H 
ENDROOT
BRANCH   7  17
ATOM     17  C   LIG d   1       9.201  -3.292  -5.363  0.00  0.00     0.028 C 
ATOM     18  H   LIG d   1      10.140  -2.962  -5.807  0.00  0.00     0.036 H 
ATOM     19  H   LIG d   1       8.614  -3.827  -6.110  0.00  0.00     0.036 H 
BRANCH  17  20
ATOM     20  C   LIG d   1       9.487  -4.205  -4.199  0.00  0.00     0.223 C 
ATOM     21  O   LIG d   1      10.029  -3.770  -3.206  0.00  0.00    -0.275 OA
ATOM     22  N   LIG d   1       9.140  -5.506  -4.262  0.00  0.00    -0.226 N 
ATOM     23  C   LIG d   1       9.395  -6.322  -3.221  0.00  0.00     0.308 C 
ATOM     24  O   LIG d   1       9.940  -5.887  -2.225  0.00  0.00    -0.252 OA
ATOM     25  N   LIG d   1       9.043  -7.622  -3.281  0.00  0.00    -0.299 N 
ATOM     26  H   LIG d   1       8.609  -7.970  -4.076  0.00  0.00     0.150 HD
BRANCH  22  27
ATOM     27  C   LIG d   1       8.483  -6.032  -5.462  0.00  0.00     0.021 C 
ATOM     28  H   LIG d   1       8.782  -5.441  -6.327  0.00  0.00     0.047 H 
ATOM     29  H   LIG d   1       8.779  -7.071  -5.611  0.00  0.00     0.047 H 
BRANCH  27  30
ATOM     30  C   LIG d   1       6.965  -5.953  -5.289  0.00  0.00    -0.049 C 
ATOM     31  H   LIG d   1       6.731  -5.377  -4.393  0.00  0.00     0.025 H 
ATOM     32  H   LIG d   1       6.526  -5.465  -6.159  0.00  0.00     0.025 H 
ATOM     33  H   LIG d   1       6.558  -6.959  -5.191  0.00  0.00     0.025 H 
ENDBRANCH  27  30
ENDBRANCH  22  27
BRANCH  25  34
ATOM     34  C   LIG d   1       9.316  -8.508  -2.148  0.00  0.00     0.018 C 
ATOM     35  H   LIG d   1      10.393  -8.641  -2.040  0.00  0.00     0.046 H 
ATOM     36  H   LIG d   1       8.911  -8.068  -1.236  0.00  0.00     0.046 H 
BRANCH  34  37
ATOM     37  C   LIG d   1       8.658  -9.868  -2.392  0.00  0.00     0.003 C 
ATOM     38  H   LIG d   1       8.740 -10.126  -3.449  0.00  0.00     0.033 H 
ATOM     39  H   LIG d   1       9.160 -10.628  -1.793  0.00  0.00     0.033 H 
BRANCH  37  40
ATOM     40  C   LIG d   1       7.182  -9.799  -1.997  0.00  0.00    -0.031 C 
ATOM     41  H   LIG d   1       7.021 -10.385  -1.092  0.00  0.00     0.082 H 
ATOM     42  H   LIG d   1       6.904  -8.762  -1.813  0.00  0.00     0.082 H 
BRANCH  40  43
ATOM     43  N   LIG d   1       6.365 -10.329  -3.110  0.00  0.00     0.231 N 
ATOM     44  H   LIG d   1       6.437  -9.690  -3.910  0.00  0.00     0.203 HD
BRANCH  43  45
ATOM     45  C   LIG d   1       6.863 -11.661  -3.512  0.00  0.00    -0.043 C 
ATOM     46  H   LIG d   1       6.193 -12.443  -3.154  0.00  0.00     0.078 H 
ATOM     47  H   LIG d   1       6.923 -11.704  -4.599  0.00  0.00     0.078 H 
ATOM     48  H   LIG d   1       7.856 -11.811  -3.087  0.00  0.00     0.078 H 
ENDBRANCH  43  45
BRANCH  43  49
ATOM     49  C   LIG d   1       4.949 -10.422  -2.697  0.00  0.00    -0.043 C 
ATOM     50  H   LIG d   1       4.820  -9.888  -1.755  0.00  0.00     0.078 H 
ATOM     51  H   LIG d   1       4.326  -9.963  -3.464  0.00  0.00     0.078 H 
ATOM     52  H   LIG d   1       4.656 -11.464  -2.566  0.00  0.00     0.078 H 
ENDBRANCH  43  49
ENDBRANCH  40  43
ENDBRANCH  37  40
ENDBRANCH  34  37
ENDBRANCH  25  34
ENDBRANCH  17  20
ENDBRANCH   7  17
BRANCH   1  53
ATOM     53  C   LIG d   1       6.558  -2.597  -6.465  0.00  0.00    -0.051 C 
ATOM     54  H   LIG d   1       6.845  -3.561  -6.045  0.00  0.00     0.027 H 
ATOM     55  H   LIG d   1       5.561  -2.331  -6.115  0.00  0.00     0.027 H 
BRANCH  53  56
ATOM     56  C   LIG d   1       6.555  -2.687  -7.992  0.00  0.00    -0.065 C 
ATOM     57  H   LIG d   1       7.446  -2.197  -8.387  0.00  0.00     0.023 H 
ATOM     58  H   LIG d   1       6.551  -3.733  -8.295  0.00  0.00     0.023 H 
ATOM     59  H   LIG d   1       5.666  -2.191  -8.383  0.00  0.00     0.023 H 
ENDBRANCH  53  56
ENDBRANCH   1  53
BRANCH   9  60
ATOM     60  C   LIG d   1       3.927  -0.869  -3.060  0.00  0.00     0.039 C 
BRANCH  60  61
ATOM     61  C   LIG d   1       4.442  -0.164  -1.803  0.00  0.00    -0.052 C 
ATOM     62  H   LIG d   1       5.527  -0.075  -1.856  0.00  0.00     0.024 H 
ATOM     63  H   LIG d   1       3.999   0.829  -1.736  0.00  0.00     0.024 H 
ATOM     64  H   LIG d   1       4.168  -0.745  -0.922  0.00  0.00     0.024 H 
ENDBRANCH  60  61
BRANCH  60  65
ATOM     65  C   LIG d   1       2.446  -0.539  -3.259  0.00  0.00    -0.052 C 
ATOM     66  H   LIG d   1       1.968  -0.421  -2.288  0.00  0.00     0.024 H 
ATOM     67  H   LIG d   1       2.354   0.386  -3.827  0.00  0.00     0.024 H 
ATOM     68  H   LIG d   1       1.965  -1.351  -3.806  0.00  0.00     0.024 H 
ENDBRANCH  60  65
BRANCH  60  69
ATOM     69  C   LIG d   1       4.095  -2.381  -2.900  0.00  0.00    -0.052 C 
ATOM     70  H   LIG d   1       3.827  -2.672  -1.884  0.00  0.00     0.024 H 
ATOM     71  H   LIG d   1       3.447  -2.897  -3.609  0.00  0.00     0.024 H 
ATOM     72  H   LIG d   1       5.133  -2.654  -3.093  0.00  0.00     0.024 H 
ENDBRANCH  60  69
ENDBRANCH   9  60
TORSDOF 16
ENDMDL
MODEL 10
REMARK VINA RESULT:      -4.8      1.230      1.840
REMARK  16 active torsions:
REMARK  status: ('A' for Active; 'I' for Inactive)
REMARK    1  A    between atoms: C_1  and  C_2 
REMARK    2  A    between atoms: C_2  and  C_3 
REMARK       I    between atoms: N_6  and  C_25 
REMARK    3  A    between atoms: C_9  and  C_11 
REMARK    4  A    between atoms: C_11  and  C_12 
REMARK       I    between atoms: C_12  and  N_14 
REMARK    5  A    between atoms: N_14  and  C_15 
REMARK       I    between atoms: N_14  and  C_17 
REMARK    6  A    between atoms: C_15  and  C_16 
REMARK       I    between atoms: C_17  and  N_19 
REMARK    7  A    between atoms: N_19  and  C_20 
REMARK    8  A    between atoms: C_20  and  C_21 
REMARK    9  A    between atoms: C_21  and  C_22 
REMARK   10  A    between atoms: C_22  and  N_71 
REMARK   11  A    between atoms: C_23  and  N_71 
REMARK   12  A    between atoms: C_24  and  N_71 
REMARK   13  A    between atoms: C_25  and  C_27 
REMARK   14  A    between atoms: C_27  and  C_28 
REMARK   15  A    between atoms: C_27  and  C_29 
REMARK   16  A    between atoms: C_27  and  C_30 
ROOT
ATOM      1  C   LIG d   1       6.234  -2.374  -6.326  0.00  0.00    -0.022 C 
ATOM      2  H   LIG d   1       7.007  -2.492  -7.085  0.00  0.00     0.032 H 
ATOM      3  C   LIG d   1       6.711  -1.379  -5.263  0.00  0.00     0.018 C 
ATOM      4  N   LIG d   1       5.716  -1.330  -4.182  0.00  0.00    -0.301 N 
ATOM      5  C   LIG d   1       5.307  -2.586  -3.539  0.00  0.00     0.015 C 
ATOM      6  C   LIG d   1       4.848  -3.568  -4.622  0.00  0.00    -0.034 C 
ATOM      7  C   LIG d   1       5.955  -3.726  -5.665  0.00  0.00    -0.027 C 
ATOM      8  H   LIG d   1       6.862  -4.087  -5.180  0.00  0.00     0.031 H 
ATOM      9  C   LIG d   1       5.188  -0.154  -3.789  0.00  0.00     0.221 C 
ATOM     10  O   LIG d   1       5.599   0.884  -4.263  0.00  0.00    -0.275 OA
ATOM     11  H   LIG d   1       6.815  -0.391  -5.709  0.00  0.00     0.047 H 
ATOM     12  H   LIG d   1       7.670  -1.703  -4.861  0.00  0.00     0.047 H 
ATOM     13  H   LIG d   1       4.487  -2.393  -2.848  0.00  0.00     0.046 H 
ATOM     14  H   LIG d   1       6.151  -3.012  -2.996  0.00  0.00     0.046 H 
ATOM     15  H   LIG d   1       3.948  -3.183  -5.103  0.00  0.00     0.028 H 
ATOM     16  H   LIG d   1       4.633  -4.535  -4.169  0.00  0.00     0.028 H 
ENDROOT
BRANCH   7  17
ATOM     17  C   LIG d   1       5.513  -4.732  -6.730  0.00  0.00     0.028 C 
ATOM     18  H   LIG d   1       6.362  -4.984  -7.366  0.00  0.00     0.036 H 
ATOM     19  H   LIG d   1       4.721  -4.293  -7.337  0.00  0.00     0.036 H 
BRANCH  17  20
ATOM     20  C   LIG d   1       5.000  -5.980  -6.060  0.00  0.00     0.223 C 
ATOM     21  O   LIG d   1       3.831  -6.065  -5.749  0.00  0.00    -0.275 OA
ATOM     22  N   LIG d   1       5.839  -7.004  -5.807  0.00  0.00    -0.226 N 
ATOM     23  C   LIG d   1       5.380  -8.120  -5.209  0.00  0.00     0.308 C 
ATOM     24  O   LIG d   1       4.208  -8.205  -4.895  0.00  0.00    -0.252 OA
ATOM     25  N   LIG d   1       6.218  -9.146  -4.960  0.00  0.00    -0.299 N 
ATOM     26  H   LIG d   1       7.154  -9.079  -5.210  0.00  0.00     0.150 HD
BRANCH  22  27
ATOM     27  C   LIG d   1       7.252  -6.902  -6.184  0.00  0.00     0.021 C 
ATOM     28  H   LIG d   1       7.593  -7.860  -6.576  0.00  0.00     0.047 H 
ATOM     29  H   LIG d   1       7.369  -6.134  -6.949  0.00  0.00     0.047 H 
BRANCH  27  30
ATOM     30  C   LIG d   1       8.082  -6.528  -4.955  0.00  0.00    -0.049 C 
ATOM     31  H   LIG d   1       8.282  -5.456  -4.964  0.00  0.00     0.025 H 
ATOM     32  H   LIG d   1       7.530  -6.787  -4.052  0.00  0.00     0.025 H 
ATOM     33  H   LIG d   1       9.026  -7.073  -4.974  0.00  0.00     0.025 H 
ENDBRANCH  27  30
ENDBRANCH  22  27
BRANCH  25  34
ATOM     34  C   LIG d   1       5.718 -10.361  -4.314  0.00  0.00     0.018 C 
ATOM     35  H   LIG d   1       4.996 -10.093  -3.543  0.00  0.00     0.046 H 
ATOM     36  H   LIG d   1       5.235 -10.996  -5.059  0.00  0.00     0.046 H 
BRANCH  34  37
ATOM     37  C   LIG d   1       6.886 -11.119  -3.679  0.00  0.00     0.003 C 
ATOM     38  H   LIG d   1       7.724 -10.438  -3.533  0.00  0.00     0.033 H 
ATOM     39  H   LIG d   1       6.575 -11.523  -2.715  0.00  0.00     0.033 H 
BRANCH  37  40
ATOM     40  C   LIG d   1       7.312 -12.265  -4.598  0.00  0.00    -0.031 C 
ATOM     41  H   LIG d   1       7.230 -13.210  -4.063  0.00  0.00     0.082 H 
ATOM     42  H   LIG d   1       6.665 -12.286  -5.475  0.00  0.00     0.082 H 
BRANCH  40  43
ATOM     43  N   LIG d   1       8.707 -12.034  -5.032  0.00  0.00     0.231 N 
ATOM     44  H   LIG d   1       9.202 -12.933  -5.054  0.00  0.00     0.203 HD
BRANCH  43  45
ATOM     45  C   LIG d   1       8.723 -11.442  -6.385  0.00  0.00    -0.043 C 
ATOM     46  H   LIG d   1       9.030 -12.183  -7.124  0.00  0.00     0.078 H 
ATOM     47  H   LIG d   1       7.723 -11.082  -6.627  0.00  0.00     0.078 H 
ATOM     48  H   LIG d   1       9.423 -10.606  -6.398  0.00  0.00     0.078 H 
ENDBRANCH  43  45
BRANCH  43  49
ATOM     49  C   LIG d   1       9.389 -11.135  -4.078  0.00  0.00    -0.043 C 
ATOM     50  H   LIG d   1       9.930 -10.371  -4.638  0.00  0.00     0.078 H 
ATOM     51  H   LIG d   1       8.643 -10.660  -3.443  0.00  0.00     0.078 H 
ATOM     52  H   LIG d   1      10.091 -11.695  -3.459  0.00  0.00     0.078 H 
ENDBRANCH  43  49
ENDBRANCH  40  43
ENDBRANCH  37  40
ENDBRANCH  34  37
ENDBRANCH  25  34
ENDBRANCH  17  20
ENDBRANCH   7  17
BRANCH   1  53
ATOM     53  C   LIG d   1       4.953  -1.851  -6.978  0.00  0.00    -0.051 C 
ATOM     54  H   LIG d   1       4.613  -2.560  -7.732  0.00  0.00     0.027 H 
ATOM     55  H   LIG d   1       4.181  -1.732  -6.217  0.00  0.00     0.027 H 
BRANCH  53  56
ATOM     56  C   LIG d   1       5.231  -0.498  -7.637  0.00  0.00    -0.065 C 
ATOM     57  H   LIG d   1       4.991   0.303  -6.938  0.00  0.00     0.023 H 
ATOM     58  H   LIG d   1       6.284  -0.437  -7.911  0.00  0.00     0.023 H 
ATOM     59  H   LIG d   1       4.616  -0.397  -8.531  0.00  0.00     0.023 H 
ENDBRANCH  53  56
ENDBRANCH   1  53
BRANCH   9  60
ATOM     60  C   LIG d   1       4.087  -0.129  -2.760  0.00  0.00     0.039 C 
BRANCH  60  61
ATOM     61  C   LIG d   1       2.803  -0.694  -3.373  0.00  0.00    -0.052 C 
ATOM     62  H   LIG d   1       2.339   0.064  -4.004  0.00  0.00     0.024 H 
ATOM     63  H   LIG d   1       3.043  -1.571  -3.975  0.00  0.00     0.024 H 
ATOM     64  H   LIG d   1       2.114  -0.976  -2.577  0.00  0.00     0.024 H 
ENDBRANCH  60  61
BRANCH  60  65
ATOM     65  C   LIG d   1       4.494  -0.980  -1.555  0.00  0.00    -0.052 C 
ATOM     66  H   LIG d   1       3.600  -1.358  -1.060  0.00  0.00     0.024 H 
ATOM     67  H   LIG d   1       5.107  -1.816  -1.891  0.00  0.00     0.024 H 
ATOM     68  H   LIG d   1       5.066  -0.368  -0.856  0.00  0.00     0.024 H 
ENDBRANCH  60  65
BRANCH  60  69
ATOM     69  C   LIG d   1       3.844   1.312  -2.308  0.00  0.00    -0.052 C 
ATOM     70  H   LIG d   1       3.109   1.780  -2.962  0.00  0.00     0.024 H 
ATOM     71  H   LIG d   1       3.472   1.314  -1.283  0.00  0.00     0.024 H 
ATOM     72  H   LIG d   1       4.779   1.871  -2.354  0.00  0.00     0.024 H 
ENDBRANCH  60  69
ENDBRANCH   9  60
TORSDOF 16
ENDMDL
