MODEL 1
REMARK VINA RESULT:      -7.4      0.000      0.000
REMARK  8 active torsions:
REMARK  status: ('A' for Active; 'I' for Inactive)
REMARK    1  A    between atoms: C_1  and  C_2 
REMARK    2  A    between atoms: C_5  and  C_8 
REMARK    3  A    between atoms: N_9  and  C_10 
REMARK    4  A    between atoms: C_11  and  C_25 
REMARK    5  A    between atoms: C_12  and  N_16 
REMARK    6  A    between atoms: C_17  and  C_18 
REMARK    7  A    between atoms: C_21  and  C_24 
REMARK    8  A    between atoms: C_25  and  C_26 
ROOT
ATOM      1  C   LIG d   1       4.254  -3.713  -6.855  0.00  0.00     0.154 A 
ATOM      2  C   LIG d   1       4.968  -4.407  -5.903  0.00  0.00     0.046 A 
ATOM      3  C   LIG d   1       4.476  -5.725  -5.881  0.00  0.00     0.179 A 
ATOM      4  N   LIG d   1       3.512  -5.824  -6.776  0.00  0.00    -0.152 NA
ATOM      5  N   LIG d   1       3.348  -4.579  -7.397  0.00  0.00    -0.258 N 
ATOM      6  H   LIG d   1       2.704  -4.370  -8.092  0.00  0.00     0.191 HD
ENDROOT
BRANCH   1   7
ATOM      7  N   LIG d   1       4.419  -2.403  -7.190  0.00  0.00    -0.236 NA
ATOM      8  C   LIG d   1       3.567  -1.823  -7.990  0.00  0.00     0.037 C 
ATOM      9  H   LIG d   1       2.732  -2.381  -8.387  0.00  0.00     0.084 H 
BRANCH   8  10
ATOM     10  C   LIG d   1       3.745  -0.407  -8.352  0.00  0.00    -0.007 A 
ATOM     11  C   LIG d   1       2.648   0.461  -8.353  0.00  0.00    -0.053 A 
ATOM     12  C   LIG d   1       2.823   1.786  -8.694  0.00  0.00    -0.058 A 
ATOM     13  H   LIG d   1       1.667   0.095  -8.089  0.00  0.00     0.062 H 
ATOM     14  C   LIG d   1       4.079   2.257  -9.032  0.00  0.00    -0.050 A 
ATOM     15  H   LIG d   1       1.977   2.457  -8.694  0.00  0.00     0.062 H 
ATOM     16  C   LIG d   1       5.168   1.403  -9.039  0.00  0.00    -0.058 A 
ATOM     17  C   LIG d   1       5.011   0.077  -8.696  0.00  0.00    -0.053 A 
ATOM     18  H   LIG d   1       6.145   1.777  -9.309  0.00  0.00     0.062 H 
ATOM     19  H   LIG d   1       5.862  -0.588  -8.697  0.00  0.00     0.062 H 
BRANCH  14  20
ATOM     20  C   LIG d   1       4.261   3.707  -9.403  0.00  0.00    -0.040 C 
ATOM     21  H   LIG d   1       3.461   4.013 -10.077  0.00  0.00     0.028 H 
ATOM     22  H   LIG d   1       4.231   4.319  -8.502  0.00  0.00     0.028 H 
ATOM     23  H   LIG d   1       5.223   3.837  -9.899  0.00  0.00     0.028 H 
ENDBRANCH  14  20
ENDBRANCH   8  10
ENDBRANCH   1   7
BRANCH   2  24
ATOM     24  C   LIG d   1       6.075  -3.856  -5.042  0.00  0.00     0.005 C 
ATOM     25  H   LIG d   1       6.433  -4.634  -4.368  0.00  0.00     0.036 H 
ATOM     26  H   LIG d   1       6.896  -3.519  -5.676  0.00  0.00     0.036 H 
BRANCH  24  27
ATOM     27  C   LIG d   1       5.553  -2.694  -4.236  0.00  0.00    -0.043 A 
ATOM     28  C   LIG d   1       4.435  -2.852  -3.439  0.00  0.00    -0.057 A 
ATOM     29  C   LIG d   1       3.960  -1.789  -2.696  0.00  0.00    -0.043 A 
ATOM     30  H   LIG d   1       3.935  -3.809  -3.393  0.00  0.00     0.062 H 
ATOM     31  C   LIG d   1       4.596  -0.562  -2.758  0.00  0.00     0.041 A 
ATOM     32  H   LIG d   1       3.090  -1.913  -2.069  0.00  0.00     0.063 H 
ATOM     33  C   LIG d   1       5.712  -0.402  -3.561  0.00  0.00    -0.043 A 
ATOM     34 CL   LIG d   1       3.997   0.777  -1.830  0.00  0.00    -0.084 Cl
ATOM     35  C   LIG d   1       6.191  -1.468  -4.300  0.00  0.00    -0.057 A 
ATOM     36  H   LIG d   1       6.210   0.555  -3.610  0.00  0.00     0.063 H 
ATOM     37  H   LIG d   1       7.061  -1.344  -4.926  0.00  0.00     0.062 H 
ENDBRANCH  24  27
ENDBRANCH   2  24
BRANCH   3  38
ATOM     38  N   LIG d   1       4.922  -6.734  -5.070  0.00  0.00    -0.234 NA
ATOM     39  C   LIG d   1       4.976  -7.955  -5.518  0.00  0.00     0.037 C 
ATOM     40  H   LIG d   1       4.669  -8.173  -6.531  0.00  0.00     0.084 H 
BRANCH  39  41
ATOM     41  C   LIG d   1       5.456  -9.040  -4.645  0.00  0.00    -0.007 A 
ATOM     42  C   LIG d   1       6.827  -9.240  -4.464  0.00  0.00    -0.053 A 
ATOM     43  C   LIG d   1       7.269 -10.256  -3.641  0.00  0.00    -0.058 A 
ATOM     44  H   LIG d   1       7.540  -8.601  -4.964  0.00  0.00     0.062 H 
ATOM     45  C   LIG d   1       6.358 -11.081  -3.004  0.00  0.00    -0.050 A 
ATOM     46  H   LIG d   1       8.328 -10.410  -3.496  0.00  0.00     0.062 H 
ATOM     47  C   LIG d   1       4.999 -10.891  -3.184  0.00  0.00    -0.058 A 
ATOM     48  C   LIG d   1       4.542  -9.877  -3.999  0.00  0.00    -0.053 A 
ATOM     49  H   LIG d   1       4.295 -11.539  -2.683  0.00  0.00     0.062 H 
ATOM     50  H   LIG d   1       3.482  -9.730  -4.138  0.00  0.00     0.062 H 
BRANCH  45  51
ATOM     51  C   LIG d   1       6.849 -12.191  -2.111  0.00  0.00    -0.040 C 
ATOM     52  H   LIG d   1       6.271 -13.094  -2.303  0.00  0.00     0.028 H 
ATOM     53  H   LIG d   1       7.902 -12.383  -2.316  0.00  0.00     0.028 H 
ATOM     54  H   LIG d   1       6.729 -11.897  -1.068  0.00  0.00     0.028 H 
ENDBRANCH  45  51
ENDBRANCH  39  41
ENDBRANCH   3  38
TORSDOF 8
ENDMDL
MODEL 2
REMARK VINA RESULT:      -7.3      1.390      2.105
REMARK  8 active torsions:
REMARK  status: ('A' for Active; 'I' for Inactive)
REMARK    1  A    between atoms: C_1  and  C_2 
REMARK    2  A    between atoms: C_5  and  C_8 
REMARK    3  A    between atoms: N_9  and  C_10 
REMARK    4  A    between atoms: C_11  and  C_25 
REMARK    5  A    between atoms: C_12  and  N_16 
REMARK    6  A    between atoms: C_17  and  C_18 
REMARK    7  A    between atoms: C_21  and  C_24 
REMARK    8  A    between atoms: C_25  and  C_26 
ROOT
ATOM      1  C   LIG d   1       4.606  -3.312  -6.965  0.00  0.00     0.154 A 
ATOM      2  C   LIG d   1       5.073  -4.128  -5.958  0.00  0.00     0.046 A 
ATOM      3  C   LIG d   1       4.345  -5.330  -6.015  0.00  0.00     0.179 A 
ATOM      4  N   LIG d   1       3.480  -5.246  -7.007  0.00  0.00    -0.152 NA
ATOM      5  N   LIG d   1       3.617  -3.993  -7.617  0.00  0.00    -0.258 N 
ATOM      6  H   LIG d   1       3.101  -3.666  -8.370  0.00  0.00     0.191 HD
ENDROOT
BRANCH   1   7
ATOM      7  N   LIG d   1       5.045  -2.055  -7.254  0.00  0.00    -0.236 NA
ATOM      8  C   LIG d   1       6.232  -1.882  -7.767  0.00  0.00     0.037 C 
ATOM      9  H   LIG d   1       6.867  -2.734  -7.963  0.00  0.00     0.084 H 
BRANCH   8  10
ATOM     10  C   LIG d   1       6.708  -0.525  -8.079  0.00  0.00    -0.007 A 
ATOM     11  C   LIG d   1       8.010  -0.142  -7.742  0.00  0.00    -0.053 A 
ATOM     12  C   LIG d   1       8.449   1.132  -8.037  0.00  0.00    -0.058 A 
ATOM     13  H   LIG d   1       8.671  -0.841  -7.250  0.00  0.00     0.062 H 
ATOM     14  C   LIG d   1       7.605   2.029  -8.667  0.00  0.00    -0.050 A 
ATOM     15  H   LIG d   1       9.454   1.428  -7.778  0.00  0.00     0.062 H 
ATOM     16  C   LIG d   1       6.313   1.660  -8.999  0.00  0.00    -0.058 A 
ATOM     17  C   LIG d   1       5.861   0.388  -8.715  0.00  0.00    -0.053 A 
ATOM     18  H   LIG d   1       5.659   2.367  -9.486  0.00  0.00     0.062 H 
ATOM     19  H   LIG d   1       4.855   0.099  -8.978  0.00  0.00     0.062 H 
BRANCH  14  20
ATOM     20  C   LIG d   1       8.093   3.419  -8.987  0.00  0.00    -0.040 C 
ATOM     21  H   LIG d   1       7.390   3.904  -9.663  0.00  0.00     0.028 H 
ATOM     22  H   LIG d   1       8.171   3.998  -8.066  0.00  0.00     0.028 H 
ATOM     23  H   LIG d   1       9.073   3.359  -9.462  0.00  0.00     0.028 H 
ENDBRANCH  14  20
ENDBRANCH   8  10
ENDBRANCH   1   7
BRANCH   2  24
ATOM     24  C   LIG d   1       6.165  -3.794  -4.975  0.00  0.00     0.005 C 
ATOM     25  H   LIG d   1       6.361  -4.660  -4.343  0.00  0.00     0.036 H 
ATOM     26  H   LIG d   1       7.072  -3.527  -5.517  0.00  0.00     0.036 H 
BRANCH  24  27
ATOM     27  C   LIG d   1       5.731  -2.634  -4.117  0.00  0.00    -0.043 A 
ATOM     28  C   LIG d   1       6.540  -1.519  -4.002  0.00  0.00    -0.057 A 
ATOM     29  C   LIG d   1       6.141  -0.452  -3.220  0.00  0.00    -0.043 A 
ATOM     30  H   LIG d   1       7.484  -1.480  -4.526  0.00  0.00     0.062 H 
ATOM     31  C   LIG d   1       4.935  -0.504  -2.543  0.00  0.00     0.041 A 
ATOM     32  H   LIG d   1       6.770   0.420  -3.133  0.00  0.00     0.063 H 
ATOM     33  C   LIG d   1       4.127  -1.623  -2.654  0.00  0.00    -0.043 A 
ATOM     34 CL   LIG d   1       4.434   0.832  -1.555  0.00  0.00    -0.084 Cl
ATOM     35  C   LIG d   1       4.526  -2.687  -3.441  0.00  0.00    -0.057 A 
ATOM     36  H   LIG d   1       3.186  -1.664  -2.126  0.00  0.00     0.063 H 
ATOM     37  H   LIG d   1       3.896  -3.559  -3.529  0.00  0.00     0.062 H 
ENDBRANCH  24  27
ENDBRANCH   2  24
BRANCH   3  38
ATOM     38  N   LIG d   1       4.506  -6.406  -5.183  0.00  0.00    -0.234 NA
ATOM     39  C   LIG d   1       5.268  -7.399  -5.541  0.00  0.00     0.037 C 
ATOM     40  H   LIG d   1       5.773  -7.375  -6.496  0.00  0.00     0.084 H 
BRANCH  39  41
ATOM     41  C   LIG d   1       5.441  -8.556  -4.645  0.00  0.00    -0.007 A 
ATOM     42  C   LIG d   1       6.703  -8.857  -4.126  0.00  0.00    -0.053 A 
ATOM     43  C   LIG d   1       6.857  -9.940  -3.284  0.00  0.00    -0.058 A 
ATOM     44  H   LIG d   1       7.555  -8.244  -4.379  0.00  0.00     0.062 H 
ATOM     45  C   LIG d   1       5.767 -10.730  -2.962  0.00  0.00    -0.050 A 
ATOM     46  H   LIG d   1       7.830 -10.172  -2.878  0.00  0.00     0.062 H 
ATOM     47  C   LIG d   1       4.517 -10.440  -3.477  0.00  0.00    -0.058 A 
ATOM     48  C   LIG d   1       4.346  -9.359  -4.316  0.00  0.00    -0.053 A 
ATOM     49  H   LIG d   1       3.672 -11.061  -3.222  0.00  0.00     0.062 H 
ATOM     50  H   LIG d   1       3.370  -9.133  -4.717  0.00  0.00     0.062 H 
BRANCH  45  51
ATOM     51  C   LIG d   1       5.945 -11.913  -2.046  0.00  0.00    -0.040 C 
ATOM     52  H   LIG d   1       5.924 -11.577  -1.010  0.00  0.00     0.028 H 
ATOM     53  H   LIG d   1       5.138 -12.627  -2.213  0.00  0.00     0.028 H 
ATOM     54  H   LIG d   1       6.902 -12.393  -2.253  0.00  0.00     0.028 H 
ENDBRANCH  45  51
ENDBRANCH  39  41
ENDBRANCH   3  38
TORSDOF 8
ENDMDL
MODEL 3
REMARK VINA RESULT:      -7.0     12.155     15.606
REMARK  8 active torsions:
REMARK  status: ('A' for Active; 'I' for Inactive)
REMARK    1  A    between atoms: C_1  and  C_2 
REMARK    2  A    between atoms: C_5  and  C_8 
REMARK    3  A    between atoms: N_9  and  C_10 
REMARK    4  A    between atoms: C_11  and  C_25 
REMARK    5  A    between atoms: C_12  and  N_16 
REMARK    6  A    between atoms: C_17  and  C_18 
REMARK    7  A    between atoms: C_21  and  C_24 
REMARK    8  A    between atoms: C_25  and  C_26 
ROOT
ATOM      1  C   LIG d   1      11.064   6.401  -0.200  0.00  0.00     0.154 A 
ATOM      2  C   LIG d   1      11.414   7.327   0.760  0.00  0.00     0.046 A 
ATOM      3  C   LIG d   1      11.183   6.741   2.018  0.00  0.00     0.179 A 
ATOM      4  N   LIG d   1      10.715   5.522   1.830  0.00  0.00    -0.152 NA
ATOM      5  N   LIG d   1      10.626   5.284   0.452  0.00  0.00    -0.258 N 
ATOM      6  H   LIG d   1      10.309   4.468   0.035  0.00  0.00     0.191 HD
ENDROOT
BRANCH   1   7
ATOM      7  N   LIG d   1      11.136   6.572  -1.549  0.00  0.00    -0.236 NA
ATOM      8  C   LIG d   1      10.067   6.430  -2.282  0.00  0.00     0.037 C 
ATOM      9  H   LIG d   1       9.124   6.175  -1.820  0.00  0.00     0.084 H 
BRANCH   8  10
ATOM     10  C   LIG d   1      10.144   6.614  -3.740  0.00  0.00    -0.007 A 
ATOM     11  C   LIG d   1       9.836   5.555  -4.600  0.00  0.00    -0.053 A 
ATOM     12  C   LIG d   1       9.911   5.736  -5.965  0.00  0.00    -0.058 A 
ATOM     13  H   LIG d   1       9.541   4.597  -4.196  0.00  0.00     0.062 H 
ATOM     14  C   LIG d   1      10.288   6.961  -6.485  0.00  0.00    -0.050 A 
ATOM     15  H   LIG d   1       9.673   4.919  -6.630  0.00  0.00     0.062 H 
ATOM     16  C   LIG d   1      10.600   8.013  -5.641  0.00  0.00    -0.058 A 
ATOM     17  C   LIG d   1      10.525   7.850  -4.273  0.00  0.00    -0.053 A 
ATOM     18  H   LIG d   1      10.898   8.965  -6.053  0.00  0.00     0.062 H 
ATOM     19  H   LIG d   1      10.764   8.672  -3.616  0.00  0.00     0.062 H 
BRANCH  14  20
ATOM     20  C   LIG d   1      10.367   7.150  -7.978  0.00  0.00    -0.040 C 
ATOM     21  H   LIG d   1      11.224   7.776  -8.221  0.00  0.00     0.028 H 
ATOM     22  H   LIG d   1      10.477   6.179  -8.462  0.00  0.00     0.028 H 
ATOM     23  H   LIG d   1       9.454   7.630  -8.332  0.00  0.00     0.028 H 
ENDBRANCH  14  20
ENDBRANCH   8  10
ENDBRANCH   1   7
BRANCH   2  24
ATOM     24  C   LIG d   1      11.948   8.713   0.507  0.00  0.00     0.005 C 
ATOM     25  H   LIG d   1      12.022   9.251   1.452  0.00  0.00     0.036 H 
ATOM     26  H   LIG d   1      12.936   8.645   0.051  0.00  0.00     0.036 H 
BRANCH  24  27
ATOM     27  C   LIG d   1      11.016   9.450  -0.419  0.00  0.00    -0.043 A 
ATOM     28  C   LIG d   1       9.653   9.426  -0.192  0.00  0.00    -0.057 A 
ATOM     29  C   LIG d   1       8.798  10.105  -1.038  0.00  0.00    -0.043 A 
ATOM     30  H   LIG d   1       9.256   8.879   0.651  0.00  0.00     0.062 H 
ATOM     31  C   LIG d   1       9.306  10.801  -2.121  0.00  0.00     0.041 A 
ATOM     32  H   LIG d   1       7.734  10.091  -0.858  0.00  0.00     0.063 H 
ATOM     33  C   LIG d   1      10.671  10.821  -2.352  0.00  0.00    -0.043 A 
ATOM     34 CL   LIG d   1       8.233  11.651  -3.189  0.00  0.00    -0.084 Cl
ATOM     35  C   LIG d   1      11.525  10.144  -1.501  0.00  0.00    -0.057 A 
ATOM     36  H   LIG d   1      11.067  11.364  -3.197  0.00  0.00     0.063 H 
ATOM     37  H   LIG d   1      12.589  10.160  -1.681  0.00  0.00     0.062 H 
ENDBRANCH  24  27
ENDBRANCH   2  24
BRANCH   3  38
ATOM     38  N   LIG d   1      11.405   7.335   3.232  0.00  0.00    -0.234 NA
ATOM     39  C   LIG d   1      11.045   6.732   4.328  0.00  0.00     0.037 C 
ATOM     40  H   LIG d   1      10.570   5.763   4.280  0.00  0.00     0.084 H 
BRANCH  39  41
ATOM     41  C   LIG d   1      11.284   7.371   5.633  0.00  0.00    -0.007 A 
ATOM     42  C   LIG d   1      10.961   6.697   6.814  0.00  0.00    -0.053 A 
ATOM     43  C   LIG d   1      11.192   7.301   8.033  0.00  0.00    -0.058 A 
ATOM     44  H   LIG d   1      10.536   5.705   6.774  0.00  0.00     0.062 H 
ATOM     45  C   LIG d   1      11.732   8.574   8.088  0.00  0.00    -0.050 A 
ATOM     46  H   LIG d   1      10.948   6.779   8.947  0.00  0.00     0.062 H 
ATOM     47  C   LIG d   1      12.048   9.249   6.922  0.00  0.00    -0.058 A 
ATOM     48  C   LIG d   1      11.828   8.657   5.696  0.00  0.00    -0.053 A 
ATOM     49  H   LIG d   1      12.469  10.242   6.973  0.00  0.00     0.062 H 
ATOM     50  H   LIG d   1      12.076   9.185   4.788  0.00  0.00     0.062 H 
BRANCH  45  51
ATOM     51  C   LIG d   1      11.976   9.227   9.423  0.00  0.00    -0.040 C 
ATOM     52  H   LIG d   1      12.735  10.001   9.316  0.00  0.00     0.028 H 
ATOM     53  H   LIG d   1      11.049   9.675   9.783  0.00  0.00     0.028 H 
ATOM     54  H   LIG d   1      12.319   8.478  10.137  0.00  0.00     0.028 H 
ENDBRANCH  45  51
ENDBRANCH  39  41
ENDBRANCH   3  38
TORSDOF 8
ENDMDL
MODEL 4
REMARK VINA RESULT:      -6.9      0.878      9.256
REMARK  8 active torsions:
REMARK  status: ('A' for Active; 'I' for Inactive)
REMARK    1  A    between atoms: C_1  and  C_2 
REMARK    2  A    between atoms: C_5  and  C_8 
REMARK    3  A    between atoms: N_9  and  C_10 
REMARK    4  A    between atoms: C_11  and  C_25 
REMARK    5  A    between atoms: C_12  and  N_16 
REMARK    6  A    between atoms: C_17  and  C_18 
REMARK    7  A    between atoms: C_21  and  C_24 
REMARK    8  A    between atoms: C_25  and  C_26 
ROOT
ATOM      1  C   LIG d   1       5.250  -6.358  -6.231  0.00  0.00     0.154 A 
ATOM      2  C   LIG d   1       5.633  -5.041  -6.369  0.00  0.00     0.046 A 
ATOM      3  C   LIG d   1       4.813  -4.463  -7.354  0.00  0.00     0.179 A 
ATOM      4  N   LIG d   1       3.975  -5.382  -7.792  0.00  0.00    -0.152 NA
ATOM      5  N   LIG d   1       4.228  -6.579  -7.110  0.00  0.00    -0.258 N 
ATOM      6  H   LIG d   1       3.759  -7.419  -7.239  0.00  0.00     0.191 HD
ENDROOT
BRANCH   1   7
ATOM      7  N   LIG d   1       5.794  -7.271  -5.379  0.00  0.00    -0.236 NA
ATOM      8  C   LIG d   1       5.101  -8.313  -5.011  0.00  0.00     0.037 C 
ATOM      9  H   LIG d   1       4.096  -8.452  -5.381  0.00  0.00     0.084 H 
BRANCH   8  10
ATOM     10  C   LIG d   1       5.688  -9.299  -4.090  0.00  0.00    -0.007 A 
ATOM     11  C   LIG d   1       7.072  -9.343  -3.896  0.00  0.00    -0.053 A 
ATOM     12  C   LIG d   1       7.614 -10.270  -3.030  0.00  0.00    -0.058 A 
ATOM     13  H   LIG d   1       7.715  -8.654  -4.423  0.00  0.00     0.062 H 
ATOM     14  C   LIG d   1       6.793 -11.154  -2.354  0.00  0.00    -0.050 A 
ATOM     15  H   LIG d   1       8.683 -10.305  -2.879  0.00  0.00     0.062 H 
ATOM     16  C   LIG d   1       5.422 -11.120  -2.545  0.00  0.00    -0.058 A 
ATOM     17  C   LIG d   1       4.864 -10.196  -3.402  0.00  0.00    -0.053 A 
ATOM     18  H   LIG d   1       4.787 -11.817  -2.017  0.00  0.00     0.062 H 
ATOM     19  H   LIG d   1       3.794 -10.168  -3.547  0.00  0.00     0.062 H 
BRANCH  14  20
ATOM     20  C   LIG d   1       7.394 -12.164  -1.410  0.00  0.00    -0.040 C 
ATOM     21  H   LIG d   1       6.598 -12.681  -0.876  0.00  0.00     0.028 H 
ATOM     22  H   LIG d   1       7.981 -12.886  -1.977  0.00  0.00     0.028 H 
ATOM     23  H   LIG d   1       8.039 -11.653  -0.695  0.00  0.00     0.028 H 
ENDBRANCH  14  20
ENDBRANCH   8  10
ENDBRANCH   1   7
BRANCH   2  24
ATOM     24  C   LIG d   1       6.731  -4.348  -5.604  0.00  0.00     0.005 C 
ATOM     25  H   LIG d   1       7.313  -5.088  -5.054  0.00  0.00     0.036 H 
ATOM     26  H   LIG d   1       7.381  -3.819  -6.301  0.00  0.00     0.036 H 
BRANCH  24  27
ATOM     27  C   LIG d   1       6.125  -3.365  -4.636  0.00  0.00    -0.043 A 
ATOM     28  C   LIG d   1       6.885  -2.319  -4.146  0.00  0.00    -0.057 A 
ATOM     29  C   LIG d   1       6.329  -1.415  -3.263  0.00  0.00    -0.043 A 
ATOM     30  H   LIG d   1       7.914  -2.207  -4.458  0.00  0.00     0.062 H 
ATOM     31  C   LIG d   1       5.013  -1.562  -2.859  0.00  0.00     0.041 A 
ATOM     32  H   LIG d   1       6.920  -0.595  -2.884  0.00  0.00     0.063 H 
ATOM     33  C   LIG d   1       4.254  -2.612  -3.345  0.00  0.00    -0.043 A 
ATOM     34 CL   LIG d   1       4.315  -0.430  -1.744  0.00  0.00    -0.084 Cl
ATOM     35  C   LIG d   1       4.811  -3.514  -4.233  0.00  0.00    -0.057 A 
ATOM     36  H   LIG d   1       3.228  -2.727  -3.030  0.00  0.00     0.063 H 
ATOM     37  H   LIG d   1       4.219  -4.333  -4.613  0.00  0.00     0.062 H 
ENDBRANCH  24  27
ENDBRANCH   2  24
BRANCH   3  38
ATOM     38  N   LIG d   1       4.874  -3.164  -7.787  0.00  0.00    -0.234 NA
ATOM     39  C   LIG d   1       3.892  -2.347  -7.537  0.00  0.00     0.037 C 
ATOM     40  H   LIG d   1       3.028  -2.693  -6.988  0.00  0.00     0.084 H 
BRANCH  39  41
ATOM     41  C   LIG d   1       3.957  -0.951  -8.003  0.00  0.00    -0.007 A 
ATOM     42  C   LIG d   1       2.782  -0.249  -8.282  0.00  0.00    -0.053 A 
ATOM     43  C   LIG d   1       2.851   1.059  -8.714  0.00  0.00    -0.058 A 
ATOM     44  H   LIG d   1       1.822  -0.728  -8.158  0.00  0.00     0.062 H 
ATOM     45  C   LIG d   1       4.081   1.673  -8.879  0.00  0.00    -0.050 A 
ATOM     46  H   LIG d   1       1.944   1.605  -8.926  0.00  0.00     0.062 H 
ATOM     47  C   LIG d   1       5.248   0.981  -8.609  0.00  0.00    -0.058 A 
ATOM     48  C   LIG d   1       5.195  -0.326  -8.173  0.00  0.00    -0.053 A 
ATOM     49  H   LIG d   1       6.204   1.467  -8.741  0.00  0.00     0.062 H 
ATOM     50  H   LIG d   1       6.107  -0.863  -7.962  0.00  0.00     0.062 H 
BRANCH  45  51
ATOM     51  C   LIG d   1       4.148   3.101  -9.356  0.00  0.00    -0.040 C 
ATOM     52  H   LIG d   1       3.280   3.317  -9.978  0.00  0.00     0.028 H 
ATOM     53  H   LIG d   1       4.156   3.771  -8.496  0.00  0.00     0.028 H 
ATOM     54  H   LIG d   1       5.058   3.247  -9.939  0.00  0.00     0.028 H 
ENDBRANCH  45  51
ENDBRANCH  39  41
ENDBRANCH   3  38
TORSDOF 8
ENDMDL
MODEL 5
REMARK VINA RESULT:      -6.8     12.162     16.397
REMARK  8 active torsions:
REMARK  status: ('A' for Active; 'I' for Inactive)
REMARK    1  A    between atoms: C_1  and  C_2 
REMARK    2  A    between atoms: C_5  and  C_8 
REMARK    3  A    between atoms: N_9  and  C_10 
REMARK    4  A    between atoms: C_11  and  C_25 
REMARK    5  A    between atoms: C_12  and  N_16 
REMARK    6  A    between atoms: C_17  and  C_18 
REMARK    7  A    between atoms: C_21  and  C_24 
REMARK    8  A    between atoms: C_25  and  C_26 
ROOT
ATOM      1  C   LIG d   1      11.174   6.703   1.846  0.00  0.00     0.154 A 
ATOM      2  C   LIG d   1      11.360   7.308   0.622  0.00  0.00     0.046 A 
ATOM      3  C   LIG d   1      10.969   6.389  -0.369  0.00  0.00     0.179 A 
ATOM      4  N   LIG d   1      10.566   5.283   0.226  0.00  0.00    -0.152 NA
ATOM      5  N   LIG d   1      10.688   5.448   1.611  0.00  0.00    -0.258 N 
ATOM      6  H   LIG d   1      10.465   4.788   2.285  0.00  0.00     0.191 HD
ENDROOT
BRANCH   1   7
ATOM      7  N   LIG d   1      11.433   7.253   3.065  0.00  0.00    -0.236 NA
ATOM      8  C   LIG d   1      11.007   6.665   4.149  0.00  0.00     0.037 C 
ATOM      9  H   LIG d   1      10.450   5.742   4.081  0.00  0.00     0.084 H 
BRANCH   8  10
ATOM     10  C   LIG d   1      11.286   7.260   5.466  0.00  0.00    -0.007 A 
ATOM     11  C   LIG d   1      11.861   8.531   5.556  0.00  0.00    -0.053 A 
ATOM     12  C   LIG d   1      12.119   9.081   6.794  0.00  0.00    -0.058 A 
ATOM     13  H   LIG d   1      12.105   9.080   4.659  0.00  0.00     0.062 H 
ATOM     14  C   LIG d   1      11.809   8.379   7.946  0.00  0.00    -0.050 A 
ATOM     15  H   LIG d   1      12.563  10.063   6.865  0.00  0.00     0.062 H 
ATOM     16  C   LIG d   1      11.244   7.118   7.865  0.00  0.00    -0.058 A 
ATOM     17  C   LIG d   1      10.975   6.556   6.634  0.00  0.00    -0.053 A 
ATOM     18  H   LIG d   1      11.009   6.574   8.768  0.00  0.00     0.062 H 
ATOM     19  H   LIG d   1      10.531   5.575   6.572  0.00  0.00     0.062 H 
BRANCH  14  20
ATOM     20  C   LIG d   1      12.094   8.988   9.295  0.00  0.00    -0.040 C 
ATOM     21  H   LIG d   1      12.106   8.205  10.052  0.00  0.00     0.028 H 
ATOM     22  H   LIG d   1      13.063   9.486   9.271  0.00  0.00     0.028 H 
ATOM     23  H   LIG d   1      11.317   9.715   9.535  0.00  0.00     0.028 H 
ENDBRANCH  14  20
ENDBRANCH   8  10
ENDBRANCH   1   7
BRANCH   2  24
ATOM     24  C   LIG d   1      11.887   8.700   0.387  0.00  0.00     0.005 C 
ATOM     25  H   LIG d   1      11.967   9.223   1.340  0.00  0.00     0.036 H 
ATOM     26  H   LIG d   1      12.870   8.643  -0.080  0.00  0.00     0.036 H 
BRANCH  24  27
ATOM     27  C   LIG d   1      10.943   9.448  -0.519  0.00  0.00    -0.043 A 
ATOM     28  C   LIG d   1      11.437  10.155  -1.599  0.00  0.00    -0.057 A 
ATOM     29  C   LIG d   1      10.572  10.837  -2.433  0.00  0.00    -0.043 A 
ATOM     30  H   LIG d   1      12.499  10.171  -1.794  0.00  0.00     0.062 H 
ATOM     31  C   LIG d   1       9.211  10.822  -2.180  0.00  0.00     0.041 A 
ATOM     32  H   LIG d   1      10.956  11.385  -3.280  0.00  0.00     0.063 H 
ATOM     33  C   LIG d   1       8.718  10.119  -1.095  0.00  0.00    -0.043 A 
ATOM     34 CL   LIG d   1       8.124  11.683  -3.223  0.00  0.00    -0.084 Cl
ATOM     35  C   LIG d   1       9.584   9.432  -0.264  0.00  0.00    -0.057 A 
ATOM     36  H   LIG d   1       7.656  10.106  -0.897  0.00  0.00     0.063 H 
ATOM     37  H   LIG d   1       9.200   8.884   0.582  0.00  0.00     0.062 H 
ENDBRANCH  24  27
ENDBRANCH   2  24
BRANCH   3  38
ATOM     38  N   LIG d   1      11.001   6.606  -1.721  0.00  0.00    -0.234 NA
ATOM     39  C   LIG d   1       9.927   6.425  -2.435  0.00  0.00     0.037 C 
ATOM     40  H   LIG d   1       9.011   6.103  -1.961  0.00  0.00     0.084 H 
BRANCH  39  41
ATOM     41  C   LIG d   1       9.962   6.658  -3.889  0.00  0.00    -0.007 A 
ATOM     42  C   LIG d   1       9.894   5.578  -4.774  0.00  0.00    -0.053 A 
ATOM     43  C   LIG d   1       9.923   5.805  -6.135  0.00  0.00    -0.058 A 
ATOM     44  H   LIG d   1       9.816   4.570  -4.395  0.00  0.00     0.062 H 
ATOM     45  C   LIG d   1      10.029   7.095  -6.623  0.00  0.00    -0.050 A 
ATOM     46  H   LIG d   1       9.865   4.972  -6.820  0.00  0.00     0.062 H 
ATOM     47  C   LIG d   1      10.102   8.168  -5.752  0.00  0.00    -0.058 A 
ATOM     48  C   LIG d   1      10.070   7.958  -4.390  0.00  0.00    -0.053 A 
ATOM     49  H   LIG d   1      10.185   9.172  -6.141  0.00  0.00     0.062 H 
ATOM     50  H   LIG d   1      10.127   8.796  -3.711  0.00  0.00     0.062 H 
BRANCH  45  51
ATOM     51  C   LIG d   1      10.065   7.333  -8.111  0.00  0.00    -0.040 C 
ATOM     52  H   LIG d   1       9.484   6.562  -8.616  0.00  0.00     0.028 H 
ATOM     53  H   LIG d   1       9.640   8.312  -8.332  0.00  0.00     0.028 H 
ATOM     54  H   LIG d   1      11.097   7.297  -8.460  0.00  0.00     0.028 H 
ENDBRANCH  45  51
ENDBRANCH  39  41
ENDBRANCH   3  38
TORSDOF 8
ENDMDL
MODEL 6
REMARK VINA RESULT:      -6.8      3.072      9.397
REMARK  8 active torsions:
REMARK  status: ('A' for Active; 'I' for Inactive)
REMARK    1  A    between atoms: C_1  and  C_2 
REMARK    2  A    between atoms: C_5  and  C_8 
REMARK    3  A    between atoms: N_9  and  C_10 
REMARK    4  A    between atoms: C_11  and  C_25 
REMARK    5  A    between atoms: C_12  and  N_16 
REMARK    6  A    between atoms: C_17  and  C_18 
REMARK    7  A    between atoms: C_21  and  C_24 
REMARK    8  A    between atoms: C_25  and  C_26 
ROOT
ATOM      1  C   LIG d   1       7.147  -4.071  -6.051  0.00  0.00     0.154 A 
ATOM      2  C   LIG d   1       7.626  -2.940  -5.425  0.00  0.00     0.046 A 
ATOM      3  C   LIG d   1       8.035  -2.042  -6.428  0.00  0.00     0.179 A 
ATOM      4  N   LIG d   1       7.816  -2.602  -7.602  0.00  0.00    -0.152 NA
ATOM      5  N   LIG d   1       7.265  -3.873  -7.397  0.00  0.00    -0.258 N 
ATOM      6  H   LIG d   1       7.011  -4.503  -8.089  0.00  0.00     0.191 HD
ENDROOT
BRANCH   1   7
ATOM      7  N   LIG d   1       6.653  -5.183  -5.438  0.00  0.00    -0.236 NA
ATOM      8  C   LIG d   1       7.020  -6.367  -5.843  0.00  0.00     0.037 C 
ATOM      9  H   LIG d   1       7.715  -6.467  -6.664  0.00  0.00     0.084 H 
BRANCH   8  10
ATOM     10  C   LIG d   1       6.486  -7.569  -5.181  0.00  0.00    -0.007 A 
ATOM     11  C   LIG d   1       5.138  -7.909  -5.325  0.00  0.00    -0.053 A 
ATOM     12  C   LIG d   1       4.645  -9.037  -4.702  0.00  0.00    -0.058 A 
ATOM     13  H   LIG d   1       4.483  -7.291  -5.921  0.00  0.00     0.062 H 
ATOM     14  C   LIG d   1       5.482  -9.832  -3.938  0.00  0.00    -0.050 A 
ATOM     15  H   LIG d   1       3.604  -9.302  -4.813  0.00  0.00     0.062 H 
ATOM     16  C   LIG d   1       6.817  -9.498  -3.787  0.00  0.00    -0.058 A 
ATOM     17  C   LIG d   1       7.325  -8.376  -4.408  0.00  0.00    -0.053 A 
ATOM     18  H   LIG d   1       7.463 -10.120  -3.185  0.00  0.00     0.062 H 
ATOM     19  H   LIG d   1       8.368  -8.120  -4.293  0.00  0.00     0.062 H 
BRANCH  14  20
ATOM     20  C   LIG d   1       4.935 -11.063  -3.262  0.00  0.00    -0.040 C 
ATOM     21  H   LIG d   1       3.861 -11.125  -3.434  0.00  0.00     0.028 H 
ATOM     22  H   LIG d   1       5.422 -11.948  -3.670  0.00  0.00     0.028 H 
ATOM     23  H   LIG d   1       5.128 -11.003  -2.190  0.00  0.00     0.028 H 
ENDBRANCH  14  20
ENDBRANCH   8  10
ENDBRANCH   1   7
BRANCH   2  24
ATOM     24  C   LIG d   1       7.698  -2.707  -3.938  0.00  0.00     0.005 C 
ATOM     25  H   LIG d   1       7.580  -3.656  -3.416  0.00  0.00     0.036 H 
ATOM     26  H   LIG d   1       8.664  -2.270  -3.685  0.00  0.00     0.036 H 
BRANCH  24  27
ATOM     27  C   LIG d   1       6.597  -1.765  -3.524  0.00  0.00    -0.043 A 
ATOM     28  C   LIG d   1       6.881  -0.435  -3.276  0.00  0.00    -0.057 A 
ATOM     29  C   LIG d   1       5.871   0.429  -2.901  0.00  0.00    -0.043 A 
ATOM     30  H   LIG d   1       7.892  -0.071  -3.380  0.00  0.00     0.062 H 
ATOM     31  C   LIG d   1       4.576  -0.038  -2.762  0.00  0.00     0.041 A 
ATOM     32  H   LIG d   1       6.091   1.469  -2.712  0.00  0.00     0.063 H 
ATOM     33  C   LIG d   1       4.292  -1.371  -3.004  0.00  0.00    -0.043 A 
ATOM     34 CL   LIG d   1       3.307   1.045  -2.284  0.00  0.00    -0.084 Cl
ATOM     35  C   LIG d   1       5.303  -2.234  -3.385  0.00  0.00    -0.057 A 
ATOM     36  H   LIG d   1       3.282  -1.737  -2.896  0.00  0.00     0.063 H 
ATOM     37  H   LIG d   1       5.083  -3.274  -3.574  0.00  0.00     0.062 H 
ENDBRANCH  24  27
ENDBRANCH   2  24
BRANCH   3  38
ATOM     38  N   LIG d   1       8.570  -0.799  -6.222  0.00  0.00    -0.234 NA
ATOM     39  C   LIG d   1       7.948   0.259  -6.656  0.00  0.00     0.037 C 
ATOM     40  H   LIG d   1       7.009   0.156  -7.180  0.00  0.00     0.084 H 
BRANCH  39  41
ATOM     41  C   LIG d   1       8.524   1.596  -6.434  0.00  0.00    -0.007 A 
ATOM     42  C   LIG d   1       8.510   2.163  -5.156  0.00  0.00    -0.053 A 
ATOM     43  C   LIG d   1       9.056   3.414  -4.955  0.00  0.00    -0.058 A 
ATOM     44  H   LIG d   1       8.076   1.622  -4.328  0.00  0.00     0.062 H 
ATOM     45  C   LIG d   1       9.607   4.111  -6.015  0.00  0.00    -0.050 A 
ATOM     46  H   LIG d   1       9.050   3.851  -3.967  0.00  0.00     0.062 H 
ATOM     47  C   LIG d   1       9.619   3.558  -7.284  0.00  0.00    -0.058 A 
ATOM     48  C   LIG d   1       9.082   2.307  -7.500  0.00  0.00    -0.053 A 
ATOM     49  H   LIG d   1      10.051   4.108  -8.106  0.00  0.00     0.062 H 
ATOM     50  H   LIG d   1       9.093   1.877  -8.490  0.00  0.00     0.062 H 
BRANCH  45  51
ATOM     51  C   LIG d   1      10.196   5.479  -5.788  0.00  0.00    -0.040 C 
ATOM     52  H   LIG d   1       9.547   6.233  -6.231  0.00  0.00     0.028 H 
ATOM     53  H   LIG d   1      10.287   5.661  -4.717  0.00  0.00     0.028 H 
ATOM     54  H   LIG d   1      11.182   5.531  -6.250  0.00  0.00     0.028 H 
ENDBRANCH  45  51
ENDBRANCH  39  41
ENDBRANCH   3  38
TORSDOF 8
ENDMDL
MODEL 7
REMARK VINA RESULT:      -6.8      3.008      3.871
REMARK  8 active torsions:
REMARK  status: ('A' for Active; 'I' for Inactive)
REMARK    1  A    between atoms: C_1  and  C_2 
REMARK    2  A    between atoms: C_5  and  C_8 
REMARK    3  A    between atoms: N_9  and  C_10 
REMARK    4  A    between atoms: C_11  and  C_25 
REMARK    5  A    between atoms: C_12  and  N_16 
REMARK    6  A    between atoms: C_17  and  C_18 
REMARK    7  A    between atoms: C_21  and  C_24 
REMARK    8  A    between atoms: C_25  and  C_26 
ROOT
ATOM      1  C   LIG d   1       7.889  -2.115  -6.549  0.00  0.00     0.154 A 
ATOM      2  C   LIG d   1       7.485  -3.008  -5.580  0.00  0.00     0.046 A 
ATOM      3  C   LIG d   1       6.958  -4.135  -6.235  0.00  0.00     0.179 A 
ATOM      4  N   LIG d   1       7.037  -3.935  -7.537  0.00  0.00    -0.152 NA
ATOM      5  N   LIG d   1       7.611  -2.678  -7.763  0.00  0.00    -0.258 N 
ATOM      6  H   LIG d   1       7.783  -2.277  -8.629  0.00  0.00     0.191 HD
ENDROOT
BRANCH   1   7
ATOM      7  N   LIG d   1       8.455  -0.895  -6.336  0.00  0.00    -0.236 NA
ATOM      8  C   LIG d   1       7.803   0.190  -6.652  0.00  0.00     0.037 C 
ATOM      9  H   LIG d   1       6.815   0.121  -7.083  0.00  0.00     0.084 H 
BRANCH   8  10
ATOM     10  C   LIG d   1       8.414   1.509  -6.422  0.00  0.00    -0.007 A 
ATOM     11  C   LIG d   1       9.004   2.205  -7.482  0.00  0.00    -0.053 A 
ATOM     12  C   LIG d   1       9.574   3.441  -7.258  0.00  0.00    -0.058 A 
ATOM     13  H   LIG d   1       9.014   1.776  -8.473  0.00  0.00     0.062 H 
ATOM     14  C   LIG d   1       9.563   3.993  -5.989  0.00  0.00    -0.050 A 
ATOM     15  H   LIG d   1      10.029   3.979  -8.076  0.00  0.00     0.062 H 
ATOM     16  C   LIG d   1       8.986   3.308  -4.934  0.00  0.00    -0.058 A 
ATOM     17  C   LIG d   1       8.407   2.074  -5.142  0.00  0.00    -0.053 A 
ATOM     18  H   LIG d   1       8.985   3.743  -3.945  0.00  0.00     0.062 H 
ATOM     19  H   LIG d   1       7.953   1.542  -4.319  0.00  0.00     0.062 H 
BRANCH  14  20
ATOM     20  C   LIG d   1      10.188   5.344  -5.754  0.00  0.00    -0.040 C 
ATOM     21  H   LIG d   1      10.926   5.543  -6.530  0.00  0.00     0.028 H 
ATOM     22  H   LIG d   1       9.415   6.112  -5.782  0.00  0.00     0.028 H 
ATOM     23  H   LIG d   1      10.675   5.353  -4.778  0.00  0.00     0.028 H 
ENDBRANCH  14  20
ENDBRANCH   8  10
ENDBRANCH   1   7
BRANCH   2  24
ATOM     24  C   LIG d   1       7.591  -2.812  -4.089  0.00  0.00     0.005 C 
ATOM     25  H   LIG d   1       7.466  -3.772  -3.588  0.00  0.00     0.036 H 
ATOM     26  H   LIG d   1       8.569  -2.399  -3.845  0.00  0.00     0.036 H 
BRANCH  24  27
ATOM     27  C   LIG d   1       6.515  -1.862  -3.630  0.00  0.00    -0.043 A 
ATOM     28  C   LIG d   1       6.841  -0.565  -3.281  0.00  0.00    -0.057 A 
ATOM     29  C   LIG d   1       5.855   0.308  -2.864  0.00  0.00    -0.043 A 
ATOM     30  H   LIG d   1       7.868  -0.233  -3.337  0.00  0.00     0.062 H 
ATOM     31  C   LIG d   1       4.541  -0.119  -2.786  0.00  0.00     0.041 A 
ATOM     32  H   LIG d   1       6.109   1.322  -2.596  0.00  0.00     0.063 H 
ATOM     33  C   LIG d   1       4.215  -1.420  -3.130  0.00  0.00    -0.043 A 
ATOM     34 CL   LIG d   1       3.301   0.974  -2.257  0.00  0.00    -0.084 Cl
ATOM     35  C   LIG d   1       5.203  -2.291  -3.552  0.00  0.00    -0.057 A 
ATOM     36  H   LIG d   1       3.190  -1.754  -3.069  0.00  0.00     0.063 H 
ATOM     37  H   LIG d   1       4.949  -3.305  -3.821  0.00  0.00     0.062 H 
ENDBRANCH  24  27
ENDBRANCH   2  24
BRANCH   3  38
ATOM     38  N   LIG d   1       6.448  -5.251  -5.626  0.00  0.00    -0.234 NA
ATOM     39  C   LIG d   1       7.026  -6.406  -5.792  0.00  0.00     0.037 C 
ATOM     40  H   LIG d   1       7.909  -6.484  -6.411  0.00  0.00     0.084 H 
BRANCH  39  41
ATOM     41  C   LIG d   1       6.477  -7.606  -5.137  0.00  0.00    -0.007 A 
ATOM     42  C   LIG d   1       7.301  -8.410  -4.344  0.00  0.00    -0.053 A 
ATOM     43  C   LIG d   1       6.778  -9.530  -3.731  0.00  0.00    -0.058 A 
ATOM     44  H   LIG d   1       8.341  -8.155  -4.210  0.00  0.00     0.062 H 
ATOM     45  C   LIG d   1       5.446  -9.862  -3.907  0.00  0.00    -0.050 A 
ATOM     46  H   LIG d   1       7.411 -10.150  -3.114  0.00  0.00     0.062 H 
ATOM     47  C   LIG d   1       4.628  -9.073  -4.695  0.00  0.00    -0.058 A 
ATOM     48  C   LIG d   1       5.134  -7.948  -5.311  0.00  0.00    -0.053 A 
ATOM     49  H   LIG d   1       3.590  -9.338  -4.828  0.00  0.00     0.062 H 
ATOM     50  H   LIG d   1       4.494  -7.333  -5.925  0.00  0.00     0.062 H 
BRANCH  45  51
ATOM     51  C   LIG d   1       4.885 -11.090  -3.237  0.00  0.00    -0.040 C 
ATOM     52  H   LIG d   1       5.192 -11.978  -3.789  0.00  0.00     0.028 H 
ATOM     53  H   LIG d   1       5.260 -11.149  -2.215  0.00  0.00     0.028 H 
ATOM     54  H   LIG d   1       3.796 -11.030  -3.222  0.00  0.00     0.028 H 
ENDBRANCH  45  51
ENDBRANCH  39  41
ENDBRANCH   3  38
TORSDOF 8
ENDMDL
MODEL 8
REMARK VINA RESULT:      -6.7     12.877     15.652
REMARK  8 active torsions:
REMARK  status: ('A' for Active; 'I' for Inactive)
REMARK    1  A    between atoms: C_1  and  C_2 
REMARK    2  A    between atoms: C_5  and  C_8 
REMARK    3  A    between atoms: N_9  and  C_10 
REMARK    4  A    between atoms: C_11  and  C_25 
REMARK    5  A    between atoms: C_12  and  N_16 
REMARK    6  A    between atoms: C_17  and  C_18 
REMARK    7  A    between atoms: C_21  and  C_24 
REMARK    8  A    between atoms: C_25  and  C_26 
ROOT
ATOM      1  C   LIG d   1      10.432   6.591  -0.837  0.00  0.00     0.154 A 
ATOM      2  C   LIG d   1      10.612   7.469   0.209  0.00  0.00     0.046 A 
ATOM      3  C   LIG d   1      11.092   6.730   1.305  0.00  0.00     0.179 A 
ATOM      4  N   LIG d   1      11.196   5.466   0.941  0.00  0.00    -0.152 NA
ATOM      5  N   LIG d   1      10.786   5.349  -0.393  0.00  0.00    -0.258 N 
ATOM      6  H   LIG d   1      10.759   4.529  -0.910  0.00  0.00     0.191 HD
ENDROOT
BRANCH   1   7
ATOM      7  N   LIG d   1       9.979   6.903  -2.083  0.00  0.00    -0.236 NA
ATOM      8  C   LIG d   1      10.824   7.056  -3.064  0.00  0.00     0.037 C 
ATOM      9  H   LIG d   1      11.883   6.935  -2.890  0.00  0.00     0.084 H 
BRANCH   8  10
ATOM     10  C   LIG d   1      10.335   7.394  -4.411  0.00  0.00    -0.007 A 
ATOM     11  C   LIG d   1      10.241   6.404  -5.394  0.00  0.00    -0.053 A 
ATOM     12  C   LIG d   1       9.782   6.729  -6.653  0.00  0.00    -0.058 A 
ATOM     13  H   LIG d   1      10.529   5.388  -5.169  0.00  0.00     0.062 H 
ATOM     14  C   LIG d   1       9.413   8.030  -6.945  0.00  0.00    -0.050 A 
ATOM     15  H   LIG d   1       9.709   5.965  -7.413  0.00  0.00     0.062 H 
ATOM     16  C   LIG d   1       9.508   9.017  -5.979  0.00  0.00    -0.058 A 
ATOM     17  C   LIG d   1       9.960   8.707  -4.713  0.00  0.00    -0.053 A 
ATOM     18  H   LIG d   1       9.222  10.032  -6.215  0.00  0.00     0.062 H 
ATOM     19  H   LIG d   1      10.030   9.477  -3.959  0.00  0.00     0.062 H 
BRANCH  14  20
ATOM     20  C   LIG d   1       8.912   8.376  -8.323  0.00  0.00    -0.040 C 
ATOM     21  H   LIG d   1       9.744   8.720  -8.937  0.00  0.00     0.028 H 
ATOM     22  H   LIG d   1       8.464   7.494  -8.779  0.00  0.00     0.028 H 
ATOM     23  H   LIG d   1       8.164   9.167  -8.250  0.00  0.00     0.028 H 
ENDBRANCH  14  20
ENDBRANCH   8  10
ENDBRANCH   1   7
BRANCH   2  24
ATOM     24  C   LIG d   1      10.345   8.952   0.184  0.00  0.00     0.005 C 
ATOM     25  H   LIG d   1       9.373   9.138  -0.275  0.00  0.00     0.036 H 
ATOM     26  H   LIG d   1      10.345   9.339   1.203  0.00  0.00     0.036 H 
BRANCH  24  27
ATOM     27  C   LIG d   1      11.419   9.643  -0.616  0.00  0.00    -0.043 A 
ATOM     28  C   LIG d   1      11.073  10.474  -1.665  0.00  0.00    -0.057 A 
ATOM     29  C   LIG d   1      12.057  11.112  -2.395  0.00  0.00    -0.043 A 
ATOM     30  H   LIG d   1      10.032  10.629  -1.911  0.00  0.00     0.062 H 
ATOM     31  C   LIG d   1      13.390  10.910  -2.084  0.00  0.00     0.041 A 
ATOM     32  H   LIG d   1      11.787  11.765  -3.211  0.00  0.00     0.063 H 
ATOM     33  C   LIG d   1      13.737  10.073  -1.038  0.00  0.00    -0.043 A 
ATOM     34 CL   LIG d   1      14.628  11.705  -3.005  0.00  0.00    -0.084 Cl
ATOM     35  C   LIG d   1      12.751   9.439  -0.304  0.00  0.00    -0.057 A 
ATOM     36  H   LIG d   1      14.776   9.915  -0.794  0.00  0.00     0.063 H 
ATOM     37  H   LIG d   1      13.020   8.787   0.512  0.00  0.00     0.062 H 
ENDBRANCH  24  27
ENDBRANCH   2  24
BRANCH   3  38
ATOM     38  N   LIG d   1      11.398   7.235   2.541  0.00  0.00    -0.234 NA
ATOM     39  C   LIG d   1      11.008   6.611   3.615  0.00  0.00     0.037 C 
ATOM     40  H   LIG d   1      10.442   5.694   3.532  0.00  0.00     0.084 H 
BRANCH  39  41
ATOM     41  C   LIG d   1      11.338   7.155   4.944  0.00  0.00    -0.007 A 
ATOM     42  C   LIG d   1      11.124   6.384   6.090  0.00  0.00    -0.053 A 
ATOM     43  C   LIG d   1      11.440   6.899   7.331  0.00  0.00    -0.058 A 
ATOM     44  H   LIG d   1      10.716   5.388   6.006  0.00  0.00     0.062 H 
ATOM     45  C   LIG d   1      11.958   8.177   7.442  0.00  0.00    -0.050 A 
ATOM     46  H   LIG d   1      11.279   6.303   8.217  0.00  0.00     0.062 H 
ATOM     47  C   LIG d   1      12.167   8.947   6.312  0.00  0.00    -0.058 A 
ATOM     48  C   LIG d   1      11.861   8.445   5.065  0.00  0.00    -0.053 A 
ATOM     49  H   LIG d   1      12.571   9.944   6.407  0.00  0.00     0.062 H 
ATOM     50  H   LIG d   1      12.025   9.047   4.184  0.00  0.00     0.062 H 
BRANCH  45  51
ATOM     51  C   LIG d   1      12.295   8.733   8.802  0.00  0.00    -0.040 C 
ATOM     52  H   LIG d   1      11.378   8.885   9.370  0.00  0.00     0.028 H 
ATOM     53  H   LIG d   1      12.939   8.031   9.331  0.00  0.00     0.028 H 
ATOM     54  H   LIG d   1      12.812   9.686   8.686  0.00  0.00     0.028 H 
ENDBRANCH  45  51
ENDBRANCH  39  41
ENDBRANCH   3  38
TORSDOF 8
ENDMDL
MODEL 9
REMARK VINA RESULT:      -6.6      5.071     10.870
REMARK  8 active torsions:
REMARK  status: ('A' for Active; 'I' for Inactive)
REMARK    1  A    between atoms: C_1  and  C_2 
REMARK    2  A    between atoms: C_5  and  C_8 
REMARK    3  A    between atoms: N_9  and  C_10 
REMARK    4  A    between atoms: C_11  and  C_25 
REMARK    5  A    between atoms: C_12  and  N_16 
REMARK    6  A    between atoms: C_17  and  C_18 
REMARK    7  A    between atoms: C_21  and  C_24 
REMARK    8  A    between atoms: C_25  and  C_26 
ROOT
ATOM      1  C   LIG d   1      10.799  -1.809  -4.711  0.00  0.00     0.154 A 
ATOM      2  C   LIG d   1      10.132  -0.711  -5.209  0.00  0.00     0.046 A 
ATOM      3  C   LIG d   1      10.957   0.411  -5.014  0.00  0.00     0.179 A 
ATOM      4  N   LIG d   1      12.069   0.013  -4.426  0.00  0.00    -0.152 NA
ATOM      5  N   LIG d   1      11.996  -1.370  -4.220  0.00  0.00    -0.258 N 
ATOM      6  H   LIG d   1      12.677  -1.921  -3.803  0.00  0.00     0.191 HD
ENDROOT
BRANCH   1   7
ATOM      7  N   LIG d   1      10.346  -3.093  -4.704  0.00  0.00    -0.236 NA
ATOM      8  C   LIG d   1      10.046  -3.672  -3.574  0.00  0.00     0.037 C 
ATOM      9  H   LIG d   1      10.158  -3.135  -2.644  0.00  0.00     0.084 H 
BRANCH   8  10
ATOM     10  C   LIG d   1       9.556  -5.061  -3.566  0.00  0.00    -0.007 A 
ATOM     11  C   LIG d   1       8.793  -5.542  -4.634  0.00  0.00    -0.053 A 
ATOM     12  C   LIG d   1       8.338  -6.844  -4.619  0.00  0.00    -0.058 A 
ATOM     13  H   LIG d   1       8.559  -4.897  -5.468  0.00  0.00     0.062 H 
ATOM     14  C   LIG d   1       8.636  -7.674  -3.552  0.00  0.00    -0.050 A 
ATOM     15  H   LIG d   1       7.749  -7.218  -5.443  0.00  0.00     0.062 H 
ATOM     16  C   LIG d   1       9.387  -7.202  -2.489  0.00  0.00    -0.058 A 
ATOM     17  C   LIG d   1       9.854  -5.904  -2.491  0.00  0.00    -0.053 A 
ATOM     18  H   LIG d   1       9.612  -7.854  -1.657  0.00  0.00     0.062 H 
ATOM     19  H   LIG d   1      10.443  -5.539  -1.664  0.00  0.00     0.062 H 
BRANCH  14  20
ATOM     20  C   LIG d   1       8.135  -9.095  -3.544  0.00  0.00    -0.040 C 
ATOM     21  H   LIG d   1       7.065  -9.102  -3.343  0.00  0.00     0.028 H 
ATOM     22  H   LIG d   1       8.326  -9.553  -4.515  0.00  0.00     0.028 H 
ATOM     23  H   LIG d   1       8.655  -9.658  -2.769  0.00  0.00     0.028 H 
ENDBRANCH  14  20
ENDBRANCH   8  10
ENDBRANCH   1   7
BRANCH   2  24
ATOM     24  C   LIG d   1       8.767  -0.712  -5.847  0.00  0.00     0.005 C 
ATOM     25  H   LIG d   1       8.710   0.089  -6.584  0.00  0.00     0.036 H 
ATOM     26  H   LIG d   1       8.595  -1.670  -6.338  0.00  0.00     0.036 H 
BRANCH  24  27
ATOM     27  C   LIG d   1       7.717  -0.495  -4.788  0.00  0.00    -0.043 A 
ATOM     28  C   LIG d   1       7.394   0.787  -4.386  0.00  0.00    -0.057 A 
ATOM     29  C   LIG d   1       6.428   0.987  -3.419  0.00  0.00    -0.043 A 
ATOM     30  H   LIG d   1       7.894   1.635  -4.832  0.00  0.00     0.062 H 
ATOM     31  C   LIG d   1       5.791  -0.098  -2.844  0.00  0.00     0.041 A 
ATOM     32  H   LIG d   1       6.172   1.989  -3.109  0.00  0.00     0.063 H 
ATOM     33  C   LIG d   1       6.118  -1.383  -3.242  0.00  0.00    -0.043 A 
ATOM     34 CL   LIG d   1       4.581   0.150  -1.624  0.00  0.00    -0.084 Cl
ATOM     35  C   LIG d   1       7.081  -1.581  -4.214  0.00  0.00    -0.057 A 
ATOM     36  H   LIG d   1       5.621  -2.230  -2.793  0.00  0.00     0.063 H 
ATOM     37  H   LIG d   1       7.337  -2.582  -4.524  0.00  0.00     0.062 H 
ENDBRANCH  24  27
ENDBRANCH   2  24
BRANCH   3  38
ATOM     38  N   LIG d   1      10.658   1.699  -5.373  0.00  0.00    -0.234 NA
ATOM     39  C   LIG d   1      10.463   2.602  -4.456  0.00  0.00     0.037 C 
ATOM     40  H   LIG d   1      10.536   2.336  -3.411  0.00  0.00     0.084 H 
BRANCH  39  41
ATOM     41  C   LIG d   1      10.142   3.987  -4.842  0.00  0.00    -0.007 A 
ATOM     42  C   LIG d   1      10.269   4.391  -6.174  0.00  0.00    -0.053 A 
ATOM     43  C   LIG d   1       9.962   5.688  -6.529  0.00  0.00    -0.058 A 
ATOM     44  H   LIG d   1      10.604   3.689  -6.924  0.00  0.00     0.062 H 
ATOM     45  C   LIG d   1       9.538   6.590  -5.569  0.00  0.00    -0.050 A 
ATOM     46  H   LIG d   1      10.055   6.000  -7.559  0.00  0.00     0.062 H 
ATOM     47  C   LIG d   1       9.415   6.198  -4.248  0.00  0.00    -0.058 A 
ATOM     48  C   LIG d   1       9.714   4.904  -3.878  0.00  0.00    -0.053 A 
ATOM     49  H   LIG d   1       9.084   6.908  -3.505  0.00  0.00     0.062 H 
ATOM     50  H   LIG d   1       9.617   4.599  -2.847  0.00  0.00     0.062 H 
BRANCH  45  51
ATOM     51  C   LIG d   1       9.210   8.007  -5.965  0.00  0.00    -0.040 C 
ATOM     52  H   LIG d   1       9.451   8.155  -7.017  0.00  0.00     0.028 H 
ATOM     53  H   LIG d   1       8.147   8.191  -5.806  0.00  0.00     0.028 H 
ATOM     54  H   LIG d   1       9.794   8.698  -5.358  0.00  0.00     0.028 H 
ENDBRANCH  45  51
ENDBRANCH  39  41
ENDBRANCH   3  38
TORSDOF 8
ENDMDL
