MODEL 1
REMARK VINA RESULT:      -5.3      0.000      0.000
REMARK  7 active torsions:
REMARK  status: ('A' for Active; 'I' for Inactive)
REMARK    1  A    between atoms: C_1  and  C_2 
REMARK    2  A    between atoms: C_2  and  C_3 
REMARK    3  A    between atoms: C_3  and  C_4 
REMARK    4  A    between atoms: C_4  and  C_6 
REMARK    5  A    between atoms: C_4  and  C_7 
REMARK    6  A    between atoms: C_7  and  C_16 
REMARK    7  A    between atoms: C_16  and  C_17 
ROOT
ATOM      1  C   LIG d   1       5.236  -1.112  -3.948  0.00  0.00     0.126 A 
ATOM      2  C   LIG d   1       4.421  -2.392  -3.925  0.00  0.00     0.236 A 
ATOM      3  N   LIG d   1       4.237  -3.037  -5.096  0.00  0.00    -0.239 N 
ATOM      4  C   LIG d   1       4.749  -2.578  -6.245  0.00  0.00     0.312 A 
ATOM      5  O   LIG d   1       4.534  -3.221  -7.253  0.00  0.00    -0.252 OA
ATOM      6  N   LIG d   1       5.477  -1.462  -6.364  0.00  0.00    -0.239 N 
ATOM      7  C   LIG d   1       5.767  -0.681  -5.302  0.00  0.00     0.236 A 
ATOM      8  O   LIG d   1       6.429   0.327  -5.426  0.00  0.00    -0.274 OA
ATOM      9  O   LIG d   1       3.954  -2.820  -2.892  0.00  0.00    -0.274 OA
ATOM     10  H   LIG d   1       3.720  -3.857  -5.106  0.00  0.00     0.159 HD
ATOM     11  H   LIG d   1       5.807  -1.207  -7.240  0.00  0.00     0.159 HD
ENDROOT
BRANCH   1  12
ATOM     12  C   LIG d   1       4.364   0.018  -3.398  0.00  0.00    -0.021 C 
ATOM     13  H   LIG d   1       4.702   0.970  -3.807  0.00  0.00     0.031 H 
BRANCH  12  14
ATOM     14  C   LIG d   1       2.906  -0.221  -3.799  0.00  0.00    -0.049 C 
ATOM     15  H   LIG d   1       2.280  -0.229  -2.907  0.00  0.00     0.027 H 
ATOM     16  H   LIG d   1       2.824  -1.180  -4.311  0.00  0.00     0.027 H 
BRANCH  14  17
ATOM     17  C   LIG d   1       2.446   0.898  -4.736  0.00  0.00    -0.056 C 
ATOM     18  H   LIG d   1       3.090   1.767  -4.608  0.00  0.00     0.026 H 
ATOM     19  H   LIG d   1       1.418   1.169  -4.500  0.00  0.00     0.026 H 
BRANCH  17  20
ATOM     20  C   LIG d   1       2.525   0.413  -6.185  0.00  0.00    -0.065 C 
ATOM     21  H   LIG d   1       1.519   0.347  -6.601  0.00  0.00     0.023 H 
ATOM     22  H   LIG d   1       3.116   1.116  -6.772  0.00  0.00     0.023 H 
ATOM     23  H   LIG d   1       2.995  -0.570  -6.214  0.00  0.00     0.023 H 
ENDBRANCH  17  20
ENDBRANCH  14  17
ENDBRANCH  12  14
BRANCH  12  24
ATOM     24  C   LIG d   1       4.474   0.051  -1.873  0.00  0.00    -0.061 C 
ATOM     25  H   LIG d   1       3.972   0.940  -1.491  0.00  0.00     0.023 H 
ATOM     26  H   LIG d   1       4.003  -0.839  -1.455  0.00  0.00     0.023 H 
ATOM     27  H   LIG d   1       5.525   0.074  -1.585  0.00  0.00     0.023 H 
ENDBRANCH  12  24
ENDBRANCH   1  12
BRANCH   1  28
ATOM     28  C   LIG d   1       6.430  -1.289  -3.008  0.00  0.00    -0.033 C 
ATOM     29  H   LIG d   1       6.974  -0.349  -2.930  0.00  0.00     0.028 H 
ATOM     30  H   LIG d   1       6.073  -1.585  -2.020  0.00  0.00     0.028 H 
BRANCH  28  31
ATOM     31  C   LIG d   1       7.357  -2.373  -3.560  0.00  0.00    -0.064 C 
ATOM     32  H   LIG d   1       6.852  -2.911  -4.362  0.00  0.00     0.023 H 
ATOM     33  H   LIG d   1       8.266  -1.910  -3.948  0.00  0.00     0.023 H 
ATOM     34  H   LIG d   1       7.618  -3.069  -2.762  0.00  0.00     0.023 H 
ENDBRANCH  28  31
ENDBRANCH   1  28
TORSDOF 7
ENDMDL
MODEL 2
REMARK VINA RESULT:      -5.2      1.953      2.672
REMARK  7 active torsions:
REMARK  status: ('A' for Active; 'I' for Inactive)
REMARK    1  A    between atoms: C_1  and  C_2 
REMARK    2  A    between atoms: C_2  and  C_3 
REMARK    3  A    between atoms: C_3  and  C_4 
REMARK    4  A    between atoms: C_4  and  C_6 
REMARK    5  A    between atoms: C_4  and  C_7 
REMARK    6  A    between atoms: C_7  and  C_16 
REMARK    7  A    between atoms: C_16  and  C_17 
ROOT
ATOM      1  C   LIG d   1       5.759  -1.555  -4.202  0.00  0.00     0.126 A 
ATOM      2  C   LIG d   1       6.626  -2.800  -4.257  0.00  0.00     0.236 A 
ATOM      3  N   LIG d   1       6.074  -3.923  -4.763  0.00  0.00    -0.239 N 
ATOM      4  C   LIG d   1       4.811  -3.955  -5.205  0.00  0.00     0.312 A 
ATOM      5  O   LIG d   1       4.394  -5.008  -5.645  0.00  0.00    -0.252 OA
ATOM      6  N   LIG d   1       3.973  -2.912  -5.195  0.00  0.00    -0.239 N 
ATOM      7  C   LIG d   1       4.343  -1.702  -4.726  0.00  0.00     0.236 A 
ATOM      8  O   LIG d   1       3.573  -0.766  -4.725  0.00  0.00    -0.274 OA
ATOM      9  O   LIG d   1       7.772  -2.786  -3.863  0.00  0.00    -0.274 OA
ATOM     10  H   LIG d   1       6.609  -4.731  -4.809  0.00  0.00     0.159 HD
ATOM     11  H   LIG d   1       3.072  -3.028  -5.536  0.00  0.00     0.159 HD
ENDROOT
BRANCH   1  12
ATOM     12  C   LIG d   1       5.682  -1.094  -2.745  0.00  0.00    -0.021 C 
ATOM     13  H   LIG d   1       6.557  -1.453  -2.204  0.00  0.00     0.031 H 
BRANCH  12  14
ATOM     14  C   LIG d   1       5.641   0.435  -2.695  0.00  0.00    -0.049 C 
ATOM     15  H   LIG d   1       5.451   0.826  -3.694  0.00  0.00     0.027 H 
ATOM     16  H   LIG d   1       6.598   0.811  -2.333  0.00  0.00     0.027 H 
BRANCH  14  17
ATOM     17  C   LIG d   1       4.525   0.884  -1.750  0.00  0.00    -0.056 C 
ATOM     18  H   LIG d   1       4.950   1.487  -0.947  0.00  0.00     0.026 H 
ATOM     19  H   LIG d   1       4.034   0.009  -1.325  0.00  0.00     0.026 H 
BRANCH  17  20
ATOM     20  C   LIG d   1       3.503   1.716  -2.527  0.00  0.00    -0.065 C 
ATOM     21  H   LIG d   1       3.294   1.234  -3.482  0.00  0.00     0.023 H 
ATOM     22  H   LIG d   1       2.582   1.793  -1.949  0.00  0.00     0.023 H 
ATOM     23  H   LIG d   1       3.906   2.713  -2.704  0.00  0.00     0.023 H 
ENDBRANCH  17  20
ENDBRANCH  14  17
ENDBRANCH  12  14
BRANCH  12  24
ATOM     24  C   LIG d   1       4.415  -1.659  -2.098  0.00  0.00    -0.061 C 
ATOM     25  H   LIG d   1       4.619  -2.659  -1.715  0.00  0.00     0.023 H 
ATOM     26  H   LIG d   1       4.106  -1.012  -1.278  0.00  0.00     0.023 H 
ATOM     27  H   LIG d   1       3.619  -1.709  -2.841  0.00  0.00     0.023 H 
ENDBRANCH  12  24
ENDBRANCH   1  12
BRANCH   1  28
ATOM     28  C   LIG d   1       6.451  -0.457  -5.011  0.00  0.00    -0.033 C 
ATOM     29  H   LIG d   1       5.888   0.472  -4.918  0.00  0.00     0.028 H 
ATOM     30  H   LIG d   1       7.462  -0.307  -4.630  0.00  0.00     0.028 H 
BRANCH  28  31
ATOM     31  C   LIG d   1       6.516  -0.871  -6.482  0.00  0.00    -0.064 C 
ATOM     32  H   LIG d   1       6.382   0.007  -7.113  0.00  0.00     0.023 H 
ATOM     33  H   LIG d   1       7.488  -1.322  -6.688  0.00  0.00     0.023 H 
ATOM     34  H   LIG d   1       5.728  -1.594  -6.691  0.00  0.00     0.023 H 
ENDBRANCH  28  31
ENDBRANCH   1  28
TORSDOF 7
ENDMDL
MODEL 3
REMARK VINA RESULT:      -5.2      1.431      1.938
REMARK  7 active torsions:
REMARK  status: ('A' for Active; 'I' for Inactive)
REMARK    1  A    between atoms: C_1  and  C_2 
REMARK    2  A    between atoms: C_2  and  C_3 
REMARK    3  A    between atoms: C_3  and  C_4 
REMARK    4  A    between atoms: C_4  and  C_6 
REMARK    5  A    between atoms: C_4  and  C_7 
REMARK    6  A    between atoms: C_7  and  C_16 
REMARK    7  A    between atoms: C_16  and  C_17 
ROOT
ATOM      1  C   LIG d   1       5.373  -1.469  -4.161  0.00  0.00     0.126 A 
ATOM      2  C   LIG d   1       4.566  -2.485  -4.948  0.00  0.00     0.236 A 
ATOM      3  N   LIG d   1       4.291  -2.201  -6.239  0.00  0.00    -0.239 N 
ATOM      4  C   LIG d   1       4.708  -1.068  -6.818  0.00  0.00     0.312 A 
ATOM      5  O   LIG d   1       4.417  -0.892  -7.984  0.00  0.00    -0.252 OA
ATOM      6  N   LIG d   1       5.421  -0.115  -6.206  0.00  0.00    -0.239 N 
ATOM      7  C   LIG d   1       5.792  -0.221  -4.913  0.00  0.00     0.236 A 
ATOM      8  O   LIG d   1       6.439   0.651  -4.373  0.00  0.00    -0.274 OA
ATOM      9  O   LIG d   1       4.184  -3.516  -4.437  0.00  0.00    -0.274 OA
ATOM     10  H   LIG d   1       3.778  -2.836  -6.762  0.00  0.00     0.159 HD
ATOM     11  H   LIG d   1       5.679   0.674  -6.707  0.00  0.00     0.159 HD
ENDROOT
BRANCH   1  12
ATOM     12  C   LIG d   1       4.542  -1.038  -2.950  0.00  0.00    -0.021 C 
ATOM     13  H   LIG d   1       5.176  -0.492  -2.251  0.00  0.00     0.031 H 
BRANCH  12  14
ATOM     14  C   LIG d   1       3.395  -0.137  -3.411  0.00  0.00    -0.049 C 
ATOM     15  H   LIG d   1       2.450  -0.670  -3.310  0.00  0.00     0.027 H 
ATOM     16  H   LIG d   1       3.547   0.138  -4.455  0.00  0.00     0.027 H 
BRANCH  14  17
ATOM     17  C   LIG d   1       3.363   1.128  -2.551  0.00  0.00    -0.056 C 
ATOM     18  H   LIG d   1       2.433   1.158  -1.984  0.00  0.00     0.026 H 
ATOM     19  H   LIG d   1       3.426   2.006  -3.193  0.00  0.00     0.026 H 
BRANCH  17  20
ATOM     20  C   LIG d   1       4.549   1.116  -1.584  0.00  0.00    -0.065 C 
ATOM     21  H   LIG d   1       4.269   0.590  -0.672  0.00  0.00     0.023 H 
ATOM     22  H   LIG d   1       5.394   0.610  -2.051  0.00  0.00     0.023 H 
ATOM     23  H   LIG d   1       4.828   2.141  -1.341  0.00  0.00     0.023 H 
ENDBRANCH  17  20
ENDBRANCH  14  17
ENDBRANCH  12  14
BRANCH  12  24
ATOM     24  C   LIG d   1       3.971  -2.277  -2.258  0.00  0.00    -0.061 C 
ATOM     25  H   LIG d   1       2.918  -2.384  -2.517  0.00  0.00     0.023 H 
ATOM     26  H   LIG d   1       4.517  -3.161  -2.585  0.00  0.00     0.023 H 
ATOM     27  H   LIG d   1       4.070  -2.168  -1.177  0.00  0.00     0.023 H 
ENDBRANCH  12  24
ENDBRANCH   1  12
BRANCH   1  28
ATOM     28  C   LIG d   1       6.638  -2.158  -3.647  0.00  0.00    -0.033 C 
ATOM     29  H   LIG d   1       7.221  -1.453  -3.056  0.00  0.00     0.028 H 
ATOM     30  H   LIG d   1       6.360  -3.011  -3.025  0.00  0.00     0.028 H 
BRANCH  28  31
ATOM     31  C   LIG d   1       7.471  -2.644  -4.834  0.00  0.00    -0.064 C 
ATOM     32  H   LIG d   1       6.809  -2.982  -5.631  0.00  0.00     0.023 H 
ATOM     33  H   LIG d   1       8.093  -1.825  -5.200  0.00  0.00     0.023 H 
ATOM     34  H   LIG d   1       8.109  -3.469  -4.517  0.00  0.00     0.023 H 
ENDBRANCH  28  31
ENDBRANCH   1  28
TORSDOF 7
ENDMDL
MODEL 4
REMARK VINA RESULT:      -5.1      2.048      3.025
REMARK  7 active torsions:
REMARK  status: ('A' for Active; 'I' for Inactive)
REMARK    1  A    between atoms: C_1  and  C_2 
REMARK    2  A    between atoms: C_2  and  C_3 
REMARK    3  A    between atoms: C_3  and  C_4 
REMARK    4  A    between atoms: C_4  and  C_6 
REMARK    5  A    between atoms: C_4  and  C_7 
REMARK    6  A    between atoms: C_7  and  C_16 
REMARK    7  A    between atoms: C_16  and  C_17 
ROOT
ATOM      1  C   LIG d   1       5.595  -1.915  -4.227  0.00  0.00     0.126 A 
ATOM      2  C   LIG d   1       4.880  -0.899  -5.099  0.00  0.00     0.236 A 
ATOM      3  N   LIG d   1       5.622  -0.211  -5.993  0.00  0.00    -0.239 N 
ATOM      4  C   LIG d   1       6.940  -0.406  -6.119  0.00  0.00     0.312 A 
ATOM      5  O   LIG d   1       7.530   0.256  -6.949  0.00  0.00    -0.252 OA
ATOM      6  N   LIG d   1       7.655  -1.277  -5.396  0.00  0.00    -0.239 N 
ATOM      7  C   LIG d   1       7.088  -2.056  -4.451  0.00  0.00     0.236 A 
ATOM      8  O   LIG d   1       7.749  -2.840  -3.805  0.00  0.00    -0.274 OA
ATOM      9  O   LIG d   1       3.687  -0.712  -4.997  0.00  0.00    -0.274 OA
ATOM     10  H   LIG d   1       5.186   0.444  -6.561  0.00  0.00     0.159 HD
ATOM     11  H   LIG d   1       8.608  -1.350  -5.558  0.00  0.00     0.159 HD
ENDROOT
BRANCH   1  12
ATOM     12  C   LIG d   1       5.367  -1.530  -2.764  0.00  0.00    -0.021 C 
ATOM     13  H   LIG d   1       6.103  -2.036  -2.137  0.00  0.00     0.031 H 
BRANCH  12  14
ATOM     14  C   LIG d   1       5.515  -0.016  -2.605  0.00  0.00    -0.049 C 
ATOM     15  H   LIG d   1       5.438   0.461  -3.582  0.00  0.00     0.027 H 
ATOM     16  H   LIG d   1       6.486   0.210  -2.165  0.00  0.00     0.027 H 
BRANCH  14  17
ATOM     17  C   LIG d   1       4.407   0.511  -1.691  0.00  0.00    -0.056 C 
ATOM     18  H   LIG d   1       4.850   0.950  -0.797  0.00  0.00     0.026 H 
ATOM     19  H   LIG d   1       3.751  -0.310  -1.405  0.00  0.00     0.026 H 
BRANCH  17  20
ATOM     20  C   LIG d   1       3.597   1.576  -2.434  0.00  0.00    -0.065 C 
ATOM     21  H   LIG d   1       2.615   1.675  -1.969  0.00  0.00     0.023 H 
ATOM     22  H   LIG d   1       4.120   2.530  -2.386  0.00  0.00     0.023 H 
ATOM     23  H   LIG d   1       3.476   1.278  -3.475  0.00  0.00     0.023 H 
ENDBRANCH  17  20
ENDBRANCH  14  17
ENDBRANCH  12  14
BRANCH  12  24
ATOM     24  C   LIG d   1       3.960  -1.953  -2.339  0.00  0.00    -0.061 C 
ATOM     25  H   LIG d   1       3.223  -1.410  -2.931  0.00  0.00     0.023 H 
ATOM     26  H   LIG d   1       3.837  -3.024  -2.501  0.00  0.00     0.023 H 
ATOM     27  H   LIG d   1       3.816  -1.726  -1.282  0.00  0.00     0.023 H 
ENDBRANCH  12  24
ENDBRANCH   1  12
BRANCH   1  28
ATOM     28  C   LIG d   1       4.951  -3.282  -4.463  0.00  0.00    -0.033 C 
ATOM     29  H   LIG d   1       5.419  -4.021  -3.814  0.00  0.00     0.028 H 
ATOM     30  H   LIG d   1       3.885  -3.225  -4.239  0.00  0.00     0.028 H 
BRANCH  28  31
ATOM     31  C   LIG d   1       5.143  -3.691  -5.925  0.00  0.00    -0.064 C 
ATOM     32  H   LIG d   1       5.944  -3.099  -6.367  0.00  0.00     0.023 H 
ATOM     33  H   LIG d   1       5.403  -4.749  -5.974  0.00  0.00     0.023 H 
ATOM     34  H   LIG d   1       4.218  -3.519  -6.475  0.00  0.00     0.023 H 
ENDBRANCH  28  31
ENDBRANCH   1  28
TORSDOF 7
ENDMDL
MODEL 5
REMARK VINA RESULT:      -5.0      2.405      4.168
REMARK  7 active torsions:
REMARK  status: ('A' for Active; 'I' for Inactive)
REMARK    1  A    between atoms: C_1  and  C_2 
REMARK    2  A    between atoms: C_2  and  C_3 
REMARK    3  A    between atoms: C_3  and  C_4 
REMARK    4  A    between atoms: C_4  and  C_6 
REMARK    5  A    between atoms: C_4  and  C_7 
REMARK    6  A    between atoms: C_7  and  C_16 
REMARK    7  A    between atoms: C_16  and  C_17 
ROOT
ATOM      1  C   LIG d   1       5.099  -0.454  -3.317  0.00  0.00     0.126 A 
ATOM      2  C   LIG d   1       4.612   0.809  -2.632  0.00  0.00     0.236 A 
ATOM      3  N   LIG d   1       3.690   1.554  -3.278  0.00  0.00    -0.239 N 
ATOM      4  C   LIG d   1       3.212   1.205  -4.479  0.00  0.00     0.312 A 
ATOM      5  O   LIG d   1       2.385   1.933  -4.989  0.00  0.00    -0.252 OA
ATOM      6  N   LIG d   1       3.582   0.113  -5.159  0.00  0.00    -0.239 N 
ATOM      7  C   LIG d   1       4.494  -0.755  -4.675  0.00  0.00     0.236 A 
ATOM      8  O   LIG d   1       4.818  -1.741  -5.303  0.00  0.00    -0.274 OA
ATOM      9  O   LIG d   1       5.033   1.137  -1.544  0.00  0.00    -0.274 OA
ATOM     10  H   LIG d   1       3.363   2.366  -2.860  0.00  0.00     0.159 HD
ATOM     11  H   LIG d   1       3.181  -0.059  -6.025  0.00  0.00     0.159 HD
ENDROOT
BRANCH   1  12
ATOM     12  C   LIG d   1       6.616  -0.350  -3.484  0.00  0.00    -0.021 C 
ATOM     13  H   LIG d   1       7.024   0.293  -2.704  0.00  0.00     0.031 H 
BRANCH  12  14
ATOM     14  C   LIG d   1       7.239  -1.743  -3.376  0.00  0.00    -0.049 C 
ATOM     15  H   LIG d   1       6.449  -2.494  -3.362  0.00  0.00     0.027 H 
ATOM     16  H   LIG d   1       7.821  -1.810  -2.457  0.00  0.00     0.027 H 
BRANCH  14  17
ATOM     17  C   LIG d   1       8.154  -1.987  -4.577  0.00  0.00    -0.056 C 
ATOM     18  H   LIG d   1       9.192  -1.832  -4.282  0.00  0.00     0.026 H 
ATOM     19  H   LIG d   1       7.897  -1.293  -5.377  0.00  0.00     0.026 H 
BRANCH  17  20
ATOM     20  C   LIG d   1       7.973  -3.424  -5.072  0.00  0.00    -0.065 C 
ATOM     21  H   LIG d   1       6.912  -3.674  -5.079  0.00  0.00     0.023 H 
ATOM     22  H   LIG d   1       8.375  -3.514  -6.081  0.00  0.00     0.023 H 
ATOM     23  H   LIG d   1       8.503  -4.106  -4.407  0.00  0.00     0.023 H 
ENDBRANCH  17  20
ENDBRANCH  14  17
ENDBRANCH  12  14
BRANCH  12  24
ATOM     24  C   LIG d   1       6.938   0.247  -4.856  0.00  0.00    -0.061 C 
ATOM     25  H   LIG d   1       7.975   0.033  -5.111  0.00  0.00     0.023 H 
ATOM     26  H   LIG d   1       6.281  -0.192  -5.606  0.00  0.00     0.023 H 
ATOM     27  H   LIG d   1       6.785   1.326  -4.827  0.00  0.00     0.023 H 
ENDBRANCH  12  24
ENDBRANCH   1  12
BRANCH   1  28
ATOM     28  C   LIG d   1       4.804  -1.639  -2.396  0.00  0.00    -0.033 C 
ATOM     29  H   LIG d   1       5.317  -2.526  -2.769  0.00  0.00     0.028 H 
ATOM     30  H   LIG d   1       5.157  -1.413  -1.389  0.00  0.00     0.028 H 
BRANCH  28  31
ATOM     31  C   LIG d   1       3.297  -1.897  -2.361  0.00  0.00    -0.064 C 
ATOM     32  H   LIG d   1       2.952  -1.905  -1.328  0.00  0.00     0.023 H 
ATOM     33  H   LIG d   1       2.782  -1.107  -2.910  0.00  0.00     0.023 H 
ATOM     34  H   LIG d   1       3.082  -2.860  -2.825  0.00  0.00     0.023 H 
ENDBRANCH  28  31
ENDBRANCH   1  28
TORSDOF 7
ENDMDL
MODEL 6
REMARK VINA RESULT:      -4.9      2.014      3.838
REMARK  7 active torsions:
REMARK  status: ('A' for Active; 'I' for Inactive)
REMARK    1  A    between atoms: C_1  and  C_2 
REMARK    2  A    between atoms: C_2  and  C_3 
REMARK    3  A    between atoms: C_3  and  C_4 
REMARK    4  A    between atoms: C_4  and  C_6 
REMARK    5  A    between atoms: C_4  and  C_7 
REMARK    6  A    between atoms: C_7  and  C_16 
REMARK    7  A    between atoms: C_16  and  C_17 
ROOT
ATOM      1  C   LIG d   1       5.184  -1.296  -4.365  0.00  0.00     0.126 A 
ATOM      2  C   LIG d   1       5.781   0.098  -4.398  0.00  0.00     0.236 A 
ATOM      3  N   LIG d   1       5.583   0.889  -3.322  0.00  0.00    -0.239 N 
ATOM      4  C   LIG d   1       4.888   0.473  -2.257  0.00  0.00     0.312 A 
ATOM      5  O   LIG d   1       4.758   1.249  -1.331  0.00  0.00    -0.252 OA
ATOM      6  N   LIG d   1       4.324  -0.735  -2.137  0.00  0.00    -0.239 N 
ATOM      7  C   LIG d   1       4.414  -1.665  -3.111  0.00  0.00     0.236 A 
ATOM      8  O   LIG d   1       3.899  -2.755  -2.988  0.00  0.00    -0.274 OA
ATOM      9  O   LIG d   1       6.415   0.488  -5.355  0.00  0.00    -0.274 OA
ATOM     10  H   LIG d   1       5.956   1.784  -3.320  0.00  0.00     0.159 HD
ATOM     11  H   LIG d   1       3.838  -0.949  -1.326  0.00  0.00     0.159 HD
ENDROOT
BRANCH   1  12
ATOM     12  C   LIG d   1       4.240  -1.438  -5.561  0.00  0.00    -0.021 C 
ATOM     13  H   LIG d   1       3.490  -2.198  -5.343  0.00  0.00     0.031 H 
BRANCH  12  14
ATOM     14  C   LIG d   1       3.550  -0.099  -5.829  0.00  0.00    -0.049 C 
ATOM     15  H   LIG d   1       4.287   0.703  -5.795  0.00  0.00     0.027 H 
ATOM     16  H   LIG d   1       2.788   0.075  -5.068  0.00  0.00     0.027 H 
BRANCH  14  17
ATOM     17  C   LIG d   1       2.893  -0.131  -7.210  0.00  0.00    -0.056 C 
ATOM     18  H   LIG d   1       1.827  -0.331  -7.101  0.00  0.00     0.026 H 
ATOM     19  H   LIG d   1       3.350  -0.916  -7.811  0.00  0.00     0.026 H 
BRANCH  17  20
ATOM     20  C   LIG d   1       3.091   1.220  -7.900  0.00  0.00    -0.065 C 
ATOM     21  H   LIG d   1       4.081   1.609  -7.659  0.00  0.00     0.023 H 
ATOM     22  H   LIG d   1       3.003   1.093  -8.979  0.00  0.00     0.023 H 
ATOM     23  H   LIG d   1       2.332   1.920  -7.553  0.00  0.00     0.023 H 
ENDBRANCH  17  20
ENDBRANCH  14  17
ENDBRANCH  12  14
BRANCH  12  24
ATOM     24  C   LIG d   1       5.042  -1.854  -6.796  0.00  0.00    -0.061 C 
ATOM     25  H   LIG d   1       5.318  -0.966  -7.366  0.00  0.00     0.023 H 
ATOM     26  H   LIG d   1       5.945  -2.379  -6.484  0.00  0.00     0.023 H 
ATOM     27  H   LIG d   1       4.436  -2.512  -7.419  0.00  0.00     0.023 H 
ENDBRANCH  12  24
ENDBRANCH   1  12
BRANCH   1  28
ATOM     28  C   LIG d   1       6.320  -2.306  -4.536  0.00  0.00    -0.033 C 
ATOM     29  H   LIG d   1       5.911  -3.316  -4.544  0.00  0.00     0.028 H 
ATOM     30  H   LIG d   1       6.837  -2.115  -5.477  0.00  0.00     0.028 H 
BRANCH  28  31
ATOM     31  C   LIG d   1       7.307  -2.164  -3.375  0.00  0.00    -0.064 C 
ATOM     32  H   LIG d   1       8.288  -1.894  -3.762  0.00  0.00     0.023 H 
ATOM     33  H   LIG d   1       6.957  -1.386  -2.695  0.00  0.00     0.023 H 
ATOM     34  H   LIG d   1       7.375  -3.111  -2.839  0.00  0.00     0.023 H 
ENDBRANCH  28  31
ENDBRANCH   1  28
TORSDOF 7
ENDMDL
MODEL 7
REMARK VINA RESULT:      -4.8      1.883      3.993
REMARK  7 active torsions:
REMARK  status: ('A' for Active; 'I' for Inactive)
REMARK    1  A    between atoms: C_1  and  C_2 
REMARK    2  A    between atoms: C_2  and  C_3 
REMARK    3  A    between atoms: C_3  and  C_4 
REMARK    4  A    between atoms: C_4  and  C_6 
REMARK    5  A    between atoms: C_4  and  C_7 
REMARK    6  A    between atoms: C_7  and  C_16 
REMARK    7  A    between atoms: C_16  and  C_17 
ROOT
ATOM      1  C   LIG d   1       4.975  -1.011  -3.558  0.00  0.00     0.126 A 
ATOM      2  C   LIG d   1       5.301  -0.095  -4.724  0.00  0.00     0.236 A 
ATOM      3  N   LIG d   1       4.279   0.304  -5.510  0.00  0.00    -0.239 N 
ATOM      4  C   LIG d   1       3.018  -0.083  -5.282  0.00  0.00     0.312 A 
ATOM      5  O   LIG d   1       2.159   0.324  -6.038  0.00  0.00    -0.252 OA
ATOM      6  N   LIG d   1       2.635  -0.887  -4.283  0.00  0.00    -0.239 N 
ATOM      7  C   LIG d   1       3.516  -1.389  -3.393  0.00  0.00     0.236 A 
ATOM      8  O   LIG d   1       3.153  -2.117  -2.493  0.00  0.00    -0.274 OA
ATOM      9  O   LIG d   1       6.438   0.265  -4.941  0.00  0.00    -0.274 OA
ATOM     10  H   LIG d   1       4.463   0.890  -6.260  0.00  0.00     0.159 HD
ATOM     11  H   LIG d   1       1.696  -1.115  -4.196  0.00  0.00     0.159 HD
ENDROOT
BRANCH   1  12
ATOM     12  C   LIG d   1       5.785  -2.299  -3.724  0.00  0.00    -0.021 C 
ATOM     13  H   LIG d   1       5.389  -3.065  -3.057  0.00  0.00     0.031 H 
BRANCH  12  14
ATOM     14  C   LIG d   1       5.686  -2.781  -5.173  0.00  0.00    -0.049 C 
ATOM     15  H   LIG d   1       6.677  -2.778  -5.626  0.00  0.00     0.027 H 
ATOM     16  H   LIG d   1       5.028  -2.116  -5.733  0.00  0.00     0.027 H 
BRANCH  14  17
ATOM     17  C   LIG d   1       5.117  -4.201  -5.199  0.00  0.00    -0.056 C 
ATOM     18  H   LIG d   1       4.291  -4.249  -5.908  0.00  0.00     0.026 H 
ATOM     19  H   LIG d   1       4.758  -4.467  -4.205  0.00  0.00     0.026 H 
BRANCH  17  20
ATOM     20  C   LIG d   1       6.212  -5.181  -5.624  0.00  0.00    -0.065 C 
ATOM     21  H   LIG d   1       7.076  -4.624  -5.988  0.00  0.00     0.023 H 
ATOM     22  H   LIG d   1       6.506  -5.791  -4.770  0.00  0.00     0.023 H 
ATOM     23  H   LIG d   1       5.835  -5.825  -6.418  0.00  0.00     0.023 H 
ENDBRANCH  17  20
ENDBRANCH  14  17
ENDBRANCH  12  14
BRANCH  12  24
ATOM     24  C   LIG d   1       7.250  -2.028  -3.376  0.00  0.00    -0.061 C 
ATOM     25  H   LIG d   1       7.494  -2.511  -2.431  0.00  0.00     0.023 H 
ATOM     26  H   LIG d   1       7.890  -2.426  -4.163  0.00  0.00     0.023 H 
ATOM     27  H   LIG d   1       7.410  -0.953  -3.288  0.00  0.00     0.023 H 
ENDBRANCH  12  24
ENDBRANCH   1  12
BRANCH   1  28
ATOM     28  C   LIG d   1       5.434  -0.325  -2.271  0.00  0.00    -0.033 C 
ATOM     29  H   LIG d   1       5.347  -1.022  -1.437  0.00  0.00     0.028 H 
ATOM     30  H   LIG d   1       6.474  -0.013  -2.376  0.00  0.00     0.028 H 
BRANCH  28  31
ATOM     31  C   LIG d   1       4.559   0.901  -2.006  0.00  0.00    -0.064 C 
ATOM     32  H   LIG d   1       4.505   1.085  -0.933  0.00  0.00     0.023 H 
ATOM     33  H   LIG d   1       4.992   1.770  -2.503  0.00  0.00     0.023 H 
ATOM     34  H   LIG d   1       3.556   0.723  -2.395  0.00  0.00     0.023 H 
ENDBRANCH  28  31
ENDBRANCH   1  28
TORSDOF 7
ENDMDL
MODEL 8
REMARK VINA RESULT:      -4.7      2.735      4.081
REMARK  7 active torsions:
REMARK  status: ('A' for Active; 'I' for Inactive)
REMARK    1  A    between atoms: C_1  and  C_2 
REMARK    2  A    between atoms: C_2  and  C_3 
REMARK    3  A    between atoms: C_3  and  C_4 
REMARK    4  A    between atoms: C_4  and  C_6 
REMARK    5  A    between atoms: C_4  and  C_7 
REMARK    6  A    between atoms: C_7  and  C_16 
REMARK    7  A    between atoms: C_16  and  C_17 
ROOT
ATOM      1  C   LIG d   1       5.072  -0.348  -3.728  0.00  0.00     0.126 A 
ATOM      2  C   LIG d   1       4.661   0.863  -2.910  0.00  0.00     0.236 A 
ATOM      3  N   LIG d   1       3.668   1.638  -3.397  0.00  0.00    -0.239 N 
ATOM      4  C   LIG d   1       3.058   1.361  -4.555  0.00  0.00     0.312 A 
ATOM      5  O   LIG d   1       2.174   2.112  -4.919  0.00  0.00    -0.252 OA
ATOM      6  N   LIG d   1       3.351   0.320  -5.343  0.00  0.00    -0.239 N 
ATOM      7  C   LIG d   1       4.316  -0.567  -5.024  0.00  0.00     0.236 A 
ATOM      8  O   LIG d   1       4.570  -1.506  -5.748  0.00  0.00    -0.274 OA
ATOM      9  O   LIG d   1       5.203   1.125  -1.858  0.00  0.00    -0.274 OA
ATOM     10  H   LIG d   1       3.388   2.417  -2.891  0.00  0.00     0.159 HD
ATOM     11  H   LIG d   1       2.854   0.199  -6.167  0.00  0.00     0.159 HD
ENDROOT
BRANCH   1  12
ATOM     12  C   LIG d   1       6.559  -0.215  -4.060  0.00  0.00    -0.021 C 
ATOM     13  H   LIG d   1       6.702  -0.327  -5.135  0.00  0.00     0.031 H 
BRANCH  12  14
ATOM     14  C   LIG d   1       7.060   1.161  -3.617  0.00  0.00    -0.049 C 
ATOM     15  H   LIG d   1       7.053   1.218  -2.529  0.00  0.00     0.027 H 
ATOM     16  H   LIG d   1       6.408   1.934  -4.026  0.00  0.00     0.027 H 
BRANCH  14  17
ATOM     17  C   LIG d   1       8.486   1.374  -4.130  0.00  0.00    -0.056 C 
ATOM     18  H   LIG d   1       8.938   0.408  -4.356  0.00  0.00     0.026 H 
ATOM     19  H   LIG d   1       9.075   1.880  -3.367  0.00  0.00     0.026 H 
BRANCH  17  20
ATOM     20  C   LIG d   1       8.449   2.230  -5.398  0.00  0.00    -0.065 C 
ATOM     21  H   LIG d   1       9.281   2.935  -5.384  0.00  0.00     0.023 H 
ATOM     22  H   LIG d   1       8.532   1.587  -6.274  0.00  0.00     0.023 H 
ATOM     23  H   LIG d   1       7.508   2.779  -5.437  0.00  0.00     0.023 H 
ENDBRANCH  17  20
ENDBRANCH  14  17
ENDBRANCH  12  14
BRANCH  12  24
ATOM     24  C   LIG d   1       7.344  -1.304  -3.326  0.00  0.00    -0.061 C 
ATOM     25  H   LIG d   1       8.202  -0.857  -2.823  0.00  0.00     0.023 H 
ATOM     26  H   LIG d   1       6.700  -1.782  -2.588  0.00  0.00     0.023 H 
ATOM     27  H   LIG d   1       7.690  -2.048  -4.043  0.00  0.00     0.023 H 
ENDBRANCH  12  24
ENDBRANCH   1  12
BRANCH   1  28
ATOM     28  C   LIG d   1       4.890  -1.593  -2.859  0.00  0.00    -0.033 C 
ATOM     29  H   LIG d   1       5.250  -2.469  -3.398  0.00  0.00     0.028 H 
ATOM     30  H   LIG d   1       5.457  -1.478  -1.934  0.00  0.00     0.028 H 
BRANCH  28  31
ATOM     31  C   LIG d   1       3.407  -1.772  -2.527  0.00  0.00    -0.064 C 
ATOM     32  H   LIG d   1       3.187  -2.832  -2.399  0.00  0.00     0.023 H 
ATOM     33  H   LIG d   1       3.175  -1.238  -1.605  0.00  0.00     0.023 H 
ATOM     34  H   LIG d   1       2.802  -1.371  -3.341  0.00  0.00     0.023 H 
ENDBRANCH  28  31
ENDBRANCH   1  28
TORSDOF 7
ENDMDL
MODEL 9
REMARK VINA RESULT:      -4.6      2.376      3.996
REMARK  7 active torsions:
REMARK  status: ('A' for Active; 'I' for Inactive)
REMARK    1  A    between atoms: C_1  and  C_2 
REMARK    2  A    between atoms: C_2  and  C_3 
REMARK    3  A    between atoms: C_3  and  C_4 
REMARK    4  A    between atoms: C_4  and  C_6 
REMARK    5  A    between atoms: C_4  and  C_7 
REMARK    6  A    between atoms: C_7  and  C_16 
REMARK    7  A    between atoms: C_16  and  C_17 
ROOT
ATOM      1  C   LIG d   1       5.312  -1.610  -4.152  0.00  0.00     0.126 A 
ATOM      2  C   LIG d   1       6.732  -1.625  -3.617  0.00  0.00     0.236 A 
ATOM      3  N   LIG d   1       7.326  -0.434  -3.387  0.00  0.00    -0.239 N 
ATOM      4  C   LIG d   1       6.698   0.725  -3.617  0.00  0.00     0.312 A 
ATOM      5  O   LIG d   1       7.306   1.750  -3.382  0.00  0.00    -0.252 OA
ATOM      6  N   LIG d   1       5.451   0.838  -4.087  0.00  0.00    -0.239 N 
ATOM      7  C   LIG d   1       4.696  -0.243  -4.377  0.00  0.00     0.236 A 
ATOM      8  O   LIG d   1       3.567  -0.125  -4.803  0.00  0.00    -0.274 OA
ATOM      9  O   LIG d   1       7.313  -2.667  -3.402  0.00  0.00    -0.274 OA
ATOM     10  H   LIG d   1       8.233  -0.419  -3.044  0.00  0.00     0.159 HD
ATOM     11  H   LIG d   1       5.077   1.722  -4.223  0.00  0.00     0.159 HD
ENDROOT
BRANCH   1  12
ATOM     12  C   LIG d   1       5.298  -2.365  -5.483  0.00  0.00    -0.021 C 
ATOM     13  H   LIG d   1       4.470  -2.006  -6.094  0.00  0.00     0.031 H 
BRANCH  12  14
ATOM     14  C   LIG d   1       6.618  -2.126  -6.219  0.00  0.00    -0.049 C 
ATOM     15  H   LIG d   1       7.058  -3.083  -6.497  0.00  0.00     0.027 H 
ATOM     16  H   LIG d   1       7.305  -1.586  -5.567  0.00  0.00     0.027 H 
BRANCH  14  17
ATOM     17  C   LIG d   1       6.355  -1.299  -7.480  0.00  0.00    -0.056 C 
ATOM     18  H   LIG d   1       5.281  -1.199  -7.632  0.00  0.00     0.026 H 
ATOM     19  H   LIG d   1       6.799  -1.798  -8.340  0.00  0.00     0.026 H 
BRANCH  17  20
ATOM     20  C   LIG d   1       6.979   0.089  -7.318  0.00  0.00    -0.065 C 
ATOM     21  H   LIG d   1       7.216   0.260  -6.267  0.00  0.00     0.023 H 
ATOM     22  H   LIG d   1       7.892   0.149  -7.911  0.00  0.00     0.023 H 
ATOM     23  H   LIG d   1       6.273   0.846  -7.659  0.00  0.00     0.023 H 
ENDBRANCH  17  20
ENDBRANCH  14  17
ENDBRANCH  12  14
BRANCH  12  24
ATOM     24  C   LIG d   1       5.125  -3.862  -5.218  0.00  0.00    -0.061 C 
ATOM     25  H   LIG d   1       4.422  -4.279  -5.938  0.00  0.00     0.023 H 
ATOM     26  H   LIG d   1       6.088  -4.362  -5.320  0.00  0.00     0.023 H 
ATOM     27  H   LIG d   1       4.744  -4.011  -4.208  0.00  0.00     0.023 H 
ENDBRANCH  12  24
ENDBRANCH   1  12
BRANCH   1  28
ATOM     28  C   LIG d   1       4.424  -2.372  -3.166  0.00  0.00    -0.033 C 
ATOM     29  H   LIG d   1       3.429  -2.492  -3.592  0.00  0.00     0.028 H 
ATOM     30  H   LIG d   1       4.856  -3.354  -2.972  0.00  0.00     0.028 H 
BRANCH  28  31
ATOM     31  C   LIG d   1       4.329  -1.589  -1.855  0.00  0.00    -0.064 C 
ATOM     32  H   LIG d   1       4.778  -0.605  -1.986  0.00  0.00     0.023 H 
ATOM     33  H   LIG d   1       3.280  -1.476  -1.576  0.00  0.00     0.023 H 
ATOM     34  H   LIG d   1       4.858  -2.129  -1.070  0.00  0.00     0.023 H 
ENDBRANCH  28  31
ENDBRANCH   1  28
TORSDOF 7
ENDMDL
MODEL 10
REMARK VINA RESULT:      -4.6      1.873      2.791
REMARK  7 active torsions:
REMARK  status: ('A' for Active; 'I' for Inactive)
REMARK    1  A    between atoms: C_1  and  C_2 
REMARK    2  A    between atoms: C_2  and  C_3 
REMARK    3  A    between atoms: C_3  and  C_4 
REMARK    4  A    between atoms: C_4  and  C_6 
REMARK    5  A    between atoms: C_4  and  C_7 
REMARK    6  A    between atoms: C_7  and  C_16 
REMARK    7  A    between atoms: C_16  and  C_17 
ROOT
ATOM      1  C   LIG d   1       4.505  -0.511  -3.954  0.00  0.00     0.126 A 
ATOM      2  C   LIG d   1       4.832  -1.897  -4.480  0.00  0.00     0.236 A 
ATOM      3  N   LIG d   1       6.136  -2.218  -4.627  0.00  0.00    -0.239 N 
ATOM      4  C   LIG d   1       7.115  -1.357  -4.323  0.00  0.00     0.312 A 
ATOM      5  O   LIG d   1       8.260  -1.728  -4.485  0.00  0.00    -0.252 OA
ATOM      6  N   LIG d   1       6.924  -0.118  -3.855  0.00  0.00    -0.239 N 
ATOM      7  C   LIG d   1       5.689   0.383  -3.642  0.00  0.00     0.236 A 
ATOM      8  O   LIG d   1       5.533   1.508  -3.218  0.00  0.00    -0.274 OA
ATOM      9  O   LIG d   1       3.956  -2.687  -4.758  0.00  0.00    -0.274 OA
ATOM     10  H   LIG d   1       6.369  -3.097  -4.961  0.00  0.00     0.159 HD
ATOM     11  H   LIG d   1       7.697   0.436  -3.662  0.00  0.00     0.159 HD
ENDROOT
BRANCH   1  12
ATOM     12  C   LIG d   1       3.633   0.198  -4.992  0.00  0.00    -0.021 C 
ATOM     13  H   LIG d   1       3.878   1.260  -5.007  0.00  0.00     0.031 H 
BRANCH  12  14
ATOM     14  C   LIG d   1       3.890  -0.407  -6.374  0.00  0.00    -0.049 C 
ATOM     15  H   LIG d   1       3.843  -1.494  -6.309  0.00  0.00     0.027 H 
ATOM     16  H   LIG d   1       4.877  -0.104  -6.724  0.00  0.00     0.027 H 
BRANCH  14  17
ATOM     17  C   LIG d   1       2.826   0.093  -7.354  0.00  0.00    -0.056 C 
ATOM     18  H   LIG d   1       3.100   1.084  -7.714  0.00  0.00     0.026 H 
ATOM     19  H   LIG d   1       1.862   0.143  -6.849  0.00  0.00     0.026 H 
BRANCH  17  20
ATOM     20  C   LIG d   1       2.732  -0.872  -8.538  0.00  0.00    -0.065 C 
ATOM     21  H   LIG d   1       2.571  -0.306  -9.456  0.00  0.00     0.023 H 
ATOM     22  H   LIG d   1       3.658  -1.441  -8.618  0.00  0.00     0.023 H 
ATOM     23  H   LIG d   1       1.897  -1.556  -8.383  0.00  0.00     0.023 H 
ENDBRANCH  17  20
ENDBRANCH  14  17
ENDBRANCH  12  14
BRANCH  12  24
ATOM     24  C   LIG d   1       2.158   0.021  -4.624  0.00  0.00    -0.061 C 
ATOM     25  H   LIG d   1       1.543   0.627  -5.289  0.00  0.00     0.023 H 
ATOM     26  H   LIG d   1       1.881  -1.028  -4.728  0.00  0.00     0.023 H 
ATOM     27  H   LIG d   1       2.000   0.338  -3.593  0.00  0.00     0.023 H 
ENDBRANCH  12  24
ENDBRANCH   1  12
BRANCH   1  28
ATOM     28  C   LIG d   1       3.684  -0.670  -2.673  0.00  0.00    -0.033 C 
ATOM     29  H   LIG d   1       3.428   0.313  -2.281  0.00  0.00     0.028 H 
ATOM     30  H   LIG d   1       2.769  -1.221  -2.895  0.00  0.00     0.028 H 
BRANCH  28  31
ATOM     31  C   LIG d   1       4.502  -1.439  -1.634  0.00  0.00    -0.064 C 
ATOM     32  H   LIG d   1       5.562  -1.364  -1.877  0.00  0.00     0.023 H 
ATOM     33  H   LIG d   1       4.325  -1.013  -0.646  0.00  0.00     0.023 H 
ATOM     34  H   LIG d   1       4.201  -2.487  -1.637  0.00  0.00     0.023 H 
ENDBRANCH  28  31
ENDBRANCH   1  28
TORSDOF 7
ENDMDL
