MODEL 1
REMARK VINA RESULT:      -6.6      0.000      0.000
REMARK  14 active torsions:
REMARK  status: ('A' for Active; 'I' for Inactive)
REMARK    1  A    between atoms: C_1  and  C_2 
REMARK    2  A    between atoms: C_2  and  C_3 
REMARK    3  A    between atoms: C_2  and  C_4 
REMARK    4  A    between atoms: C_4  and  C_5 
REMARK    5  A    between atoms: C_5  and  C_6 
REMARK       I    between atoms: C_6  and  N_8 
REMARK    6  A    between atoms: N_8  and  C_9 
REMARK    7  A    between atoms: C_14  and  C_15 
REMARK       I    between atoms: C_15  and  N_17 
REMARK    8  A    between atoms: N_17  and  C_18 
REMARK    9  A    between atoms: C_18  and  C_19 
REMARK   10  A    between atoms: C_19  and  C_20 
REMARK   11  A    between atoms: C_23  and  O_28 
REMARK   12  A    between atoms: C_24  and  O_26 
REMARK   13  A    between atoms: O_26  and  C_27 
REMARK   14  A    between atoms: O_28  and  C_29 
ROOT
ATOM      1  C   LIG d   1       3.055   0.454  -8.257  0.00  0.00     0.045 A 
ATOM      2  C   LIG d   1       3.005   1.806  -8.571  0.00  0.00    -0.040 A 
ATOM      3  C   LIG d   1       3.445   2.245  -9.803  0.00  0.00    -0.060 A 
ATOM      4  C   LIG d   1       3.927   1.344 -10.738  0.00  0.00    -0.061 A 
ATOM      5  C   LIG d   1       3.978  -0.002 -10.446  0.00  0.00    -0.048 A 
ATOM      6  C   LIG d   1       3.541  -0.461  -9.202  0.00  0.00     0.058 A 
ATOM      7  H   LIG d   1       2.626   2.514  -7.849  0.00  0.00     0.064 H 
ATOM      8  H   LIG d   1       3.409   3.298 -10.041  0.00  0.00     0.062 H 
ATOM      9  H   LIG d   1       4.265   1.698 -11.701  0.00  0.00     0.062 H 
ATOM     10  H   LIG d   1       4.354  -0.701 -11.179  0.00  0.00     0.063 H 
ENDROOT
BRANCH   6  11
ATOM     11  C   LIG d   1       3.593  -1.900  -8.882  0.00  0.00     0.246 C 
ATOM     12  O   LIG d   1       2.654  -2.620  -9.164  0.00  0.00    -0.270 OA
ATOM     13  N   LIG d   1       4.680  -2.418  -8.277  0.00  0.00    -0.311 N 
ATOM     14  H   LIG d   1       5.530  -1.767  -8.023  0.00  0.00     0.149 HD
BRANCH  13  15
ATOM     15  C   LIG d   1       4.732  -3.848  -7.960  0.00  0.00     0.016 C 
ATOM     16  H   LIG d   1       3.988  -4.384  -8.567  0.00  0.00     0.046 H 
ATOM     17  H   LIG d   1       5.737  -4.236  -8.184  0.00  0.00     0.046 H 
BRANCH  15  18
ATOM     18  C   LIG d   1       4.426  -4.052  -6.475  0.00  0.00    -0.012 C 
ATOM     19  H   LIG d   1       3.702  -3.295  -6.142  0.00  0.00     0.033 H 
ATOM     20  H   LIG d   1       4.002  -5.057  -6.324  0.00  0.00     0.033 H 
BRANCH  18  21
ATOM     21  C   LIG d   1       5.697  -3.918  -5.678  0.00  0.00    -0.042 A 
ATOM     22  C   LIG d   1       5.869  -2.839  -4.831  0.00  0.00    -0.013 A 
ATOM     23  C   LIG d   1       7.038  -2.714  -4.096  0.00  0.00     0.162 A 
ATOM     24  H   LIG d   1       5.094  -2.093  -4.743  0.00  0.00     0.066 H 
ATOM     25  C   LIG d   1       8.035  -3.678  -4.212  0.00  0.00     0.162 A 
ATOM     26  C   LIG d   1       7.855  -4.758  -5.062  0.00  0.00    -0.016 A 
ATOM     27  C   LIG d   1       6.685  -4.879  -5.787  0.00  0.00    -0.055 A 
ATOM     28  H   LIG d   1       8.628  -5.507  -5.154  0.00  0.00     0.066 H 
ATOM     29  H   LIG d   1       6.544  -5.723  -6.446  0.00  0.00     0.062 H 
BRANCH  23  30
ATOM     30  O   LIG d   1       7.209  -1.653  -3.265  0.00  0.00    -0.491 OA
BRANCH  30  31
ATOM     31  C   LIG d   1       7.224  -0.355  -3.863  0.00  0.00     0.079 C 
ATOM     32  H   LIG d   1       6.196   0.029  -3.934  0.00  0.00     0.066 H 
ATOM     33  H   LIG d   1       7.660  -0.422  -4.871  0.00  0.00     0.066 H 
ATOM     34  H   LIG d   1       7.829   0.327  -3.246  0.00  0.00     0.066 H 
ENDBRANCH  30  31
ENDBRANCH  23  30
BRANCH  25  35
ATOM     35  O   LIG d   1       9.184  -3.560  -3.494  0.00  0.00    -0.491 OA
BRANCH  35  36
ATOM     36  C   LIG d   1       9.568  -4.682  -2.696  0.00  0.00     0.079 C 
ATOM     37  H   LIG d   1       8.761  -5.428  -2.702  0.00  0.00     0.066 H 
ATOM     38  H   LIG d   1       9.756  -4.351  -1.664  0.00  0.00     0.066 H 
ATOM     39  H   LIG d   1      10.484  -5.129  -3.110  0.00  0.00     0.066 H 
ENDBRANCH  35  36
ENDBRANCH  25  35
ENDBRANCH  18  21
ENDBRANCH  15  18
ENDBRANCH  13  15
ENDBRANCH   6  11
BRANCH   1  40
ATOM     40  N   LIG d   1       2.615   0.008  -7.011  0.00  0.00    -0.285 N 
ATOM     41  C   LIG d   1       3.482  -0.074  -5.982  0.00  0.00     0.217 C 
ATOM     42  O   LIG d   1       4.661   0.144  -6.163  0.00  0.00    -0.276 OA
ATOM     43  H   LIG d   1       1.563  -0.278  -6.869  0.00  0.00     0.155 HD
BRANCH  41  44
ATOM     44  C   LIG d   1       2.983  -0.430  -4.605  0.00  0.00     0.025 C 
ATOM     45  H   LIG d   1       3.513  -1.324  -4.243  0.00  0.00     0.036 H 
ATOM     46  H   LIG d   1       1.903  -0.636  -4.649  0.00  0.00     0.036 H 
BRANCH  44  47
ATOM     47  C   LIG d   1       3.242   0.737  -3.651  0.00  0.00    -0.042 C 
ATOM     48  H   LIG d   1       2.365   1.402  -3.641  0.00  0.00     0.027 H 
ATOM     49  H   LIG d   1       4.124   1.300  -3.991  0.00  0.00     0.027 H 
BRANCH  47  50
ATOM     50  C   LIG d   1       3.490   0.199  -2.241  0.00  0.00    -0.046 C 
ATOM     51  H   LIG d   1       2.587   0.344  -1.630  0.00  0.00     0.030 H 
BRANCH  50  52
ATOM     52  C   LIG d   1       3.821  -1.294  -2.317  0.00  0.00    -0.063 C 
ATOM     53  H   LIG d   1       4.822  -1.425  -2.751  0.00  0.00     0.023 H 
ATOM     54  H   LIG d   1       3.077  -1.803  -2.948  0.00  0.00     0.023 H 
ATOM     55  H   LIG d   1       3.800  -1.725  -1.305  0.00  0.00     0.023 H 
ENDBRANCH  50  52
BRANCH  50  56
ATOM     56  C   LIG d   1       4.662   0.950  -1.607  0.00  0.00    -0.063 C 
ATOM     57  H   LIG d   1       4.276   1.737  -0.942  0.00  0.00     0.023 H 
ATOM     58  H   LIG d   1       5.276   1.406  -2.397  0.00  0.00     0.023 H 
ATOM     59  H   LIG d   1       5.276   0.247  -1.025  0.00  0.00     0.023 H 
ENDBRANCH  50  56
ENDBRANCH  47  50
ENDBRANCH  44  47
ENDBRANCH  41  44
ENDBRANCH   1  40
TORSDOF 14
ENDMDL
MODEL 2
REMARK VINA RESULT:      -6.3      2.311      5.538
REMARK  14 active torsions:
REMARK  status: ('A' for Active; 'I' for Inactive)
REMARK    1  A    between atoms: C_1  and  C_2 
REMARK    2  A    between atoms: C_2  and  C_3 
REMARK    3  A    between atoms: C_2  and  C_4 
REMARK    4  A    between atoms: C_4  and  C_5 
REMARK    5  A    between atoms: C_5  and  C_6 
REMARK       I    between atoms: C_6  and  N_8 
REMARK    6  A    between atoms: N_8  and  C_9 
REMARK    7  A    between atoms: C_14  and  C_15 
REMARK       I    between atoms: C_15  and  N_17 
REMARK    8  A    between atoms: N_17  and  C_18 
REMARK    9  A    between atoms: C_18  and  C_19 
REMARK   10  A    between atoms: C_19  and  C_20 
REMARK   11  A    between atoms: C_23  and  O_28 
REMARK   12  A    between atoms: C_24  and  O_26 
REMARK   13  A    between atoms: O_26  and  C_27 
REMARK   14  A    between atoms: O_28  and  C_29 
ROOT
ATOM      1  C   LIG d   1       3.681  -0.281  -4.137  0.00  0.00     0.045 A 
ATOM      2  C   LIG d   1       3.227   0.930  -3.633  0.00  0.00    -0.040 A 
ATOM      3  C   LIG d   1       3.630   1.354  -2.383  0.00  0.00    -0.060 A 
ATOM      4  C   LIG d   1       4.498   0.583  -1.627  0.00  0.00    -0.061 A 
ATOM      5  C   LIG d   1       4.964  -0.619  -2.114  0.00  0.00    -0.048 A 
ATOM      6  C   LIG d   1       4.560  -1.064  -3.375  0.00  0.00     0.058 A 
ATOM      7  H   LIG d   1       2.553   1.540  -4.218  0.00  0.00     0.064 H 
ATOM      8  H   LIG d   1       3.270   2.295  -1.994  0.00  0.00     0.062 H 
ATOM      9  H   LIG d   1       4.811   0.926  -0.653  0.00  0.00     0.062 H 
ATOM     10  H   LIG d   1       5.641  -1.216  -1.521  0.00  0.00     0.063 H 
ENDROOT
BRANCH   6  11
ATOM     11  C   LIG d   1       5.055  -2.350  -3.901  0.00  0.00     0.246 C 
ATOM     12  O   LIG d   1       4.306  -3.305  -3.974  0.00  0.00    -0.270 OA
ATOM     13  N   LIG d   1       6.337  -2.467  -4.301  0.00  0.00    -0.311 N 
ATOM     14  H   LIG d   1       7.014  -1.603  -4.235  0.00  0.00     0.149 HD
BRANCH  13  15
ATOM     15  C   LIG d   1       6.828  -3.744  -4.824  0.00  0.00     0.016 C 
ATOM     16  H   LIG d   1       6.443  -4.566  -4.203  0.00  0.00     0.046 H 
ATOM     17  H   LIG d   1       6.481  -3.873  -5.860  0.00  0.00     0.046 H 
BRANCH  15  18
ATOM     18  C   LIG d   1       8.358  -3.754  -4.793  0.00  0.00    -0.012 C 
ATOM     19  H   LIG d   1       8.745  -3.881  -5.814  0.00  0.00     0.033 H 
ATOM     20  H   LIG d   1       8.722  -2.800  -4.380  0.00  0.00     0.033 H 
BRANCH  18  21
ATOM     21  C   LIG d   1       8.835  -4.891  -3.929  0.00  0.00    -0.042 A 
ATOM     22  C   LIG d   1       8.630  -6.197  -4.332  0.00  0.00    -0.013 A 
ATOM     23  C   LIG d   1       9.069  -7.245  -3.539  0.00  0.00     0.162 A 
ATOM     24  H   LIG d   1       8.128  -6.401  -5.266  0.00  0.00     0.066 H 
ATOM     25  C   LIG d   1       9.717  -6.979  -2.336  0.00  0.00     0.162 A 
ATOM     26  C   LIG d   1       9.920  -5.667  -1.937  0.00  0.00    -0.016 A 
ATOM     27  C   LIG d   1       9.484  -4.627  -2.737  0.00  0.00    -0.055 A 
ATOM     28  H   LIG d   1      10.422  -5.457  -1.004  0.00  0.00     0.066 H 
ATOM     29  H   LIG d   1       9.647  -3.605  -2.427  0.00  0.00     0.062 H 
BRANCH  23  30
ATOM     30  O   LIG d   1       8.868  -8.530  -3.933  0.00  0.00    -0.491 OA
BRANCH  30  31
ATOM     31  C   LIG d   1       7.548  -9.058  -3.777  0.00  0.00     0.079 C 
ATOM     32  H   LIG d   1       7.340  -9.213  -2.708  0.00  0.00     0.066 H 
ATOM     33  H   LIG d   1       7.473 -10.018  -4.308  0.00  0.00     0.066 H 
ATOM     34  H   LIG d   1       6.818  -8.349  -4.194  0.00  0.00     0.066 H 
ENDBRANCH  30  31
ENDBRANCH  23  30
BRANCH  25  35
ATOM     35  O   LIG d   1      10.149  -8.003  -1.553  0.00  0.00    -0.491 OA
BRANCH  35  36
ATOM     36  C   LIG d   1      11.075  -7.679  -0.513  0.00  0.00     0.079 C 
ATOM     37  H   LIG d   1      10.926  -6.635  -0.203  0.00  0.00     0.066 H 
ATOM     38  H   LIG d   1      12.102  -7.810  -0.883  0.00  0.00     0.066 H 
ATOM     39  H   LIG d   1      10.907  -8.344   0.346  0.00  0.00     0.066 H 
ENDBRANCH  35  36
ENDBRANCH  25  35
ENDBRANCH  18  21
ENDBRANCH  15  18
ENDBRANCH  13  15
ENDBRANCH   6  11
BRANCH   1  40
ATOM     40  N   LIG d   1       3.270  -0.714  -5.397  0.00  0.00    -0.285 N 
ATOM     41  C   LIG d   1       4.018  -0.432  -6.482  0.00  0.00     0.217 C 
ATOM     42  O   LIG d   1       4.994   0.282  -6.377  0.00  0.00    -0.276 OA
ATOM     43  H   LIG d   1       2.337  -1.285  -5.505  0.00  0.00     0.155 HD
BRANCH  41  44
ATOM     44  C   LIG d   1       3.646  -1.008  -7.823  0.00  0.00     0.025 C 
ATOM     45  H   LIG d   1       3.495  -2.093  -7.728  0.00  0.00     0.036 H 
ATOM     46  H   LIG d   1       4.455  -0.812  -8.543  0.00  0.00     0.036 H 
BRANCH  44  47
ATOM     47  C   LIG d   1       2.353  -0.356  -8.318  0.00  0.00    -0.042 C 
ATOM     48  H   LIG d   1       1.850   0.143  -7.476  0.00  0.00     0.027 H 
ATOM     49  H   LIG d   1       1.691  -1.127  -8.736  0.00  0.00     0.027 H 
BRANCH  47  50
ATOM     50  C   LIG d   1       2.683   0.676  -9.397  0.00  0.00    -0.046 C 
ATOM     51  H   LIG d   1       1.880   0.690 -10.149  0.00  0.00     0.030 H 
BRANCH  50  52
ATOM     52  C   LIG d   1       2.808   2.061  -8.758  0.00  0.00    -0.063 C 
ATOM     53  H   LIG d   1       3.871   2.309  -8.625  0.00  0.00     0.023 H 
ATOM     54  H   LIG d   1       2.306   2.059  -7.779  0.00  0.00     0.023 H 
ATOM     55  H   LIG d   1       2.335   2.810  -9.411  0.00  0.00     0.023 H 
ENDBRANCH  50  52
BRANCH  50  56
ATOM     56  C   LIG d   1       4.005   0.304 -10.072  0.00  0.00    -0.063 C 
ATOM     57  H   LIG d   1       4.373  -0.646  -9.658  0.00  0.00     0.023 H 
ATOM     58  H   LIG d   1       4.746   1.095  -9.888  0.00  0.00     0.023 H 
ATOM     59  H   LIG d   1       3.846   0.196 -11.156  0.00  0.00     0.023 H 
ENDBRANCH  50  56
ENDBRANCH  47  50
ENDBRANCH  44  47
ENDBRANCH  41  44
ENDBRANCH   1  40
TORSDOF 14
ENDMDL
MODEL 3
REMARK VINA RESULT:      -6.3      2.675      5.885
REMARK  14 active torsions:
REMARK  status: ('A' for Active; 'I' for Inactive)
REMARK    1  A    between atoms: C_1  and  C_2 
REMARK    2  A    between atoms: C_2  and  C_3 
REMARK    3  A    between atoms: C_2  and  C_4 
REMARK    4  A    between atoms: C_4  and  C_5 
REMARK    5  A    between atoms: C_5  and  C_6 
REMARK       I    between atoms: C_6  and  N_8 
REMARK    6  A    between atoms: N_8  and  C_9 
REMARK    7  A    between atoms: C_14  and  C_15 
REMARK       I    between atoms: C_15  and  N_17 
REMARK    8  A    between atoms: N_17  and  C_18 
REMARK    9  A    between atoms: C_18  and  C_19 
REMARK   10  A    between atoms: C_19  and  C_20 
REMARK   11  A    between atoms: C_23  and  O_28 
REMARK   12  A    between atoms: C_24  and  O_26 
REMARK   13  A    between atoms: O_26  and  C_27 
REMARK   14  A    between atoms: O_28  and  C_29 
ROOT
ATOM      1  C   LIG d   1       3.681  -0.249  -4.132  0.00  0.00     0.045 A 
ATOM      2  C   LIG d   1       3.249   0.980  -3.648  0.00  0.00    -0.040 A 
ATOM      3  C   LIG d   1       3.638   1.404  -2.394  0.00  0.00    -0.060 A 
ATOM      4  C   LIG d   1       4.470   0.617  -1.614  0.00  0.00    -0.061 A 
ATOM      5  C   LIG d   1       4.913  -0.601  -2.080  0.00  0.00    -0.048 A 
ATOM      6  C   LIG d   1       4.523  -1.047  -3.345  0.00  0.00     0.058 A 
ATOM      7  H   LIG d   1       2.605   1.601  -4.253  0.00  0.00     0.064 H 
ATOM      8  H   LIG d   1       3.296   2.358  -2.021  0.00  0.00     0.062 H 
ATOM      9  H   LIG d   1       4.772   0.961  -0.636  0.00  0.00     0.062 H 
ATOM     10  H   LIG d   1       5.561  -1.211  -1.467  0.00  0.00     0.063 H 
ENDROOT
BRANCH   6  11
ATOM     11  C   LIG d   1       4.993  -2.351  -3.849  0.00  0.00     0.246 C 
ATOM     12  O   LIG d   1       4.237  -3.303  -3.872  0.00  0.00    -0.270 OA
ATOM     13  N   LIG d   1       6.262  -2.488  -4.285  0.00  0.00    -0.311 N 
ATOM     14  H   LIG d   1       6.946  -1.627  -4.264  0.00  0.00     0.149 HD
BRANCH  13  15
ATOM     15  C   LIG d   1       6.729  -3.783  -4.786  0.00  0.00     0.016 C 
ATOM     16  H   LIG d   1       7.765  -3.951  -4.456  0.00  0.00     0.046 H 
ATOM     17  H   LIG d   1       6.085  -4.582  -4.392  0.00  0.00     0.046 H 
BRANCH  15  18
ATOM     18  C   LIG d   1       6.672  -3.789  -6.315  0.00  0.00    -0.012 C 
ATOM     19  H   LIG d   1       6.223  -2.851  -6.669  0.00  0.00     0.033 H 
ATOM     20  H   LIG d   1       7.692  -3.883  -6.719  0.00  0.00     0.033 H 
BRANCH  18  21
ATOM     21  C   LIG d   1       5.839  -4.954  -6.781  0.00  0.00    -0.042 A 
ATOM     22  C   LIG d   1       5.478  -5.945  -5.887  0.00  0.00    -0.013 A 
ATOM     23  C   LIG d   1       4.710  -7.017  -6.314  0.00  0.00     0.162 A 
ATOM     24  H   LIG d   1       5.794  -5.883  -4.857  0.00  0.00     0.066 H 
ATOM     25  C   LIG d   1       4.304  -7.093  -7.643  0.00  0.00     0.162 A 
ATOM     26  C   LIG d   1       4.669  -6.096  -8.534  0.00  0.00    -0.016 A 
ATOM     27  C   LIG d   1       5.430  -5.027  -8.100  0.00  0.00    -0.055 A 
ATOM     28  H   LIG d   1       4.356  -6.152  -9.565  0.00  0.00     0.066 H 
ATOM     29  H   LIG d   1       5.710  -4.248  -8.794  0.00  0.00     0.062 H 
BRANCH  23  30
ATOM     30  O   LIG d   1       4.355  -7.993  -5.437  0.00  0.00    -0.491 OA
BRANCH  30  31
ATOM     31  C   LIG d   1       5.371  -8.924  -5.056  0.00  0.00     0.079 C 
ATOM     32  H   LIG d   1       5.988  -8.488  -4.258  0.00  0.00     0.066 H 
ATOM     33  H   LIG d   1       6.003  -9.151  -5.926  0.00  0.00     0.066 H 
ATOM     34  H   LIG d   1       4.901  -9.850  -4.692  0.00  0.00     0.066 H 
ENDBRANCH  30  31
ENDBRANCH  23  30
BRANCH  25  35
ATOM     35  O   LIG d   1       3.551  -8.143  -8.067  0.00  0.00    -0.491 OA
BRANCH  35  36
ATOM     36  C   LIG d   1       4.223  -9.168  -8.802  0.00  0.00     0.079 C 
ATOM     37  H   LIG d   1       5.291  -9.166  -8.540  0.00  0.00     0.066 H 
ATOM     38  H   LIG d   1       4.109  -8.981  -9.880  0.00  0.00     0.066 H 
ATOM     39  H   LIG d   1       3.786 -10.145  -8.551  0.00  0.00     0.066 H 
ENDBRANCH  35  36
ENDBRANCH  25  35
ENDBRANCH  18  21
ENDBRANCH  15  18
ENDBRANCH  13  15
ENDBRANCH   6  11
BRANCH   1  40
ATOM     40  N   LIG d   1       3.285  -0.682  -5.396  0.00  0.00    -0.285 N 
ATOM     41  C   LIG d   1       4.058  -0.422  -6.469  0.00  0.00     0.217 C 
ATOM     42  O   LIG d   1       5.045   0.273  -6.352  0.00  0.00    -0.276 OA
ATOM     43  H   LIG d   1       2.342  -1.235  -5.517  0.00  0.00     0.155 HD
BRANCH  41  44
ATOM     44  C   LIG d   1       3.699  -1.000  -7.813  0.00  0.00     0.025 C 
ATOM     45  H   LIG d   1       3.595  -2.092  -7.728  0.00  0.00     0.036 H 
ATOM     46  H   LIG d   1       4.492  -0.763  -8.538  0.00  0.00     0.036 H 
BRANCH  44  47
ATOM     47  C   LIG d   1       2.375  -0.399  -8.290  0.00  0.00    -0.042 C 
ATOM     48  H   LIG d   1       1.864   0.080  -7.441  0.00  0.00     0.027 H 
ATOM     49  H   LIG d   1       1.738  -1.195  -8.701  0.00  0.00     0.027 H 
BRANCH  47  50
ATOM     50  C   LIG d   1       2.651   0.646  -9.373  0.00  0.00    -0.046 C 
ATOM     51  H   LIG d   1       1.805   0.677 -10.076  0.00  0.00     0.030 H 
BRANCH  50  52
ATOM     52  C   LIG d   1       2.825   2.020  -8.724  0.00  0.00    -0.063 C 
ATOM     53  H   LIG d   1       3.795   2.062  -8.209  0.00  0.00     0.023 H 
ATOM     54  H   LIG d   1       2.016   2.187  -7.996  0.00  0.00     0.023 H 
ATOM     55  H   LIG d   1       2.786   2.800  -9.500  0.00  0.00     0.023 H 
ENDBRANCH  50  52
BRANCH  50  56
ATOM     56  C   LIG d   1       3.928   0.272 -10.129  0.00  0.00    -0.063 C 
ATOM     57  H   LIG d   1       3.886   0.688 -11.146  0.00  0.00     0.023 H 
ATOM     58  H   LIG d   1       4.015  -0.822 -10.184  0.00  0.00     0.023 H 
ATOM     59  H   LIG d   1       4.800   0.683  -9.599  0.00  0.00     0.023 H 
ENDBRANCH  50  56
ENDBRANCH  47  50
ENDBRANCH  44  47
ENDBRANCH  41  44
ENDBRANCH   1  40
TORSDOF 14
ENDMDL
MODEL 4
REMARK VINA RESULT:      -6.3      4.124      7.245
REMARK  14 active torsions:
REMARK  status: ('A' for Active; 'I' for Inactive)
REMARK    1  A    between atoms: C_1  and  C_2 
REMARK    2  A    between atoms: C_2  and  C_3 
REMARK    3  A    between atoms: C_2  and  C_4 
REMARK    4  A    between atoms: C_4  and  C_5 
REMARK    5  A    between atoms: C_5  and  C_6 
REMARK       I    between atoms: C_6  and  N_8 
REMARK    6  A    between atoms: N_8  and  C_9 
REMARK    7  A    between atoms: C_14  and  C_15 
REMARK       I    between atoms: C_15  and  N_17 
REMARK    8  A    between atoms: N_17  and  C_18 
REMARK    9  A    between atoms: C_18  and  C_19 
REMARK   10  A    between atoms: C_19  and  C_20 
REMARK   11  A    between atoms: C_23  and  O_28 
REMARK   12  A    between atoms: C_24  and  O_26 
REMARK   13  A    between atoms: O_26  and  C_27 
REMARK   14  A    between atoms: O_28  and  C_29 
ROOT
ATOM      1  C   LIG d   1       3.928  -0.742  -4.719  0.00  0.00     0.045 A 
ATOM      2  C   LIG d   1       2.885  -1.004  -3.841  0.00  0.00    -0.040 A 
ATOM      3  C   LIG d   1       3.116  -1.028  -2.481  0.00  0.00    -0.060 A 
ATOM      4  C   LIG d   1       4.384  -0.780  -1.981  0.00  0.00    -0.061 A 
ATOM      5  C   LIG d   1       5.429  -0.512  -2.837  0.00  0.00    -0.048 A 
ATOM      6  C   LIG d   1       5.212  -0.489  -4.216  0.00  0.00     0.058 A 
ATOM      7  H   LIG d   1       1.892  -1.193  -4.223  0.00  0.00     0.064 H 
ATOM      8  H   LIG d   1       2.302  -1.238  -1.802  0.00  0.00     0.062 H 
ATOM      9  H   LIG d   1       4.553  -0.797  -0.914  0.00  0.00     0.062 H 
ATOM     10  H   LIG d   1       6.416  -0.318  -2.442  0.00  0.00     0.063 H 
ENDROOT
BRANCH   6  11
ATOM     11  C   LIG d   1       6.327  -0.203  -5.139  0.00  0.00     0.246 C 
ATOM     12  O   LIG d   1       6.700  -1.053  -5.924  0.00  0.00    -0.270 OA
ATOM     13  N   LIG d   1       6.934   1.000  -5.111  0.00  0.00    -0.311 N 
ATOM     14  H   LIG d   1       6.597   1.769  -4.400  0.00  0.00     0.149 HD
BRANCH  13  15
ATOM     15  C   LIG d   1       8.041   1.285  -6.026  0.00  0.00     0.016 C 
ATOM     16  H   LIG d   1       8.120   0.477  -6.768  0.00  0.00     0.046 H 
ATOM     17  H   LIG d   1       7.854   2.239  -6.542  0.00  0.00     0.046 H 
BRANCH  15  18
ATOM     18  C   LIG d   1       9.347   1.381  -5.234  0.00  0.00    -0.012 C 
ATOM     19  H   LIG d   1       9.319   0.674  -4.393  0.00  0.00     0.033 H 
ATOM     20  H   LIG d   1      10.193   1.134  -5.893  0.00  0.00     0.033 H 
BRANCH  18  21
ATOM     21  C   LIG d   1       9.512   2.783  -4.708  0.00  0.00    -0.042 A 
ATOM     22  C   LIG d   1       9.463   3.856  -5.578  0.00  0.00    -0.013 A 
ATOM     23  C   LIG d   1       9.615   5.147  -5.096  0.00  0.00     0.162 A 
ATOM     24  H   LIG d   1       9.308   3.689  -6.633  0.00  0.00     0.066 H 
ATOM     25  C   LIG d   1       9.814   5.359  -3.735  0.00  0.00     0.162 A 
ATOM     26  C   LIG d   1       9.862   4.278  -2.868  0.00  0.00    -0.016 A 
ATOM     27  C   LIG d   1       9.705   2.995  -3.355  0.00  0.00    -0.055 A 
ATOM     28  H   LIG d   1      10.017   4.439  -1.812  0.00  0.00     0.066 H 
ATOM     29  H   LIG d   1       9.737   2.153  -2.679  0.00  0.00     0.062 H 
BRANCH  23  30
ATOM     30  O   LIG d   1       9.568   6.203  -5.950  0.00  0.00    -0.491 OA
BRANCH  30  31
ATOM     31  C   LIG d   1      10.039   5.983  -7.281  0.00  0.00     0.079 C 
ATOM     32  H   LIG d   1      10.801   6.735  -7.530  0.00  0.00     0.066 H 
ATOM     33  H   LIG d   1       9.198   6.067  -7.985  0.00  0.00     0.066 H 
ATOM     34  H   LIG d   1      10.478   4.977  -7.353  0.00  0.00     0.066 H 
ENDBRANCH  30  31
ENDBRANCH  23  30
BRANCH  25  35
ATOM     35  O   LIG d   1       9.964   6.623  -3.256  0.00  0.00    -0.491 OA
BRANCH  35  36
ATOM     36  C   LIG d   1       9.581   6.852  -1.899  0.00  0.00     0.079 C 
ATOM     37  H   LIG d   1      10.225   7.631  -1.464  0.00  0.00     0.066 H 
ATOM     38  H   LIG d   1       9.693   5.921  -1.324  0.00  0.00     0.066 H 
ATOM     39  H   LIG d   1       8.533   7.181  -1.864  0.00  0.00     0.066 H 
ENDBRANCH  35  36
ENDBRANCH  25  35
ENDBRANCH  18  21
ENDBRANCH  15  18
ENDBRANCH  13  15
ENDBRANCH   6  11
BRANCH   1  40
ATOM     40  N   LIG d   1       3.698  -0.722  -6.094  0.00  0.00    -0.285 N 
ATOM     41  C   LIG d   1       3.180   0.380  -6.674  0.00  0.00     0.217 C 
ATOM     42  O   LIG d   1       2.822   1.315  -5.989  0.00  0.00    -0.276 OA
ATOM     43  H   LIG d   1       3.937  -1.604  -6.705  0.00  0.00     0.155 HD
BRANCH  41  44
ATOM     44  C   LIG d   1       3.052   0.451  -8.174  0.00  0.00     0.025 C 
ATOM     45  H   LIG d   1       2.185  -0.144  -8.497  0.00  0.00     0.036 H 
ATOM     46  H   LIG d   1       3.966   0.051  -8.638  0.00  0.00     0.036 H 
BRANCH  44  47
ATOM     47  C   LIG d   1       2.858   1.908  -8.600  0.00  0.00    -0.042 C 
ATOM     48  H   LIG d   1       3.000   2.566  -7.730  0.00  0.00     0.027 H 
ATOM     49  H   LIG d   1       1.842   2.040  -8.999  0.00  0.00     0.027 H 
BRANCH  47  50
ATOM     50  C   LIG d   1       3.881   2.263  -9.680  0.00  0.00    -0.046 C 
ATOM     51  H   LIG d   1       3.683   3.279 -10.052  0.00  0.00     0.030 H 
BRANCH  50  52
ATOM     52  C   LIG d   1       5.291   2.203  -9.087  0.00  0.00    -0.063 C 
ATOM     53  H   LIG d   1       5.967   2.832  -9.684  0.00  0.00     0.023 H 
ATOM     54  H   LIG d   1       5.650   1.163  -9.099  0.00  0.00     0.023 H 
ATOM     55  H   LIG d   1       5.268   2.570  -8.050  0.00  0.00     0.023 H 
ENDBRANCH  50  52
BRANCH  50  56
ATOM     56  C   LIG d   1       3.771   1.266 -10.836  0.00  0.00    -0.063 C 
ATOM     57  H   LIG d   1       4.479   0.441 -10.676  0.00  0.00     0.023 H 
ATOM     58  H   LIG d   1       4.007   1.774 -11.782  0.00  0.00     0.023 H 
ATOM     59  H   LIG d   1       2.746   0.868 -10.879  0.00  0.00     0.023 H 
ENDBRANCH  50  56
ENDBRANCH  47  50
ENDBRANCH  44  47
ENDBRANCH  41  44
ENDBRANCH   1  40
TORSDOF 14
ENDMDL
MODEL 5
REMARK VINA RESULT:      -6.3      4.378      6.958
REMARK  14 active torsions:
REMARK  status: ('A' for Active; 'I' for Inactive)
REMARK    1  A    between atoms: C_1  and  C_2 
REMARK    2  A    between atoms: C_2  and  C_3 
REMARK    3  A    between atoms: C_2  and  C_4 
REMARK    4  A    between atoms: C_4  and  C_5 
REMARK    5  A    between atoms: C_5  and  C_6 
REMARK       I    between atoms: C_6  and  N_8 
REMARK    6  A    between atoms: N_8  and  C_9 
REMARK    7  A    between atoms: C_14  and  C_15 
REMARK       I    between atoms: C_15  and  N_17 
REMARK    8  A    between atoms: N_17  and  C_18 
REMARK    9  A    between atoms: C_18  and  C_19 
REMARK   10  A    between atoms: C_19  and  C_20 
REMARK   11  A    between atoms: C_23  and  O_28 
REMARK   12  A    between atoms: C_24  and  O_26 
REMARK   13  A    between atoms: O_26  and  C_27 
REMARK   14  A    between atoms: O_28  and  C_29 
ROOT
ATOM      1  C   LIG d   1       3.034   0.473  -8.232  0.00  0.00     0.045 A 
ATOM      2  C   LIG d   1       3.246   1.842  -8.323  0.00  0.00    -0.040 A 
ATOM      3  C   LIG d   1       3.586   2.410  -9.533  0.00  0.00    -0.060 A 
ATOM      4  C   LIG d   1       3.706   1.624 -10.668  0.00  0.00    -0.061 A 
ATOM      5  C   LIG d   1       3.493   0.265 -10.599  0.00  0.00    -0.048 A 
ATOM      6  C   LIG d   1       3.154  -0.326  -9.379  0.00  0.00     0.058 A 
ATOM      7  H   LIG d   1       3.150   2.462  -7.443  0.00  0.00     0.064 H 
ATOM      8  H   LIG d   1       3.755   3.475  -9.597  0.00  0.00     0.062 H 
ATOM      9  H   LIG d   1       3.968   2.080 -11.611  0.00  0.00     0.062 H 
ATOM     10  H   LIG d   1       3.588  -0.343 -11.487  0.00  0.00     0.063 H 
ENDROOT
BRANCH   6  11
ATOM     11  C   LIG d   1       2.925  -1.781  -9.298  0.00  0.00     0.246 C 
ATOM     12  O   LIG d   1       3.534  -2.447  -8.484  0.00  0.00    -0.270 OA
ATOM     13  N   LIG d   1       2.042  -2.372 -10.127  0.00  0.00    -0.311 N 
ATOM     14  H   LIG d   1       1.491  -1.768 -10.864  0.00  0.00     0.149 HD
BRANCH  13  15
ATOM     15  C   LIG d   1       1.814  -3.817 -10.047  0.00  0.00     0.016 C 
ATOM     16  H   LIG d   1       2.767  -4.346 -10.195  0.00  0.00     0.046 H 
ATOM     17  H   LIG d   1       1.405  -4.068  -9.057  0.00  0.00     0.046 H 
BRANCH  15  18
ATOM     18  C   LIG d   1       0.820  -4.238 -11.131  0.00  0.00    -0.012 C 
ATOM     19  H   LIG d   1       0.214  -3.371 -11.430  0.00  0.00     0.033 H 
ATOM     20  H   LIG d   1       1.371  -4.619 -12.004  0.00  0.00     0.033 H 
BRANCH  18  21
ATOM     21  C   LIG d   1      -0.080  -5.320 -10.594  0.00  0.00    -0.042 A 
ATOM     22  C   LIG d   1      -1.317  -4.992 -10.073  0.00  0.00    -0.013 A 
ATOM     23  C   LIG d   1      -2.147  -5.986  -9.578  0.00  0.00     0.162 A 
ATOM     24  H   LIG d   1      -1.638  -3.961 -10.051  0.00  0.00     0.066 H 
ATOM     25  C   LIG d   1      -1.731  -7.314  -9.609  0.00  0.00     0.162 A 
ATOM     26  C   LIG d   1      -0.489  -7.636 -10.133  0.00  0.00    -0.016 A 
ATOM     27  C   LIG d   1       0.330  -6.640 -10.630  0.00  0.00    -0.055 A 
ATOM     28  H   LIG d   1      -0.164  -8.665 -10.158  0.00  0.00     0.066 H 
ATOM     29  H   LIG d   1       1.296  -6.892 -11.042  0.00  0.00     0.062 H 
BRANCH  23  30
ATOM     30  O   LIG d   1      -3.364  -5.665  -9.064  0.00  0.00    -0.491 OA
BRANCH  30  31
ATOM     31  C   LIG d   1      -4.108  -4.651  -9.744  0.00  0.00     0.079 C 
ATOM     32  H   LIG d   1      -3.764  -3.660  -9.415  0.00  0.00     0.066 H 
ATOM     33  H   LIG d   1      -5.177  -4.764  -9.509  0.00  0.00     0.066 H 
ATOM     34  H   LIG d   1      -3.958  -4.752 -10.829  0.00  0.00     0.066 H 
ENDBRANCH  30  31
ENDBRANCH  23  30
BRANCH  25  35
ATOM     35  O   LIG d   1      -2.541  -8.293  -9.125  0.00  0.00    -0.491 OA
BRANCH  35  36
ATOM     36  C   LIG d   1      -2.933  -9.321 -10.037  0.00  0.00     0.079 C 
ATOM     37  H   LIG d   1      -3.890  -9.754  -9.711  0.00  0.00     0.066 H 
ATOM     38  H   LIG d   1      -2.163 -10.107 -10.056  0.00  0.00     0.066 H 
ATOM     39  H   LIG d   1      -3.047  -8.894 -11.043  0.00  0.00     0.066 H 
ENDBRANCH  35  36
ENDBRANCH  25  35
ENDBRANCH  18  21
ENDBRANCH  15  18
ENDBRANCH  13  15
ENDBRANCH   6  11
BRANCH   1  40
ATOM     40  N   LIG d   1       2.696  -0.105  -7.010  0.00  0.00    -0.285 N 
ATOM     41  C   LIG d   1       3.622  -0.208  -6.035  0.00  0.00     0.217 C 
ATOM     42  O   LIG d   1       4.772   0.110  -6.254  0.00  0.00    -0.276 OA
ATOM     43  H   LIG d   1       1.676  -0.477  -6.841  0.00  0.00     0.155 HD
BRANCH  41  44
ATOM     44  C   LIG d   1       3.226  -0.711  -4.671  0.00  0.00     0.025 C 
ATOM     45  H   LIG d   1       3.999  -1.396  -4.294  0.00  0.00     0.036 H 
ATOM     46  H   LIG d   1       2.266  -1.245  -4.743  0.00  0.00     0.036 H 
BRANCH  44  47
ATOM     47  C   LIG d   1       3.081   0.472  -3.712  0.00  0.00    -0.042 C 
ATOM     48  H   LIG d   1       2.036   0.816  -3.711  0.00  0.00     0.027 H 
ATOM     49  H   LIG d   1       3.736   1.292  -4.041  0.00  0.00     0.027 H 
BRANCH  47  50
ATOM     50  C   LIG d   1       3.477   0.036  -2.301  0.00  0.00    -0.046 C 
ATOM     51  H   LIG d   1       2.608   0.128  -1.632  0.00  0.00     0.030 H 
BRANCH  50  52
ATOM     52  C   LIG d   1       3.947  -1.420  -2.330  0.00  0.00    -0.063 C 
ATOM     53  H   LIG d   1       3.147  -2.071  -1.950  0.00  0.00     0.023 H 
ATOM     54  H   LIG d   1       4.841  -1.529  -1.697  0.00  0.00     0.023 H 
ATOM     55  H   LIG d   1       4.193  -1.705  -3.364  0.00  0.00     0.023 H 
ENDBRANCH  50  52
BRANCH  50  56
ATOM     56  C   LIG d   1       4.610   0.929  -1.790  0.00  0.00    -0.063 C 
ATOM     57  H   LIG d   1       5.253   1.223  -2.632  0.00  0.00     0.023 H 
ATOM     58  H   LIG d   1       5.206   0.377  -1.049  0.00  0.00     0.023 H 
ATOM     59  H   LIG d   1       4.184   1.829  -1.321  0.00  0.00     0.023 H 
ENDBRANCH  50  56
ENDBRANCH  47  50
ENDBRANCH  44  47
ENDBRANCH  41  44
ENDBRANCH   1  40
TORSDOF 14
ENDMDL
MODEL 6
REMARK VINA RESULT:      -6.3      4.276      7.388
REMARK  14 active torsions:
REMARK  status: ('A' for Active; 'I' for Inactive)
REMARK    1  A    between atoms: C_1  and  C_2 
REMARK    2  A    between atoms: C_2  and  C_3 
REMARK    3  A    between atoms: C_2  and  C_4 
REMARK    4  A    between atoms: C_4  and  C_5 
REMARK    5  A    between atoms: C_5  and  C_6 
REMARK       I    between atoms: C_6  and  N_8 
REMARK    6  A    between atoms: N_8  and  C_9 
REMARK    7  A    between atoms: C_14  and  C_15 
REMARK       I    between atoms: C_15  and  N_17 
REMARK    8  A    between atoms: N_17  and  C_18 
REMARK    9  A    between atoms: C_18  and  C_19 
REMARK   10  A    between atoms: C_19  and  C_20 
REMARK   11  A    between atoms: C_23  and  O_28 
REMARK   12  A    between atoms: C_24  and  O_26 
REMARK   13  A    between atoms: O_26  and  C_27 
REMARK   14  A    between atoms: O_28  and  C_29 
ROOT
ATOM      1  C   LIG d   1       3.949  -0.802  -4.686  0.00  0.00     0.045 A 
ATOM      2  C   LIG d   1       2.912  -1.146  -3.830  0.00  0.00    -0.040 A 
ATOM      3  C   LIG d   1       3.131  -1.213  -2.469  0.00  0.00    -0.060 A 
ATOM      4  C   LIG d   1       4.382  -0.926  -1.945  0.00  0.00    -0.061 A 
ATOM      5  C   LIG d   1       5.421  -0.577  -2.779  0.00  0.00    -0.048 A 
ATOM      6  C   LIG d   1       5.216  -0.510  -4.159  0.00  0.00     0.058 A 
ATOM      7  H   LIG d   1       1.933  -1.367  -4.230  0.00  0.00     0.064 H 
ATOM      8  H   LIG d   1       2.322  -1.486  -1.808  0.00  0.00     0.062 H 
ATOM      9  H   LIG d   1       4.541  -0.977  -0.879  0.00  0.00     0.062 H 
ATOM     10  H   LIG d   1       6.394  -0.353  -2.365  0.00  0.00     0.063 H 
ENDROOT
BRANCH   6  11
ATOM     11  C   LIG d   1       6.325  -0.137  -5.057  0.00  0.00     0.246 C 
ATOM     12  O   LIG d   1       6.661  -0.887  -5.952  0.00  0.00    -0.270 OA
ATOM     13  N   LIG d   1       6.967   1.036  -4.884  0.00  0.00    -0.311 N 
ATOM     14  H   LIG d   1       6.663   1.714  -4.074  0.00  0.00     0.149 HD
BRANCH  13  15
ATOM     15  C   LIG d   1       8.069   1.407  -5.776  0.00  0.00     0.016 C 
ATOM     16  H   LIG d   1       8.224   0.609  -6.517  0.00  0.00     0.046 H 
ATOM     17  H   LIG d   1       7.820   2.345  -6.294  0.00  0.00     0.046 H 
BRANCH  15  18
ATOM     18  C   LIG d   1       9.346   1.599  -4.956  0.00  0.00    -0.012 C 
ATOM     19  H   LIG d   1       9.265   1.040  -4.014  0.00  0.00     0.033 H 
ATOM     20  H   LIG d   1      10.209   1.227  -5.530  0.00  0.00     0.033 H 
BRANCH  18  21
ATOM     21  C   LIG d   1       9.535   3.063  -4.658  0.00  0.00    -0.042 A 
ATOM     22  C   LIG d   1       9.729   3.483  -3.355  0.00  0.00    -0.013 A 
ATOM     23  C   LIG d   1       9.904   4.830  -3.079  0.00  0.00     0.162 A 
ATOM     24  H   LIG d   1       9.745   2.760  -2.553  0.00  0.00     0.066 H 
ATOM     25  C   LIG d   1       9.884   5.757  -4.116  0.00  0.00     0.162 A 
ATOM     26  C   LIG d   1       9.689   5.330  -5.421  0.00  0.00    -0.016 A 
ATOM     27  C   LIG d   1       9.521   3.985  -5.689  0.00  0.00    -0.055 A 
ATOM     28  H   LIG d   1       9.672   6.048  -6.227  0.00  0.00     0.066 H 
ATOM     29  H   LIG d   1       9.374   3.653  -6.706  0.00  0.00     0.062 H 
BRANCH  23  30
ATOM     30  O   LIG d   1      10.094   5.244  -1.798  0.00  0.00    -0.491 OA
BRANCH  30  31
ATOM     31  C   LIG d   1      11.394   5.047  -1.239  0.00  0.00     0.079 C 
ATOM     32  H   LIG d   1      11.311   4.459  -0.313  0.00  0.00     0.066 H 
ATOM     33  H   LIG d   1      11.847   6.024  -1.013  0.00  0.00     0.066 H 
ATOM     34  H   LIG d   1      12.026   4.507  -1.960  0.00  0.00     0.066 H 
ENDBRANCH  30  31
ENDBRANCH  23  30
BRANCH  25  35
ATOM     35  O   LIG d   1      10.053   7.080  -3.851  0.00  0.00    -0.491 OA
BRANCH  35  36
ATOM     36  C   LIG d   1       9.805   7.994  -4.921  0.00  0.00     0.079 C 
ATOM     37  H   LIG d   1       9.437   8.946  -4.511  0.00  0.00     0.066 H 
ATOM     38  H   LIG d   1       9.049   7.569  -5.598  0.00  0.00     0.066 H 
ATOM     39  H   LIG d   1      10.737   8.170  -5.477  0.00  0.00     0.066 H 
ENDBRANCH  35  36
ENDBRANCH  25  35
ENDBRANCH  18  21
ENDBRANCH  15  18
ENDBRANCH  13  15
ENDBRANCH   6  11
BRANCH   1  40
ATOM     40  N   LIG d   1       3.732  -0.739  -6.061  0.00  0.00    -0.285 N 
ATOM     41  C   LIG d   1       3.183   0.365  -6.606  0.00  0.00     0.217 C 
ATOM     42  O   LIG d   1       2.789   1.262  -5.891  0.00  0.00    -0.276 OA
ATOM     43  H   LIG d   1       4.006  -1.590  -6.701  0.00  0.00     0.155 HD
BRANCH  41  44
ATOM     44  C   LIG d   1       3.067   0.487  -8.103  0.00  0.00     0.025 C 
ATOM     45  H   LIG d   1       2.178  -0.060  -8.449  0.00  0.00     0.036 H 
ATOM     46  H   LIG d   1       3.966   0.063  -8.576  0.00  0.00     0.036 H 
BRANCH  44  47
ATOM     47  C   LIG d   1       2.938   1.963  -8.486  0.00  0.00    -0.042 C 
ATOM     48  H   LIG d   1       3.164   2.589  -7.610  0.00  0.00     0.027 H 
ATOM     49  H   LIG d   1       1.912   2.165  -8.826  0.00  0.00     0.027 H 
BRANCH  47  50
ATOM     50  C   LIG d   1       3.923   2.286  -9.611  0.00  0.00    -0.046 C 
ATOM     51  H   LIG d   1       3.736   3.306  -9.980  0.00  0.00     0.030 H 
BRANCH  50  52
ATOM     52  C   LIG d   1       5.354   2.190  -9.079  0.00  0.00    -0.063 C 
ATOM     53  H   LIG d   1       5.415   1.383  -8.335  0.00  0.00     0.023 H 
ATOM     54  H   LIG d   1       5.636   3.144  -8.610  0.00  0.00     0.023 H 
ATOM     55  H   LIG d   1       6.041   1.975  -9.912  0.00  0.00     0.023 H 
ENDBRANCH  50  52
BRANCH  50  56
ATOM     56  C   LIG d   1       3.735   1.288 -10.756  0.00  0.00    -0.063 C 
ATOM     57  H   LIG d   1       2.661   1.111 -10.915  0.00  0.00     0.023 H 
ATOM     58  H   LIG d   1       4.229   0.340 -10.501  0.00  0.00     0.023 H 
ATOM     59  H   LIG d   1       4.179   1.698 -11.675  0.00  0.00     0.023 H 
ENDBRANCH  50  56
ENDBRANCH  47  50
ENDBRANCH  44  47
ENDBRANCH  41  44
ENDBRANCH   1  40
TORSDOF 14
ENDMDL
MODEL 7
REMARK VINA RESULT:      -6.1      4.234      5.928
REMARK  14 active torsions:
REMARK  status: ('A' for Active; 'I' for Inactive)
REMARK    1  A    between atoms: C_1  and  C_2 
REMARK    2  A    between atoms: C_2  and  C_3 
REMARK    3  A    between atoms: C_2  and  C_4 
REMARK    4  A    between atoms: C_4  and  C_5 
REMARK    5  A    between atoms: C_5  and  C_6 
REMARK       I    between atoms: C_6  and  N_8 
REMARK    6  A    between atoms: N_8  and  C_9 
REMARK    7  A    between atoms: C_14  and  C_15 
REMARK       I    between atoms: C_15  and  N_17 
REMARK    8  A    between atoms: N_17  and  C_18 
REMARK    9  A    between atoms: C_18  and  C_19 
REMARK   10  A    between atoms: C_19  and  C_20 
REMARK   11  A    between atoms: C_23  and  O_28 
REMARK   12  A    between atoms: C_24  and  O_26 
REMARK   13  A    between atoms: O_26  and  C_27 
REMARK   14  A    between atoms: O_28  and  C_29 
ROOT
ATOM      1  C   LIG d   1       3.535  -0.259  -7.199  0.00  0.00     0.045 A 
ATOM      2  C   LIG d   1       2.405  -0.190  -8.002  0.00  0.00    -0.040 A 
ATOM      3  C   LIG d   1       2.517   0.199  -9.321  0.00  0.00    -0.060 A 
ATOM      4  C   LIG d   1       3.756   0.512  -9.858  0.00  0.00    -0.061 A 
ATOM      5  C   LIG d   1       4.889   0.443  -9.078  0.00  0.00    -0.048 A 
ATOM      6  C   LIG d   1       4.791   0.056  -7.739  0.00  0.00     0.058 A 
ATOM      7  H   LIG d   1       1.436  -0.436  -7.593  0.00  0.00     0.064 H 
ATOM      8  H   LIG d   1       1.633   0.256  -9.941  0.00  0.00     0.062 H 
ATOM      9  H   LIG d   1       3.832   0.810 -10.893  0.00  0.00     0.062 H 
ATOM     10  H   LIG d   1       5.852   0.687  -9.501  0.00  0.00     0.063 H 
ENDROOT
BRANCH   6  11
ATOM     11  C   LIG d   1       6.000  -0.019  -6.898  0.00  0.00     0.246 C 
ATOM     12  O   LIG d   1       6.323  -1.076  -6.391  0.00  0.00    -0.270 OA
ATOM     13  N   LIG d   1       6.747   1.083  -6.691  0.00  0.00    -0.311 N 
ATOM     14  H   LIG d   1       6.455   2.039  -7.150  0.00  0.00     0.149 HD
BRANCH  13  15
ATOM     15  C   LIG d   1       7.949   1.009  -5.856  0.00  0.00     0.016 C 
ATOM     16  H   LIG d   1       7.805   1.620  -4.953  0.00  0.00     0.046 H 
ATOM     17  H   LIG d   1       8.129  -0.037  -5.566  0.00  0.00     0.046 H 
BRANCH  15  18
ATOM     18  C   LIG d   1       9.151   1.534  -6.643  0.00  0.00    -0.012 C 
ATOM     19  H   LIG d   1      10.044   0.948  -6.383  0.00  0.00     0.033 H 
ATOM     20  H   LIG d   1       8.952   1.441  -7.721  0.00  0.00     0.033 H 
BRANCH  18  21
ATOM     21  C   LIG d   1       9.382   2.982  -6.299  0.00  0.00    -0.042 A 
ATOM     22  C   LIG d   1       9.349   3.391  -4.978  0.00  0.00    -0.013 A 
ATOM     23  C   LIG d   1       9.562   4.723  -4.659  0.00  0.00     0.162 A 
ATOM     24  H   LIG d   1       9.156   2.673  -4.196  0.00  0.00     0.066 H 
ATOM     25  C   LIG d   1       9.810   5.646  -5.671  0.00  0.00     0.162 A 
ATOM     26  C   LIG d   1       9.843   5.230  -6.993  0.00  0.00    -0.016 A 
ATOM     27  C   LIG d   1       9.635   3.899  -7.302  0.00  0.00    -0.055 A 
ATOM     28  H   LIG d   1      10.035   5.944  -7.779  0.00  0.00     0.066 H 
ATOM     29  H   LIG d   1       9.665   3.574  -8.332  0.00  0.00     0.062 H 
BRANCH  23  30
ATOM     30  O   LIG d   1       9.528   5.127  -3.362  0.00  0.00    -0.491 OA
BRANCH  30  31
ATOM     31  C   LIG d   1      10.376   4.433  -2.444  0.00  0.00     0.079 C 
ATOM     32  H   LIG d   1      10.571   3.418  -2.820  0.00  0.00     0.066 H 
ATOM     33  H   LIG d   1       9.880   4.372  -1.464  0.00  0.00     0.066 H 
ATOM     34  H   LIG d   1      11.327   4.976  -2.341  0.00  0.00     0.066 H 
ENDBRANCH  30  31
ENDBRANCH  23  30
BRANCH  25  35
ATOM     35  O   LIG d   1      10.019   6.954  -5.364  0.00  0.00    -0.491 OA
BRANCH  35  36
ATOM     36  C   LIG d   1       9.349   7.925  -6.170  0.00  0.00     0.079 C 
ATOM     37  H   LIG d   1       8.660   8.509  -5.543  0.00  0.00     0.066 H 
ATOM     38  H   LIG d   1       8.781   7.415  -6.962  0.00  0.00     0.066 H 
ATOM     39  H   LIG d   1      10.090   8.598  -6.625  0.00  0.00     0.066 H 
ENDBRANCH  35  36
ENDBRANCH  25  35
ENDBRANCH  18  21
ENDBRANCH  15  18
ENDBRANCH  13  15
ENDBRANCH   6  11
BRANCH   1  40
ATOM     40  N   LIG d   1       3.424  -0.646  -5.865  0.00  0.00    -0.285 N 
ATOM     41  C   LIG d   1       2.941   0.219  -4.950  0.00  0.00     0.217 C 
ATOM     42  O   LIG d   1       2.697   1.364  -5.268  0.00  0.00    -0.276 OA
ATOM     43  H   LIG d   1       3.731  -1.657  -5.558  0.00  0.00     0.155 HD
BRANCH  41  44
ATOM     44  C   LIG d   1       2.699  -0.239  -3.536  0.00  0.00     0.025 C 
ATOM     45  H   LIG d   1       3.177  -1.218  -3.379  0.00  0.00     0.036 H 
ATOM     46  H   LIG d   1       1.616  -0.328  -3.360  0.00  0.00     0.036 H 
BRANCH  44  47
ATOM     47  C   LIG d   1       3.292   0.780  -2.561  0.00  0.00    -0.042 C 
ATOM     48  H   LIG d   1       2.559   1.001  -1.771  0.00  0.00     0.027 H 
ATOM     49  H   LIG d   1       3.538   1.705  -3.102  0.00  0.00     0.027 H 
BRANCH  47  50
ATOM     50  C   LIG d   1       4.562   0.204  -1.931  0.00  0.00    -0.046 C 
ATOM     51  H   LIG d   1       4.686   0.613  -0.917  0.00  0.00     0.030 H 
BRANCH  50  52
ATOM     52  C   LIG d   1       4.447  -1.320  -1.855  0.00  0.00    -0.063 C 
ATOM     53  H   LIG d   1       4.921  -1.768  -2.740  0.00  0.00     0.023 H 
ATOM     54  H   LIG d   1       3.385  -1.607  -1.823  0.00  0.00     0.023 H 
ATOM     55  H   LIG d   1       4.952  -1.681  -0.946  0.00  0.00     0.023 H 
ENDBRANCH  50  52
BRANCH  50  56
ATOM     56  C   LIG d   1       5.773   0.583  -2.786  0.00  0.00    -0.063 C 
ATOM     57  H   LIG d   1       5.791   1.673  -2.933  0.00  0.00     0.023 H 
ATOM     58  H   LIG d   1       5.704   0.082  -3.762  0.00  0.00     0.023 H 
ATOM     59  H   LIG d   1       6.695   0.266  -2.275  0.00  0.00     0.023 H 
ENDBRANCH  50  56
ENDBRANCH  47  50
ENDBRANCH  44  47
ENDBRANCH  41  44
ENDBRANCH   1  40
TORSDOF 14
ENDMDL
MODEL 8
REMARK VINA RESULT:      -6.1      4.832      8.022
REMARK  14 active torsions:
REMARK  status: ('A' for Active; 'I' for Inactive)
REMARK    1  A    between atoms: C_1  and  C_2 
REMARK    2  A    between atoms: C_2  and  C_3 
REMARK    3  A    between atoms: C_2  and  C_4 
REMARK    4  A    between atoms: C_4  and  C_5 
REMARK    5  A    between atoms: C_5  and  C_6 
REMARK       I    between atoms: C_6  and  N_8 
REMARK    6  A    between atoms: N_8  and  C_9 
REMARK    7  A    between atoms: C_14  and  C_15 
REMARK       I    between atoms: C_15  and  N_17 
REMARK    8  A    between atoms: N_17  and  C_18 
REMARK    9  A    between atoms: C_18  and  C_19 
REMARK   10  A    between atoms: C_19  and  C_20 
REMARK   11  A    between atoms: C_23  and  O_28 
REMARK   12  A    between atoms: C_24  and  O_26 
REMARK   13  A    between atoms: O_26  and  C_27 
REMARK   14  A    between atoms: O_28  and  C_29 
ROOT
ATOM      1  C   LIG d   1       4.264  -0.245  -4.584  0.00  0.00     0.045 A 
ATOM      2  C   LIG d   1       3.094  -0.740  -4.024  0.00  0.00    -0.040 A 
ATOM      3  C   LIG d   1       3.093  -1.207  -2.726  0.00  0.00    -0.060 A 
ATOM      4  C   LIG d   1       4.252  -1.175  -1.967  0.00  0.00    -0.061 A 
ATOM      5  C   LIG d   1       5.420  -0.681  -2.504  0.00  0.00    -0.048 A 
ATOM      6  C   LIG d   1       5.439  -0.210  -3.819  0.00  0.00     0.058 A 
ATOM      7  H   LIG d   1       2.185  -0.764  -4.608  0.00  0.00     0.064 H 
ATOM      8  H   LIG d   1       2.181  -1.596  -2.297  0.00  0.00     0.062 H 
ATOM      9  H   LIG d   1       4.238  -1.539  -0.951  0.00  0.00     0.062 H 
ATOM     10  H   LIG d   1       6.322  -0.658  -1.908  0.00  0.00     0.063 H 
ENDROOT
BRANCH   6  11
ATOM     11  C   LIG d   1       6.688   0.320  -4.399  0.00  0.00     0.246 C 
ATOM     12  O   LIG d   1       7.318  -0.347  -5.196  0.00  0.00    -0.270 OA
ATOM     13  N   LIG d   1       7.130   1.543  -4.046  0.00  0.00    -0.311 N 
ATOM     14  H   LIG d   1       6.559   2.147  -3.325  0.00  0.00     0.149 HD
BRANCH  13  15
ATOM     15  C   LIG d   1       8.370   2.070  -4.622  0.00  0.00     0.016 C 
ATOM     16  H   LIG d   1       8.889   1.268  -5.168  0.00  0.00     0.046 H 
ATOM     17  H   LIG d   1       8.131   2.890  -5.316  0.00  0.00     0.046 H 
BRANCH  15  18
ATOM     18  C   LIG d   1       9.271   2.593  -3.503  0.00  0.00    -0.012 C 
ATOM     19  H   LIG d   1       8.774   2.448  -2.533  0.00  0.00     0.033 H 
ATOM     20  H   LIG d   1      10.224   2.043  -3.513  0.00  0.00     0.033 H 
BRANCH  18  21
ATOM     21  C   LIG d   1       9.536   4.061  -3.717  0.00  0.00    -0.042 A 
ATOM     22  C   LIG d   1      10.060   4.824  -2.690  0.00  0.00    -0.013 A 
ATOM     23  C   LIG d   1      10.304   6.174  -2.885  0.00  0.00     0.162 A 
ATOM     24  H   LIG d   1      10.278   4.368  -1.736  0.00  0.00     0.066 H 
ATOM     25  C   LIG d   1      10.023   6.758  -4.117  0.00  0.00     0.162 A 
ATOM     26  C   LIG d   1       9.498   5.987  -5.143  0.00  0.00    -0.016 A 
ATOM     27  C   LIG d   1       9.262   4.640  -4.942  0.00  0.00    -0.055 A 
ATOM     28  H   LIG d   1       9.278   6.437  -6.099  0.00  0.00     0.066 H 
ATOM     29  H   LIG d   1       8.857   4.039  -5.743  0.00  0.00     0.062 H 
BRANCH  23  30
ATOM     30  O   LIG d   1      10.818   6.927  -1.877  0.00  0.00    -0.491 OA
BRANCH  30  31
ATOM     31  C   LIG d   1       9.908   7.365  -0.865  0.00  0.00     0.079 C 
ATOM     32  H   LIG d   1       9.772   6.566  -0.122  0.00  0.00     0.066 H 
ATOM     33  H   LIG d   1       8.938   7.605  -1.326  0.00  0.00     0.066 H 
ATOM     34  H   LIG d   1      10.312   8.261  -0.372  0.00  0.00     0.066 H 
ENDBRANCH  30  31
ENDBRANCH  23  30
BRANCH  25  35
ATOM     35  O   LIG d   1      10.260   8.083  -4.314  0.00  0.00    -0.491 OA
BRANCH  35  36
ATOM     36  C   LIG d   1       9.622   8.696  -5.436  0.00  0.00     0.079 C 
ATOM     37  H   LIG d   1      10.236   9.537  -5.791  0.00  0.00     0.066 H 
ATOM     38  H   LIG d   1       8.631   9.067  -5.136  0.00  0.00     0.066 H 
ATOM     39  H   LIG d   1       9.509   7.958  -6.242  0.00  0.00     0.066 H 
ENDBRANCH  35  36
ENDBRANCH  25  35
ENDBRANCH  18  21
ENDBRANCH  15  18
ENDBRANCH  13  15
ENDBRANCH   6  11
BRANCH   1  40
ATOM     40  N   LIG d   1       4.270   0.223  -5.897  0.00  0.00    -0.285 N 
ATOM     41  C   LIG d   1       4.270  -0.651  -6.923  0.00  0.00     0.217 C 
ATOM     42  O   LIG d   1       4.366  -1.841  -6.706  0.00  0.00    -0.276 OA
ATOM     43  H   LIG d   1       4.275   1.305  -6.095  0.00  0.00     0.155 HD
BRANCH  41  44
ATOM     44  C   LIG d   1       4.145  -0.150  -8.338  0.00  0.00     0.025 C 
ATOM     45  H   LIG d   1       3.979  -1.001  -9.016  0.00  0.00     0.036 H 
ATOM     46  H   LIG d   1       5.071   0.371  -8.625  0.00  0.00     0.036 H 
BRANCH  44  47
ATOM     47  C   LIG d   1       2.963   0.817  -8.435  0.00  0.00    -0.042 C 
ATOM     48  H   LIG d   1       2.887   1.395  -7.502  0.00  0.00     0.027 H 
ATOM     49  H   LIG d   1       2.035   0.247  -8.590  0.00  0.00     0.027 H 
BRANCH  47  50
ATOM     50  C   LIG d   1       3.180   1.771  -9.610  0.00  0.00    -0.046 C 
ATOM     51  H   LIG d   1       2.219   2.224  -9.896  0.00  0.00     0.030 H 
BRANCH  50  52
ATOM     52  C   LIG d   1       4.161   2.872  -9.199  0.00  0.00    -0.063 C 
ATOM     53  H   LIG d   1       3.660   3.848  -9.255  0.00  0.00     0.023 H 
ATOM     54  H   LIG d   1       5.027   2.863  -9.878  0.00  0.00     0.023 H 
ATOM     55  H   LIG d   1       4.502   2.692  -8.168  0.00  0.00     0.023 H 
ENDBRANCH  50  52
BRANCH  50  56
ATOM     56  C   LIG d   1       3.751   0.996 -10.799  0.00  0.00    -0.063 C 
ATOM     57  H   LIG d   1       4.511   1.608 -11.305  0.00  0.00     0.023 H 
ATOM     58  H   LIG d   1       2.942   0.758 -11.505  0.00  0.00     0.023 H 
ATOM     59  H   LIG d   1       4.210   0.062 -10.440  0.00  0.00     0.023 H 
ENDBRANCH  50  56
ENDBRANCH  47  50
ENDBRANCH  44  47
ENDBRANCH  41  44
ENDBRANCH   1  40
TORSDOF 14
ENDMDL
MODEL 9
REMARK VINA RESULT:      -6.0      3.456      6.524
REMARK  14 active torsions:
REMARK  status: ('A' for Active; 'I' for Inactive)
REMARK    1  A    between atoms: C_1  and  C_2 
REMARK    2  A    between atoms: C_2  and  C_3 
REMARK    3  A    between atoms: C_2  and  C_4 
REMARK    4  A    between atoms: C_4  and  C_5 
REMARK    5  A    between atoms: C_5  and  C_6 
REMARK       I    between atoms: C_6  and  N_8 
REMARK    6  A    between atoms: N_8  and  C_9 
REMARK    7  A    between atoms: C_14  and  C_15 
REMARK       I    between atoms: C_15  and  N_17 
REMARK    8  A    between atoms: N_17  and  C_18 
REMARK    9  A    between atoms: C_18  and  C_19 
REMARK   10  A    between atoms: C_19  and  C_20 
REMARK   11  A    between atoms: C_23  and  O_28 
REMARK   12  A    between atoms: C_24  and  O_26 
REMARK   13  A    between atoms: O_26  and  C_27 
REMARK   14  A    between atoms: O_28  and  C_29 
ROOT
ATOM      1  C   LIG d   1       3.783  -0.648  -4.816  0.00  0.00     0.045 A 
ATOM      2  C   LIG d   1       2.760  -0.660  -3.877  0.00  0.00    -0.040 A 
ATOM      3  C   LIG d   1       3.057  -0.636  -2.530  0.00  0.00    -0.060 A 
ATOM      4  C   LIG d   1       4.375  -0.588  -2.103  0.00  0.00    -0.061 A 
ATOM      5  C   LIG d   1       5.402  -0.569  -3.020  0.00  0.00    -0.048 A 
ATOM      6  C   LIG d   1       5.117  -0.598  -4.387  0.00  0.00     0.058 A 
ATOM      7  H   LIG d   1       1.730  -0.693  -4.202  0.00  0.00     0.064 H 
ATOM      8  H   LIG d   1       2.258  -0.651  -1.804  0.00  0.00     0.062 H 
ATOM      9  H   LIG d   1       4.596  -0.565  -1.047  0.00  0.00     0.062 H 
ATOM     10  H   LIG d   1       6.428  -0.531  -2.683  0.00  0.00     0.063 H 
ENDROOT
BRANCH   6  11
ATOM     11  C   LIG d   1       6.213  -0.578  -5.375  0.00  0.00     0.246 C 
ATOM     12  O   LIG d   1       6.518  -1.596  -5.965  0.00  0.00    -0.270 OA
ATOM     13  N   LIG d   1       6.878   0.568  -5.622  0.00  0.00    -0.311 N 
ATOM     14  H   LIG d   1       6.602   1.489  -5.087  0.00  0.00     0.149 HD
BRANCH  13  15
ATOM     15  C   LIG d   1       7.966   0.588  -6.602  0.00  0.00     0.016 C 
ATOM     16  H   LIG d   1       8.788  -0.052  -6.249  0.00  0.00     0.046 H 
ATOM     17  H   LIG d   1       7.596   0.211  -7.567  0.00  0.00     0.046 H 
BRANCH  15  18
ATOM     18  C   LIG d   1       8.472   2.022  -6.774  0.00  0.00    -0.012 C 
ATOM     19  H   LIG d   1       9.159   2.068  -7.631  0.00  0.00     0.033 H 
ATOM     20  H   LIG d   1       7.618   2.692  -6.951  0.00  0.00     0.033 H 
BRANCH  18  21
ATOM     21  C   LIG d   1       9.197   2.451  -5.525  0.00  0.00    -0.042 A 
ATOM     22  C   LIG d   1      10.270   1.712  -5.062  0.00  0.00    -0.013 A 
ATOM     23  C   LIG d   1      10.938   2.105  -3.913  0.00  0.00     0.162 A 
ATOM     24  H   LIG d   1      10.587   0.829  -5.595  0.00  0.00     0.066 H 
ATOM     25  C   LIG d   1      10.527   3.245  -3.229  0.00  0.00     0.162 A 
ATOM     26  C   LIG d   1       9.451   3.982  -3.699  0.00  0.00    -0.016 A 
ATOM     27  C   LIG d   1       8.793   3.587  -4.848  0.00  0.00    -0.055 A 
ATOM     28  H   LIG d   1       9.129   4.866  -3.169  0.00  0.00     0.066 H 
ATOM     29  H   LIG d   1       7.957   4.164  -5.216  0.00  0.00     0.062 H 
BRANCH  23  30
ATOM     30  O   LIG d   1      11.992   1.380  -3.456  0.00  0.00    -0.491 OA
BRANCH  30  31
ATOM     31  C   LIG d   1      12.406   0.264  -4.249  0.00  0.00     0.079 C 
ATOM     32  H   LIG d   1      12.924   0.626  -5.148  0.00  0.00     0.066 H 
ATOM     33  H   LIG d   1      11.522  -0.320  -4.545  0.00  0.00     0.066 H 
ATOM     34  H   LIG d   1      13.086  -0.370  -3.662  0.00  0.00     0.066 H 
ENDBRANCH  30  31
ENDBRANCH  23  30
BRANCH  25  35
ATOM     35  O   LIG d   1      11.179   3.636  -2.101  0.00  0.00    -0.491 OA
BRANCH  35  36
ATOM     36  C   LIG d   1      10.951   4.972  -1.649  0.00  0.00     0.079 C 
ATOM     37  H   LIG d   1      10.077   4.988  -0.981  0.00  0.00     0.066 H 
ATOM     38  H   LIG d   1      10.763   5.625  -2.514  0.00  0.00     0.066 H 
ATOM     39  H   LIG d   1      11.836   5.331  -1.104  0.00  0.00     0.066 H 
ENDBRANCH  35  36
ENDBRANCH  25  35
ENDBRANCH  18  21
ENDBRANCH  15  18
ENDBRANCH  13  15
ENDBRANCH   6  11
BRANCH   1  40
ATOM     40  N   LIG d   1       3.485  -0.677  -6.177  0.00  0.00    -0.285 N 
ATOM     41  C   LIG d   1       3.026   0.432  -6.790  0.00  0.00     0.217 C 
ATOM     42  O   LIG d   1       2.777   1.425  -6.139  0.00  0.00    -0.276 OA
ATOM     43  H   LIG d   1       3.624  -1.605  -6.750  0.00  0.00     0.155 HD
BRANCH  41  44
ATOM     44  C   LIG d   1       2.827   0.439  -8.283  0.00  0.00     0.025 C 
ATOM     45  H   LIG d   1       1.903  -0.102  -8.534  0.00  0.00     0.036 H 
ATOM     46  H   LIG d   1       3.683  -0.052  -8.769  0.00  0.00     0.036 H 
BRANCH  44  47
ATOM     47  C   LIG d   1       2.721   1.884  -8.777  0.00  0.00    -0.042 C 
ATOM     48  H   LIG d   1       2.852   2.571  -7.927  0.00  0.00     0.027 H 
ATOM     49  H   LIG d   1       1.731   2.045  -9.229  0.00  0.00     0.027 H 
BRANCH  47  50
ATOM     50  C   LIG d   1       3.808   2.148  -9.819  0.00  0.00    -0.046 C 
ATOM     51  H   LIG d   1       3.621   3.116 -10.307  0.00  0.00     0.030 H 
BRANCH  50  52
ATOM     52  C   LIG d   1       5.176   2.179  -9.132  0.00  0.00    -0.063 C 
ATOM     53  H   LIG d   1       5.038   2.279  -8.046  0.00  0.00     0.023 H 
ATOM     54  H   LIG d   1       5.756   3.035  -9.509  0.00  0.00     0.023 H 
ATOM     55  H   LIG d   1       5.717   1.246  -9.350  0.00  0.00     0.023 H 
ENDBRANCH  50  52
BRANCH  50  56
ATOM     56  C   LIG d   1       3.790   1.036 -10.869  0.00  0.00    -0.063 C 
ATOM     57  H   LIG d   1       4.822   0.753 -11.121  0.00  0.00     0.023 H 
ATOM     58  H   LIG d   1       3.277   1.394 -11.773  0.00  0.00     0.023 H 
ATOM     59  H   LIG d   1       3.256   0.161 -10.467  0.00  0.00     0.023 H 
ENDBRANCH  50  56
ENDBRANCH  47  50
ENDBRANCH  44  47
ENDBRANCH  41  44
ENDBRANCH   1  40
TORSDOF 14
ENDMDL
MODEL 10
REMARK VINA RESULT:      -6.0      2.901      4.532
REMARK  14 active torsions:
REMARK  status: ('A' for Active; 'I' for Inactive)
REMARK    1  A    between atoms: C_1  and  C_2 
REMARK    2  A    between atoms: C_2  and  C_3 
REMARK    3  A    between atoms: C_2  and  C_4 
REMARK    4  A    between atoms: C_4  and  C_5 
REMARK    5  A    between atoms: C_5  and  C_6 
REMARK       I    between atoms: C_6  and  N_8 
REMARK    6  A    between atoms: N_8  and  C_9 
REMARK    7  A    between atoms: C_14  and  C_15 
REMARK       I    between atoms: C_15  and  N_17 
REMARK    8  A    between atoms: N_17  and  C_18 
REMARK    9  A    between atoms: C_18  and  C_19 
REMARK   10  A    between atoms: C_19  and  C_20 
REMARK   11  A    between atoms: C_23  and  O_28 
REMARK   12  A    between atoms: C_24  and  O_26 
REMARK   13  A    between atoms: O_26  and  C_27 
REMARK   14  A    between atoms: O_28  and  C_29 
ROOT
ATOM      1  C   LIG d   1       2.796   0.185  -8.804  0.00  0.00     0.045 A 
ATOM      2  C   LIG d   1       1.810  -0.696  -9.227  0.00  0.00    -0.040 A 
ATOM      3  C   LIG d   1       1.712  -1.035 -10.561  0.00  0.00    -0.060 A 
ATOM      4  C   LIG d   1       2.601  -0.511 -11.485  0.00  0.00    -0.061 A 
ATOM      5  C   LIG d   1       3.589   0.360 -11.083  0.00  0.00    -0.048 A 
ATOM      6  C   LIG d   1       3.698   0.717  -9.736  0.00  0.00     0.058 A 
ATOM      7  H   LIG d   1       1.116  -1.113  -8.512  0.00  0.00     0.064 H 
ATOM      8  H   LIG d   1       0.940  -1.717 -10.886  0.00  0.00     0.062 H 
ATOM      9  H   LIG d   1       2.518  -0.786 -12.526  0.00  0.00     0.062 H 
ATOM     10  H   LIG d   1       4.281   0.766 -11.807  0.00  0.00     0.063 H 
ENDROOT
BRANCH   6  11
ATOM     11  C   LIG d   1       4.754   1.649  -9.299  0.00  0.00     0.246 C 
ATOM     12  O   LIG d   1       4.459   2.762  -8.909  0.00  0.00    -0.270 OA
ATOM     13  N   LIG d   1       6.047   1.268  -9.332  0.00  0.00    -0.311 N 
ATOM     14  H   LIG d   1       6.313   0.261  -9.685  0.00  0.00     0.149 HD
BRANCH  13  15
ATOM     15  C   LIG d   1       7.096   2.193  -8.897  0.00  0.00     0.016 C 
ATOM     16  H   LIG d   1       7.466   2.759  -9.765  0.00  0.00     0.046 H 
ATOM     17  H   LIG d   1       6.683   2.891  -8.154  0.00  0.00     0.046 H 
BRANCH  15  18
ATOM     18  C   LIG d   1       8.247   1.403  -8.272  0.00  0.00    -0.012 C 
ATOM     19  H   LIG d   1       7.991   0.334  -8.253  0.00  0.00     0.033 H 
ATOM     20  H   LIG d   1       9.159   1.550  -8.871  0.00  0.00     0.033 H 
BRANCH  18  21
ATOM     21  C   LIG d   1       8.484   1.889  -6.867  0.00  0.00    -0.042 A 
ATOM     22  C   LIG d   1       7.899   1.231  -5.801  0.00  0.00    -0.013 A 
ATOM     23  C   LIG d   1       8.116   1.676  -4.507  0.00  0.00     0.162 A 
ATOM     24  H   LIG d   1       7.272   0.369  -5.978  0.00  0.00     0.066 H 
ATOM     25  C   LIG d   1       8.925   2.786  -4.283  0.00  0.00     0.162 A 
ATOM     26  C   LIG d   1       9.509   3.442  -5.356  0.00  0.00    -0.016 A 
ATOM     27  C   LIG d   1       9.293   2.988  -6.643  0.00  0.00    -0.055 A 
ATOM     28  H   LIG d   1      10.137   4.303  -5.185  0.00  0.00     0.066 H 
ATOM     29  H   LIG d   1       9.752   3.497  -7.478  0.00  0.00     0.062 H 
BRANCH  23  30
ATOM     30  O   LIG d   1       7.540   1.031  -3.458  0.00  0.00    -0.491 OA
BRANCH  30  31
ATOM     31  C   LIG d   1       7.070  -0.299  -3.694  0.00  0.00     0.079 C 
ATOM     32  H   LIG d   1       7.750  -1.018  -3.217  0.00  0.00     0.066 H 
ATOM     33  H   LIG d   1       7.036  -0.488  -4.777  0.00  0.00     0.066 H 
ATOM     34  H   LIG d   1       6.061  -0.411  -3.270  0.00  0.00     0.066 H 
ENDBRANCH  30  31
ENDBRANCH  23  30
BRANCH  25  35
ATOM     35  O   LIG d   1       9.141   3.228  -3.015  0.00  0.00    -0.491 OA
BRANCH  35  36
ATOM     36  C   LIG d   1      10.141   4.233  -2.840  0.00  0.00     0.079 C 
ATOM     37  H   LIG d   1      11.029   3.788  -2.369  0.00  0.00     0.066 H 
ATOM     38  H   LIG d   1       9.748   5.034  -2.197  0.00  0.00     0.066 H 
ATOM     39  H   LIG d   1      10.417   4.651  -3.819  0.00  0.00     0.066 H 
ENDBRANCH  35  36
ENDBRANCH  25  35
ENDBRANCH  18  21
ENDBRANCH  15  18
ENDBRANCH  13  15
ENDBRANCH   6  11
BRANCH   1  40
ATOM     40  N   LIG d   1       2.894   0.533  -7.458  0.00  0.00    -0.285 N 
ATOM     41  C   LIG d   1       3.547  -0.275  -6.599  0.00  0.00     0.217 C 
ATOM     42  O   LIG d   1       3.962  -1.351  -6.975  0.00  0.00    -0.276 OA
ATOM     43  H   LIG d   1       2.438   1.466  -7.097  0.00  0.00     0.155 HD
BRANCH  41  44
ATOM     44  C   LIG d   1       3.766   0.161  -5.174  0.00  0.00     0.025 C 
ATOM     45  H   LIG d   1       4.050   1.223  -5.154  0.00  0.00     0.036 H 
ATOM     46  H   LIG d   1       4.570  -0.442  -4.726  0.00  0.00     0.036 H 
BRANCH  44  47
ATOM     47  C   LIG d   1       2.475  -0.036  -4.376  0.00  0.00    -0.042 C 
ATOM     48  H   LIG d   1       1.916  -0.889  -4.789  0.00  0.00     0.027 H 
ATOM     49  H   LIG d   1       1.859   0.873  -4.445  0.00  0.00     0.027 H 
BRANCH  47  50
ATOM     50  C   LIG d   1       2.818  -0.312  -2.911  0.00  0.00    -0.046 C 
ATOM     51  H   LIG d   1       1.892  -0.340  -2.317  0.00  0.00     0.030 H 
BRANCH  50  52
ATOM     52  C   LIG d   1       3.536  -1.659  -2.801  0.00  0.00    -0.063 C 
ATOM     53  H   LIG d   1       3.252  -2.297  -3.649  0.00  0.00     0.023 H 
ATOM     54  H   LIG d   1       3.249  -2.151  -1.859  0.00  0.00     0.023 H 
ATOM     55  H   LIG d   1       4.624  -1.496  -2.812  0.00  0.00     0.023 H 
ENDBRANCH  50  52
BRANCH  50  56
ATOM     56  C   LIG d   1       3.729   0.797  -2.382  0.00  0.00    -0.063 C 
ATOM     57  H   LIG d   1       4.207   0.466  -1.449  0.00  0.00     0.023 H 
ATOM     58  H   LIG d   1       3.133   1.700  -2.188  0.00  0.00     0.023 H 
ATOM     59  H   LIG d   1       4.503   1.023  -3.131  0.00  0.00     0.023 H 
ENDBRANCH  50  56
ENDBRANCH  47  50
ENDBRANCH  44  47
ENDBRANCH  41  44
ENDBRANCH   1  40
TORSDOF 14
ENDMDL
