MODEL 1
REMARK VINA RESULT:      -6.0      0.000      0.000
REMARK  5 active torsions:
REMARK  status: ('A' for Active; 'I' for Inactive)
REMARK    1  A    between atoms: C_1  and  C_2 
REMARK    2  A    between atoms: C_2  and  N_3 
REMARK    3  A    between atoms: N_6  and  C_9 
REMARK    4  A    between atoms: C_9  and  C_10 
REMARK    5  A    between atoms: C_18  and  O_21 
ROOT
ATOM      1  N   LIG d   1       4.766   0.509  -9.995  0.00  0.00     0.237 N 
ATOM      2  C   LIG d   1       3.872  -0.029  -8.960  0.00  0.00    -0.019 C 
ATOM      3  C   LIG d   1       4.617  -0.089  -7.625  0.00  0.00     0.040 C 
ATOM      4  N   LIG d   1       5.813  -0.931  -7.773  0.00  0.00    -0.288 N 
ATOM      5  C   LIG d   1       6.708  -0.393  -8.807  0.00  0.00     0.040 C 
ATOM      6  C   LIG d   1       5.962  -0.332 -10.143  0.00  0.00    -0.019 C 
ATOM      7  H   LIG d   1       2.992   0.624  -8.860  0.00  0.00     0.083 H 
ATOM      8  H   LIG d   1       3.547  -1.040  -9.247  0.00  0.00     0.083 H 
ATOM      9  H   LIG d   1       4.917   0.926  -7.326  0.00  0.00     0.048 H 
ATOM     10  H   LIG d   1       3.959  -0.519  -6.857  0.00  0.00     0.048 H 
ATOM     11  H   LIG d   1       7.032   0.618  -8.521  0.00  0.00     0.048 H 
ATOM     12  H   LIG d   1       7.588  -1.046  -8.907  0.00  0.00     0.048 H 
ATOM     13  H   LIG d   1       5.661  -1.347 -10.442  0.00  0.00     0.083 H 
ATOM     14  H   LIG d   1       6.620   0.098 -10.912  0.00  0.00     0.083 H 
ATOM     15  H   LIG d   1       5.092   1.510  -9.674  0.00  0.00     0.203 HD
ENDROOT
BRANCH   4  16
ATOM     16  C   LIG d   1       6.516  -1.076  -6.492  0.00  0.00     0.025 C 
ATOM     17  H   LIG d   1       7.505  -1.526  -6.664  0.00  0.00     0.048 H 
ATOM     18  H   LIG d   1       6.640  -0.086  -6.027  0.00  0.00     0.048 H 
BRANCH  16  19
ATOM     19  C   LIG d   1       5.714  -1.964  -5.576  0.00  0.00    -0.016 A 
ATOM     20  C   LIG d   1       5.255  -1.480  -4.270  0.00  0.00     0.025 A 
ATOM     21  C   LIG d   1       4.508  -2.342  -3.447  0.00  0.00     0.140 A 
ATOM     22  C   LIG d   1       5.549  -0.183  -3.839  0.00  0.00    -0.009 A 
ATOM     23  O   LIG d   1       4.227  -3.594  -3.867  0.00  0.00    -0.422 OA
ATOM     24  C   LIG d   1       4.068  -1.895  -2.208  0.00  0.00    -0.015 A 
ATOM     25  C   LIG d   1       4.643  -4.044  -5.060  0.00  0.00     0.338 A 
ATOM     26  C   LIG d   1       5.396  -3.232  -5.937  0.00  0.00     0.028 A 
ATOM     27  O   LIG d   1       4.365  -5.181  -5.397  0.00  0.00    -0.245 OA
ATOM     28  H   LIG d   1       5.719  -3.621  -6.892  0.00  0.00     0.069 H 
ATOM     29  C   LIG d   1       4.363  -0.613  -1.793  0.00  0.00    -0.017 A 
ATOM     30  H   LIG d   1       3.491  -2.549  -1.572  0.00  0.00     0.066 H 
ATOM     31  C   LIG d   1       5.102   0.243  -2.604  0.00  0.00     0.118 A 
ATOM     32  H   LIG d   1       4.017  -0.272  -0.828  0.00  0.00     0.066 H 
ATOM     33  H   LIG d   1       6.121   0.483  -4.469  0.00  0.00     0.066 H 
BRANCH  31  34
ATOM     34  O   LIG d   1       5.385   1.503  -2.178  0.00  0.00    -0.507 OA
ATOM     35  H   LIG d   1       6.287   2.017  -2.545  0.00  0.00     0.292 HD
ENDBRANCH  31  34
ENDBRANCH  16  19
ENDBRANCH   4  16
BRANCH   1  36
ATOM     36  C   LIG d   1       4.062   0.654 -11.276  0.00  0.00    -0.035 C 
ATOM     37  H   LIG d   1       4.765   0.480 -12.103  0.00  0.00     0.081 H 
ATOM     38  H   LIG d   1       3.649   1.672 -11.353  0.00  0.00     0.081 H 
BRANCH  36  39
ATOM     39  C   LIG d   1       2.923  -0.364 -11.350  0.00  0.00    -0.025 C 
ATOM     40  H   LIG d   1       2.661  -0.696 -10.334  0.00  0.00     0.028 H 
ATOM     41  H   LIG d   1       3.243  -1.230 -11.947  0.00  0.00     0.028 H 
ATOM     42  H   LIG d   1       2.045   0.102 -11.821  0.00  0.00     0.028 H 
ENDBRANCH  36  39
ENDBRANCH   1  36
TORSDOF 5
ENDMDL
MODEL 2
REMARK VINA RESULT:      -5.8      3.487      7.334
REMARK  5 active torsions:
REMARK  status: ('A' for Active; 'I' for Inactive)
REMARK    1  A    between atoms: C_1  and  C_2 
REMARK    2  A    between atoms: C_2  and  N_3 
REMARK    3  A    between atoms: N_6  and  C_9 
REMARK    4  A    between atoms: C_9  and  C_10 
REMARK    5  A    between atoms: C_18  and  O_21 
ROOT
ATOM      1  N   LIG d   1       3.617  -1.716  -4.210  0.00  0.00     0.237 N 
ATOM      2  C   LIG d   1       3.193  -0.342  -3.904  0.00  0.00    -0.019 C 
ATOM      3  C   LIG d   1       2.471   0.249  -5.117  0.00  0.00     0.040 C 
ATOM      4  N   LIG d   1       3.371   0.224  -6.279  0.00  0.00    -0.288 N 
ATOM      5  C   LIG d   1       3.795  -1.150  -6.585  0.00  0.00     0.040 C 
ATOM      6  C   LIG d   1       4.516  -1.741  -5.371  0.00  0.00    -0.019 C 
ATOM      7  H   LIG d   1       2.512  -0.352  -3.041  0.00  0.00     0.083 H 
ATOM      8  H   LIG d   1       4.076   0.270  -3.668  0.00  0.00     0.083 H 
ATOM      9  H   LIG d   1       1.573  -0.347  -5.336  0.00  0.00     0.048 H 
ATOM     10  H   LIG d   1       2.179   1.286  -4.901  0.00  0.00     0.048 H 
ATOM     11  H   LIG d   1       2.912  -1.761  -6.821  0.00  0.00     0.048 H 
ATOM     12  H   LIG d   1       4.475  -1.139  -7.449  0.00  0.00     0.048 H 
ATOM     13  H   LIG d   1       5.415  -1.144  -5.151  0.00  0.00     0.083 H 
ATOM     14  H   LIG d   1       4.809  -2.779  -5.587  0.00  0.00     0.083 H 
ATOM     15  H   LIG d   1       2.719  -2.299  -4.463  0.00  0.00     0.203 HD
ENDROOT
BRANCH   4  16
ATOM     16  C   LIG d   1       2.741   0.853  -7.447  0.00  0.00     0.025 C 
ATOM     17  H   LIG d   1       1.833   0.294  -7.720  0.00  0.00     0.048 H 
ATOM     18  H   LIG d   1       2.472   1.892  -7.204  0.00  0.00     0.048 H 
BRANCH  16  19
ATOM     19  C   LIG d   1       3.704   0.841  -8.606  0.00  0.00    -0.016 A 
ATOM     20  C   LIG d   1       3.343   0.208  -9.878  0.00  0.00     0.025 A 
ATOM     21  C   LIG d   1       4.272   0.221 -10.934  0.00  0.00     0.140 A 
ATOM     22  C   LIG d   1       2.098  -0.402 -10.051  0.00  0.00    -0.009 A 
ATOM     23  O   LIG d   1       5.475   0.810 -10.763  0.00  0.00    -0.422 OA
ATOM     24  C   LIG d   1       3.942  -0.376 -12.144  0.00  0.00    -0.015 A 
ATOM     25  C   LIG d   1       5.812   1.392  -9.602  0.00  0.00     0.338 A 
ATOM     26  C   LIG d   1       4.928   1.416  -8.501  0.00  0.00     0.028 A 
ATOM     27  O   LIG d   1       6.908   1.912  -9.494  0.00  0.00    -0.245 OA
ATOM     28  H   LIG d   1       5.227   1.892  -7.577  0.00  0.00     0.069 H 
ATOM     29  C   LIG d   1       2.710  -0.975 -12.304  0.00  0.00    -0.017 A 
ATOM     30  H   LIG d   1       4.648  -0.367 -12.960  0.00  0.00     0.066 H 
ATOM     31  C   LIG d   1       1.788  -0.990 -11.261  0.00  0.00     0.118 A 
ATOM     32  H   LIG d   1       2.459  -1.437 -13.247  0.00  0.00     0.066 H 
ATOM     33  H   LIG d   1       1.381  -0.413  -9.242  0.00  0.00     0.066 H 
BRANCH  31  34
ATOM     34  O   LIG d   1       0.578  -1.586 -11.436  0.00  0.00    -0.507 OA
ATOM     35  H   LIG d   1      -0.058  -1.804 -10.564  0.00  0.00     0.292 HD
ENDBRANCH  31  34
ENDBRANCH  16  19
ENDBRANCH   4  16
BRANCH   1  36
ATOM     36  C   LIG d   1       4.247  -2.344  -3.042  0.00  0.00    -0.035 C 
ATOM     37  H   LIG d   1       5.250  -2.703  -3.314  0.00  0.00     0.081 H 
ATOM     38  H   LIG d   1       3.632  -3.193  -2.706  0.00  0.00     0.081 H 
BRANCH  36  39
ATOM     39  C   LIG d   1       4.360  -1.319  -1.911  0.00  0.00    -0.025 C 
ATOM     40  H   LIG d   1       5.284  -1.502  -1.342  0.00  0.00     0.028 H 
ATOM     41  H   LIG d   1       3.493  -1.414  -1.242  0.00  0.00     0.028 H 
ATOM     42  H   LIG d   1       4.387  -0.305  -2.337  0.00  0.00     0.028 H 
ENDBRANCH  36  39
ENDBRANCH   1  36
TORSDOF 5
ENDMDL
MODEL 3
REMARK VINA RESULT:      -5.7      3.990      6.593
REMARK  5 active torsions:
REMARK  status: ('A' for Active; 'I' for Inactive)
REMARK    1  A    between atoms: C_1  and  C_2 
REMARK    2  A    between atoms: C_2  and  N_3 
REMARK    3  A    between atoms: N_6  and  C_9 
REMARK    4  A    between atoms: C_9  and  C_10 
REMARK    5  A    between atoms: C_18  and  O_21 
ROOT
ATOM      1  N   LIG d   1      10.377  -4.782  -3.956  0.00  0.00     0.237 N 
ATOM      2  C   LIG d   1       8.979  -4.840  -3.508  0.00  0.00    -0.019 C 
ATOM      3  C   LIG d   1       8.105  -4.026  -4.465  0.00  0.00     0.040 C 
ATOM      4  N   LIG d   1       8.586  -2.638  -4.503  0.00  0.00    -0.288 N 
ATOM      5  C   LIG d   1       9.984  -2.580  -4.951  0.00  0.00     0.040 C 
ATOM      6  C   LIG d   1      10.858  -3.394  -3.994  0.00  0.00    -0.019 C 
ATOM      7  H   LIG d   1       8.639  -5.886  -3.500  0.00  0.00     0.083 H 
ATOM      8  H   LIG d   1       8.901  -4.422  -2.493  0.00  0.00     0.083 H 
ATOM      9  H   LIG d   1       8.161  -4.462  -5.474  0.00  0.00     0.048 H 
ATOM     10  H   LIG d   1       7.063  -4.045  -4.116  0.00  0.00     0.048 H 
ATOM     11  H   LIG d   1      10.061  -2.998  -5.965  0.00  0.00     0.048 H 
ATOM     12  H   LIG d   1      10.323  -1.533  -4.959  0.00  0.00     0.048 H 
ATOM     13  H   LIG d   1      10.801  -2.959  -2.984  0.00  0.00     0.083 H 
ATOM     14  H   LIG d   1      11.901  -3.376  -4.343  0.00  0.00     0.083 H 
ATOM     15  H   LIG d   1      10.423  -5.185  -4.979  0.00  0.00     0.203 HD
ENDROOT
BRANCH   4  16
ATOM     16  C   LIG d   1       7.725  -1.806  -5.354  0.00  0.00     0.025 C 
ATOM     17  H   LIG d   1       8.254  -1.567  -6.289  0.00  0.00     0.048 H 
ATOM     18  H   LIG d   1       6.799  -2.353  -5.586  0.00  0.00     0.048 H 
BRANCH  16  19
ATOM     19  C   LIG d   1       7.386  -0.528  -4.630  0.00  0.00    -0.016 A 
ATOM     20  C   LIG d   1       6.252  -0.466  -3.703  0.00  0.00     0.025 A 
ATOM     21  C   LIG d   1       5.971   0.746  -3.048  0.00  0.00     0.140 A 
ATOM     22  C   LIG d   1       5.454  -1.589  -3.466  0.00  0.00    -0.009 A 
ATOM     23  O   LIG d   1       6.744   1.829  -3.281  0.00  0.00    -0.422 OA
ATOM     24  C   LIG d   1       4.900   0.817  -2.168  0.00  0.00    -0.015 A 
ATOM     25  C   LIG d   1       7.784   1.780  -4.127  0.00  0.00     0.338 A 
ATOM     26  C   LIG d   1       8.122   0.596  -4.818  0.00  0.00     0.028 A 
ATOM     27  O   LIG d   1       8.453   2.782  -4.306  0.00  0.00    -0.245 OA
ATOM     28  H   LIG d   1       8.965   0.585  -5.495  0.00  0.00     0.069 H 
ATOM     29  C   LIG d   1       4.119  -0.297  -1.940  0.00  0.00    -0.017 A 
ATOM     30  H   LIG d   1       4.681   1.743  -1.659  0.00  0.00     0.066 H 
ATOM     31  C   LIG d   1       4.393  -1.499  -2.587  0.00  0.00     0.118 A 
ATOM     32  H   LIG d   1       3.288  -0.235  -1.254  0.00  0.00     0.066 H 
ATOM     33  H   LIG d   1       5.667  -2.523  -3.966  0.00  0.00     0.066 H 
BRANCH  31  34
ATOM     34  O   LIG d   1       3.612  -2.587  -2.352  0.00  0.00    -0.507 OA
ATOM     35  H   LIG d   1       3.687  -3.121  -1.392  0.00  0.00     0.292 HD
ENDBRANCH  31  34
ENDBRANCH  16  19
ENDBRANCH   4  16
BRANCH   1  36
ATOM     36  C   LIG d   1      11.237  -5.614  -3.105  0.00  0.00    -0.035 C 
ATOM     37  H   LIG d   1      11.975  -4.979  -2.594  0.00  0.00     0.081 H 
ATOM     38  H   LIG d   1      11.761  -6.356  -3.727  0.00  0.00     0.081 H 
BRANCH  36  39
ATOM     39  C   LIG d   1      10.378  -6.337  -2.065  0.00  0.00    -0.025 C 
ATOM     40  H   LIG d   1       9.320  -6.284  -2.361  0.00  0.00     0.028 H 
ATOM     41  H   LIG d   1      10.509  -5.858  -1.084  0.00  0.00     0.028 H 
ATOM     42  H   LIG d   1      10.689  -7.391  -2.002  0.00  0.00     0.028 H 
ENDBRANCH  36  39
ENDBRANCH   1  36
TORSDOF 5
ENDMDL
MODEL 4
REMARK VINA RESULT:      -5.5      3.129      6.889
REMARK  5 active torsions:
REMARK  status: ('A' for Active; 'I' for Inactive)
REMARK    1  A    between atoms: C_1  and  C_2 
REMARK    2  A    between atoms: C_2  and  N_3 
REMARK    3  A    between atoms: N_6  and  C_9 
REMARK    4  A    between atoms: C_9  and  C_10 
REMARK    5  A    between atoms: C_18  and  O_21 
ROOT
ATOM      1  N   LIG d   1       4.561  -1.065  -3.101  0.00  0.00     0.237 N 
ATOM      2  C   LIG d   1       3.987  -0.151  -4.099  0.00  0.00    -0.019 C 
ATOM      3  C   LIG d   1       4.080  -0.789  -5.486  0.00  0.00     0.040 C 
ATOM      4  N   LIG d   1       5.487  -1.084  -5.793  0.00  0.00    -0.288 N 
ATOM      5  C   LIG d   1       6.061  -1.999  -4.796  0.00  0.00     0.040 C 
ATOM      6  C   LIG d   1       5.967  -1.360  -3.408  0.00  0.00    -0.019 C 
ATOM      7  H   LIG d   1       2.933   0.044  -3.854  0.00  0.00     0.083 H 
ATOM      8  H   LIG d   1       4.546   0.797  -4.091  0.00  0.00     0.083 H 
ATOM      9  H   LIG d   1       3.498  -1.722  -5.501  0.00  0.00     0.048 H 
ATOM     10  H   LIG d   1       3.678  -0.095  -6.238  0.00  0.00     0.048 H 
ATOM     11  H   LIG d   1       5.502  -2.945  -4.804  0.00  0.00     0.048 H 
ATOM     12  H   LIG d   1       7.115  -2.194  -5.041  0.00  0.00     0.048 H 
ATOM     13  H   LIG d   1       6.549  -0.426  -3.393  0.00  0.00     0.083 H 
ATOM     14  H   LIG d   1       6.369  -2.054  -2.656  0.00  0.00     0.083 H 
ATOM     15  H   LIG d   1       3.998  -2.010  -3.144  0.00  0.00     0.203 HD
ENDROOT
BRANCH   4  16
ATOM     16  C   LIG d   1       5.627  -1.629  -7.150  0.00  0.00     0.025 C 
ATOM     17  H   LIG d   1       6.671  -1.932  -7.319  0.00  0.00     0.048 H 
ATOM     18  H   LIG d   1       4.969  -2.504  -7.264  0.00  0.00     0.048 H 
BRANCH  16  19
ATOM     19  C   LIG d   1       5.241  -0.576  -8.157  0.00  0.00    -0.016 A 
ATOM     20  C   LIG d   1       4.104  -0.779  -9.060  0.00  0.00     0.025 A 
ATOM     21  C   LIG d   1       3.778   0.230  -9.984  0.00  0.00     0.140 A 
ATOM     22  C   LIG d   1       3.348  -1.953  -9.012  0.00  0.00    -0.009 A 
ATOM     23  O   LIG d   1       4.513   1.362 -10.028  0.00  0.00    -0.422 OA
ATOM     24  C   LIG d   1       2.704   0.049 -10.845  0.00  0.00    -0.015 A 
ATOM     25  C   LIG d   1       5.554   1.555  -9.204  0.00  0.00     0.338 A 
ATOM     26  C   LIG d   1       5.936   0.585  -8.252  0.00  0.00     0.028 A 
ATOM     27  O   LIG d   1       6.187   2.593  -9.280  0.00  0.00    -0.245 OA
ATOM     28  H   LIG d   1       6.780   0.767  -7.602  0.00  0.00     0.069 H 
ATOM     29  C   LIG d   1       1.963  -1.113 -10.789  0.00  0.00    -0.017 A 
ATOM     30  H   LIG d   1       2.446   0.820 -11.554  0.00  0.00     0.066 H 
ATOM     31  C   LIG d   1       2.282  -2.115  -9.877  0.00  0.00     0.118 A 
ATOM     32  H   LIG d   1       1.129  -1.247 -11.461  0.00  0.00     0.066 H 
ATOM     33  H   LIG d   1       3.593  -2.730  -8.303  0.00  0.00     0.066 H 
BRANCH  31  34
ATOM     34  O   LIG d   1       1.543  -3.255  -9.836  0.00  0.00    -0.507 OA
ATOM     35  H   LIG d   1       1.472  -3.896 -10.728  0.00  0.00     0.292 HD
ENDBRANCH  31  34
ENDBRANCH  16  19
ENDBRANCH   4  16
BRANCH   1  36
ATOM     36  C   LIG d   1       4.420  -0.519  -1.745  0.00  0.00    -0.035 C 
ATOM     37  H   LIG d   1       5.241  -0.888  -1.114  0.00  0.00     0.081 H 
ATOM     38  H   LIG d   1       3.457  -0.840  -1.319  0.00  0.00     0.081 H 
BRANCH  36  39
ATOM     39  C   LIG d   1       4.467   1.009  -1.803  0.00  0.00    -0.025 C 
ATOM     40  H   LIG d   1       4.361   1.418  -0.787  0.00  0.00     0.028 H 
ATOM     41  H   LIG d   1       3.647   1.378  -2.435  0.00  0.00     0.028 H 
ATOM     42  H   LIG d   1       5.431   1.330  -2.228  0.00  0.00     0.028 H 
ENDBRANCH  36  39
ENDBRANCH   1  36
TORSDOF 5
ENDMDL
MODEL 5
REMARK VINA RESULT:      -5.5      1.951      3.434
REMARK  5 active torsions:
REMARK  status: ('A' for Active; 'I' for Inactive)
REMARK    1  A    between atoms: C_1  and  C_2 
REMARK    2  A    between atoms: C_2  and  N_3 
REMARK    3  A    between atoms: N_6  and  C_9 
REMARK    4  A    between atoms: C_9  and  C_10 
REMARK    5  A    between atoms: C_18  and  O_21 
ROOT
ATOM      1  N   LIG d   1       4.659  -0.341 -10.030  0.00  0.00     0.237 N 
ATOM      2  C   LIG d   1       5.729   0.536  -9.533  0.00  0.00    -0.019 C 
ATOM      3  C   LIG d   1       6.529  -0.200  -8.456  0.00  0.00     0.040 C 
ATOM      4  N   LIG d   1       5.628  -0.596  -7.365  0.00  0.00    -0.288 N 
ATOM      5  C   LIG d   1       4.558  -1.473  -7.861  0.00  0.00     0.040 C 
ATOM      6  C   LIG d   1       3.758  -0.738  -8.939  0.00  0.00    -0.019 C 
ATOM      7  H   LIG d   1       6.396   0.808 -10.364  0.00  0.00     0.083 H 
ATOM      8  H   LIG d   1       5.287   1.447  -9.105  0.00  0.00     0.083 H 
ATOM      9  H   LIG d   1       6.994  -1.096  -8.891  0.00  0.00     0.048 H 
ATOM     10  H   LIG d   1       7.312   0.465  -8.062  0.00  0.00     0.048 H 
ATOM     11  H   LIG d   1       5.001  -2.384  -8.289  0.00  0.00     0.048 H 
ATOM     12  H   LIG d   1       3.892  -1.746  -7.030  0.00  0.00     0.048 H 
ATOM     13  H   LIG d   1       3.293   0.160  -8.504  0.00  0.00     0.083 H 
ATOM     14  H   LIG d   1       2.975  -1.402  -9.333  0.00  0.00     0.083 H 
ATOM     15  H   LIG d   1       5.127  -1.252 -10.432  0.00  0.00     0.203 HD
ENDROOT
BRANCH   4  16
ATOM     16  C   LIG d   1       6.372  -1.239  -6.274  0.00  0.00     0.025 C 
ATOM     17  H   LIG d   1       5.811  -2.113  -5.911  0.00  0.00     0.048 H 
ATOM     18  H   LIG d   1       7.357  -1.564  -6.643  0.00  0.00     0.048 H 
BRANCH  16  19
ATOM     19  C   LIG d   1       6.558  -0.258  -5.145  0.00  0.00    -0.016 A 
ATOM     20  C   LIG d   1       5.470   0.017  -4.201  0.00  0.00     0.025 A 
ATOM     21  C   LIG d   1       5.686   0.939  -3.161  0.00  0.00     0.140 A 
ATOM     22  C   LIG d   1       4.233  -0.622  -4.322  0.00  0.00    -0.009 A 
ATOM     23  O   LIG d   1       6.883   1.555  -3.049  0.00  0.00    -0.422 OA
ATOM     24  C   LIG d   1       4.664   1.208  -2.261  0.00  0.00    -0.015 A 
ATOM     25  C   LIG d   1       7.883   1.308  -3.908  0.00  0.00     0.338 A 
ATOM     26  C   LIG d   1       7.735   0.394  -4.975  0.00  0.00     0.028 A 
ATOM     27  O   LIG d   1       8.945   1.887  -3.767  0.00  0.00    -0.245 OA
ATOM     28  H   LIG d   1       8.558   0.215  -5.653  0.00  0.00     0.069 H 
ATOM     29  C   LIG d   1       3.447   0.572  -2.389  0.00  0.00    -0.017 A 
ATOM     30  H   LIG d   1       4.824   1.912  -1.458  0.00  0.00     0.066 H 
ATOM     31  C   LIG d   1       3.228  -0.341  -3.417  0.00  0.00     0.118 A 
ATOM     32  H   LIG d   1       2.657   0.785  -1.685  0.00  0.00     0.066 H 
ATOM     33  H   LIG d   1       4.063  -1.332  -5.118  0.00  0.00     0.066 H 
BRANCH  31  34
ATOM     34  O   LIG d   1       2.022  -0.958  -3.529  0.00  0.00    -0.507 OA
ATOM     35  H   LIG d   1       1.098  -0.405  -3.300  0.00  0.00     0.292 HD
ENDBRANCH  31  34
ENDBRANCH  16  19
ENDBRANCH   4  16
BRANCH   1  36
ATOM     36  C   LIG d   1       3.916   0.302 -11.121  0.00  0.00    -0.035 C 
ATOM     37  H   LIG d   1       4.570   0.410 -11.997  0.00  0.00     0.081 H 
ATOM     38  H   LIG d   1       3.573   1.296 -10.794  0.00  0.00     0.081 H 
BRANCH  36  39
ATOM     39  C   LIG d   1       2.705  -0.558 -11.489  0.00  0.00    -0.025 C 
ATOM     40  H   LIG d   1       1.998  -0.577 -10.647  0.00  0.00     0.028 H 
ATOM     41  H   LIG d   1       3.037  -1.582 -11.713  0.00  0.00     0.028 H 
ATOM     42  H   LIG d   1       2.209  -0.131 -12.375  0.00  0.00     0.028 H 
ENDBRANCH  36  39
ENDBRANCH   1  36
TORSDOF 5
ENDMDL
MODEL 6
REMARK VINA RESULT:      -5.3      3.095      3.181
REMARK  5 active torsions:
REMARK  status: ('A' for Active; 'I' for Inactive)
REMARK    1  A    between atoms: C_1  and  C_2 
REMARK    2  A    between atoms: C_2  and  N_3 
REMARK    3  A    between atoms: N_6  and  C_9 
REMARK    4  A    between atoms: C_9  and  C_10 
REMARK    5  A    between atoms: C_18  and  O_21 
ROOT
ATOM      1  N   LIG d   1       9.367   1.008  -7.736  0.00  0.00     0.237 N 
ATOM      2  C   LIG d   1       8.288   1.455  -6.845  0.00  0.00    -0.019 C 
ATOM      3  C   LIG d   1       8.344   0.659  -5.540  0.00  0.00     0.040 C 
ATOM      4  N   LIG d   1       8.217  -0.775  -5.838  0.00  0.00    -0.288 N 
ATOM      5  C   LIG d   1       9.296  -1.222  -6.729  0.00  0.00     0.040 C 
ATOM      6  C   LIG d   1       9.241  -0.425  -8.035  0.00  0.00    -0.019 C 
ATOM      7  H   LIG d   1       8.412   2.527  -6.628  0.00  0.00     0.083 H 
ATOM      8  H   LIG d   1       7.316   1.292  -7.335  0.00  0.00     0.083 H 
ATOM      9  H   LIG d   1       9.304   0.846  -5.037  0.00  0.00     0.048 H 
ATOM     10  H   LIG d   1       7.519   0.972  -4.884  0.00  0.00     0.048 H 
ATOM     11  H   LIG d   1      10.267  -1.058  -6.239  0.00  0.00     0.048 H 
ATOM     12  H   LIG d   1       9.172  -2.293  -6.946  0.00  0.00     0.048 H 
ATOM     13  H   LIG d   1       8.280  -0.611  -8.538  0.00  0.00     0.083 H 
ATOM     14  H   LIG d   1      10.065  -0.738  -8.692  0.00  0.00     0.083 H 
ATOM     15  H   LIG d   1      10.324   1.163  -7.215  0.00  0.00     0.203 HD
ENDROOT
BRANCH   4  16
ATOM     16  C   LIG d   1       8.190  -1.568  -4.603  0.00  0.00     0.025 C 
ATOM     17  H   LIG d   1       8.989  -2.324  -4.635  0.00  0.00     0.048 H 
ATOM     18  H   LIG d   1       8.345  -0.907  -3.738  0.00  0.00     0.048 H 
BRANCH  16  19
ATOM     19  C   LIG d   1       6.854  -2.256  -4.476  0.00  0.00    -0.016 A 
ATOM     20  C   LIG d   1       5.774  -1.663  -3.682  0.00  0.00     0.025 A 
ATOM     21  C   LIG d   1       4.544  -2.338  -3.591  0.00  0.00     0.140 A 
ATOM     22  C   LIG d   1       5.954  -0.444  -3.020  0.00  0.00    -0.009 A 
ATOM     23  O   LIG d   1       4.376  -3.515  -4.231  0.00  0.00    -0.422 OA
ATOM     24  C   LIG d   1       3.514  -1.786  -2.842  0.00  0.00    -0.015 A 
ATOM     25  C   LIG d   1       5.359  -4.064  -4.960  0.00  0.00     0.338 A 
ATOM     26  C   LIG d   1       6.619  -3.441  -5.094  0.00  0.00     0.028 A 
ATOM     27  O   LIG d   1       5.161  -5.127  -5.519  0.00  0.00    -0.245 OA
ATOM     28  H   LIG d   1       7.393  -3.906  -5.688  0.00  0.00     0.069 H 
ATOM     29  C   LIG d   1       3.701  -0.583  -2.193  0.00  0.00    -0.017 A 
ATOM     30  H   LIG d   1       2.566  -2.296  -2.770  0.00  0.00     0.066 H 
ATOM     31  C   LIG d   1       4.917   0.089  -2.280  0.00  0.00     0.118 A 
ATOM     32  H   LIG d   1       2.895  -0.158  -1.612  0.00  0.00     0.066 H 
ATOM     33  H   LIG d   1       6.897   0.078  -3.089  0.00  0.00     0.066 H 
BRANCH  31  34
ATOM     34  O   LIG d   1       5.085   1.273  -1.633  0.00  0.00    -0.507 OA
ATOM     35  H   LIG d   1       4.234   1.961  -1.517  0.00  0.00     0.292 HD
ENDBRANCH  31  34
ENDBRANCH  16  19
ENDBRANCH   4  16
BRANCH   1  36
ATOM     36  C   LIG d   1       9.394   1.803  -8.971  0.00  0.00    -0.035 C 
ATOM     37  H   LIG d   1       8.844   1.273  -9.761  0.00  0.00     0.081 H 
ATOM     38  H   LIG d   1      10.438   1.953  -9.288  0.00  0.00     0.081 H 
BRANCH  36  39
ATOM     39  C   LIG d   1       8.739   3.162  -8.716  0.00  0.00    -0.025 C 
ATOM     40  H   LIG d   1       9.141   3.596  -7.788  0.00  0.00     0.028 H 
ATOM     41  H   LIG d   1       7.652   3.033  -8.619  0.00  0.00     0.028 H 
ATOM     42  H   LIG d   1       8.955   3.837  -9.559  0.00  0.00     0.028 H 
ENDBRANCH  36  39
ENDBRANCH   1  36
TORSDOF 5
ENDMDL
MODEL 7
REMARK VINA RESULT:      -5.2      4.416      6.085
REMARK  5 active torsions:
REMARK  status: ('A' for Active; 'I' for Inactive)
REMARK    1  A    between atoms: C_1  and  C_2 
REMARK    2  A    between atoms: C_2  and  N_3 
REMARK    3  A    between atoms: N_6  and  C_9 
REMARK    4  A    between atoms: C_9  and  C_10 
REMARK    5  A    between atoms: C_18  and  O_21 
ROOT
ATOM      1  N   LIG d   1      11.624   3.060  -4.003  0.00  0.00     0.237 N 
ATOM      2  C   LIG d   1      11.589   1.864  -4.856  0.00  0.00    -0.019 C 
ATOM      3  C   LIG d   1      10.175   1.679  -5.411  0.00  0.00     0.040 C 
ATOM      4  N   LIG d   1       9.226   1.554  -4.295  0.00  0.00    -0.288 N 
ATOM      5  C   LIG d   1       9.262   2.751  -3.442  0.00  0.00     0.040 C 
ATOM      6  C   LIG d   1      10.676   2.937  -2.888  0.00  0.00    -0.019 C 
ATOM      7  H   LIG d   1      12.297   1.987  -5.689  0.00  0.00     0.083 H 
ATOM      8  H   LIG d   1      11.870   0.982  -4.263  0.00  0.00     0.083 H 
ATOM      9  H   LIG d   1       9.905   2.549  -6.027  0.00  0.00     0.048 H 
ATOM     10  H   LIG d   1      10.139   0.768  -6.027  0.00  0.00     0.048 H 
ATOM     11  H   LIG d   1       8.981   3.632  -4.036  0.00  0.00     0.048 H 
ATOM     12  H   LIG d   1       8.553   2.628  -2.610  0.00  0.00     0.048 H 
ATOM     13  H   LIG d   1      10.947   2.066  -2.272  0.00  0.00     0.083 H 
ATOM     14  H   LIG d   1      10.713   3.847  -2.272  0.00  0.00     0.083 H 
ATOM     15  H   LIG d   1      11.319   3.923  -4.615  0.00  0.00     0.203 HD
ENDROOT
BRANCH   4  16
ATOM     16  C   LIG d   1       7.866   1.299  -4.787  0.00  0.00     0.025 C 
ATOM     17  H   LIG d   1       7.171   2.025  -4.340  0.00  0.00     0.048 H 
ATOM     18  H   LIG d   1       7.846   1.398  -5.882  0.00  0.00     0.048 H 
BRANCH  16  19
ATOM     19  C   LIG d   1       7.447  -0.097  -4.402  0.00  0.00    -0.016 A 
ATOM     20  C   LIG d   1       6.252  -0.326  -3.584  0.00  0.00     0.025 A 
ATOM     21  C   LIG d   1       5.896  -1.644  -3.249  0.00  0.00     0.140 A 
ATOM     22  C   LIG d   1       5.469   0.744  -3.139  0.00  0.00    -0.009 A 
ATOM     23  O   LIG d   1       6.656  -2.674  -3.680  0.00  0.00    -0.422 OA
ATOM     24  C   LIG d   1       4.767  -1.873  -2.475  0.00  0.00    -0.015 A 
ATOM     25  C   LIG d   1       7.750  -2.473  -4.429  0.00  0.00     0.338 A 
ATOM     26  C   LIG d   1       8.165  -1.176  -4.803  0.00  0.00     0.028 A 
ATOM     27  O   LIG d   1       8.404  -3.433  -4.796  0.00  0.00    -0.245 OA
ATOM     28  H   LIG d   1       9.052  -1.044  -5.407  0.00  0.00     0.069 H 
ATOM     29  C   LIG d   1       4.001  -0.811  -2.041  0.00  0.00    -0.017 A 
ATOM     30  H   LIG d   1       4.485  -2.883  -2.216  0.00  0.00     0.066 H 
ATOM     31  C   LIG d   1       4.349   0.496  -2.370  0.00  0.00     0.118 A 
ATOM     32  H   LIG d   1       3.123  -0.996  -1.440  0.00  0.00     0.066 H 
ATOM     33  H   LIG d   1       5.738   1.758  -3.395  0.00  0.00     0.066 H 
BRANCH  31  34
ATOM     34  O   LIG d   1       3.584   1.531  -1.932  0.00  0.00    -0.507 OA
ATOM     35  H   LIG d   1       3.369   1.640  -0.859  0.00  0.00     0.292 HD
ENDBRANCH  31  34
ENDBRANCH  16  19
ENDBRANCH   4  16
BRANCH   1  36
ATOM     36  C   LIG d   1      12.985   3.316  -3.513  0.00  0.00    -0.035 C 
ATOM     37  H   LIG d   1      13.047   3.052  -2.447  0.00  0.00     0.081 H 
ATOM     38  H   LIG d   1      13.227   4.382  -3.641  0.00  0.00     0.081 H 
BRANCH  36  39
ATOM     39  C   LIG d   1      13.981   2.469  -4.308  0.00  0.00    -0.025 C 
ATOM     40  H   LIG d   1      13.828   1.405  -4.073  0.00  0.00     0.028 H 
ATOM     41  H   LIG d   1      15.007   2.760  -4.039  0.00  0.00     0.028 H 
ATOM     42  H   LIG d   1      13.823   2.633  -5.385  0.00  0.00     0.028 H 
ENDBRANCH  36  39
ENDBRANCH   1  36
TORSDOF 5
ENDMDL
MODEL 8
REMARK VINA RESULT:      -5.1      3.707      4.819
REMARK  5 active torsions:
REMARK  status: ('A' for Active; 'I' for Inactive)
REMARK    1  A    between atoms: C_1  and  C_2 
REMARK    2  A    between atoms: C_2  and  N_3 
REMARK    3  A    between atoms: N_6  and  C_9 
REMARK    4  A    between atoms: C_9  and  C_10 
REMARK    5  A    between atoms: C_18  and  O_21 
ROOT
ATOM      1  N   LIG d   1       9.782   3.626  -5.764  0.00  0.00     0.237 N 
ATOM      2  C   LIG d   1       8.887   3.530  -4.602  0.00  0.00    -0.019 C 
ATOM      3  C   LIG d   1       8.674   2.057  -4.246  0.00  0.00     0.040 C 
ATOM      4  N   LIG d   1       8.106   1.353  -5.405  0.00  0.00    -0.288 N 
ATOM      5  C   LIG d   1       9.000   1.450  -6.567  0.00  0.00     0.040 C 
ATOM      6  C   LIG d   1       9.214   2.923  -6.922  0.00  0.00    -0.019 C 
ATOM      7  H   LIG d   1       9.340   4.052  -3.746  0.00  0.00     0.083 H 
ATOM      8  H   LIG d   1       7.920   3.994  -4.844  0.00  0.00     0.083 H 
ATOM      9  H   LIG d   1       9.638   1.601  -3.977  0.00  0.00     0.048 H 
ATOM     10  H   LIG d   1       7.982   1.981  -3.395  0.00  0.00     0.048 H 
ATOM     11  H   LIG d   1       9.967   0.986  -6.324  0.00  0.00     0.048 H 
ATOM     12  H   LIG d   1       8.548   0.926  -7.422  0.00  0.00     0.048 H 
ATOM     13  H   LIG d   1       8.249   3.380  -7.191  0.00  0.00     0.083 H 
ATOM     14  H   LIG d   1       9.906   3.000  -7.774  0.00  0.00     0.083 H 
ATOM     15  H   LIG d   1      10.732   3.138  -5.502  0.00  0.00     0.203 HD
ENDROOT
BRANCH   4  16
ATOM     16  C   LIG d   1       7.816  -0.049  -5.078  0.00  0.00     0.025 C 
ATOM     17  H   LIG d   1       8.474  -0.706  -5.665  0.00  0.00     0.048 H 
ATOM     18  H   LIG d   1       7.989  -0.220  -4.005  0.00  0.00     0.048 H 
BRANCH  16  19
ATOM     19  C   LIG d   1       6.378  -0.355  -5.410  0.00  0.00    -0.016 A 
ATOM     20  C   LIG d   1       5.309  -0.097  -4.440  0.00  0.00     0.025 A 
ATOM     21  C   LIG d   1       3.981  -0.397  -4.791  0.00  0.00     0.140 A 
ATOM     22  C   LIG d   1       5.595   0.439  -3.181  0.00  0.00    -0.009 A 
ATOM     23  O   LIG d   1       3.710  -0.916  -6.008  0.00  0.00    -0.422 OA
ATOM     24  C   LIG d   1       2.961  -0.157  -3.880  0.00  0.00    -0.015 A 
ATOM     25  C   LIG d   1       4.682  -1.155  -6.901  0.00  0.00     0.338 A 
ATOM     26  C   LIG d   1       6.036  -0.877  -6.615  0.00  0.00     0.028 A 
ATOM     27  O   LIG d   1       4.389  -1.624  -7.986  0.00  0.00    -0.245 OA
ATOM     28  H   LIG d   1       6.799  -1.080  -7.354  0.00  0.00     0.069 H 
ATOM     29  C   LIG d   1       3.253   0.373  -2.641  0.00  0.00    -0.017 A 
ATOM     30  H   LIG d   1       1.939  -0.381  -4.144  0.00  0.00     0.066 H 
ATOM     31  C   LIG d   1       4.567   0.671  -2.288  0.00  0.00     0.118 A 
ATOM     32  H   LIG d   1       2.456   0.558  -1.937  0.00  0.00     0.066 H 
ATOM     33  H   LIG d   1       6.614   0.673  -2.908  0.00  0.00     0.066 H 
BRANCH  31  34
ATOM     34  O   LIG d   1       4.838   1.192  -1.062  0.00  0.00    -0.507 OA
ATOM     35  H   LIG d   1       4.633   2.254  -0.859  0.00  0.00     0.292 HD
ENDBRANCH  31  34
ENDBRANCH  16  19
ENDBRANCH   4  16
BRANCH   1  36
ATOM     36  C   LIG d   1      10.072   5.029  -6.089  0.00  0.00    -0.035 C 
ATOM     37  H   LIG d   1       9.589   5.293  -7.041  0.00  0.00     0.081 H 
ATOM     38  H   LIG d   1      11.160   5.167  -6.180  0.00  0.00     0.081 H 
BRANCH  36  39
ATOM     39  C   LIG d   1       9.535   5.932  -4.977  0.00  0.00    -0.025 C 
ATOM     40  H   LIG d   1       8.485   6.185  -5.183  0.00  0.00     0.028 H 
ATOM     41  H   LIG d   1      10.132   6.854  -4.932  0.00  0.00     0.028 H 
ATOM     42  H   LIG d   1       9.603   5.405  -4.013  0.00  0.00     0.028 H 
ENDBRANCH  36  39
ENDBRANCH   1  36
TORSDOF 5
ENDMDL
MODEL 9
REMARK VINA RESULT:      -4.9      8.780     10.745
REMARK  5 active torsions:
REMARK  status: ('A' for Active; 'I' for Inactive)
REMARK    1  A    between atoms: C_1  and  C_2 
REMARK    2  A    between atoms: C_2  and  N_3 
REMARK    3  A    between atoms: N_6  and  C_9 
REMARK    4  A    between atoms: C_9  and  C_10 
REMARK    5  A    between atoms: C_18  and  O_21 
ROOT
ATOM      1  N   LIG d   1      10.014   4.869  -6.535  0.00  0.00     0.237 N 
ATOM      2  C   LIG d   1      10.997   4.100  -5.760  0.00  0.00    -0.019 C 
ATOM      3  C   LIG d   1      10.526   3.989  -4.308  0.00  0.00     0.040 C 
ATOM      4  N   LIG d   1      10.355   5.337  -3.747  0.00  0.00    -0.288 N 
ATOM      5  C   LIG d   1       9.371   6.106  -4.522  0.00  0.00     0.040 C 
ATOM      6  C   LIG d   1       9.842   6.216  -5.974  0.00  0.00    -0.019 C 
ATOM      7  H   LIG d   1      11.098   3.093  -6.191  0.00  0.00     0.083 H 
ATOM      8  H   LIG d   1      11.971   4.611  -5.793  0.00  0.00     0.083 H 
ATOM      9  H   LIG d   1       9.566   3.453  -4.274  0.00  0.00     0.048 H 
ATOM     10  H   LIG d   1      11.275   3.439  -3.720  0.00  0.00     0.048 H 
ATOM     11  H   LIG d   1       8.399   5.594  -4.489  0.00  0.00     0.048 H 
ATOM     12  H   LIG d   1       9.270   7.112  -4.090  0.00  0.00     0.048 H 
ATOM     13  H   LIG d   1      10.803   6.752  -6.009  0.00  0.00     0.083 H 
ATOM     14  H   LIG d   1       9.094   6.766  -6.563  0.00  0.00     0.083 H 
ATOM     15  H   LIG d   1       9.046   4.348  -6.468  0.00  0.00     0.203 HD
ENDROOT
BRANCH   4  16
ATOM     16  C   LIG d   1       9.976   5.273  -2.330  0.00  0.00     0.025 C 
ATOM     17  H   LIG d   1       8.978   5.718  -2.197  0.00  0.00     0.048 H 
ATOM     18  H   LIG d   1       9.955   4.223  -2.002  0.00  0.00     0.048 H 
BRANCH  16  19
ATOM     19  C   LIG d   1      10.980   6.037  -1.506  0.00  0.00    -0.016 A 
ATOM     20  C   LIG d   1      10.676   7.382  -1.007  0.00  0.00     0.025 A 
ATOM     21  C   LIG d   1      11.642   8.059  -0.241  0.00  0.00     0.140 A 
ATOM     22  C   LIG d   1       9.449   7.992  -1.283  0.00  0.00    -0.009 A 
ATOM     23  O   LIG d   1      12.827   7.466   0.022  0.00  0.00    -0.422 OA
ATOM     24  C   LIG d   1      11.366   9.333   0.237  0.00  0.00    -0.015 A 
ATOM     25  C   LIG d   1      13.111   6.236  -0.430  0.00  0.00     0.338 A 
ATOM     26  C   LIG d   1      12.188   5.499  -1.205  0.00  0.00     0.028 A 
ATOM     27  O   LIG d   1      14.192   5.741  -0.167  0.00  0.00    -0.245 OA
ATOM     28  H   LIG d   1      12.445   4.510  -1.556  0.00  0.00     0.069 H 
ATOM     29  C   LIG d   1      10.152   9.926  -0.040  0.00  0.00    -0.017 A 
ATOM     30  H   LIG d   1      12.101   9.858   0.829  0.00  0.00     0.066 H 
ATOM     31  C   LIG d   1       9.194   9.260  -0.799  0.00  0.00     0.118 A 
ATOM     32  H   LIG d   1       9.944  10.917   0.335  0.00  0.00     0.066 H 
ATOM     33  H   LIG d   1       8.704   7.475  -1.870  0.00  0.00     0.066 H 
BRANCH  31  34
ATOM     34  O   LIG d   1       8.003   9.860  -1.064  0.00  0.00    -0.507 OA
ATOM     35  H   LIG d   1       7.097   9.545  -0.524  0.00  0.00     0.292 HD
ENDBRANCH  31  34
ENDBRANCH  16  19
ENDBRANCH   4  16
BRANCH   1  36
ATOM     36  C   LIG d   1      10.393   4.931  -7.952  0.00  0.00    -0.035 C 
ATOM     37  H   LIG d   1      11.077   4.103  -8.186  0.00  0.00     0.081 H 
ATOM     38  H   LIG d   1      10.896   5.890  -8.155  0.00  0.00     0.081 H 
BRANCH  36  39
ATOM     39  C   LIG d   1       9.139   4.821  -8.821  0.00  0.00    -0.025 C 
ATOM     40  H   LIG d   1       9.164   3.875  -9.384  0.00  0.00     0.028 H 
ATOM     41  H   LIG d   1       9.105   5.665  -9.525  0.00  0.00     0.028 H 
ATOM     42  H   LIG d   1       8.245   4.841  -8.179  0.00  0.00     0.028 H 
ENDBRANCH  36  39
ENDBRANCH   1  36
TORSDOF 5
ENDMDL
