MODEL 1
REMARK VINA RESULT:      -4.8      0.000      0.000
REMARK  12 active torsions:
REMARK  status: ('A' for Active; 'I' for Inactive)
REMARK    1  A    between atoms: C_1  and  C_2 
REMARK    2  A    between atoms: C_2  and  O_3 
REMARK    3  A    between atoms: O_3  and  C_4 
REMARK    4  A    between atoms: C_4  and  C_6 
REMARK    5  A    between atoms: C_6  and  C_7 
REMARK    6  A    between atoms: N_9  and  C_24 
REMARK    7  A    between atoms: C_11  and  C_18 
REMARK    8  A    between atoms: N_15  and  C_17 
REMARK    9  A    between atoms: C_18  and  C_19 
REMARK   10  A    between atoms: C_19  and  O_21 
REMARK   11  A    between atoms: O_21  and  C_22 
REMARK   12  A    between atoms: C_22  and  C_23 
ROOT
ATOM      1  C   LIG d   1       4.991  -1.879  -5.475  0.00  0.00     0.065 C 
ATOM      2  C   LIG d   1       4.676  -3.076  -6.388  0.00  0.00     0.013 C 
ATOM      3  N   LIG d   1       4.707  -2.638  -7.788  0.00  0.00    -0.303 N 
ATOM      4  C   LIG d   1       3.670  -1.643  -8.084  0.00  0.00     0.013 C 
ATOM      5  C   LIG d   1       3.935  -0.374  -7.256  0.00  0.00     0.065 C 
ATOM      6  C   LIG d   1       3.956  -0.804  -5.793  0.00  0.00     0.151 C 
ATOM      7  O   LIG d   1       3.222  -0.332  -4.959  0.00  0.00    -0.296 OA
ATOM      8  C   LIG d   1       5.352   0.121  -7.589  0.00  0.00     0.013 C 
ATOM      9  N   LIG d   1       6.317  -0.949  -7.314  0.00  0.00    -0.303 N 
ATOM     10  C   LIG d   1       6.357  -1.311  -5.893  0.00  0.00     0.013 C 
ATOM     11  H   LIG d   1       5.428  -3.863  -6.230  0.00  0.00     0.044 H 
ATOM     12  H   LIG d   1       3.677  -3.469  -6.146  0.00  0.00     0.044 H 
ATOM     13  H   LIG d   1       3.694  -1.396  -9.155  0.00  0.00     0.044 H 
ATOM     14  H   LIG d   1       2.684  -2.053  -7.824  0.00  0.00     0.044 H 
ATOM     15  H   LIG d   1       5.403   0.399  -8.653  0.00  0.00     0.044 H 
ATOM     16  H   LIG d   1       5.588   0.999  -6.970  0.00  0.00     0.044 H 
ATOM     17  H   LIG d   1       6.582  -0.418  -5.291  0.00  0.00     0.044 H 
ATOM     18  H   LIG d   1       7.136  -2.070  -5.727  0.00  0.00     0.044 H 
ENDROOT
BRANCH   1  19
ATOM     19  C   LIG d   1       4.959  -2.273  -3.998  0.00  0.00     0.060 C 
ATOM     20  H   LIG d   1       5.131  -3.356  -3.904  0.00  0.00     0.039 H 
ATOM     21  H   LIG d   1       3.978  -2.020  -3.571  0.00  0.00     0.039 H 
BRANCH  19  22
ATOM     22  C   LIG d   1       6.037  -1.526  -3.256  0.00  0.00     0.308 C 
ATOM     23  O   LIG d   1       7.125  -2.029  -3.103  0.00  0.00    -0.251 OA
BRANCH  22  24
ATOM     24  O   LIG d   1       5.788  -0.303  -2.762  0.00  0.00    -0.465 OA
BRANCH  24  25
ATOM     25  C   LIG d   1       4.639  -0.167  -1.885  0.00  0.00     0.090 C 
ATOM     26  H   LIG d   1       4.954  -0.320  -0.842  0.00  0.00     0.069 H 
ATOM     27  H   LIG d   1       3.882  -0.919  -2.153  0.00  0.00     0.069 H 
BRANCH  25  28
ATOM     28  C   LIG d   1       4.043   1.234  -2.037  0.00  0.00    -0.031 C 
ATOM     29  H   LIG d   1       3.610   1.554  -1.079  0.00  0.00     0.026 H 
ATOM     30  H   LIG d   1       3.258   1.216  -2.807  0.00  0.00     0.026 H 
ATOM     31  H   LIG d   1       4.834   1.937  -2.337  0.00  0.00     0.026 H 
ENDBRANCH  25  28
ENDBRANCH  24  25
ENDBRANCH  22  24
ENDBRANCH  19  22
ENDBRANCH   1  19
BRANCH   5  32
ATOM     32  C   LIG d   1       2.876   0.698  -7.515  0.00  0.00     0.060 C 
ATOM     33  H   LIG d   1       1.895   0.219  -7.650  0.00  0.00     0.039 H 
ATOM     34  H   LIG d   1       2.833   1.385  -6.657  0.00  0.00     0.039 H 
BRANCH  32  35
ATOM     35  C   LIG d   1       3.234   1.469  -8.759  0.00  0.00     0.308 C 
ATOM     36  O   LIG d   1       3.723   2.571  -8.667  0.00  0.00    -0.251 OA
BRANCH  35  37
ATOM     37  O   LIG d   1       3.010   0.932  -9.969  0.00  0.00    -0.465 OA
BRANCH  37  38
ATOM     38  C   LIG d   1       3.996   1.200 -11.001  0.00  0.00     0.090 C 
ATOM     39  H   LIG d   1       3.491   1.596 -11.895  0.00  0.00     0.069 H 
ATOM     40  H   LIG d   1       4.722   1.938 -10.632  0.00  0.00     0.069 H 
BRANCH  38  41
ATOM     41  C   LIG d   1       4.724  -0.098 -11.359  0.00  0.00    -0.031 C 
ATOM     42  H   LIG d   1       4.010  -0.807 -11.804  0.00  0.00     0.026 H 
ATOM     43  H   LIG d   1       5.157  -0.538 -10.449  0.00  0.00     0.026 H 
ATOM     44  H   LIG d   1       5.525   0.118 -12.080  0.00  0.00     0.026 H 
ENDBRANCH  38  41
ENDBRANCH  37  38
ENDBRANCH  35  37
ENDBRANCH  32  35
ENDBRANCH   5  32
BRANCH   9  45
ATOM     45  C   LIG d   1       7.655  -0.592  -7.804  0.00  0.00    -0.013 C 
ATOM     46  H   LIG d   1       8.078   0.201  -7.170  0.00  0.00     0.039 H 
ATOM     47  H   LIG d   1       7.581  -0.232  -8.842  0.00  0.00     0.039 H 
ATOM     48  H   LIG d   1       8.307  -1.477  -7.769  0.00  0.00     0.039 H 
ENDBRANCH   9  45
BRANCH   3  49
ATOM     49  C   LIG d   1       4.610  -3.786  -8.700  0.00  0.00    -0.013 C 
ATOM     50  H   LIG d   1       5.202  -3.587  -9.605  0.00  0.00     0.039 H 
ATOM     51  H   LIG d   1       3.557  -3.945  -8.979  0.00  0.00     0.039 H 
ATOM     52  H   LIG d   1       4.997  -4.686  -8.199  0.00  0.00     0.039 H 
ENDBRANCH   3  49
TORSDOF 12
ENDMDL
MODEL 2
REMARK VINA RESULT:      -4.8      2.173      3.391
REMARK  12 active torsions:
REMARK  status: ('A' for Active; 'I' for Inactive)
REMARK    1  A    between atoms: C_1  and  C_2 
REMARK    2  A    between atoms: C_2  and  O_3 
REMARK    3  A    between atoms: O_3  and  C_4 
REMARK    4  A    between atoms: C_4  and  C_6 
REMARK    5  A    between atoms: C_6  and  C_7 
REMARK    6  A    between atoms: N_9  and  C_24 
REMARK    7  A    between atoms: C_11  and  C_18 
REMARK    8  A    between atoms: N_15  and  C_17 
REMARK    9  A    between atoms: C_18  and  C_19 
REMARK   10  A    between atoms: C_19  and  O_21 
REMARK   11  A    between atoms: O_21  and  C_22 
REMARK   12  A    between atoms: C_22  and  C_23 
ROOT
ATOM      1  C   LIG d   1       5.741  -1.386  -3.337  0.00  0.00     0.065 C 
ATOM      2  C   LIG d   1       6.977  -2.283  -3.160  0.00  0.00     0.013 C 
ATOM      3  N   LIG d   1       7.684  -2.391  -4.442  0.00  0.00    -0.303 N 
ATOM      4  C   LIG d   1       6.873  -3.048  -5.473  0.00  0.00     0.013 C 
ATOM      5  C   LIG d   1       5.632  -2.188  -5.765  0.00  0.00     0.065 C 
ATOM      6  C   LIG d   1       4.897  -2.017  -4.440  0.00  0.00     0.151 C 
ATOM      7  O   LIG d   1       3.747  -2.349  -4.278  0.00  0.00    -0.296 OA
ATOM      8  C   LIG d   1       6.112  -0.789  -6.184  0.00  0.00     0.013 C 
ATOM      9  N   LIG d   1       6.956  -0.228  -5.123  0.00  0.00    -0.303 N 
ATOM     10  C   LIG d   1       6.216  -0.025  -3.872  0.00  0.00     0.013 C 
ATOM     11  H   LIG d   1       7.645  -1.841  -2.406  0.00  0.00     0.044 H 
ATOM     12  H   LIG d   1       6.660  -3.283  -2.829  0.00  0.00     0.044 H 
ATOM     13  H   LIG d   1       7.468  -3.161  -6.390  0.00  0.00     0.044 H 
ATOM     14  H   LIG d   1       6.558  -4.039  -5.114  0.00  0.00     0.044 H 
ATOM     15  H   LIG d   1       6.694  -0.865  -7.116  0.00  0.00     0.044 H 
ATOM     16  H   LIG d   1       5.242  -0.136  -6.348  0.00  0.00     0.044 H 
ATOM     17  H   LIG d   1       5.344   0.619  -4.061  0.00  0.00     0.044 H 
ATOM     18  H   LIG d   1       6.871   0.453  -3.129  0.00  0.00     0.044 H 
ENDROOT
BRANCH   1  19
ATOM     19  C   LIG d   1       4.954  -1.247  -2.033  0.00  0.00     0.060 C 
ATOM     20  H   LIG d   1       5.631  -1.400  -1.179  0.00  0.00     0.039 H 
ATOM     21  H   LIG d   1       4.154  -2.001  -2.006  0.00  0.00     0.039 H 
BRANCH  19  22
ATOM     22  C   LIG d   1       4.349   0.130  -1.955  0.00  0.00     0.308 C 
ATOM     23  O   LIG d   1       4.937   1.018  -1.385  0.00  0.00    -0.251 OA
BRANCH  22  24
ATOM     24  O   LIG d   1       3.154   0.371  -2.518  0.00  0.00    -0.465 OA
BRANCH  24  25
ATOM     25  C   LIG d   1       3.113   1.363  -3.578  0.00  0.00     0.090 C 
ATOM     26  H   LIG d   1       4.137   1.682  -3.822  0.00  0.00     0.069 H 
ATOM     27  H   LIG d   1       2.528   2.233  -3.245  0.00  0.00     0.069 H 
BRANCH  25  28
ATOM     28  C   LIG d   1       2.460   0.755  -4.821  0.00  0.00    -0.031 C 
ATOM     29  H   LIG d   1       1.606   0.131  -4.519  0.00  0.00     0.026 H 
ATOM     30  H   LIG d   1       3.196   0.136  -5.355  0.00  0.00     0.026 H 
ATOM     31  H   LIG d   1       2.110   1.561  -5.483  0.00  0.00     0.026 H 
ENDBRANCH  25  28
ENDBRANCH  24  25
ENDBRANCH  22  24
ENDBRANCH  19  22
ENDBRANCH   1  19
BRANCH   5  32
ATOM     32  C   LIG d   1       4.739  -2.831  -6.827  0.00  0.00     0.060 C 
ATOM     33  H   LIG d   1       5.298  -3.623  -7.346  0.00  0.00     0.039 H 
ATOM     34  H   LIG d   1       3.851  -3.266  -6.344  0.00  0.00     0.039 H 
BRANCH  32  35
ATOM     35  C   LIG d   1       4.308  -1.785  -7.822  0.00  0.00     0.308 C 
ATOM     36  O   LIG d   1       4.850  -1.716  -8.900  0.00  0.00    -0.251 OA
BRANCH  35  37
ATOM     37  O   LIG d   1       3.322  -0.928  -7.510  0.00  0.00    -0.465 OA
BRANCH  37  38
ATOM     38  C   LIG d   1       2.590  -0.336  -8.616  0.00  0.00     0.090 C 
ATOM     39  H   LIG d   1       2.970  -0.742  -9.565  0.00  0.00     0.069 H 
ATOM     40  H   LIG d   1       1.521  -0.573  -8.517  0.00  0.00     0.069 H 
BRANCH  38  41
ATOM     41  C   LIG d   1       2.780   1.182  -8.598  0.00  0.00    -0.031 C 
ATOM     42  H   LIG d   1       1.868   1.660  -8.211  0.00  0.00     0.026 H 
ATOM     43  H   LIG d   1       2.975   1.539  -9.620  0.00  0.00     0.026 H 
ATOM     44  H   LIG d   1       3.632   1.437  -7.951  0.00  0.00     0.026 H 
ENDBRANCH  38  41
ENDBRANCH  37  38
ENDBRANCH  35  37
ENDBRANCH  32  35
ENDBRANCH   5  32
BRANCH   9  45
ATOM     45  C   LIG d   1       7.598   1.018  -5.563  0.00  0.00    -0.013 C 
ATOM     46  H   LIG d   1       8.280   1.377  -4.778  0.00  0.00     0.039 H 
ATOM     47  H   LIG d   1       6.827   1.779  -5.755  0.00  0.00     0.039 H 
ATOM     48  H   LIG d   1       8.167   0.831  -6.486  0.00  0.00     0.039 H 
ENDBRANCH   9  45
BRANCH   3  49
ATOM     49  C   LIG d   1       8.975  -3.072  -4.275  0.00  0.00    -0.013 C 
ATOM     50  H   LIG d   1       8.853  -3.929  -3.597  0.00  0.00     0.039 H 
ATOM     51  H   LIG d   1       9.708  -2.370  -3.849  0.00  0.00     0.039 H 
ATOM     52  H   LIG d   1       9.333  -3.426  -5.254  0.00  0.00     0.039 H 
ENDBRANCH   3  49
TORSDOF 12
ENDMDL
MODEL 3
REMARK VINA RESULT:      -4.7      2.880      4.445
REMARK  12 active torsions:
REMARK  status: ('A' for Active; 'I' for Inactive)
REMARK    1  A    between atoms: C_1  and  C_2 
REMARK    2  A    between atoms: C_2  and  O_3 
REMARK    3  A    between atoms: O_3  and  C_4 
REMARK    4  A    between atoms: C_4  and  C_6 
REMARK    5  A    between atoms: C_6  and  C_7 
REMARK    6  A    between atoms: N_9  and  C_24 
REMARK    7  A    between atoms: C_11  and  C_18 
REMARK    8  A    between atoms: N_15  and  C_17 
REMARK    9  A    between atoms: C_18  and  C_19 
REMARK   10  A    between atoms: C_19  and  O_21 
REMARK   11  A    between atoms: O_21  and  C_22 
REMARK   12  A    between atoms: C_22  and  C_23 
ROOT
ATOM      1  C   LIG d   1       5.922  -1.567  -3.883  0.00  0.00     0.065 C 
ATOM      2  C   LIG d   1       7.368  -2.046  -3.673  0.00  0.00     0.013 C 
ATOM      3  N   LIG d   1       7.770  -2.884  -4.808  0.00  0.00    -0.303 N 
ATOM      4  C   LIG d   1       6.967  -4.108  -4.909  0.00  0.00     0.013 C 
ATOM      5  C   LIG d   1       5.502  -3.731  -5.182  0.00  0.00     0.065 C 
ATOM      6  C   LIG d   1       5.066  -2.819  -4.040  0.00  0.00     0.151 C 
ATOM      7  O   LIG d   1       4.123  -3.064  -3.326  0.00  0.00    -0.296 OA
ATOM      8  C   LIG d   1       5.460  -2.882  -6.463  0.00  0.00     0.013 C 
ATOM      9  N   LIG d   1       6.328  -1.710  -6.295  0.00  0.00    -0.303 N 
ATOM     10  C   LIG d   1       5.861  -0.820  -5.226  0.00  0.00     0.013 C 
ATOM     11  H   LIG d   1       8.036  -1.175  -3.602  0.00  0.00     0.044 H 
ATOM     12  H   LIG d   1       7.429  -2.631  -2.743  0.00  0.00     0.044 H 
ATOM     13  H   LIG d   1       7.348  -4.729  -5.733  0.00  0.00     0.044 H 
ATOM     14  H   LIG d   1       7.034  -4.669  -3.966  0.00  0.00     0.044 H 
ATOM     15  H   LIG d   1       5.815  -3.484  -7.313  0.00  0.00     0.044 H 
ATOM     16  H   LIG d   1       4.428  -2.553  -6.652  0.00  0.00     0.044 H 
ATOM     17  H   LIG d   1       4.824  -0.514  -5.427  0.00  0.00     0.044 H 
ATOM     18  H   LIG d   1       6.504   0.071  -5.180  0.00  0.00     0.044 H 
ENDROOT
BRANCH   1  19
ATOM     19  C   LIG d   1       5.443  -0.697  -2.720  0.00  0.00     0.060 C 
ATOM     20  H   LIG d   1       6.088  -0.866  -1.845  0.00  0.00     0.039 H 
ATOM     21  H   LIG d   1       4.406  -0.962  -2.467  0.00  0.00     0.039 H 
BRANCH  19  22
ATOM     22  C   LIG d   1       5.506   0.755  -3.119  0.00  0.00     0.308 C 
ATOM     23  O   LIG d   1       6.561   1.343  -3.095  0.00  0.00    -0.251 OA
BRANCH  22  24
ATOM     24  O   LIG d   1       4.388   1.396  -3.499  0.00  0.00    -0.465 OA
BRANCH  24  25
ATOM     25  C   LIG d   1       3.129   0.701  -3.298  0.00  0.00     0.090 C 
ATOM     26  H   LIG d   1       2.466   1.318  -2.673  0.00  0.00     0.069 H 
ATOM     27  H   LIG d   1       3.316  -0.259  -2.795  0.00  0.00     0.069 H 
BRANCH  25  28
ATOM     28  C   LIG d   1       2.464   0.448  -4.652  0.00  0.00    -0.031 C 
ATOM     29  H   LIG d   1       1.383   0.629  -4.568  0.00  0.00     0.026 H 
ATOM     30  H   LIG d   1       2.639  -0.595  -4.955  0.00  0.00     0.026 H 
ATOM     31  H   LIG d   1       2.894   1.126  -5.404  0.00  0.00     0.026 H 
ENDBRANCH  25  28
ENDBRANCH  24  25
ENDBRANCH  22  24
ENDBRANCH  19  22
ENDBRANCH   1  19
BRANCH   5  32
ATOM     32  C   LIG d   1       4.611  -4.971  -5.285  0.00  0.00     0.060 C 
ATOM     33  H   LIG d   1       5.045  -5.785  -4.687  0.00  0.00     0.039 H 
ATOM     34  H   LIG d   1       3.606  -4.733  -4.906  0.00  0.00     0.039 H 
BRANCH  32  35
ATOM     35  C   LIG d   1       4.515  -5.402  -6.726  0.00  0.00     0.308 C 
ATOM     36  O   LIG d   1       5.470  -5.899  -7.273  0.00  0.00    -0.251 OA
BRANCH  35  37
ATOM     37  O   LIG d   1       3.367  -5.231  -7.402  0.00  0.00    -0.465 OA
BRANCH  37  38
ATOM     38  C   LIG d   1       3.466  -5.097  -8.844  0.00  0.00     0.090 C 
ATOM     39  H   LIG d   1       4.495  -5.321  -9.163  0.00  0.00     0.069 H 
ATOM     40  H   LIG d   1       2.771  -5.798  -9.327  0.00  0.00     0.069 H 
BRANCH  38  41
ATOM     41  C   LIG d   1       3.108  -3.665  -9.249  0.00  0.00    -0.031 C 
ATOM     42  H   LIG d   1       3.113  -3.021  -8.357  0.00  0.00     0.026 H 
ATOM     43  H   LIG d   1       2.107  -3.652  -9.704  0.00  0.00     0.026 H 
ATOM     44  H   LIG d   1       3.847  -3.293  -9.974  0.00  0.00     0.026 H 
ENDBRANCH  38  41
ENDBRANCH  37  38
ENDBRANCH  35  37
ENDBRANCH  32  35
ENDBRANCH   5  32
BRANCH   9  45
ATOM     45  C   LIG d   1       6.476  -0.979  -7.561  0.00  0.00    -0.013 C 
ATOM     46  H   LIG d   1       7.308  -1.408  -8.137  0.00  0.00     0.039 H 
ATOM     47  H   LIG d   1       6.683   0.081  -7.349  0.00  0.00     0.039 H 
ATOM     48  H   LIG d   1       5.546  -1.061  -8.143  0.00  0.00     0.039 H 
ENDBRANCH   9  45
BRANCH   3  49
ATOM     49  C   LIG d   1       9.204  -3.199  -4.749  0.00  0.00    -0.013 C 
ATOM     50  H   LIG d   1       9.705  -2.798  -5.641  0.00  0.00     0.039 H 
ATOM     51  H   LIG d   1       9.338  -4.291  -4.713  0.00  0.00     0.039 H 
ATOM     52  H   LIG d   1       9.642  -2.746  -3.846  0.00  0.00     0.039 H 
ENDBRANCH   3  49
TORSDOF 12
ENDMDL
MODEL 4
REMARK VINA RESULT:      -4.5      2.596      4.923
REMARK  12 active torsions:
REMARK  status: ('A' for Active; 'I' for Inactive)
REMARK    1  A    between atoms: C_1  and  C_2 
REMARK    2  A    between atoms: C_2  and  O_3 
REMARK    3  A    between atoms: O_3  and  C_4 
REMARK    4  A    between atoms: C_4  and  C_6 
REMARK    5  A    between atoms: C_6  and  C_7 
REMARK    6  A    between atoms: N_9  and  C_24 
REMARK    7  A    between atoms: C_11  and  C_18 
REMARK    8  A    between atoms: N_15  and  C_17 
REMARK    9  A    between atoms: C_18  and  C_19 
REMARK   10  A    between atoms: C_19  and  O_21 
REMARK   11  A    between atoms: O_21  and  C_22 
REMARK   12  A    between atoms: C_22  and  C_23 
ROOT
ATOM      1  C   LIG d   1       7.168  -1.670  -5.580  0.00  0.00     0.065 C 
ATOM      2  C   LIG d   1       7.038  -2.928  -6.455  0.00  0.00     0.013 C 
ATOM      3  N   LIG d   1       5.616  -3.231  -6.659  0.00  0.00    -0.303 N 
ATOM      4  C   LIG d   1       4.930  -3.559  -5.404  0.00  0.00     0.013 C 
ATOM      5  C   LIG d   1       4.955  -2.331  -4.478  0.00  0.00     0.065 C 
ATOM      6  C   LIG d   1       6.422  -1.961  -4.282  0.00  0.00     0.151 C 
ATOM      7  O   LIG d   1       6.945  -1.900  -3.196  0.00  0.00    -0.296 OA
ATOM      8  C   LIG d   1       4.302  -1.159  -5.227  0.00  0.00     0.013 C 
ATOM      9  N   LIG d   1       5.015  -0.933  -6.489  0.00  0.00    -0.303 N 
ATOM     10  C   LIG d   1       6.409  -0.528  -6.277  0.00  0.00     0.013 C 
ATOM     11  H   LIG d   1       7.520  -2.750  -7.427  0.00  0.00     0.044 H 
ATOM     12  H   LIG d   1       7.527  -3.776  -5.953  0.00  0.00     0.044 H 
ATOM     13  H   LIG d   1       3.888  -3.838  -5.618  0.00  0.00     0.044 H 
ATOM     14  H   LIG d   1       5.443  -4.400  -4.915  0.00  0.00     0.044 H 
ATOM     15  H   LIG d   1       3.248  -1.398  -5.437  0.00  0.00     0.044 H 
ATOM     16  H   LIG d   1       4.355  -0.252  -4.606  0.00  0.00     0.044 H 
ATOM     17  H   LIG d   1       6.440   0.371  -5.644  0.00  0.00     0.044 H 
ATOM     18  H   LIG d   1       6.883  -0.311  -7.245  0.00  0.00     0.044 H 
ENDROOT
BRANCH   1  19
ATOM     19  C   LIG d   1       8.632  -1.313  -5.322  0.00  0.00     0.060 C 
ATOM     20  H   LIG d   1       9.266  -1.792  -6.083  0.00  0.00     0.039 H 
ATOM     21  H   LIG d   1       8.926  -1.669  -4.323  0.00  0.00     0.039 H 
BRANCH  19  22
ATOM     22  C   LIG d   1       8.805   0.182  -5.392  0.00  0.00     0.308 C 
ATOM     23  O   LIG d   1       9.277   0.690  -6.381  0.00  0.00    -0.251 OA
BRANCH  22  24
ATOM     24  O   LIG d   1       8.436   0.950  -4.354  0.00  0.00    -0.465 OA
BRANCH  24  25
ATOM     25  C   LIG d   1       8.842   2.343  -4.388  0.00  0.00     0.090 C 
ATOM     26  H   LIG d   1       7.956   2.987  -4.285  0.00  0.00     0.069 H 
ATOM     27  H   LIG d   1       9.341   2.557  -5.346  0.00  0.00     0.069 H 
BRANCH  25  28
ATOM     28  C   LIG d   1       9.810   2.621  -3.236  0.00  0.00    -0.031 C 
ATOM     29  H   LIG d   1      10.750   3.027  -3.636  0.00  0.00     0.026 H 
ATOM     30  H   LIG d   1      10.015   1.684  -2.697  0.00  0.00     0.026 H 
ATOM     31  H   LIG d   1       9.359   3.349  -2.547  0.00  0.00     0.026 H 
ENDBRANCH  25  28
ENDBRANCH  24  25
ENDBRANCH  22  24
ENDBRANCH  19  22
ENDBRANCH   1  19
BRANCH   5  32
ATOM     32  C   LIG d   1       4.263  -2.618  -3.144  0.00  0.00     0.060 C 
ATOM     33  H   LIG d   1       3.457  -3.350  -3.300  0.00  0.00     0.039 H 
ATOM     34  H   LIG d   1       4.995  -3.025  -2.431  0.00  0.00     0.039 H 
BRANCH  32  35
ATOM     35  C   LIG d   1       3.683  -1.341  -2.594  0.00  0.00     0.308 C 
ATOM     36  O   LIG d   1       2.582  -0.980  -2.938  0.00  0.00    -0.251 OA
BRANCH  35  37
ATOM     37  O   LIG d   1       4.390  -0.604  -1.723  0.00  0.00    -0.465 OA
BRANCH  37  38
ATOM     38  C   LIG d   1       4.294   0.839  -1.851  0.00  0.00     0.090 C 
ATOM     39  H   LIG d   1       3.313   1.105  -2.271  0.00  0.00     0.069 H 
ATOM     40  H   LIG d   1       4.409   1.305  -0.862  0.00  0.00     0.069 H 
BRANCH  38  41
ATOM     41  C   LIG d   1       5.400   1.342  -2.782  0.00  0.00    -0.031 C 
ATOM     42  H   LIG d   1       5.567   2.415  -2.606  0.00  0.00     0.026 H 
ATOM     43  H   LIG d   1       5.098   1.186  -3.828  0.00  0.00     0.026 H 
ATOM     44  H   LIG d   1       6.328   0.788  -2.581  0.00  0.00     0.026 H 
ENDBRANCH  38  41
ENDBRANCH  37  38
ENDBRANCH  35  37
ENDBRANCH  32  35
ENDBRANCH   5  32
BRANCH   9  45
ATOM     45  C   LIG d   1       4.306   0.043  -7.328  0.00  0.00    -0.013 C 
ATOM     46  H   LIG d   1       3.456  -0.448  -7.824  0.00  0.00     0.039 H 
ATOM     47  H   LIG d   1       4.995   0.442  -8.088  0.00  0.00     0.039 H 
ATOM     48  H   LIG d   1       3.938   0.868  -6.699  0.00  0.00     0.039 H 
ENDBRANCH   9  45
BRANCH   3  49
ATOM     49  C   LIG d   1       5.443  -4.303  -7.649  0.00  0.00    -0.013 C 
ATOM     50  H   LIG d   1       4.820  -3.939  -8.479  0.00  0.00     0.039 H 
ATOM     51  H   LIG d   1       4.952  -5.165  -7.173  0.00  0.00     0.039 H 
ATOM     52  H   LIG d   1       6.428  -4.608  -8.035  0.00  0.00     0.039 H 
ENDBRANCH   3  49
TORSDOF 12
ENDMDL
MODEL 5
REMARK VINA RESULT:      -4.5      2.707      5.706
REMARK  12 active torsions:
REMARK  status: ('A' for Active; 'I' for Inactive)
REMARK    1  A    between atoms: C_1  and  C_2 
REMARK    2  A    between atoms: C_2  and  O_3 
REMARK    3  A    between atoms: O_3  and  C_4 
REMARK    4  A    between atoms: C_4  and  C_6 
REMARK    5  A    between atoms: C_6  and  C_7 
REMARK    6  A    between atoms: N_9  and  C_24 
REMARK    7  A    between atoms: C_11  and  C_18 
REMARK    8  A    between atoms: N_15  and  C_17 
REMARK    9  A    between atoms: C_18  and  C_19 
REMARK   10  A    between atoms: C_19  and  O_21 
REMARK   11  A    between atoms: O_21  and  C_22 
REMARK   12  A    between atoms: C_22  and  C_23 
ROOT
ATOM      1  C   LIG d   1       4.864  -2.440  -4.186  0.00  0.00     0.065 C 
ATOM      2  C   LIG d   1       4.402  -1.287  -5.091  0.00  0.00     0.013 C 
ATOM      3  N   LIG d   1       5.204  -1.286  -6.321  0.00  0.00    -0.303 N 
ATOM      4  C   LIG d   1       6.625  -1.028  -6.060  0.00  0.00     0.013 C 
ATOM      5  C   LIG d   1       7.197  -2.170  -5.203  0.00  0.00     0.065 C 
ATOM      6  C   LIG d   1       6.353  -2.229  -3.934  0.00  0.00     0.151 C 
ATOM      7  O   LIG d   1       6.824  -2.121  -2.827  0.00  0.00    -0.296 OA
ATOM      8  C   LIG d   1       6.956  -3.491  -5.952  0.00  0.00     0.013 C 
ATOM      9  N   LIG d   1       5.521  -3.643  -6.217  0.00  0.00    -0.303 N 
ATOM     10  C   LIG d   1       4.735  -3.749  -4.982  0.00  0.00     0.013 C 
ATOM     11  H   LIG d   1       3.340  -1.421  -5.343  0.00  0.00     0.044 H 
ATOM     12  H   LIG d   1       4.535  -0.330  -4.563  0.00  0.00     0.044 H 
ATOM     13  H   LIG d   1       7.168  -0.975  -7.014  0.00  0.00     0.044 H 
ATOM     14  H   LIG d   1       6.732  -0.075  -5.522  0.00  0.00     0.044 H 
ATOM     15  H   LIG d   1       7.507  -3.479  -6.904  0.00  0.00     0.044 H 
ATOM     16  H   LIG d   1       7.308  -4.332  -5.336  0.00  0.00     0.044 H 
ATOM     17  H   LIG d   1       5.111  -4.586  -4.376  0.00  0.00     0.044 H 
ATOM     18  H   LIG d   1       3.678  -3.923  -5.231  0.00  0.00     0.044 H 
ENDROOT
BRANCH   1  19
ATOM     19  C   LIG d   1       4.071  -2.483  -2.878  0.00  0.00     0.060 C 
ATOM     20  H   LIG d   1       4.721  -2.843  -2.067  0.00  0.00     0.039 H 
ATOM     21  H   LIG d   1       3.215  -3.164  -2.991  0.00  0.00     0.039 H 
BRANCH  19  22
ATOM     22  C   LIG d   1       3.572  -1.100  -2.548  0.00  0.00     0.308 C 
ATOM     23  O   LIG d   1       2.513  -0.719  -2.986  0.00  0.00    -0.251 OA
BRANCH  22  24
ATOM     24  O   LIG d   1       4.306  -0.291  -1.767  0.00  0.00    -0.465 OA
BRANCH  24  25
ATOM     25  C   LIG d   1       4.436   1.092  -2.189  0.00  0.00     0.090 C 
ATOM     26  H   LIG d   1       4.421   1.749  -1.306  0.00  0.00     0.069 H 
ATOM     27  H   LIG d   1       3.599   1.353  -2.854  0.00  0.00     0.069 H 
BRANCH  25  28
ATOM     28  C   LIG d   1       5.758   1.275  -2.938  0.00  0.00    -0.031 C 
ATOM     29  H   LIG d   1       5.701   2.172  -3.569  0.00  0.00     0.026 H 
ATOM     30  H   LIG d   1       5.946   0.393  -3.569  0.00  0.00     0.026 H 
ATOM     31  H   LIG d   1       6.577   1.387  -2.212  0.00  0.00     0.026 H 
ENDBRANCH  25  28
ENDBRANCH  24  25
ENDBRANCH  22  24
ENDBRANCH  19  22
ENDBRANCH   1  19
BRANCH   5  32
ATOM     32  C   LIG d   1       8.677  -1.950  -4.888  0.00  0.00     0.060 C 
ATOM     33  H   LIG d   1       9.137  -1.350  -5.687  0.00  0.00     0.039 H 
ATOM     34  H   LIG d   1       8.772  -1.418  -3.929  0.00  0.00     0.039 H 
BRANCH  32  35
ATOM     35  C   LIG d   1       9.375  -3.283  -4.794  0.00  0.00     0.308 C 
ATOM     36  O   LIG d   1      10.196  -3.594  -5.623  0.00  0.00    -0.251 OA
BRANCH  35  37
ATOM     37  O   LIG d   1       9.081  -4.124  -3.789  0.00  0.00    -0.465 OA
BRANCH  37  38
ATOM     38  C   LIG d   1      10.015  -4.174  -2.679  0.00  0.00     0.090 C 
ATOM     39  H   LIG d   1      11.045  -4.152  -3.065  0.00  0.00     0.069 H 
ATOM     40  H   LIG d   1       9.852  -3.308  -2.022  0.00  0.00     0.069 H 
BRANCH  38  41
ATOM     41  C   LIG d   1       9.795  -5.464  -1.886  0.00  0.00    -0.031 C 
ATOM     42  H   LIG d   1      10.384  -5.428  -0.957  0.00  0.00     0.026 H 
ATOM     43  H   LIG d   1      10.117  -6.325  -2.490  0.00  0.00     0.026 H 
ATOM     44  H   LIG d   1       8.729  -5.566  -1.640  0.00  0.00     0.026 H 
ENDBRANCH  38  41
ENDBRANCH  37  38
ENDBRANCH  35  37
ENDBRANCH  32  35
ENDBRANCH   5  32
BRANCH   9  45
ATOM     45  C   LIG d   1       5.266  -4.788  -7.102  0.00  0.00    -0.013 C 
ATOM     46  H   LIG d   1       5.979  -4.770  -7.939  0.00  0.00     0.039 H 
ATOM     47  H   LIG d   1       4.239  -4.728  -7.493  0.00  0.00     0.039 H 
ATOM     48  H   LIG d   1       5.389  -5.723  -6.536  0.00  0.00     0.039 H 
ENDBRANCH   9  45
BRANCH   3  49
ATOM     49  C   LIG d   1       4.667  -0.329  -7.298  0.00  0.00    -0.013 C 
ATOM     50  H   LIG d   1       4.429   0.618  -6.792  0.00  0.00     0.039 H 
ATOM     51  H   LIG d   1       3.753  -0.742  -7.751  0.00  0.00     0.039 H 
ATOM     52  H   LIG d   1       5.416  -0.148  -8.083  0.00  0.00     0.039 H 
ENDBRANCH   3  49
TORSDOF 12
ENDMDL
MODEL 6
REMARK VINA RESULT:      -4.5      2.007      5.875
REMARK  12 active torsions:
REMARK  status: ('A' for Active; 'I' for Inactive)
REMARK    1  A    between atoms: C_1  and  C_2 
REMARK    2  A    between atoms: C_2  and  O_3 
REMARK    3  A    between atoms: O_3  and  C_4 
REMARK    4  A    between atoms: C_4  and  C_6 
REMARK    5  A    between atoms: C_6  and  C_7 
REMARK    6  A    between atoms: N_9  and  C_24 
REMARK    7  A    between atoms: C_11  and  C_18 
REMARK    8  A    between atoms: N_15  and  C_17 
REMARK    9  A    between atoms: C_18  and  C_19 
REMARK   10  A    between atoms: C_19  and  O_21 
REMARK   11  A    between atoms: O_21  and  C_22 
REMARK   12  A    between atoms: C_22  and  C_23 
ROOT
ATOM      1  C   LIG d   1       6.684  -0.405  -7.626  0.00  0.00     0.065 C 
ATOM      2  C   LIG d   1       7.402   0.664  -6.787  0.00  0.00     0.013 C 
ATOM      3  N   LIG d   1       7.560   0.176  -5.412  0.00  0.00    -0.303 N 
ATOM      4  C   LIG d   1       6.271  -0.038  -4.745  0.00  0.00     0.013 C 
ATOM      5  C   LIG d   1       5.498  -1.144  -5.482  0.00  0.00     0.065 C 
ATOM      6  C   LIG d   1       5.356  -0.687  -6.931  0.00  0.00     0.151 C 
ATOM      7  O   LIG d   1       4.288  -0.564  -7.479  0.00  0.00    -0.296 OA
ATOM      8  C   LIG d   1       6.377  -2.405  -5.503  0.00  0.00     0.013 C 
ATOM      9  N   LIG d   1       7.661  -2.089  -6.139  0.00  0.00    -0.303 N 
ATOM     10  C   LIG d   1       7.507  -1.702  -7.545  0.00  0.00     0.013 C 
ATOM     11  H   LIG d   1       8.391   0.868  -7.223  0.00  0.00     0.044 H 
ATOM     12  H   LIG d   1       6.806   1.589  -6.784  0.00  0.00     0.044 H 
ATOM     13  H   LIG d   1       6.444  -0.342  -3.702  0.00  0.00     0.044 H 
ATOM     14  H   LIG d   1       5.689   0.894  -4.765  0.00  0.00     0.044 H 
ATOM     15  H   LIG d   1       6.550  -2.749  -4.472  0.00  0.00     0.044 H 
ATOM     16  H   LIG d   1       5.869  -3.197  -6.072  0.00  0.00     0.044 H 
ATOM     17  H   LIG d   1       6.985  -2.501  -8.093  0.00  0.00     0.044 H 
ATOM     18  H   LIG d   1       8.497  -1.536  -7.994  0.00  0.00     0.044 H 
ENDROOT
BRANCH   1  19
ATOM     19  C   LIG d   1       6.478   0.055  -9.070  0.00  0.00     0.060 C 
ATOM     20  H   LIG d   1       5.519  -0.332  -9.445  0.00  0.00     0.039 H 
ATOM     21  H   LIG d   1       7.297  -0.328  -9.697  0.00  0.00     0.039 H 
BRANCH  19  22
ATOM     22  C   LIG d   1       6.468   1.561  -9.121  0.00  0.00     0.308 C 
ATOM     23  O   LIG d   1       7.451   2.160  -9.487  0.00  0.00    -0.251 OA
BRANCH  22  24
ATOM     24  O   LIG d   1       5.366   2.237  -8.758  0.00  0.00    -0.465 OA
BRANCH  24  25
ATOM     25  C   LIG d   1       4.232   2.183  -9.663  0.00  0.00     0.090 C 
ATOM     26  H   LIG d   1       4.273   1.252 -10.248  0.00  0.00     0.069 H 
ATOM     27  H   LIG d   1       4.265   3.045 -10.346  0.00  0.00     0.069 H 
BRANCH  25  28
ATOM     28  C   LIG d   1       2.933   2.222  -8.856  0.00  0.00    -0.031 C 
ATOM     29  H   LIG d   1       2.861   3.180  -8.322  0.00  0.00     0.026 H 
ATOM     30  H   LIG d   1       2.929   1.396  -8.129  0.00  0.00     0.026 H 
ATOM     31  H   LIG d   1       2.075   2.115  -9.537  0.00  0.00     0.026 H 
ENDBRANCH  25  28
ENDBRANCH  24  25
ENDBRANCH  22  24
ENDBRANCH  19  22
ENDBRANCH   1  19
BRANCH   5  32
ATOM     32  C   LIG d   1       4.135  -1.404  -4.837  0.00  0.00     0.060 C 
ATOM     33  H   LIG d   1       3.632  -0.445  -4.644  0.00  0.00     0.039 H 
ATOM     34  H   LIG d   1       3.519  -2.012  -5.515  0.00  0.00     0.039 H 
BRANCH  32  35
ATOM     35  C   LIG d   1       4.328  -2.141  -3.537  0.00  0.00     0.308 C 
ATOM     36  O   LIG d   1       4.236  -3.345  -3.506  0.00  0.00    -0.251 OA
BRANCH  35  37
ATOM     37  O   LIG d   1       4.600  -1.459  -2.413  0.00  0.00    -0.465 OA
BRANCH  37  38
ATOM     38  C   LIG d   1       3.755  -0.317  -2.115  0.00  0.00     0.090 C 
ATOM     39  H   LIG d   1       3.197  -0.028  -3.018  0.00  0.00     0.069 H 
ATOM     40  H   LIG d   1       3.047  -0.582  -1.316  0.00  0.00     0.069 H 
BRANCH  38  41
ATOM     41  C   LIG d   1       4.624   0.856  -1.656  0.00  0.00    -0.031 C 
ATOM     42  H   LIG d   1       3.979   1.684  -1.328  0.00  0.00     0.026 H 
ATOM     43  H   LIG d   1       5.256   1.192  -2.492  0.00  0.00     0.026 H 
ATOM     44  H   LIG d   1       5.262   0.534  -0.820  0.00  0.00     0.026 H 
ENDBRANCH  38  41
ENDBRANCH  37  38
ENDBRANCH  35  37
ENDBRANCH  32  35
ENDBRANCH   5  32
BRANCH   9  45
ATOM     45  C   LIG d   1       8.606  -3.206  -6.001  0.00  0.00    -0.013 C 
ATOM     46  H   LIG d   1       9.164  -3.102  -5.060  0.00  0.00     0.039 H 
ATOM     47  H   LIG d   1       9.309  -3.198  -6.848  0.00  0.00     0.039 H 
ATOM     48  H   LIG d   1       8.051  -4.157  -5.996  0.00  0.00     0.039 H 
ENDBRANCH   9  45
BRANCH   3  49
ATOM     49  C   LIG d   1       8.415   1.078  -4.629  0.00  0.00    -0.013 C 
ATOM     50  H   LIG d   1       7.892   1.371  -3.707  0.00  0.00     0.039 H 
ATOM     51  H   LIG d   1       8.642   1.976  -5.223  0.00  0.00     0.039 H 
ATOM     52  H   LIG d   1       9.352   0.563  -4.370  0.00  0.00     0.039 H 
ENDBRANCH   3  49
TORSDOF 12
ENDMDL
MODEL 7
REMARK VINA RESULT:      -4.4      1.933      5.547
REMARK  12 active torsions:
REMARK  status: ('A' for Active; 'I' for Inactive)
REMARK    1  A    between atoms: C_1  and  C_2 
REMARK    2  A    between atoms: C_2  and  O_3 
REMARK    3  A    between atoms: O_3  and  C_4 
REMARK    4  A    between atoms: C_4  and  C_6 
REMARK    5  A    between atoms: C_6  and  C_7 
REMARK    6  A    between atoms: N_9  and  C_24 
REMARK    7  A    between atoms: C_11  and  C_18 
REMARK    8  A    between atoms: N_15  and  C_17 
REMARK    9  A    between atoms: C_18  and  C_19 
REMARK   10  A    between atoms: C_19  and  O_21 
REMARK   11  A    between atoms: O_21  and  C_22 
REMARK   12  A    between atoms: C_22  and  C_23 
ROOT
ATOM      1  C   LIG d   1       6.580  -1.733  -7.033  0.00  0.00     0.065 C 
ATOM      2  C   LIG d   1       7.734  -2.749  -7.017  0.00  0.00     0.013 C 
ATOM      3  N   LIG d   1       7.370  -3.881  -6.156  0.00  0.00    -0.303 N 
ATOM      4  C   LIG d   1       7.188  -3.480  -4.756  0.00  0.00     0.013 C 
ATOM      5  C   LIG d   1       6.006  -2.501  -4.660  0.00  0.00     0.065 C 
ATOM      6  C   LIG d   1       6.332  -1.331  -5.582  0.00  0.00     0.151 C 
ATOM      7  O   LIG d   1       6.385  -0.187  -5.199  0.00  0.00    -0.296 OA
ATOM      8  C   LIG d   1       4.767  -3.194  -5.250  0.00  0.00     0.013 C 
ATOM      9  N   LIG d   1       5.053  -3.606  -6.629  0.00  0.00    -0.303 N 
ATOM     10  C   LIG d   1       5.313  -2.462  -7.510  0.00  0.00     0.013 C 
ATOM     11  H   LIG d   1       7.920  -3.108  -8.040  0.00  0.00     0.044 H 
ATOM     12  H   LIG d   1       8.643  -2.266  -6.627  0.00  0.00     0.044 H 
ATOM     13  H   LIG d   1       6.980  -4.370  -4.144  0.00  0.00     0.044 H 
ATOM     14  H   LIG d   1       8.103  -2.990  -4.393  0.00  0.00     0.044 H 
ATOM     15  H   LIG d   1       4.518  -4.079  -4.645  0.00  0.00     0.044 H 
ATOM     16  H   LIG d   1       3.917  -2.495  -5.243  0.00  0.00     0.044 H 
ATOM     17  H   LIG d   1       4.459  -1.770  -7.477  0.00  0.00     0.044 H 
ATOM     18  H   LIG d   1       5.460  -2.815  -8.541  0.00  0.00     0.044 H 
ENDROOT
BRANCH   1  19
ATOM     19  C   LIG d   1       6.909  -0.521  -7.906  0.00  0.00     0.060 C 
ATOM     20  H   LIG d   1       7.605  -0.821  -8.703  0.00  0.00     0.039 H 
ATOM     21  H   LIG d   1       7.375   0.261  -7.288  0.00  0.00     0.039 H 
BRANCH  19  22
ATOM     22  C   LIG d   1       5.641   0.014  -8.520  0.00  0.00     0.308 C 
ATOM     23  O   LIG d   1       5.354  -0.271  -9.658  0.00  0.00    -0.251 OA
BRANCH  22  24
ATOM     24  O   LIG d   1       4.831   0.810  -7.803  0.00  0.00    -0.465 OA
BRANCH  24  25
ATOM     25  C   LIG d   1       3.424   0.810  -8.158  0.00  0.00     0.090 C 
ATOM     26  H   LIG d   1       2.818   0.613  -7.261  0.00  0.00     0.069 H 
ATOM     27  H   LIG d   1       3.234   0.026  -8.907  0.00  0.00     0.069 H 
BRANCH  25  28
ATOM     28  C   LIG d   1       3.044   2.174  -8.740  0.00  0.00    -0.031 C 
ATOM     29  H   LIG d   1       3.769   2.455  -9.517  0.00  0.00     0.026 H 
ATOM     30  H   LIG d   1       3.052   2.928  -7.939  0.00  0.00     0.026 H 
ATOM     31  H   LIG d   1       2.038   2.117  -9.179  0.00  0.00     0.026 H 
ENDBRANCH  25  28
ENDBRANCH  24  25
ENDBRANCH  22  24
ENDBRANCH  19  22
ENDBRANCH   1  19
BRANCH   5  32
ATOM     32  C   LIG d   1       5.774  -2.038  -3.220  0.00  0.00     0.060 C 
ATOM     33  H   LIG d   1       6.121  -2.816  -2.525  0.00  0.00     0.039 H 
ATOM     34  H   LIG d   1       6.334  -1.108  -3.040  0.00  0.00     0.039 H 
BRANCH  32  35
ATOM     35  C   LIG d   1       4.304  -1.788  -3.003  0.00  0.00     0.308 C 
ATOM     36  O   LIG d   1       3.643  -2.581  -2.374  0.00  0.00    -0.251 OA
BRANCH  35  37
ATOM     37  O   LIG d   1       3.729  -0.686  -3.510  0.00  0.00    -0.465 OA
BRANCH  37  38
ATOM     38  C   LIG d   1       3.262   0.309  -2.561  0.00  0.00     0.090 C 
ATOM     39  H   LIG d   1       2.733   1.109  -3.100  0.00  0.00     0.069 H 
ATOM     40  H   LIG d   1       2.578  -0.163  -1.841  0.00  0.00     0.069 H 
BRANCH  38  41
ATOM     41  C   LIG d   1       4.459   0.901  -1.814  0.00  0.00    -0.031 C 
ATOM     42  H   LIG d   1       5.356   0.831  -2.447  0.00  0.00     0.026 H 
ATOM     43  H   LIG d   1       4.623   0.341  -0.882  0.00  0.00     0.026 H 
ATOM     44  H   LIG d   1       4.258   1.956  -1.578  0.00  0.00     0.026 H 
ENDBRANCH  38  41
ENDBRANCH  37  38
ENDBRANCH  35  37
ENDBRANCH  32  35
ENDBRANCH   5  32
BRANCH   9  45
ATOM     45  C   LIG d   1       3.972  -4.446  -7.163  0.00  0.00    -0.013 C 
ATOM     46  H   LIG d   1       3.883  -4.284  -8.247  0.00  0.00     0.039 H 
ATOM     47  H   LIG d   1       3.024  -4.179  -6.672  0.00  0.00     0.039 H 
ATOM     48  H   LIG d   1       4.200  -5.504  -6.968  0.00  0.00     0.039 H 
ENDBRANCH   9  45
BRANCH   3  49
ATOM     49  C   LIG d   1       8.355  -4.965  -6.269  0.00  0.00    -0.013 C 
ATOM     50  H   LIG d   1       8.149  -5.556  -7.172  0.00  0.00     0.039 H 
ATOM     51  H   LIG d   1       8.289  -5.615  -5.383  0.00  0.00     0.039 H 
ATOM     52  H   LIG d   1       9.367  -4.536  -6.334  0.00  0.00     0.039 H 
ENDBRANCH   3  49
TORSDOF 12
ENDMDL
MODEL 8
REMARK VINA RESULT:      -4.4      2.594      4.424
REMARK  12 active torsions:
REMARK  status: ('A' for Active; 'I' for Inactive)
REMARK    1  A    between atoms: C_1  and  C_2 
REMARK    2  A    between atoms: C_2  and  O_3 
REMARK    3  A    between atoms: O_3  and  C_4 
REMARK    4  A    between atoms: C_4  and  C_6 
REMARK    5  A    between atoms: C_6  and  C_7 
REMARK    6  A    between atoms: N_9  and  C_24 
REMARK    7  A    between atoms: C_11  and  C_18 
REMARK    8  A    between atoms: N_15  and  C_17 
REMARK    9  A    between atoms: C_18  and  C_19 
REMARK   10  A    between atoms: C_19  and  O_21 
REMARK   11  A    between atoms: O_21  and  C_22 
REMARK   12  A    between atoms: C_22  and  C_23 
ROOT
ATOM      1  C   LIG d   1       5.607  -1.313  -4.855  0.00  0.00     0.065 C 
ATOM      2  C   LIG d   1       6.654  -0.327  -5.399  0.00  0.00     0.013 C 
ATOM      3  N   LIG d   1       6.456  -0.160  -6.844  0.00  0.00    -0.303 N 
ATOM      4  C   LIG d   1       6.676  -1.407  -7.585  0.00  0.00     0.013 C 
ATOM      5  C   LIG d   1       5.629  -2.446  -7.149  0.00  0.00     0.065 C 
ATOM      6  C   LIG d   1       5.777  -2.609  -5.640  0.00  0.00     0.151 C 
ATOM      7  O   LIG d   1       6.005  -3.671  -5.113  0.00  0.00    -0.296 OA
ATOM      8  C   LIG d   1       4.235  -1.844  -7.391  0.00  0.00     0.013 C 
ATOM      9  N   LIG d   1       4.120  -0.578  -6.658  0.00  0.00    -0.303 N 
ATOM     10  C   LIG d   1       4.214  -0.766  -5.206  0.00  0.00     0.013 C 
ATOM     11  H   LIG d   1       6.540   0.644  -4.896  0.00  0.00     0.044 H 
ATOM     12  H   LIG d   1       7.663  -0.722  -5.208  0.00  0.00     0.044 H 
ATOM     13  H   LIG d   1       6.579  -1.215  -8.663  0.00  0.00     0.044 H 
ATOM     14  H   LIG d   1       7.685  -1.788  -7.369  0.00  0.00     0.044 H 
ATOM     15  H   LIG d   1       4.097  -1.661  -8.468  0.00  0.00     0.044 H 
ATOM     16  H   LIG d   1       3.466  -2.547  -7.038  0.00  0.00     0.044 H 
ATOM     17  H   LIG d   1       3.446  -1.481  -4.876  0.00  0.00     0.044 H 
ATOM     18  H   LIG d   1       4.060   0.198  -4.699  0.00  0.00     0.044 H 
ENDROOT
BRANCH   1  19
ATOM     19  C   LIG d   1       5.774  -1.538  -3.351  0.00  0.00     0.060 C 
ATOM     20  H   LIG d   1       6.212  -0.639  -2.892  0.00  0.00     0.039 H 
ATOM     21  H   LIG d   1       6.438  -2.397  -3.180  0.00  0.00     0.039 H 
BRANCH  19  22
ATOM     22  C   LIG d   1       4.428  -1.813  -2.732  0.00  0.00     0.308 C 
ATOM     23  O   LIG d   1       3.891  -2.882  -2.903  0.00  0.00    -0.251 OA
BRANCH  22  24
ATOM     24  O   LIG d   1       3.824  -0.870  -1.992  0.00  0.00    -0.465 OA
BRANCH  24  25
ATOM     25  C   LIG d   1       4.563   0.358  -1.757  0.00  0.00     0.090 C 
ATOM     26  H   LIG d   1       5.551   0.289  -2.238  0.00  0.00     0.069 H 
ATOM     27  H   LIG d   1       4.693   0.507  -0.675  0.00  0.00     0.069 H 
BRANCH  25  28
ATOM     28  C   LIG d   1       3.790   1.539  -2.346  0.00  0.00    -0.031 C 
ATOM     29  H   LIG d   1       4.269   2.480  -2.039  0.00  0.00     0.026 H 
ATOM     30  H   LIG d   1       2.753   1.518  -1.980  0.00  0.00     0.026 H 
ATOM     31  H   LIG d   1       3.792   1.467  -3.444  0.00  0.00     0.026 H 
ENDBRANCH  25  28
ENDBRANCH  24  25
ENDBRANCH  22  24
ENDBRANCH  19  22
ENDBRANCH   1  19
BRANCH   5  32
ATOM     32  C   LIG d   1       5.817  -3.775  -7.882  0.00  0.00     0.060 C 
ATOM     33  H   LIG d   1       6.313  -3.595  -8.847  0.00  0.00     0.039 H 
ATOM     34  H   LIG d   1       6.438  -4.446  -7.270  0.00  0.00     0.039 H 
BRANCH  32  35
ATOM     35  C   LIG d   1       4.472  -4.413  -8.119  0.00  0.00     0.308 C 
ATOM     36  O   LIG d   1       3.879  -4.206  -9.151  0.00  0.00    -0.251 OA
BRANCH  35  37
ATOM     37  O   LIG d   1       3.933  -5.209  -7.182  0.00  0.00    -0.465 OA
BRANCH  37  38
ATOM     38  C   LIG d   1       4.461  -6.557  -7.081  0.00  0.00     0.090 C 
ATOM     39  H   LIG d   1       3.693  -7.277  -7.400  0.00  0.00     0.069 H 
ATOM     40  H   LIG d   1       5.346  -6.655  -7.726  0.00  0.00     0.069 H 
BRANCH  38  41
ATOM     41  C   LIG d   1       4.855  -6.843  -5.630  0.00  0.00    -0.031 C 
ATOM     42  H   LIG d   1       3.958  -7.115  -5.054  0.00  0.00     0.026 H 
ATOM     43  H   LIG d   1       5.313  -5.944  -5.190  0.00  0.00     0.026 H 
ATOM     44  H   LIG d   1       5.575  -7.673  -5.602  0.00  0.00     0.026 H 
ENDBRANCH  38  41
ENDBRANCH  37  38
ENDBRANCH  35  37
ENDBRANCH  32  35
ENDBRANCH   5  32
BRANCH   9  45
ATOM     45  C   LIG d   1       2.883   0.128  -7.018  0.00  0.00    -0.013 C 
ATOM     46  H   LIG d   1       2.015  -0.447  -6.665  0.00  0.00     0.039 H 
ATOM     47  H   LIG d   1       2.830   0.239  -8.112  0.00  0.00     0.039 H 
ATOM     48  H   LIG d   1       2.880   1.124  -6.549  0.00  0.00     0.039 H 
ENDBRANCH   9  45
BRANCH   3  49
ATOM     49  C   LIG d   1       7.302   0.920  -7.369  0.00  0.00    -0.013 C 
ATOM     50  H   LIG d   1       7.495   1.655  -6.575  0.00  0.00     0.039 H 
ATOM     51  H   LIG d   1       6.788   1.414  -8.208  0.00  0.00     0.039 H 
ATOM     52  H   LIG d   1       8.257   0.501  -7.720  0.00  0.00     0.039 H 
ENDBRANCH   3  49
TORSDOF 12
ENDMDL
MODEL 9
REMARK VINA RESULT:      -4.4      2.750      5.779
REMARK  12 active torsions:
REMARK  status: ('A' for Active; 'I' for Inactive)
REMARK    1  A    between atoms: C_1  and  C_2 
REMARK    2  A    between atoms: C_2  and  O_3 
REMARK    3  A    between atoms: O_3  and  C_4 
REMARK    4  A    between atoms: C_4  and  C_6 
REMARK    5  A    between atoms: C_6  and  C_7 
REMARK    6  A    between atoms: N_9  and  C_24 
REMARK    7  A    between atoms: C_11  and  C_18 
REMARK    8  A    between atoms: N_15  and  C_17 
REMARK    9  A    between atoms: C_18  and  C_19 
REMARK   10  A    between atoms: C_19  and  O_21 
REMARK   11  A    between atoms: O_21  and  C_22 
REMARK   12  A    between atoms: C_22  and  C_23 
ROOT
ATOM      1  C   LIG d   1       6.584  -0.093  -4.616  0.00  0.00     0.065 C 
ATOM      2  C   LIG d   1       7.590   0.360  -5.687  0.00  0.00     0.013 C 
ATOM      3  N   LIG d   1       7.563  -0.587  -6.808  0.00  0.00    -0.303 N 
ATOM      4  C   LIG d   1       7.998  -1.932  -6.412  0.00  0.00     0.013 C 
ATOM      5  C   LIG d   1       7.011  -2.499  -5.378  0.00  0.00     0.065 C 
ATOM      6  C   LIG d   1       6.980  -1.511  -4.217  0.00  0.00     0.151 C 
ATOM      7  O   LIG d   1       7.242  -1.824  -3.080  0.00  0.00    -0.296 OA
ATOM      8  C   LIG d   1       5.608  -2.485  -6.005  0.00  0.00     0.013 C 
ATOM      9  N   LIG d   1       5.275  -1.116  -6.417  0.00  0.00    -0.303 N 
ATOM     10  C   LIG d   1       5.200  -0.194  -5.279  0.00  0.00     0.013 C 
ATOM     11  H   LIG d   1       7.316   1.364  -6.045  0.00  0.00     0.044 H 
ATOM     12  H   LIG d   1       8.600   0.389  -5.252  0.00  0.00     0.044 H 
ATOM     13  H   LIG d   1       8.021  -2.584  -7.297  0.00  0.00     0.044 H 
ATOM     14  H   LIG d   1       9.004  -1.876  -5.970  0.00  0.00     0.044 H 
ATOM     15  H   LIG d   1       5.591  -3.149  -6.882  0.00  0.00     0.044 H 
ATOM     16  H   LIG d   1       4.873  -2.836  -5.266  0.00  0.00     0.044 H 
ATOM     17  H   LIG d   1       4.470  -0.571  -4.547  0.00  0.00     0.044 H 
ATOM     18  H   LIG d   1       4.888   0.801  -5.629  0.00  0.00     0.044 H 
ENDROOT
BRANCH   1  19
ATOM     19  C   LIG d   1       6.577   0.852  -3.414  0.00  0.00     0.060 C 
ATOM     20  H   LIG d   1       6.927   1.847  -3.727  0.00  0.00     0.039 H 
ATOM     21  H   LIG d   1       7.245   0.457  -2.634  0.00  0.00     0.039 H 
BRANCH  19  22
ATOM     22  C   LIG d   1       5.177   0.960  -2.867  0.00  0.00     0.308 C 
ATOM     23  O   LIG d   1       4.463   1.872  -3.210  0.00  0.00    -0.251 OA
BRANCH  22  24
ATOM     24  O   LIG d   1       4.723   0.043  -1.997  0.00  0.00    -0.465 OA
BRANCH  24  25
ATOM     25  C   LIG d   1       3.522  -0.682  -2.371  0.00  0.00     0.090 C 
ATOM     26  H   LIG d   1       3.186  -0.349  -3.364  0.00  0.00     0.069 H 
ATOM     27  H   LIG d   1       2.730  -0.486  -1.632  0.00  0.00     0.069 H 
BRANCH  25  28
ATOM     28  C   LIG d   1       3.823  -2.182  -2.411  0.00  0.00    -0.031 C 
ATOM     29  H   LIG d   1       4.691  -2.399  -1.773  0.00  0.00     0.026 H 
ATOM     30  H   LIG d   1       4.043  -2.483  -3.446  0.00  0.00     0.026 H 
ATOM     31  H   LIG d   1       2.949  -2.740  -2.045  0.00  0.00     0.026 H 
ENDBRANCH  25  28
ENDBRANCH  24  25
ENDBRANCH  22  24
ENDBRANCH  19  22
ENDBRANCH   1  19
BRANCH   5  32
ATOM     32  C   LIG d   1       7.421  -3.899  -4.918  0.00  0.00     0.060 C 
ATOM     33  H   LIG d   1       7.200  -4.011  -3.846  0.00  0.00     0.039 H 
ATOM     34  H   LIG d   1       6.859  -4.652  -5.489  0.00  0.00     0.039 H 
BRANCH  32  35
ATOM     35  C   LIG d   1       8.898  -4.091  -5.149  0.00  0.00     0.308 C 
ATOM     36  O   LIG d   1       9.281  -4.753  -6.084  0.00  0.00    -0.251 OA
BRANCH  35  37
ATOM     37  O   LIG d   1       9.787  -3.528  -4.315  0.00  0.00    -0.465 OA
BRANCH  37  38
ATOM     38  C   LIG d   1      10.411  -4.396  -3.334  0.00  0.00     0.090 C 
ATOM     39  H   LIG d   1      10.414  -5.430  -3.709  0.00  0.00     0.069 H 
ATOM     40  H   LIG d   1      11.445  -4.067  -3.157  0.00  0.00     0.069 H 
BRANCH  38  41
ATOM     41  C   LIG d   1       9.624  -4.331  -2.023  0.00  0.00    -0.031 C 
ATOM     42  H   LIG d   1      10.057  -5.040  -1.301  0.00  0.00     0.026 H 
ATOM     43  H   LIG d   1       8.574  -4.597  -2.212  0.00  0.00     0.026 H 
ATOM     44  H   LIG d   1       9.677  -3.312  -1.613  0.00  0.00     0.026 H 
ENDBRANCH  38  41
ENDBRANCH  37  38
ENDBRANCH  35  37
ENDBRANCH  32  35
ENDBRANCH   5  32
BRANCH   9  45
ATOM     45  C   LIG d   1       4.031  -1.089  -7.199  0.00  0.00    -0.013 C 
ATOM     46  H   LIG d   1       3.200  -1.454  -6.579  0.00  0.00     0.039 H 
ATOM     47  H   LIG d   1       4.140  -1.735  -8.084  0.00  0.00     0.039 H 
ATOM     48  H   LIG d   1       3.824  -0.058  -7.522  0.00  0.00     0.039 H 
ENDBRANCH   9  45
BRANCH   3  49
ATOM     49  C   LIG d   1       8.359  -0.088  -7.938  0.00  0.00    -0.013 C 
ATOM     50  H   LIG d   1       9.400  -0.427  -7.832  0.00  0.00     0.039 H 
ATOM     51  H   LIG d   1       8.331   1.012  -7.948  0.00  0.00     0.039 H 
ATOM     52  H   LIG d   1       7.942  -0.474  -8.880  0.00  0.00     0.039 H 
ENDBRANCH   3  49
TORSDOF 12
ENDMDL
MODEL 10
REMARK VINA RESULT:      -4.2      3.311      5.570
REMARK  12 active torsions:
REMARK  status: ('A' for Active; 'I' for Inactive)
REMARK    1  A    between atoms: C_1  and  C_2 
REMARK    2  A    between atoms: C_2  and  O_3 
REMARK    3  A    between atoms: O_3  and  C_4 
REMARK    4  A    between atoms: C_4  and  C_6 
REMARK    5  A    between atoms: C_6  and  C_7 
REMARK    6  A    between atoms: N_9  and  C_24 
REMARK    7  A    between atoms: C_11  and  C_18 
REMARK    8  A    between atoms: N_15  and  C_17 
REMARK    9  A    between atoms: C_18  and  C_19 
REMARK   10  A    between atoms: C_19  and  O_21 
REMARK   11  A    between atoms: O_21  and  C_22 
REMARK   12  A    between atoms: C_22  and  C_23 
ROOT
ATOM      1  C   LIG d   1       5.511  -4.101  -5.796  0.00  0.00     0.065 C 
ATOM      2  C   LIG d   1       5.903  -3.312  -7.055  0.00  0.00     0.013 C 
ATOM      3  N   LIG d   1       7.087  -2.494  -6.765  0.00  0.00    -0.303 N 
ATOM      4  C   LIG d   1       6.826  -1.480  -5.737  0.00  0.00     0.013 C 
ATOM      5  C   LIG d   1       6.481  -2.179  -4.412  0.00  0.00     0.065 C 
ATOM      6  C   LIG d   1       5.278  -3.075  -4.691  0.00  0.00     0.151 C 
ATOM      7  O   LIG d   1       4.236  -2.983  -4.088  0.00  0.00    -0.296 OA
ATOM      8  C   LIG d   1       7.648  -3.111  -4.049  0.00  0.00     0.013 C 
ATOM      9  N   LIG d   1       7.874  -4.056  -5.149  0.00  0.00    -0.303 N 
ATOM     10  C   LIG d   1       6.724  -4.942  -5.366  0.00  0.00     0.013 C 
ATOM     11  H   LIG d   1       6.130  -4.013  -7.871  0.00  0.00     0.044 H 
ATOM     12  H   LIG d   1       5.069  -2.659  -7.354  0.00  0.00     0.044 H 
ATOM     13  H   LIG d   1       7.721  -0.856  -5.603  0.00  0.00     0.044 H 
ATOM     14  H   LIG d   1       5.982  -0.849  -6.052  0.00  0.00     0.044 H 
ATOM     15  H   LIG d   1       8.557  -2.513  -3.885  0.00  0.00     0.044 H 
ATOM     16  H   LIG d   1       7.403  -3.665  -3.131  0.00  0.00     0.044 H 
ATOM     17  H   LIG d   1       6.489  -5.475  -4.433  0.00  0.00     0.044 H 
ATOM     18  H   LIG d   1       6.963  -5.670  -6.155  0.00  0.00     0.044 H 
ENDROOT
BRANCH   1  19
ATOM     19  C   LIG d   1       4.270  -4.964  -6.035  0.00  0.00     0.060 C 
ATOM     20  H   LIG d   1       3.744  -4.607  -6.933  0.00  0.00     0.039 H 
ATOM     21  H   LIG d   1       3.601  -4.892  -5.165  0.00  0.00     0.039 H 
BRANCH  19  22
ATOM     22  C   LIG d   1       4.686  -6.398  -6.232  0.00  0.00     0.308 C 
ATOM     23  O   LIG d   1       5.103  -6.764  -7.305  0.00  0.00    -0.251 OA
BRANCH  22  24
ATOM     24  O   LIG d   1       4.592  -7.271  -5.216  0.00  0.00    -0.465 OA
BRANCH  24  25
ATOM     25  C   LIG d   1       5.020  -8.633  -5.475  0.00  0.00     0.090 C 
ATOM     26  H   LIG d   1       5.393  -8.711  -6.508  0.00  0.00     0.069 H 
ATOM     27  H   LIG d   1       4.169  -9.317  -5.341  0.00  0.00     0.069 H 
BRANCH  25  28
ATOM     28  C   LIG d   1       6.137  -9.012  -4.500  0.00  0.00    -0.031 C 
ATOM     29  H   LIG d   1       7.032  -9.309  -5.065  0.00  0.00     0.026 H 
ATOM     30  H   LIG d   1       5.805  -9.851  -3.871  0.00  0.00     0.026 H 
ATOM     31  H   LIG d   1       6.375  -8.148  -3.862  0.00  0.00     0.026 H 
ENDBRANCH  25  28
ENDBRANCH  24  25
ENDBRANCH  22  24
ENDBRANCH  19  22
ENDBRANCH   1  19
BRANCH   5  32
ATOM     32  C   LIG d   1       6.185  -1.168  -3.302  0.00  0.00     0.060 C 
ATOM     33  H   LIG d   1       5.330  -1.518  -2.706  0.00  0.00     0.039 H 
ATOM     34  H   LIG d   1       7.068  -1.068  -2.654  0.00  0.00     0.039 H 
BRANCH  32  35
ATOM     35  C   LIG d   1       5.858   0.169  -3.915  0.00  0.00     0.308 C 
ATOM     36  O   LIG d   1       6.630   1.092  -3.799  0.00  0.00    -0.251 OA
BRANCH  35  37
ATOM     37  O   LIG d   1       4.709   0.335  -4.589  0.00  0.00    -0.465 OA
BRANCH  37  38
ATOM     38  C   LIG d   1       3.490   0.409  -3.803  0.00  0.00     0.090 C 
ATOM     39  H   LIG d   1       3.453  -0.439  -3.103  0.00  0.00     0.069 H 
ATOM     40  H   LIG d   1       3.474   1.352  -3.238  0.00  0.00     0.069 H 
BRANCH  38  41
ATOM     41  C   LIG d   1       2.278   0.353  -4.736  0.00  0.00    -0.031 C 
ATOM     42  H   LIG d   1       2.443   1.025  -5.591  0.00  0.00     0.026 H 
ATOM     43  H   LIG d   1       1.379   0.671  -4.188  0.00  0.00     0.026 H 
ATOM     44  H   LIG d   1       2.142  -0.676  -5.098  0.00  0.00     0.026 H 
ENDBRANCH  38  41
ENDBRANCH  37  38
ENDBRANCH  35  37
ENDBRANCH  32  35
ENDBRANCH   5  32
BRANCH   9  45
ATOM     45  C   LIG d   1       9.102  -4.832  -4.933  0.00  0.00    -0.013 C 
ATOM     46  H   LIG d   1       9.978  -4.194  -5.123  0.00  0.00     0.039 H 
ATOM     47  H   LIG d   1       9.119  -5.691  -5.621  0.00  0.00     0.039 H 
ATOM     48  H   LIG d   1       9.130  -5.193  -3.894  0.00  0.00     0.039 H 
ENDBRANCH   9  45
BRANCH   3  49
ATOM     49  C   LIG d   1       7.615  -1.878  -7.990  0.00  0.00    -0.013 C 
ATOM     50  H   LIG d   1       8.183  -0.974  -7.731  0.00  0.00     0.039 H 
ATOM     51  H   LIG d   1       6.779  -1.609  -8.654  0.00  0.00     0.039 H 
ATOM     52  H   LIG d   1       8.276  -2.593  -8.504  0.00  0.00     0.039 H 
ENDBRANCH   3  49
TORSDOF 12
ENDMDL
