MODEL 1
REMARK VINA RESULT:      -6.6      0.000      0.000
REMARK  6 active torsions:
REMARK  status: ('A' for Active; 'I' for Inactive)
REMARK    1  A    between atoms: C_1  and  C_2 
REMARK    2  A    between atoms: C_17  and  C_29 
REMARK    3  A    between atoms: C_22  and  C_23 
REMARK    4  A    between atoms: C_22  and  O_28 
REMARK    5  A    between atoms: C_23  and  C_24 
REMARK    6  A    between atoms: C_24  and  C_25 
ROOT
ATOM      1  C   LIG d   1       5.648  -4.190  -6.052  0.00  0.00    -0.003 C 
ATOM      2  C   LIG d   1       5.584  -4.284  -7.578  0.00  0.00    -0.036 C 
ATOM      3  C   LIG d   1       6.644  -5.266  -8.086  0.00  0.00     0.011 C 
ATOM      4  C   LIG d   1       7.997  -4.835  -7.584  0.00  0.00     0.156 C 
ATOM      5  O   LIG d   1       8.989  -5.081  -8.239  0.00  0.00    -0.293 OA
ATOM      6  C   LIG d   1       8.121  -4.148  -6.366  0.00  0.00    -0.015 C 
ATOM      7  C   LIG d   1       7.041  -3.820  -5.616  0.00  0.00    -0.038 C 
ATOM      8  C   LIG d   1       7.234  -3.086  -4.367  0.00  0.00    -0.062 C 
ATOM      9  C   LIG d   1       6.196  -2.681  -3.635  0.00  0.00    -0.080 C 
ATOM     10  C   LIG d   1       4.782  -2.951  -4.051  0.00  0.00    -0.016 C 
ATOM     11  H   LIG d   1       4.478  -3.904  -3.588  0.00  0.00     0.035 H 
ATOM     12  C   LIG d   1       4.679  -3.107  -5.565  0.00  0.00    -0.025 C 
ATOM     13  H   LIG d   1       3.659  -3.371  -5.842  0.00  0.00     0.032 H 
ATOM     14  C   LIG d   1       5.060  -1.767  -6.207  0.00  0.00    -0.048 C 
ATOM     15  C   LIG d   1       4.035  -0.717  -5.803  0.00  0.00    -0.044 C 
ATOM     16  C   LIG d   1       3.831  -0.578  -4.317  0.00  0.00     0.000 C 
ATOM     17  C   LIG d   1       3.821  -1.890  -3.535  0.00  0.00    -0.026 C 
ATOM     18  H   LIG d   1       2.789  -2.308  -3.522  0.00  0.00     0.031 H 
ATOM     19  C   LIG d   1       4.245  -1.500  -2.097  0.00  0.00    -0.046 C 
ATOM     20  C   LIG d   1       5.095  -0.226  -2.234  0.00  0.00    -0.023 C 
ATOM     21  C   LIG d   1       4.783   0.386  -3.613  0.00  0.00     0.072 C 
ATOM     22  H   LIG d   1       4.594  -4.629  -7.881  0.00  0.00     0.028 H 
ATOM     23  H   LIG d   1       5.771  -3.302  -8.018  0.00  0.00     0.028 H 
ATOM     24  H   LIG d   1       6.426  -6.276  -7.750  0.00  0.00     0.035 H 
ATOM     25  H   LIG d   1       6.648  -5.250  -9.180  0.00  0.00     0.035 H 
ATOM     26  H   LIG d   1       9.105  -3.873  -6.018  0.00  0.00     0.066 H 
ATOM     27  H   LIG d   1       8.236  -2.873  -4.029  0.00  0.00     0.062 H 
ATOM     28  H   LIG d   1       6.399  -2.162  -2.710  0.00  0.00     0.058 H 
ATOM     29  H   LIG d   1       6.063  -1.483  -5.901  0.00  0.00     0.027 H 
ATOM     30  H   LIG d   1       5.046  -1.872  -7.297  0.00  0.00     0.027 H 
ATOM     31  H   LIG d   1       4.295   0.244  -6.244  0.00  0.00     0.027 H 
ATOM     32  H   LIG d   1       3.066  -1.007  -6.247  0.00  0.00     0.027 H 
ATOM     33  H   LIG d   1       3.361  -1.300  -1.479  0.00  0.00     0.027 H 
ATOM     34  H   LIG d   1       4.823  -2.302  -1.630  0.00  0.00     0.027 H 
ATOM     35  H   LIG d   1       4.830   0.488  -1.448  0.00  0.00     0.029 H 
ATOM     36  H   LIG d   1       6.156  -0.459  -2.159  0.00  0.00     0.029 H 
ENDROOT
BRANCH  21  37
ATOM     37  C   LIG d   1       6.077   0.623  -4.384  0.00  0.00    -0.018 C 
ATOM     38  H   LIG d   1       6.329  -0.269  -4.956  0.00  0.00     0.030 H 
ATOM     39  H   LIG d   1       5.947   1.466  -5.063  0.00  0.00     0.030 H 
BRANCH  37  40
ATOM     40  C   LIG d   1       7.208   0.932  -3.400  0.00  0.00    -0.011 C 
ATOM     41  H   LIG d   1       6.783   1.247  -2.446  0.00  0.00     0.033 H 
ATOM     42  H   LIG d   1       7.814   0.039  -3.251  0.00  0.00     0.033 H 
BRANCH  40  43
ATOM     43  C   LIG d   1       8.069   2.038  -3.955  0.00  0.00     0.042 C 
ATOM     44  O   LIG d   1       8.897   2.581  -3.242  0.00  0.00    -0.550 OA
ATOM     45  O   LIG d   1       7.938   2.389  -5.114  0.00  0.00    -0.550 OA
ENDBRANCH  40  43
ENDBRANCH  37  40
ENDBRANCH  21  37
BRANCH  21  46
ATOM     46  O   LIG d   1       4.117   1.648  -3.421  0.00  0.00    -0.388 OA
ATOM     47  H   LIG d   1       4.654   2.310  -2.965  0.00  0.00     0.210 HD
ENDBRANCH  21  46
BRANCH  16  48
ATOM     48  C   LIG d   1       2.409   0.033  -4.151  0.00  0.00    -0.057 C 
ATOM     49  H   LIG d   1       1.681  -0.599  -4.660  0.00  0.00     0.024 H 
ATOM     50  H   LIG d   1       2.162   0.091  -3.091  0.00  0.00     0.024 H 
ATOM     51  H   LIG d   1       2.391   1.032  -4.585  0.00  0.00     0.024 H 
ENDBRANCH  16  48
BRANCH   1  52
ATOM     52  C   LIG d   1       5.256  -5.541  -5.446  0.00  0.00    -0.055 C 
ATOM     53  H   LIG d   1       6.152  -6.054  -5.095  0.00  0.00     0.024 H 
ATOM     54  H   LIG d   1       4.577  -5.380  -4.609  0.00  0.00     0.024 H 
ATOM     55  H   LIG d   1       4.763  -6.149  -6.204  0.00  0.00     0.024 H 
ENDBRANCH   1  52
TORSDOF 6
ENDMDL
MODEL 2
REMARK VINA RESULT:      -6.2      2.684      4.355
REMARK  6 active torsions:
REMARK  status: ('A' for Active; 'I' for Inactive)
REMARK    1  A    between atoms: C_1  and  C_2 
REMARK    2  A    between atoms: C_17  and  C_29 
REMARK    3  A    between atoms: C_22  and  C_23 
REMARK    4  A    between atoms: C_22  and  O_28 
REMARK    5  A    between atoms: C_23  and  C_24 
REMARK    6  A    between atoms: C_24  and  C_25 
ROOT
ATOM      1  C   LIG d   1       3.962  -1.316  -8.397  0.00  0.00    -0.003 C 
ATOM      2  C   LIG d   1       2.660  -0.609  -8.780  0.00  0.00    -0.036 C 
ATOM      3  C   LIG d   1       2.775  -0.033 -10.194  0.00  0.00     0.011 C 
ATOM      4  C   LIG d   1       3.973   0.877 -10.260  0.00  0.00     0.156 C 
ATOM      5  O   LIG d   1       3.972   1.820 -11.025  0.00  0.00    -0.293 OA
ATOM      6  C   LIG d   1       5.090   0.647  -9.441  0.00  0.00    -0.015 C 
ATOM      7  C   LIG d   1       5.125  -0.370  -8.548  0.00  0.00    -0.038 C 
ATOM      8  C   LIG d   1       6.308  -0.545  -7.708  0.00  0.00    -0.062 C 
ATOM      9  C   LIG d   1       6.356  -1.487  -6.767  0.00  0.00    -0.080 C 
ATOM     10  C   LIG d   1       5.204  -2.412  -6.515  0.00  0.00    -0.016 C 
ATOM     11  H   LIG d   1       5.360  -3.310  -7.136  0.00  0.00     0.035 H 
ATOM     12  C   LIG d   1       3.887  -1.769  -6.935  0.00  0.00    -0.025 C 
ATOM     13  H   LIG d   1       3.071  -2.480  -6.809  0.00  0.00     0.032 H 
ATOM     14  C   LIG d   1       3.650  -0.546  -6.041  0.00  0.00    -0.048 C 
ATOM     15  C   LIG d   1       3.472  -1.012  -4.603  0.00  0.00    -0.044 C 
ATOM     16  C   LIG d   1       4.594  -1.870  -4.078  0.00  0.00     0.000 C 
ATOM     17  C   LIG d   1       5.157  -2.886  -5.070  0.00  0.00    -0.026 C 
ATOM     18  H   LIG d   1       4.564  -3.828  -5.014  0.00  0.00     0.031 H 
ATOM     19  C   LIG d   1       6.605  -3.151  -4.590  0.00  0.00    -0.046 C 
ATOM     20  C   LIG d   1       7.044  -1.883  -3.839  0.00  0.00    -0.023 C 
ATOM     21  C   LIG d   1       5.767  -1.109  -3.463  0.00  0.00     0.072 C 
ATOM     22  H   LIG d   1       1.834  -1.323  -8.745  0.00  0.00     0.028 H 
ATOM     23  H   LIG d   1       2.460   0.205  -8.081  0.00  0.00     0.028 H 
ATOM     24  H   LIG d   1       2.871  -0.828 -10.929  0.00  0.00     0.035 H 
ATOM     25  H   LIG d   1       1.874   0.547 -10.416  0.00  0.00     0.035 H 
ATOM     26  H   LIG d   1       5.945   1.300  -9.526  0.00  0.00     0.066 H 
ATOM     27  H   LIG d   1       7.162   0.098  -7.858  0.00  0.00     0.062 H 
ATOM     28  H   LIG d   1       7.265  -1.585  -6.192  0.00  0.00     0.058 H 
ATOM     29  H   LIG d   1       4.481   0.147  -6.135  0.00  0.00     0.027 H 
ATOM     30  H   LIG d   1       2.734  -0.036  -6.361  0.00  0.00     0.027 H 
ATOM     31  H   LIG d   1       3.311  -0.154  -3.951  0.00  0.00     0.027 H 
ATOM     32  H   LIG d   1       2.546  -1.611  -4.557  0.00  0.00     0.027 H 
ATOM     33  H   LIG d   1       6.633  -4.017  -3.918  0.00  0.00     0.027 H 
ATOM     34  H   LIG d   1       7.267  -3.346  -5.438  0.00  0.00     0.027 H 
ATOM     35  H   LIG d   1       7.588  -2.156  -2.929  0.00  0.00     0.029 H 
ATOM     36  H   LIG d   1       7.687  -1.265  -4.465  0.00  0.00     0.029 H 
ENDROOT
BRANCH  21  37
ATOM     37  C   LIG d   1       5.868   0.334  -3.949  0.00  0.00    -0.018 C 
ATOM     38  H   LIG d   1       6.863   0.510  -4.358  0.00  0.00     0.030 H 
ATOM     39  H   LIG d   1       5.121   0.511  -4.722  0.00  0.00     0.030 H 
BRANCH  37  40
ATOM     40  C   LIG d   1       5.623   1.286  -2.776  0.00  0.00    -0.011 C 
ATOM     41  H   LIG d   1       5.952   0.812  -1.849  0.00  0.00     0.033 H 
ATOM     42  H   LIG d   1       6.186   2.207  -2.932  0.00  0.00     0.033 H 
BRANCH  40  43
ATOM     43  C   LIG d   1       4.153   1.603  -2.684  0.00  0.00     0.042 C 
ATOM     44  O   LIG d   1       3.477   1.109  -1.797  0.00  0.00    -0.550 OA
ATOM     45  O   LIG d   1       3.639   2.352  -3.497  0.00  0.00    -0.550 OA
ENDBRANCH  40  43
ENDBRANCH  37  40
ENDBRANCH  21  37
BRANCH  21  46
ATOM     46  O   LIG d   1       5.628  -1.109  -2.031  0.00  0.00    -0.388 OA
ATOM     47  H   LIG d   1       5.693  -0.232  -1.629  0.00  0.00     0.210 HD
ENDBRANCH  21  46
BRANCH  16  48
ATOM     48  C   LIG d   1       3.972  -2.699  -2.917  0.00  0.00    -0.057 C 
ATOM     49  H   LIG d   1       3.440  -3.557  -3.329  0.00  0.00     0.024 H 
ATOM     50  H   LIG d   1       4.764  -3.046  -2.255  0.00  0.00     0.024 H 
ATOM     51  H   LIG d   1       3.276  -2.074  -2.357  0.00  0.00     0.024 H 
ENDBRANCH  16  48
BRANCH   1  52
ATOM     52  C   LIG d   1       4.163  -2.533  -9.304  0.00  0.00    -0.055 C 
ATOM     53  H   LIG d   1       4.402  -3.404  -8.694  0.00  0.00     0.024 H 
ATOM     54  H   LIG d   1       3.249  -2.722  -9.867  0.00  0.00     0.024 H 
ATOM     55  H   LIG d   1       4.983  -2.338  -9.995  0.00  0.00     0.024 H 
ENDBRANCH   1  52
TORSDOF 6
ENDMDL
MODEL 3
REMARK VINA RESULT:      -6.1      4.881      6.859
REMARK  6 active torsions:
REMARK  status: ('A' for Active; 'I' for Inactive)
REMARK    1  A    between atoms: C_1  and  C_2 
REMARK    2  A    between atoms: C_17  and  C_29 
REMARK    3  A    between atoms: C_22  and  C_23 
REMARK    4  A    between atoms: C_22  and  O_28 
REMARK    5  A    between atoms: C_23  and  C_24 
REMARK    6  A    between atoms: C_24  and  C_25 
ROOT
ATOM      1  C   LIG d   1       2.603  -2.564 -11.999  0.00  0.00    -0.003 C 
ATOM      2  C   LIG d   1       3.102  -4.002 -12.153  0.00  0.00    -0.036 C 
ATOM      3  C   LIG d   1       1.933  -4.926 -12.503  0.00  0.00     0.011 C 
ATOM      4  C   LIG d   1       0.864  -4.791 -11.451  0.00  0.00     0.156 C 
ATOM      5  O   LIG d   1       0.146  -5.736 -11.197  0.00  0.00    -0.293 OA
ATOM      6  C   LIG d   1       0.694  -3.582 -10.758  0.00  0.00    -0.015 C 
ATOM      7  C   LIG d   1       1.493  -2.511 -10.981  0.00  0.00    -0.038 C 
ATOM      8  C   LIG d   1       1.278  -1.286 -10.214  0.00  0.00    -0.062 C 
ATOM      9  C   LIG d   1       2.085  -0.234 -10.349  0.00  0.00    -0.080 C 
ATOM     10  C   LIG d   1       3.252  -0.248 -11.289  0.00  0.00    -0.016 C 
ATOM     11  H   LIG d   1       2.903   0.150 -12.255  0.00  0.00     0.035 H 
ATOM     12  C   LIG d   1       3.751  -1.671 -11.516  0.00  0.00    -0.025 C 
ATOM     13  H   LIG d   1       4.553  -1.669 -12.254  0.00  0.00     0.032 H 
ATOM     14  C   LIG d   1       4.277  -2.209 -10.180  0.00  0.00    -0.048 C 
ATOM     15  C   LIG d   1       5.484  -1.383  -9.756  0.00  0.00    -0.044 C 
ATOM     16  C   LIG d   1       5.238   0.102  -9.695  0.00  0.00     0.000 C 
ATOM     17  C   LIG d   1       4.375   0.667 -10.822  0.00  0.00    -0.026 C 
ATOM     18  H   LIG d   1       5.020   0.925 -11.691  0.00  0.00     0.031 H 
ATOM     19  C   LIG d   1       3.747   1.956 -10.234  0.00  0.00    -0.046 C 
ATOM     20  C   LIG d   1       3.695   1.749  -8.712  0.00  0.00    -0.023 C 
ATOM     21  C   LIG d   1       4.684   0.619  -8.369  0.00  0.00     0.072 C 
ATOM     22  H   LIG d   1       3.850  -4.044 -12.948  0.00  0.00     0.028 H 
ATOM     23  H   LIG d   1       3.554  -4.339 -11.218  0.00  0.00     0.028 H 
ATOM     24  H   LIG d   1       1.527  -4.682 -13.481  0.00  0.00     0.035 H 
ATOM     25  H   LIG d   1       2.290  -5.961 -12.517  0.00  0.00     0.035 H 
ATOM     26  H   LIG d   1      -0.096  -3.504 -10.027  0.00  0.00     0.066 H 
ATOM     27  H   LIG d   1       0.447  -1.231  -9.527  0.00  0.00     0.062 H 
ATOM     28  H   LIG d   1       1.865   0.653  -9.772  0.00  0.00     0.058 H 
ATOM     29  H   LIG d   1       3.490  -2.176  -9.433  0.00  0.00     0.027 H 
ATOM     30  H   LIG d   1       4.592  -3.251 -10.308  0.00  0.00     0.027 H 
ATOM     31  H   LIG d   1       5.867  -1.746  -8.804  0.00  0.00     0.027 H 
ATOM     32  H   LIG d   1       6.285  -1.557 -10.496  0.00  0.00     0.027 H 
ATOM     33  H   LIG d   1       4.367   2.827 -10.476  0.00  0.00     0.027 H 
ATOM     34  H   LIG d   1       2.744   2.119 -10.637  0.00  0.00     0.027 H 
ATOM     35  H   LIG d   1       3.996   2.667  -8.198  0.00  0.00     0.029 H 
ATOM     36  H   LIG d   1       2.690   1.476  -8.392  0.00  0.00     0.029 H 
ENDROOT
BRANCH  21  37
ATOM     37  C   LIG d   1       3.983  -0.459  -7.549  0.00  0.00    -0.018 C 
ATOM     38  H   LIG d   1       3.600  -1.231  -8.215  0.00  0.00     0.030 H 
ATOM     39  H   LIG d   1       4.691  -0.901  -6.848  0.00  0.00     0.030 H 
BRANCH  37  40
ATOM     40  C   LIG d   1       2.821   0.166  -6.773  0.00  0.00    -0.011 C 
ATOM     41  H   LIG d   1       2.657   1.186  -7.123  0.00  0.00     0.033 H 
ATOM     42  H   LIG d   1       1.918  -0.423  -6.934  0.00  0.00     0.033 H 
BRANCH  40  43
ATOM     43  C   LIG d   1       3.152   0.187  -5.303  0.00  0.00     0.042 C 
ATOM     44  O   LIG d   1       2.256   0.133  -4.476  0.00  0.00    -0.550 OA
ATOM     45  O   LIG d   1       4.313   0.259  -4.940  0.00  0.00    -0.550 OA
ENDBRANCH  40  43
ENDBRANCH  37  40
ENDBRANCH  21  37
BRANCH  21  46
ATOM     46  O   LIG d   1       5.764   1.167  -7.591  0.00  0.00    -0.388 OA
ATOM     47  H   LIG d   1       6.565   0.625  -7.592  0.00  0.00     0.210 HD
ENDBRANCH  21  46
BRANCH  16  48
ATOM     48  C   LIG d   1       6.639   0.760  -9.855  0.00  0.00    -0.057 C 
ATOM     49  H   LIG d   1       7.403   0.084  -9.471  0.00  0.00     0.024 H 
ATOM     50  H   LIG d   1       6.828   0.960 -10.909  0.00  0.00     0.024 H 
ATOM     51  H   LIG d   1       6.666   1.695  -9.296  0.00  0.00     0.024 H 
ENDBRANCH  16  48
BRANCH   1  52
ATOM     52  C   LIG d   1       2.091  -2.058 -13.350  0.00  0.00    -0.055 C 
ATOM     53  H   LIG d   1       2.805  -2.322 -14.131  0.00  0.00     0.024 H 
ATOM     54  H   LIG d   1       1.127  -2.518 -13.569  0.00  0.00     0.024 H 
ATOM     55  H   LIG d   1       1.978  -0.975 -13.313  0.00  0.00     0.024 H 
ENDBRANCH   1  52
TORSDOF 6
ENDMDL
MODEL 4
REMARK VINA RESULT:      -6.1      2.364      3.611
REMARK  6 active torsions:
REMARK  status: ('A' for Active; 'I' for Inactive)
REMARK    1  A    between atoms: C_1  and  C_2 
REMARK    2  A    between atoms: C_17  and  C_29 
REMARK    3  A    between atoms: C_22  and  C_23 
REMARK    4  A    between atoms: C_22  and  O_28 
REMARK    5  A    between atoms: C_23  and  C_24 
REMARK    6  A    between atoms: C_24  and  C_25 
ROOT
ATOM      1  C   LIG d   1       8.428  -2.943  -5.119  0.00  0.00    -0.003 C 
ATOM      2  C   LIG d   1       8.485  -4.308  -5.808  0.00  0.00    -0.036 C 
ATOM      3  C   LIG d   1       9.681  -4.363  -6.762  0.00  0.00     0.011 C 
ATOM      4  C   LIG d   1       9.586  -3.222  -7.739  0.00  0.00     0.156 C 
ATOM      5  O   LIG d   1      10.049  -3.344  -8.855  0.00  0.00    -0.293 OA
ATOM      6  C   LIG d   1       8.962  -2.019  -7.373  0.00  0.00    -0.015 C 
ATOM      7  C   LIG d   1       8.401  -1.847  -6.152  0.00  0.00    -0.038 C 
ATOM      8  C   LIG d   1       7.748  -0.578  -5.837  0.00  0.00    -0.062 C 
ATOM      9  C   LIG d   1       7.121  -0.391  -4.676  0.00  0.00    -0.080 C 
ATOM     10  C   LIG d   1       7.047  -1.467  -3.636  0.00  0.00    -0.016 C 
ATOM     11  H   LIG d   1       7.908  -1.333  -2.961  0.00  0.00     0.035 H 
ATOM     12  C   LIG d   1       7.155  -2.849  -4.273  0.00  0.00    -0.025 C 
ATOM     13  H   LIG d   1       7.169  -3.614  -3.497  0.00  0.00     0.032 H 
ATOM     14  C   LIG d   1       5.933  -3.051  -5.177  0.00  0.00    -0.048 C 
ATOM     15  C   LIG d   1       4.678  -3.061  -4.317  0.00  0.00    -0.044 C 
ATOM     16  C   LIG d   1       4.514  -1.853  -3.432  0.00  0.00     0.000 C 
ATOM     17  C   LIG d   1       5.797  -1.347  -2.776  0.00  0.00    -0.026 C 
ATOM     18  H   LIG d   1       5.962  -1.886  -1.816  0.00  0.00     0.031 H 
ATOM     19  C   LIG d   1       5.535   0.154  -2.494  0.00  0.00    -0.046 C 
ATOM     20  C   LIG d   1       4.494   0.607  -3.531  0.00  0.00    -0.023 C 
ATOM     21  C   LIG d   1       3.809  -0.661  -4.075  0.00  0.00     0.072 C 
ATOM     22  H   LIG d   1       8.585  -5.092  -5.053  0.00  0.00     0.028 H 
ATOM     23  H   LIG d   1       7.569  -4.474  -6.377  0.00  0.00     0.028 H 
ATOM     24  H   LIG d   1      10.617  -4.306  -6.212  0.00  0.00     0.035 H 
ATOM     25  H   LIG d   1       9.653  -5.308  -7.313  0.00  0.00     0.035 H 
ATOM     26  H   LIG d   1       8.930  -1.208  -8.084  0.00  0.00     0.066 H 
ATOM     27  H   LIG d   1       7.780   0.226  -6.557  0.00  0.00     0.062 H 
ATOM     28  H   LIG d   1       6.676   0.575  -4.489  0.00  0.00     0.058 H 
ATOM     29  H   LIG d   1       5.896  -2.267  -5.928  0.00  0.00     0.027 H 
ATOM     30  H   LIG d   1       6.018  -4.017  -5.688  0.00  0.00     0.027 H 
ATOM     31  H   LIG d   1       3.798  -3.196  -4.945  0.00  0.00     0.027 H 
ATOM     32  H   LIG d   1       4.727  -3.949  -3.663  0.00  0.00     0.027 H 
ATOM     33  H   LIG d   1       5.142   0.289  -1.480  0.00  0.00     0.027 H 
ATOM     34  H   LIG d   1       6.456   0.735  -2.592  0.00  0.00     0.027 H 
ATOM     35  H   LIG d   1       3.749   1.251  -3.057  0.00  0.00     0.029 H 
ATOM     36  H   LIG d   1       4.970   1.153  -4.345  0.00  0.00     0.029 H 
ENDROOT
BRANCH  21  37
ATOM     37  C   LIG d   1       3.871  -0.676  -5.599  0.00  0.00    -0.018 C 
ATOM     38  H   LIG d   1       4.846  -0.315  -5.927  0.00  0.00     0.030 H 
ATOM     39  H   LIG d   1       3.720  -1.694  -5.960  0.00  0.00     0.030 H 
BRANCH  37  40
ATOM     40  C   LIG d   1       2.776   0.232  -6.164  0.00  0.00    -0.011 C 
ATOM     41  H   LIG d   1       1.802  -0.238  -6.015  0.00  0.00     0.033 H 
ATOM     42  H   LIG d   1       2.798   1.192  -5.648  0.00  0.00     0.033 H 
BRANCH  40  43
ATOM     43  C   LIG d   1       3.010   0.447  -7.636  0.00  0.00     0.042 C 
ATOM     44  O   LIG d   1       3.811   1.288  -8.010  0.00  0.00    -0.550 OA
ATOM     45  O   LIG d   1       2.399  -0.219  -8.454  0.00  0.00    -0.550 OA
ENDBRANCH  40  43
ENDBRANCH  37  40
ENDBRANCH  21  37
BRANCH  21  46
ATOM     46  O   LIG d   1       2.429  -0.654  -3.666  0.00  0.00    -0.388 OA
ATOM     47  H   LIG d   1       1.890   0.015  -4.109  0.00  0.00     0.210 HD
ENDBRANCH  21  46
BRANCH  16  48
ATOM     48  C   LIG d   1       3.589  -2.315  -2.269  0.00  0.00    -0.057 C 
ATOM     49  H   LIG d   1       3.507  -1.517  -1.531  0.00  0.00     0.024 H 
ATOM     50  H   LIG d   1       2.600  -2.549  -2.662  0.00  0.00     0.024 H 
ATOM     51  H   LIG d   1       4.013  -3.203  -1.799  0.00  0.00     0.024 H 
ENDBRANCH  16  48
BRANCH   1  52
ATOM     52  C   LIG d   1       9.657  -2.778  -4.221  0.00  0.00    -0.055 C 
ATOM     53  H   LIG d   1      10.553  -3.054  -4.778  0.00  0.00     0.024 H 
ATOM     54  H   LIG d   1       9.735  -1.740  -3.898  0.00  0.00     0.024 H 
ATOM     55  H   LIG d   1       9.559  -3.424  -3.349  0.00  0.00     0.024 H 
ENDBRANCH   1  52
TORSDOF 6
ENDMDL
MODEL 5
REMARK VINA RESULT:      -5.9      1.981      5.977
REMARK  6 active torsions:
REMARK  status: ('A' for Active; 'I' for Inactive)
REMARK    1  A    between atoms: C_1  and  C_2 
REMARK    2  A    between atoms: C_17  and  C_29 
REMARK    3  A    between atoms: C_22  and  C_23 
REMARK    4  A    between atoms: C_22  and  O_28 
REMARK    5  A    between atoms: C_23  and  C_24 
REMARK    6  A    between atoms: C_24  and  C_25 
ROOT
ATOM      1  C   LIG d   1       4.841  -1.300  -3.198  0.00  0.00    -0.003 C 
ATOM      2  C   LIG d   1       5.326  -0.155  -2.307  0.00  0.00    -0.036 C 
ATOM      3  C   LIG d   1       4.176   0.817  -2.033  0.00  0.00     0.011 C 
ATOM      4  C   LIG d   1       3.612   1.298  -3.344  0.00  0.00     0.156 C 
ATOM      5  O   LIG d   1       3.117   2.404  -3.418  0.00  0.00    -0.293 OA
ATOM      6  C   LIG d   1       3.658   0.479  -4.483  0.00  0.00    -0.015 C 
ATOM      7  C   LIG d   1       4.231  -0.748  -4.460  0.00  0.00    -0.038 C 
ATOM      8  C   LIG d   1       4.266  -1.546  -5.684  0.00  0.00    -0.062 C 
ATOM      9  C   LIG d   1       4.882  -2.726  -5.725  0.00  0.00    -0.080 C 
ATOM     10  C   LIG d   1       5.573  -3.298  -4.524  0.00  0.00    -0.016 C 
ATOM     11  H   LIG d   1       4.842  -3.926  -3.990  0.00  0.00     0.035 H 
ATOM     12  C   LIG d   1       6.028  -2.192  -3.578  0.00  0.00    -0.025 C 
ATOM     13  H   LIG d   1       6.465  -2.628  -2.681  0.00  0.00     0.032 H 
ATOM     14  C   LIG d   1       7.078  -1.346  -4.307  0.00  0.00    -0.048 C 
ATOM     15  C   LIG d   1       8.299  -2.210  -4.590  0.00  0.00    -0.044 C 
ATOM     16  C   LIG d   1       8.006  -3.486  -5.335  0.00  0.00     0.000 C 
ATOM     17  C   LIG d   1       6.729  -4.210  -4.910  0.00  0.00    -0.026 C 
ATOM     18  H   LIG d   1       6.954  -4.893  -4.059  0.00  0.00     0.031 H 
ATOM     19  C   LIG d   1       6.310  -5.040  -6.149  0.00  0.00    -0.046 C 
ATOM     20  C   LIG d   1       6.886  -4.303  -7.370  0.00  0.00    -0.023 C 
ATOM     21  C   LIG d   1       7.998  -3.369  -6.857  0.00  0.00     0.072 C 
ATOM     22  H   LIG d   1       5.694  -0.560  -1.362  0.00  0.00     0.028 H 
ATOM     23  H   LIG d   1       6.135   0.384  -2.805  0.00  0.00     0.028 H 
ATOM     24  H   LIG d   1       3.397   0.338  -1.446  0.00  0.00     0.035 H 
ATOM     25  H   LIG d   1       4.561   1.676  -1.475  0.00  0.00     0.035 H 
ATOM     26  H   LIG d   1       3.224   0.838  -5.405  0.00  0.00     0.066 H 
ATOM     27  H   LIG d   1       3.778  -1.172  -6.572  0.00  0.00     0.062 H 
ATOM     28  H   LIG d   1       4.857  -3.282  -6.651  0.00  0.00     0.058 H 
ATOM     29  H   LIG d   1       6.656  -0.941  -5.222  0.00  0.00     0.027 H 
ATOM     30  H   LIG d   1       7.380  -0.511  -3.664  0.00  0.00     0.027 H 
ATOM     31  H   LIG d   1       9.054  -1.627  -5.116  0.00  0.00     0.027 H 
ATOM     32  H   LIG d   1       8.746  -2.487  -3.619  0.00  0.00     0.027 H 
ATOM     33  H   LIG d   1       6.725  -6.053  -6.089  0.00  0.00     0.027 H 
ATOM     34  H   LIG d   1       5.222  -5.112  -6.219  0.00  0.00     0.027 H 
ATOM     35  H   LIG d   1       7.308  -5.023  -8.077  0.00  0.00     0.029 H 
ATOM     36  H   LIG d   1       6.112  -3.723  -7.872  0.00  0.00     0.029 H 
ENDROOT
BRANCH  21  37
ATOM     37  C   LIG d   1       7.754  -1.946  -7.350  0.00  0.00    -0.018 C 
ATOM     38  H   LIG d   1       7.204  -1.388  -6.592  0.00  0.00     0.030 H 
ATOM     39  H   LIG d   1       8.710  -1.457  -7.539  0.00  0.00     0.030 H 
BRANCH  37  40
ATOM     40  C   LIG d   1       6.938  -1.987  -8.644  0.00  0.00    -0.011 C 
ATOM     41  H   LIG d   1       7.612  -2.100  -9.494  0.00  0.00     0.033 H 
ATOM     42  H   LIG d   1       6.248  -2.830  -8.612  0.00  0.00     0.033 H 
BRANCH  40  43
ATOM     43  C   LIG d   1       6.159  -0.705  -8.788  0.00  0.00     0.042 C 
ATOM     44  O   LIG d   1       6.309   0.194  -7.978  0.00  0.00    -0.550 OA
ATOM     45  O   LIG d   1       5.378  -0.567  -9.713  0.00  0.00    -0.550 OA
ENDBRANCH  40  43
ENDBRANCH  37  40
ENDBRANCH  21  37
BRANCH  21  46
ATOM     46  O   LIG d   1       9.262  -3.828  -7.370  0.00  0.00    -0.388 OA
ATOM     47  H   LIG d   1       9.979  -3.815  -6.721  0.00  0.00     0.210 HD
ENDBRANCH  21  46
BRANCH  16  48
ATOM     48  C   LIG d   1       9.180  -4.446  -4.989  0.00  0.00    -0.057 C 
ATOM     49  H   LIG d   1       9.729  -4.690  -5.899  0.00  0.00     0.024 H 
ATOM     50  H   LIG d   1       9.850  -3.960  -4.280  0.00  0.00     0.024 H 
ATOM     51  H   LIG d   1       8.784  -5.360  -4.548  0.00  0.00     0.024 H 
ENDBRANCH  16  48
BRANCH   1  52
ATOM     52  C   LIG d   1       3.800  -2.126  -2.437  0.00  0.00    -0.055 C 
ATOM     53  H   LIG d   1       2.982  -2.387  -3.110  0.00  0.00     0.024 H 
ATOM     54  H   LIG d   1       4.264  -3.037  -2.059  0.00  0.00     0.024 H 
ATOM     55  H   LIG d   1       3.412  -1.541  -1.604  0.00  0.00     0.024 H 
ENDBRANCH   1  52
TORSDOF 6
ENDMDL
MODEL 6
REMARK VINA RESULT:      -5.8      2.313      4.372
REMARK  6 active torsions:
REMARK  status: ('A' for Active; 'I' for Inactive)
REMARK    1  A    between atoms: C_1  and  C_2 
REMARK    2  A    between atoms: C_17  and  C_29 
REMARK    3  A    between atoms: C_22  and  C_23 
REMARK    4  A    between atoms: C_22  and  O_28 
REMARK    5  A    between atoms: C_23  and  C_24 
REMARK    6  A    between atoms: C_24  and  C_25 
ROOT
ATOM      1  C   LIG d   1       6.593  -5.514  -6.475  0.00  0.00    -0.003 C 
ATOM      2  C   LIG d   1       7.274  -6.736  -5.855  0.00  0.00    -0.036 C 
ATOM      3  C   LIG d   1       6.394  -7.975  -6.041  0.00  0.00     0.011 C 
ATOM      4  C   LIG d   1       5.032  -7.706  -5.455  0.00  0.00     0.156 C 
ATOM      5  O   LIG d   1       4.381  -8.623  -4.999  0.00  0.00    -0.293 OA
ATOM      6  C   LIG d   1       4.512  -6.403  -5.429  0.00  0.00    -0.015 C 
ATOM      7  C   LIG d   1       5.214  -5.342  -5.894  0.00  0.00    -0.038 C 
ATOM      8  C   LIG d   1       4.626  -4.006  -5.820  0.00  0.00    -0.062 C 
ATOM      9  C   LIG d   1       5.309  -2.927  -6.199  0.00  0.00    -0.080 C 
ATOM     10  C   LIG d   1       6.713  -3.021  -6.716  0.00  0.00    -0.016 C 
ATOM     11  H   LIG d   1       6.655  -3.120  -7.812  0.00  0.00     0.035 H 
ATOM     12  C   LIG d   1       7.415  -4.258  -6.165  0.00  0.00    -0.025 C 
ATOM     13  H   LIG d   1       8.407  -4.347  -6.605  0.00  0.00     0.032 H 
ATOM     14  C   LIG d   1       7.534  -4.098  -4.645  0.00  0.00    -0.048 C 
ATOM     15  C   LIG d   1       8.437  -2.911  -4.342  0.00  0.00    -0.044 C 
ATOM     16  C   LIG d   1       8.020  -1.622  -5.001  0.00  0.00     0.000 C 
ATOM     17  C   LIG d   1       7.512  -1.757  -6.435  0.00  0.00    -0.026 C 
ATOM     18  H   LIG d   1       8.373  -1.706  -7.141  0.00  0.00     0.031 H 
ATOM     19  C   LIG d   1       6.588  -0.532  -6.648  0.00  0.00    -0.046 C 
ATOM     20  C   LIG d   1       6.067  -0.144  -5.254  0.00  0.00    -0.023 C 
ATOM     21  C   LIG d   1       7.011  -0.784  -4.219  0.00  0.00     0.072 C 
ATOM     22  H   LIG d   1       8.239  -6.900  -6.338  0.00  0.00     0.028 H 
ATOM     23  H   LIG d   1       7.431  -6.570  -4.787  0.00  0.00     0.028 H 
ATOM     24  H   LIG d   1       6.303  -8.229  -7.093  0.00  0.00     0.035 H 
ATOM     25  H   LIG d   1       6.849  -8.817  -5.511  0.00  0.00     0.035 H 
ATOM     26  H   LIG d   1       3.523  -6.241  -5.026  0.00  0.00     0.066 H 
ATOM     27  H   LIG d   1       3.616  -3.893  -5.456  0.00  0.00     0.062 H 
ATOM     28  H   LIG d   1       4.817  -1.967  -6.143  0.00  0.00     0.058 H 
ATOM     29  H   LIG d   1       6.548  -3.971  -4.208  0.00  0.00     0.027 H 
ATOM     30  H   LIG d   1       7.988  -5.002  -4.221  0.00  0.00     0.027 H 
ATOM     31  H   LIG d   1       8.527  -2.777  -3.265  0.00  0.00     0.027 H 
ATOM     32  H   LIG d   1       9.450  -3.158  -4.707  0.00  0.00     0.027 H 
ATOM     33  H   LIG d   1       7.152   0.300  -7.086  0.00  0.00     0.027 H 
ATOM     34  H   LIG d   1       5.759  -0.781  -7.315  0.00  0.00     0.027 H 
ATOM     35  H   LIG d   1       6.079   0.943  -5.139  0.00  0.00     0.029 H 
ATOM     36  H   LIG d   1       5.049  -0.506  -5.107  0.00  0.00     0.029 H 
ENDROOT
BRANCH  21  37
ATOM     37  C   LIG d   1       6.206  -1.598  -3.211  0.00  0.00    -0.018 C 
ATOM     38  H   LIG d   1       5.817  -2.494  -3.695  0.00  0.00     0.030 H 
ATOM     39  H   LIG d   1       6.848  -1.885  -2.378  0.00  0.00     0.030 H 
BRANCH  37  40
ATOM     40  C   LIG d   1       5.040  -0.755  -2.688  0.00  0.00    -0.011 C 
ATOM     41  H   LIG d   1       5.231  -0.476  -1.650  0.00  0.00     0.033 H 
ATOM     42  H   LIG d   1       4.943   0.146  -3.294  0.00  0.00     0.033 H 
BRANCH  40  43
ATOM     43  C   LIG d   1       3.766  -1.555  -2.767  0.00  0.00     0.042 C 
ATOM     44  O   LIG d   1       3.797  -2.767  -2.634  0.00  0.00    -0.550 OA
ATOM     45  O   LIG d   1       2.704  -0.991  -2.965  0.00  0.00    -0.550 OA
ENDBRANCH  40  43
ENDBRANCH  37  40
ENDBRANCH  21  37
BRANCH  21  46
ATOM     46  O   LIG d   1       7.710   0.262  -3.519  0.00  0.00    -0.388 OA
ATOM     47  H   LIG d   1       8.653   0.090  -3.394  0.00  0.00     0.210 HD
ENDBRANCH  21  46
BRANCH  16  48
ATOM     48  C   LIG d   1       9.313  -0.761  -5.081  0.00  0.00    -0.057 C 
ATOM     49  H   LIG d   1       9.918  -0.930  -4.189  0.00  0.00     0.024 H 
ATOM     50  H   LIG d   1       9.884  -1.044  -5.965  0.00  0.00     0.024 H 
ATOM     51  H   LIG d   1       9.045   0.294  -5.143  0.00  0.00     0.024 H 
ENDBRANCH  16  48
BRANCH   1  52
ATOM     52  C   LIG d   1       6.496  -5.705  -7.991  0.00  0.00    -0.055 C 
ATOM     53  H   LIG d   1       7.484  -5.936  -8.392  0.00  0.00     0.024 H 
ATOM     54  H   LIG d   1       5.813  -6.524  -8.211  0.00  0.00     0.024 H 
ATOM     55  H   LIG d   1       6.125  -4.788  -8.449  0.00  0.00     0.024 H 
ENDBRANCH   1  52
TORSDOF 6
ENDMDL
MODEL 7
REMARK VINA RESULT:      -5.7      8.333     12.179
REMARK  6 active torsions:
REMARK  status: ('A' for Active; 'I' for Inactive)
REMARK    1  A    between atoms: C_1  and  C_2 
REMARK    2  A    between atoms: C_17  and  C_29 
REMARK    3  A    between atoms: C_22  and  C_23 
REMARK    4  A    between atoms: C_22  and  O_28 
REMARK    5  A    between atoms: C_23  and  C_24 
REMARK    6  A    between atoms: C_24  and  C_25 
ROOT
ATOM      1  C   LIG d   1      11.509   7.669   0.166  0.00  0.00    -0.003 C 
ATOM      2  C   LIG d   1      12.687   8.581   0.514  0.00  0.00    -0.036 C 
ATOM      3  C   LIG d   1      12.245   9.643   1.525  0.00  0.00     0.011 C 
ATOM      4  C   LIG d   1      11.069  10.398   0.964  0.00  0.00     0.156 C 
ATOM      5  O   LIG d   1      10.893  11.558   1.277  0.00  0.00    -0.293 OA
ATOM      6  C   LIG d   1      10.175   9.774   0.080  0.00  0.00    -0.015 C 
ATOM      7  C   LIG d   1      10.348   8.493  -0.325  0.00  0.00    -0.038 C 
ATOM      8  C   LIG d   1       9.394   7.904  -1.264  0.00  0.00    -0.062 C 
ATOM      9  C   LIG d   1       9.565   6.673  -1.744  0.00  0.00    -0.080 C 
ATOM     10  C   LIG d   1      10.740   5.829  -1.353  0.00  0.00    -0.016 C 
ATOM     11  H   LIG d   1      10.439   5.228  -0.480  0.00  0.00     0.035 H 
ATOM     12  C   LIG d   1      11.924   6.698  -0.945  0.00  0.00    -0.025 C 
ATOM     13  H   LIG d   1      12.744   6.069  -0.599  0.00  0.00     0.032 H 
ATOM     14  C   LIG d   1      12.370   7.501  -2.173  0.00  0.00    -0.048 C 
ATOM     15  C   LIG d   1      12.880   6.537  -3.234  0.00  0.00    -0.044 C 
ATOM     16  C   LIG d   1      11.910   5.447  -3.611  0.00  0.00     0.000 C 
ATOM     17  C   LIG d   1      11.125   4.843  -2.447  0.00  0.00    -0.026 C 
ATOM     18  H   LIG d   1      11.710   4.009  -1.997  0.00  0.00     0.031 H 
ATOM     19  C   LIG d   1       9.829   4.286  -3.087  0.00  0.00    -0.046 C 
ATOM     20  C   LIG d   1       9.585   5.125  -4.353  0.00  0.00    -0.023 C 
ATOM     21  C   LIG d   1      10.918   5.807  -4.714  0.00  0.00     0.072 C 
ATOM     22  H   LIG d   1      13.495   7.985   0.944  0.00  0.00     0.028 H 
ATOM     23  H   LIG d   1      13.049   9.079  -0.387  0.00  0.00     0.028 H 
ATOM     24  H   LIG d   1      11.976   9.185   2.473  0.00  0.00     0.035 H 
ATOM     25  H   LIG d   1      13.070  10.342   1.691  0.00  0.00     0.035 H 
ATOM     26  H   LIG d   1       9.326  10.330  -0.288  0.00  0.00     0.066 H 
ATOM     27  H   LIG d   1       8.532   8.477  -1.569  0.00  0.00     0.062 H 
ATOM     28  H   LIG d   1       8.817   6.282  -2.417  0.00  0.00     0.058 H 
ATOM     29  H   LIG d   1      11.544   8.100  -2.542  0.00  0.00     0.027 H 
ATOM     30  H   LIG d   1      13.187   8.174  -1.887  0.00  0.00     0.027 H 
ATOM     31  H   LIG d   1      13.194   7.090  -4.119  0.00  0.00     0.027 H 
ATOM     32  H   LIG d   1      13.788   6.051  -2.837  0.00  0.00     0.027 H 
ATOM     33  H   LIG d   1       9.957   3.230  -3.352  0.00  0.00     0.027 H 
ATOM     34  H   LIG d   1       8.985   4.374  -2.398  0.00  0.00     0.027 H 
ATOM     35  H   LIG d   1       9.269   4.477  -5.176  0.00  0.00     0.029 H 
ATOM     36  H   LIG d   1       8.815   5.876  -4.177  0.00  0.00     0.029 H 
ENDROOT
BRANCH  21  37
ATOM     37  C   LIG d   1      10.711   7.310  -4.871  0.00  0.00    -0.018 C 
ATOM     38  H   LIG d   1      10.826   7.795  -3.902  0.00  0.00     0.030 H 
ATOM     39  H   LIG d   1      11.448   7.709  -5.568  0.00  0.00     0.030 H 
BRANCH  37  40
ATOM     40  C   LIG d   1       9.304   7.577  -5.411  0.00  0.00    -0.011 C 
ATOM     41  H   LIG d   1       8.696   6.677  -5.304  0.00  0.00     0.033 H 
ATOM     42  H   LIG d   1       8.847   8.392  -4.848  0.00  0.00     0.033 H 
BRANCH  40  43
ATOM     43  C   LIG d   1       9.387   7.957  -6.866  0.00  0.00     0.042 C 
ATOM     44  O   LIG d   1       9.633   7.105  -7.705  0.00  0.00    -0.550 OA
ATOM     45  O   LIG d   1       9.211   9.114  -7.206  0.00  0.00    -0.550 OA
ENDBRANCH  40  43
ENDBRANCH  37  40
ENDBRANCH  21  37
BRANCH  21  46
ATOM     46  O   LIG d   1      11.390   5.270  -5.963  0.00  0.00    -0.388 OA
ATOM     47  H   LIG d   1      10.702   4.850  -6.497  0.00  0.00     0.210 HD
ENDBRANCH  21  46
BRANCH  16  48
ATOM     48  C   LIG d   1      12.784   4.295  -4.185  0.00  0.00    -0.057 C 
ATOM     49  H   LIG d   1      12.420   3.340  -3.805  0.00  0.00     0.024 H 
ATOM     50  H   LIG d   1      12.723   4.301  -5.273  0.00  0.00     0.024 H 
ATOM     51  H   LIG d   1      13.820   4.437  -3.877  0.00  0.00     0.024 H 
ENDBRANCH  16  48
BRANCH   1  52
ATOM     52  C   LIG d   1      11.095   6.880   1.411  0.00  0.00    -0.055 C 
ATOM     53  H   LIG d   1      11.236   5.815   1.229  0.00  0.00     0.024 H 
ATOM     54  H   LIG d   1      11.708   7.189   2.258  0.00  0.00     0.024 H 
ATOM     55  H   LIG d   1      10.045   7.075   1.631  0.00  0.00     0.024 H 
ENDBRANCH   1  52
TORSDOF 6
ENDMDL
MODEL 8
REMARK VINA RESULT:      -5.7      4.037      6.900
REMARK  6 active torsions:
REMARK  status: ('A' for Active; 'I' for Inactive)
REMARK    1  A    between atoms: C_1  and  C_2 
REMARK    2  A    between atoms: C_17  and  C_29 
REMARK    3  A    between atoms: C_22  and  C_23 
REMARK    4  A    between atoms: C_22  and  O_28 
REMARK    5  A    between atoms: C_23  and  C_24 
REMARK    6  A    between atoms: C_24  and  C_25 
ROOT
ATOM      1  C   LIG d   1       4.933  -0.377  -5.007  0.00  0.00    -0.003 C 
ATOM      2  C   LIG d   1       3.955   0.153  -3.957  0.00  0.00    -0.036 C 
ATOM      3  C   LIG d   1       4.133  -0.612  -2.643  0.00  0.00     0.011 C 
ATOM      4  C   LIG d   1       3.967  -2.086  -2.903  0.00  0.00     0.156 C 
ATOM      5  O   LIG d   1       3.535  -2.807  -2.027  0.00  0.00    -0.293 OA
ATOM      6  C   LIG d   1       4.305  -2.633  -4.150  0.00  0.00    -0.015 C 
ATOM      7  C   LIG d   1       4.759  -1.865  -5.170  0.00  0.00    -0.038 C 
ATOM      8  C   LIG d   1       5.074  -2.490  -6.452  0.00  0.00    -0.062 C 
ATOM      9  C   LIG d   1       5.455  -1.763  -7.502  0.00  0.00    -0.080 C 
ATOM     10  C   LIG d   1       5.576  -0.271  -7.428  0.00  0.00    -0.016 C 
ATOM     11  H   LIG d   1       6.616  -0.038  -7.146  0.00  0.00     0.035 H 
ATOM     12  C   LIG d   1       4.655   0.298  -6.354  0.00  0.00    -0.025 C 
ATOM     13  H   LIG d   1       4.807   1.373  -6.267  0.00  0.00     0.032 H 
ATOM     14  C   LIG d   1       3.207   0.012  -6.770  0.00  0.00    -0.048 C 
ATOM     15  C   LIG d   1       2.903   0.769  -8.054  0.00  0.00    -0.044 C 
ATOM     16  C   LIG d   1       3.863   0.502  -9.183  0.00  0.00     0.000 C 
ATOM     17  C   LIG d   1       5.332   0.391  -8.777  0.00  0.00    -0.026 C 
ATOM     18  H   LIG d   1       5.795   1.404  -8.775  0.00  0.00     0.031 H 
ATOM     19  C   LIG d   1       5.985  -0.481  -9.879  0.00  0.00    -0.046 C 
ATOM     20  C   LIG d   1       4.860  -1.359 -10.450  0.00  0.00    -0.023 C 
ATOM     21  C   LIG d   1       3.523  -0.700 -10.061  0.00  0.00     0.072 C 
ATOM     22  H   LIG d   1       4.142   1.215  -3.788  0.00  0.00     0.028 H 
ATOM     23  H   LIG d   1       2.929   0.021  -4.307  0.00  0.00     0.028 H 
ATOM     24  H   LIG d   1       5.112  -0.418  -2.213  0.00  0.00     0.035 H 
ATOM     25  H   LIG d   1       3.365  -0.287  -1.935  0.00  0.00     0.035 H 
ATOM     26  H   LIG d   1       4.200  -3.697  -4.302  0.00  0.00     0.066 H 
ATOM     27  H   LIG d   1       5.003  -3.563  -6.549  0.00  0.00     0.062 H 
ATOM     28  H   LIG d   1       5.696  -2.281  -8.419  0.00  0.00     0.058 H 
ATOM     29  H   LIG d   1       3.063  -1.057  -6.894  0.00  0.00     0.027 H 
ATOM     30  H   LIG d   1       2.529   0.365  -5.984  0.00  0.00     0.027 H 
ATOM     31  H   LIG d   1       1.879   0.571  -8.369  0.00  0.00     0.027 H 
ATOM     32  H   LIG d   1       2.950   1.849  -7.826  0.00  0.00     0.027 H 
ATOM     33  H   LIG d   1       6.407   0.153 -10.667  0.00  0.00     0.027 H 
ATOM     34  H   LIG d   1       6.785  -1.100  -9.462  0.00  0.00     0.027 H 
ATOM     35  H   LIG d   1       4.940  -1.409 -11.540  0.00  0.00     0.029 H 
ATOM     36  H   LIG d   1       4.912  -2.369 -10.043  0.00  0.00     0.029 H 
ENDROOT
BRANCH  21  37
ATOM     37  C   LIG d   1       2.622  -1.717  -9.366  0.00  0.00    -0.018 C 
ATOM     38  H   LIG d   1       3.158  -2.659  -9.251  0.00  0.00     0.030 H 
ATOM     39  H   LIG d   1       2.337  -1.339  -8.384  0.00  0.00     0.030 H 
BRANCH  37  40
ATOM     40  C   LIG d   1       1.366  -1.945 -10.209  0.00  0.00    -0.011 C 
ATOM     41  H   LIG d   1       0.485  -1.649  -9.636  0.00  0.00     0.033 H 
ATOM     42  H   LIG d   1       1.424  -1.348 -11.119  0.00  0.00     0.033 H 
BRANCH  40  43
ATOM     43  C   LIG d   1       1.261  -3.404 -10.570  0.00  0.00     0.042 C 
ATOM     44  O   LIG d   1       0.187  -3.977 -10.488  0.00  0.00    -0.550 OA
ATOM     45  O   LIG d   1       2.249  -4.012 -10.944  0.00  0.00    -0.550 OA
ENDBRANCH  40  43
ENDBRANCH  37  40
ENDBRANCH  21  37
BRANCH  21  46
ATOM     46  O   LIG d   1       2.868  -0.239 -11.256  0.00  0.00    -0.388 OA
ATOM     47  H   LIG d   1       3.470   0.122 -11.921  0.00  0.00     0.210 HD
ENDBRANCH  21  46
BRANCH  16  48
ATOM     48  C   LIG d   1       3.767   1.746 -10.112  0.00  0.00    -0.057 C 
ATOM     49  H   LIG d   1       4.764   2.016 -10.462  0.00  0.00     0.024 H 
ATOM     50  H   LIG d   1       3.133   1.512 -10.968  0.00  0.00     0.024 H 
ATOM     51  H   LIG d   1       3.337   2.580  -9.558  0.00  0.00     0.024 H 
ENDBRANCH  16  48
BRANCH   1  52
ATOM     52  C   LIG d   1       6.366  -0.069  -4.563  0.00  0.00    -0.055 C 
ATOM     53  H   LIG d   1       7.065  -0.423  -5.321  0.00  0.00     0.024 H 
ATOM     54  H   LIG d   1       6.484   1.006  -4.434  0.00  0.00     0.024 H 
ATOM     55  H   LIG d   1       6.570  -0.574  -3.619  0.00  0.00     0.024 H 
ENDBRANCH   1  52
TORSDOF 6
ENDMDL
MODEL 9
REMARK VINA RESULT:      -5.7      6.140      9.409
REMARK  6 active torsions:
REMARK  status: ('A' for Active; 'I' for Inactive)
REMARK    1  A    between atoms: C_1  and  C_2 
REMARK    2  A    between atoms: C_17  and  C_29 
REMARK    3  A    between atoms: C_22  and  C_23 
REMARK    4  A    between atoms: C_22  and  O_28 
REMARK    5  A    between atoms: C_23  and  C_24 
REMARK    6  A    between atoms: C_24  and  C_25 
ROOT
ATOM      1  C   LIG d   1       3.265   0.062  -9.979  0.00  0.00    -0.003 C 
ATOM      2  C   LIG d   1       2.463   1.304  -9.583  0.00  0.00    -0.036 C 
ATOM      3  C   LIG d   1       3.031   1.904  -8.294  0.00  0.00     0.011 C 
ATOM      4  C   LIG d   1       3.038   0.848  -7.220  0.00  0.00     0.156 C 
ATOM      5  O   LIG d   1       2.916   1.173  -6.056  0.00  0.00    -0.293 OA
ATOM      6  C   LIG d   1       3.181  -0.507  -7.553  0.00  0.00    -0.015 C 
ATOM      7  C   LIG d   1       3.286  -0.922  -8.838  0.00  0.00    -0.038 C 
ATOM      8  C   LIG d   1       3.413  -2.350  -9.122  0.00  0.00    -0.062 C 
ATOM      9  C   LIG d   1       3.446  -2.807 -10.373  0.00  0.00    -0.080 C 
ATOM     10  C   LIG d   1       3.354  -1.887 -11.553  0.00  0.00    -0.016 C 
ATOM     11  H   LIG d   1       4.382  -1.614 -11.840  0.00  0.00     0.035 H 
ATOM     12  C   LIG d   1       2.607  -0.608 -11.190  0.00  0.00    -0.025 C 
ATOM     13  H   LIG d   1       2.610   0.076 -12.038  0.00  0.00     0.032 H 
ATOM     14  C   LIG d   1       1.164  -0.985 -10.834  0.00  0.00    -0.048 C 
ATOM     15  C   LIG d   1       0.483  -1.554 -12.070  0.00  0.00    -0.044 C 
ATOM     16  C   LIG d   1       1.210  -2.706 -12.714  0.00  0.00     0.000 C 
ATOM     17  C   LIG d   1       2.732  -2.570 -12.763  0.00  0.00    -0.026 C 
ATOM     18  H   LIG d   1       3.026  -2.017 -13.684  0.00  0.00     0.031 H 
ATOM     19  C   LIG d   1       3.259  -4.024 -12.834  0.00  0.00    -0.046 C 
ATOM     20  C   LIG d   1       2.184  -4.901 -12.170  0.00  0.00    -0.023 C 
ATOM     21  C   LIG d   1       0.877  -4.086 -12.153  0.00  0.00     0.072 C 
ATOM     22  H   LIG d   1       2.519   2.044 -10.385  0.00  0.00     0.028 H 
ATOM     23  H   LIG d   1       1.419   1.033  -9.418  0.00  0.00     0.028 H 
ATOM     24  H   LIG d   1       4.038   2.279  -8.454  0.00  0.00     0.035 H 
ATOM     25  H   LIG d   1       2.391   2.732  -7.976  0.00  0.00     0.035 H 
ATOM     26  H   LIG d   1       3.208  -1.242  -6.761  0.00  0.00     0.066 H 
ATOM     27  H   LIG d   1       3.485  -3.047  -8.301  0.00  0.00     0.062 H 
ATOM     28  H   LIG d   1       3.563  -3.870 -10.523  0.00  0.00     0.058 H 
ATOM     29  H   LIG d   1       1.161  -1.697 -10.013  0.00  0.00     0.027 H 
ATOM     30  H   LIG d   1       0.624  -0.086 -10.517  0.00  0.00     0.027 H 
ATOM     31  H   LIG d   1      -0.542  -1.836 -11.833  0.00  0.00     0.027 H 
ATOM     32  H   LIG d   1       0.414  -0.744 -12.817  0.00  0.00     0.027 H 
ATOM     33  H   LIG d   1       3.403  -4.328 -13.877  0.00  0.00     0.027 H 
ATOM     34  H   LIG d   1       4.213  -4.119 -12.308  0.00  0.00     0.027 H 
ATOM     35  H   LIG d   1       2.037  -5.817 -12.750  0.00  0.00     0.029 H 
ATOM     36  H   LIG d   1       2.474  -5.166 -11.154  0.00  0.00     0.029 H 
ENDROOT
BRANCH  21  37
ATOM     37  C   LIG d   1       0.309  -4.040 -10.738  0.00  0.00    -0.018 C 
ATOM     38  H   LIG d   1       1.034  -4.459 -10.041  0.00  0.00     0.030 H 
ATOM     39  H   LIG d   1       0.097  -3.006 -10.464  0.00  0.00     0.030 H 
BRANCH  37  40
ATOM     40  C   LIG d   1      -0.984  -4.857 -10.680  0.00  0.00    -0.011 C 
ATOM     41  H   LIG d   1      -1.805  -4.215 -10.356  0.00  0.00     0.033 H 
ATOM     42  H   LIG d   1      -1.205  -5.257 -11.669  0.00  0.00     0.033 H 
BRANCH  40  43
ATOM     43  C   LIG d   1      -0.818  -5.991  -9.703  0.00  0.00     0.042 C 
ATOM     44  O   LIG d   1       0.099  -6.784  -9.839  0.00  0.00    -0.550 OA
ATOM     45  O   LIG d   1      -1.601  -6.118  -8.777  0.00  0.00    -0.550 OA
ENDBRANCH  40  43
ENDBRANCH  37  40
ENDBRANCH  21  37
BRANCH  21  46
ATOM     46  O   LIG d   1      -0.080  -4.726 -13.017  0.00  0.00    -0.388 OA
ATOM     47  H   LIG d   1       0.317  -5.201 -13.761  0.00  0.00     0.210 HD
ENDBRANCH  21  46
BRANCH  16  48
ATOM     48  C   LIG d   1       0.731  -2.722 -14.194  0.00  0.00    -0.057 C 
ATOM     49  H   LIG d   1       1.502  -3.173 -14.819  0.00  0.00     0.024 H 
ATOM     50  H   LIG d   1      -0.186  -3.305 -14.272  0.00  0.00     0.024 H 
ATOM     51  H   LIG d   1       0.544  -1.701 -14.526  0.00  0.00     0.024 H 
ENDBRANCH  16  48
BRANCH   1  52
ATOM     52  C   LIG d   1       4.696   0.476 -10.333  0.00  0.00    -0.055 C 
ATOM     53  H   LIG d   1       4.689   1.045 -11.263  0.00  0.00     0.024 H 
ATOM     54  H   LIG d   1       5.105   1.091  -9.532  0.00  0.00     0.024 H 
ATOM     55  H   LIG d   1       5.311  -0.416 -10.458  0.00  0.00     0.024 H 
ENDBRANCH   1  52
TORSDOF 6
ENDMDL
MODEL 10
REMARK VINA RESULT:      -5.6      2.171      6.169
REMARK  6 active torsions:
REMARK  status: ('A' for Active; 'I' for Inactive)
REMARK    1  A    between atoms: C_1  and  C_2 
REMARK    2  A    between atoms: C_17  and  C_29 
REMARK    3  A    between atoms: C_22  and  C_23 
REMARK    4  A    between atoms: C_22  and  O_28 
REMARK    5  A    between atoms: C_23  and  C_24 
REMARK    6  A    between atoms: C_24  and  C_25 
ROOT
ATOM      1  C   LIG d   1       4.187  -0.930  -4.590  0.00  0.00    -0.003 C 
ATOM      2  C   LIG d   1       3.316  -1.142  -3.351  0.00  0.00    -0.036 C 
ATOM      3  C   LIG d   1       3.190   0.168  -2.570  0.00  0.00     0.011 C 
ATOM      4  C   LIG d   1       4.567   0.676  -2.233  0.00  0.00     0.156 C 
ATOM      5  O   LIG d   1       4.738   1.332  -1.225  0.00  0.00    -0.293 OA
ATOM      6  C   LIG d   1       5.656   0.395  -3.072  0.00  0.00    -0.015 C 
ATOM      7  C   LIG d   1       5.523  -0.361  -4.189  0.00  0.00    -0.038 C 
ATOM      8  C   LIG d   1       6.699  -0.636  -5.012  0.00  0.00    -0.062 C 
ATOM      9  C   LIG d   1       6.628  -1.432  -6.078  0.00  0.00    -0.080 C 
ATOM     10  C   LIG d   1       5.345  -2.090  -6.488  0.00  0.00    -0.016 C 
ATOM     11  H   LIG d   1       4.846  -1.421  -7.207  0.00  0.00     0.035 H 
ATOM     12  C   LIG d   1       4.419  -2.274  -5.290  0.00  0.00    -0.025 C 
ATOM     13  H   LIG d   1       3.467  -2.689  -5.618  0.00  0.00     0.032 H 
ATOM     14  C   LIG d   1       5.096  -3.240  -4.311  0.00  0.00    -0.048 C 
ATOM     15  C   LIG d   1       5.229  -4.603  -4.974  0.00  0.00    -0.044 C 
ATOM     16  C   LIG d   1       5.932  -4.587  -6.306  0.00  0.00     0.000 C 
ATOM     17  C   LIG d   1       5.584  -3.407  -7.213  0.00  0.00    -0.026 C 
ATOM     18  H   LIG d   1       4.684  -3.657  -7.820  0.00  0.00     0.031 H 
ATOM     19  C   LIG d   1       6.812  -3.242  -8.142  0.00  0.00    -0.046 C 
ATOM     20  C   LIG d   1       8.013  -3.805  -7.364  0.00  0.00    -0.023 C 
ATOM     21  C   LIG d   1       7.453  -4.703  -6.245  0.00  0.00     0.072 C 
ATOM     22  H   LIG d   1       2.323  -1.479  -3.658  0.00  0.00     0.028 H 
ATOM     23  H   LIG d   1       3.767  -1.898  -2.706  0.00  0.00     0.028 H 
ATOM     24  H   LIG d   1       2.650   0.913  -3.148  0.00  0.00     0.035 H 
ATOM     25  H   LIG d   1       2.644  -0.023  -1.641  0.00  0.00     0.035 H 
ATOM     26  H   LIG d   1       6.628   0.792  -2.821  0.00  0.00     0.066 H 
ATOM     27  H   LIG d   1       7.643  -0.180  -4.753  0.00  0.00     0.062 H 
ATOM     28  H   LIG d   1       7.524  -1.582  -6.661  0.00  0.00     0.058 H 
ATOM     29  H   LIG d   1       6.062  -2.846  -4.012  0.00  0.00     0.027 H 
ATOM     30  H   LIG d   1       4.471  -3.344  -3.416  0.00  0.00     0.027 H 
ATOM     31  H   LIG d   1       5.715  -5.302  -4.295  0.00  0.00     0.027 H 
ATOM     32  H   LIG d   1       4.210  -4.996  -5.141  0.00  0.00     0.027 H 
ATOM     33  H   LIG d   1       6.667  -3.805  -9.071  0.00  0.00     0.027 H 
ATOM     34  H   LIG d   1       6.973  -2.190  -8.392  0.00  0.00     0.027 H 
ATOM     35  H   LIG d   1       8.645  -4.401  -8.030  0.00  0.00     0.029 H 
ATOM     36  H   LIG d   1       8.609  -3.000  -6.936  0.00  0.00     0.029 H 
ENDROOT
BRANCH  21  37
ATOM     37  C   LIG d   1       8.034  -4.283  -4.898  0.00  0.00    -0.018 C 
ATOM     38  H   LIG d   1       8.698  -3.430  -5.039  0.00  0.00     0.030 H 
ATOM     39  H   LIG d   1       7.225  -4.007  -4.222  0.00  0.00     0.030 H 
BRANCH  37  40
ATOM     40  C   LIG d   1       8.824  -5.448  -4.297  0.00  0.00    -0.011 C 
ATOM     41  H   LIG d   1       8.137  -6.254  -4.032  0.00  0.00     0.033 H 
ATOM     42  H   LIG d   1       9.546  -5.813  -5.028  0.00  0.00     0.033 H 
BRANCH  40  43
ATOM     43  C   LIG d   1       9.549  -4.981  -3.062  0.00  0.00     0.042 C 
ATOM     44  O   LIG d   1      10.150  -3.919  -3.073  0.00  0.00    -0.550 OA
ATOM     45  O   LIG d   1       9.536  -5.663  -2.053  0.00  0.00    -0.550 OA
ENDBRANCH  40  43
ENDBRANCH  37  40
ENDBRANCH  21  37
BRANCH  21  46
ATOM     46  O   LIG d   1       7.832  -6.066  -6.510  0.00  0.00    -0.388 OA
ATOM     47  H   LIG d   1       8.513  -6.408  -5.916  0.00  0.00     0.210 HD
ENDBRANCH  21  46
BRANCH  16  48
ATOM     48  C   LIG d   1       5.439  -5.861  -7.050  0.00  0.00    -0.057 C 
ATOM     49  H   LIG d   1       6.300  -6.437  -7.392  0.00  0.00     0.024 H 
ATOM     50  H   LIG d   1       4.842  -6.470  -6.371  0.00  0.00     0.024 H 
ATOM     51  H   LIG d   1       4.833  -5.570  -7.907  0.00  0.00     0.024 H 
ENDBRANCH  16  48
BRANCH   1  52
ATOM     52  C   LIG d   1       3.480   0.034  -5.547  0.00  0.00    -0.055 C 
ATOM     53  H   LIG d   1       3.299   0.981  -5.039  0.00  0.00     0.024 H 
ATOM     54  H   LIG d   1       4.108   0.204  -6.422  0.00  0.00     0.024 H 
ATOM     55  H   LIG d   1       2.529  -0.398  -5.860  0.00  0.00     0.024 H 
ENDBRANCH   1  52
TORSDOF 6
ENDMDL
