MODEL 1
REMARK VINA RESULT:      -6.9      0.000      0.000
REMARK  9 active torsions:
REMARK  status: ('A' for Active; 'I' for Inactive)
REMARK    1  A    between atoms: C_1  and  C_2 
REMARK    2  A    between atoms: C_13  and  O_15 
REMARK    3  A    between atoms: O_15  and  C_16 
REMARK    4  A    between atoms: C_16  and  C_18 
REMARK    5  A    between atoms: C_18  and  C_19 
REMARK    6  A    between atoms: C_19  and  C_20 
REMARK       I    between atoms: C_20  and  N_22 
REMARK    7  A    between atoms: N_22  and  C_23 
REMARK    8  A    between atoms: C_23  and  C_24 
REMARK    9  A    between atoms: C_37  and  C_38 
ROOT
ATOM      1  C   LIG d   1       6.155  -2.239  -4.992  0.00  0.00     0.008 C 
ATOM      2  C   LIG d   1       4.830  -2.932  -4.742  0.00  0.00    -0.044 C 
ATOM      3  C   LIG d   1       5.060  -4.439  -4.937  0.00  0.00    -0.049 C 
ATOM      4  C   LIG d   1       5.604  -4.751  -6.328  0.00  0.00    -0.029 C 
ATOM      5  H   LIG d   1       4.839  -4.518  -7.068  0.00  0.00     0.031 H 
ATOM      6  C   LIG d   1       6.868  -3.937  -6.642  0.00  0.00    -0.034 C 
ATOM      7  H   LIG d   1       7.666  -4.205  -5.950  0.00  0.00     0.031 H 
ATOM      8  C   LIG d   1       6.516  -2.468  -6.485  0.00  0.00    -0.029 C 
ATOM      9  H   LIG d   1       5.672  -2.210  -7.124  0.00  0.00     0.031 H 
ATOM     10  C   LIG d   1       7.672  -1.482  -6.678  0.00  0.00    -0.046 C 
ATOM     11  C   LIG d   1       7.188  -0.221  -5.907  0.00  0.00    -0.015 C 
ATOM     12  C   LIG d   1       6.166  -0.720  -4.857  0.00  0.00     0.109 C 
ATOM     13  H   LIG d   1       5.176  -0.316  -5.071  0.00  0.00     0.074 H 
ATOM     14  C   LIG d   1       7.292  -4.213  -8.087  0.00  0.00    -0.046 C 
ATOM     15  C   LIG d   1       7.704  -5.681  -8.220  0.00  0.00    -0.030 C 
ATOM     16  C   LIG d   1       6.561  -6.555  -7.740  0.00  0.00    -0.060 C 
ATOM     17  C   LIG d   1       6.181  -7.565  -8.521  0.00  0.00    -0.019 C 
ATOM     18  C   LIG d   1       5.091  -8.451  -8.099  0.00  0.00     0.156 C 
ATOM     19  O   LIG d   1       4.464  -9.117  -8.895  0.00  0.00    -0.293 OA
ATOM     20  C   LIG d   1       4.793  -8.492  -6.612  0.00  0.00     0.011 C 
ATOM     21  C   LIG d   1       4.668  -7.047  -6.132  0.00  0.00    -0.037 C 
ATOM     22  C   LIG d   1       5.927  -6.249  -6.418  0.00  0.00    -0.007 C 
ATOM     23  H   LIG d   1       4.493  -2.736  -3.724  0.00  0.00     0.027 H 
ATOM     24  H   LIG d   1       4.084  -2.576  -5.454  0.00  0.00     0.027 H 
ATOM     25  H   LIG d   1       5.772  -4.788  -4.190  0.00  0.00     0.027 H 
ATOM     26  H   LIG d   1       4.116  -4.964  -4.799  0.00  0.00     0.027 H 
ATOM     27  H   LIG d   1       8.591  -1.873  -6.241  0.00  0.00     0.027 H 
ATOM     28  H   LIG d   1       7.816  -1.258  -7.736  0.00  0.00     0.027 H 
ATOM     29  H   LIG d   1       6.709   0.477  -6.594  0.00  0.00     0.030 H 
ATOM     30  H   LIG d   1       8.030   0.261  -5.411  0.00  0.00     0.030 H 
ATOM     31  H   LIG d   1       6.458  -4.008  -8.758  0.00  0.00     0.027 H 
ATOM     32  H   LIG d   1       8.135  -3.573  -8.348  0.00  0.00     0.027 H 
ATOM     33  H   LIG d   1       7.923  -5.906  -9.263  0.00  0.00     0.031 H 
ATOM     34  H   LIG d   1       8.588  -5.869  -7.611  0.00  0.00     0.031 H 
ATOM     35  H   LIG d   1       6.676  -7.731  -9.467  0.00  0.00     0.065 H 
ATOM     36  H   LIG d   1       3.940  -8.991  -6.458  0.00  0.00     0.035 H 
ATOM     37  H   LIG d   1       5.606  -8.989  -6.084  0.00  0.00     0.035 H 
ATOM     38  H   LIG d   1       3.825  -6.576  -6.639  0.00  0.00     0.028 H 
ATOM     39  H   LIG d   1       4.481  -7.044  -5.058  0.00  0.00     0.028 H 
ENDROOT
BRANCH  12  40
ATOM     40  O   LIG d   1       6.588  -0.337  -3.522  0.00  0.00    -0.461 OA
BRANCH  40  41
ATOM     41  C   LIG d   1       5.922   0.672  -2.939  0.00  0.00     0.308 C 
ATOM     42  O   LIG d   1       6.317   1.807  -3.063  0.00  0.00    -0.251 OA
BRANCH  41  43
ATOM     43  C   LIG d   1       4.683   0.388  -2.129  0.00  0.00     0.053 C 
ATOM     44  H   LIG d   1       4.847   0.691  -1.095  0.00  0.00     0.038 H 
ATOM     45  H   LIG d   1       4.462  -0.679  -2.164  0.00  0.00     0.038 H 
BRANCH  43  46
ATOM     46  C   LIG d   1       3.504   1.173  -2.710  0.00  0.00     0.034 C 
ATOM     47  H   LIG d   1       3.841   2.165  -3.011  0.00  0.00     0.036 H 
ATOM     48  H   LIG d   1       2.724   1.268  -1.954  0.00  0.00     0.036 H 
BRANCH  46  49
ATOM     49  C   LIG d   1       2.956   0.442  -3.908  0.00  0.00     0.214 C 
ATOM     50  O   LIG d   1       2.405  -0.628  -3.766  0.00  0.00    -0.276 OA
ATOM     51  N   LIG d   1       3.080   0.978  -5.139  0.00  0.00    -0.311 N 
ATOM     52  H   LIG d   1       3.522   1.835  -5.252  0.00  0.00     0.149 HD
BRANCH  51  53
ATOM     53  C   LIG d   1       2.548   0.268  -6.304  0.00  0.00     0.043 C 
ATOM     54  H   LIG d   1       1.465   0.385  -6.338  0.00  0.00     0.052 H 
ATOM     55  H   LIG d   1       2.797  -0.790  -6.228  0.00  0.00     0.052 H 
BRANCH  53  56
ATOM     56  C   LIG d   1       3.155   0.838  -7.559  0.00  0.00     0.007 A 
ATOM     57  S   LIG d   1       4.517   0.216  -8.532  0.00  0.00    -0.100 SA
ATOM     58  C   LIG d   1       4.534   1.488  -9.785  0.00  0.00    -0.024 A 
ATOM     59  C   LIG d   1       3.517   2.290  -9.383  0.00  0.00    -0.054 A 
ATOM     60  H   LIG d   1       5.185   1.593 -10.640  0.00  0.00     0.069 H 
ATOM     61  C   LIG d   1       2.811   1.956  -8.243  0.00  0.00    -0.050 A 
ATOM     62  H   LIG d   1       3.262   3.175  -9.947  0.00  0.00     0.062 H 
ATOM     63  H   LIG d   1       1.996   2.578  -7.902  0.00  0.00     0.063 H 
ENDBRANCH  53  56
ENDBRANCH  51  53
ENDBRANCH  46  49
ENDBRANCH  43  46
ENDBRANCH  41  43
ENDBRANCH  40  41
ENDBRANCH  12  40
BRANCH   1  64
ATOM     64  C   LIG d   1       7.235  -2.848  -4.094  0.00  0.00    -0.056 C 
ATOM     65  H   LIG d   1       6.762  -3.365  -3.258  0.00  0.00     0.024 H 
ATOM     66  H   LIG d   1       7.829  -3.557  -4.670  0.00  0.00     0.024 H 
ATOM     67  H   LIG d   1       7.880  -2.056  -3.715  0.00  0.00     0.024 H 
ENDBRANCH   1  64
BRANCH  22  68
ATOM     68  C   LIG d   1       6.939  -6.579  -5.318  0.00  0.00    -0.056 C 
ATOM     69  H   LIG d   1       7.563  -7.414  -5.638  0.00  0.00     0.024 H 
ATOM     70  H   LIG d   1       7.566  -5.707  -5.130  0.00  0.00     0.024 H 
ATOM     71  H   LIG d   1       6.409  -6.849  -4.405  0.00  0.00     0.024 H 
ENDBRANCH  22  68
TORSDOF 9
ENDMDL
MODEL 2
REMARK VINA RESULT:      -6.8      3.693      5.978
REMARK  9 active torsions:
REMARK  status: ('A' for Active; 'I' for Inactive)
REMARK    1  A    between atoms: C_1  and  C_2 
REMARK    2  A    between atoms: C_13  and  O_15 
REMARK    3  A    between atoms: O_15  and  C_16 
REMARK    4  A    between atoms: C_16  and  C_18 
REMARK    5  A    between atoms: C_18  and  C_19 
REMARK    6  A    between atoms: C_19  and  C_20 
REMARK       I    between atoms: C_20  and  N_22 
REMARK    7  A    between atoms: N_22  and  C_23 
REMARK    8  A    between atoms: C_23  and  C_24 
REMARK    9  A    between atoms: C_37  and  C_38 
ROOT
ATOM      1  C   LIG d   1       5.044   0.155  -9.267  0.00  0.00     0.008 C 
ATOM      2  C   LIG d   1       5.252  -1.044  -8.362  0.00  0.00    -0.044 C 
ATOM      3  C   LIG d   1       4.735  -2.279  -9.117  0.00  0.00    -0.049 C 
ATOM      4  C   LIG d   1       3.271  -2.123  -9.516  0.00  0.00    -0.029 C 
ATOM      5  H   LIG d   1       2.657  -2.107  -8.616  0.00  0.00     0.031 H 
ATOM      6  C   LIG d   1       3.030  -0.830 -10.309  0.00  0.00    -0.034 C 
ATOM      7  H   LIG d   1       3.586  -0.857 -11.246  0.00  0.00     0.031 H 
ATOM      8  C   LIG d   1       3.512   0.327  -9.452  0.00  0.00    -0.029 C 
ATOM      9  H   LIG d   1       3.008   0.319  -8.486  0.00  0.00     0.031 H 
ATOM     10  C   LIG d   1       3.433   1.714 -10.099  0.00  0.00    -0.046 C 
ATOM     11  C   LIG d   1       4.481   2.534  -9.296  0.00  0.00    -0.015 C 
ATOM     12  C   LIG d   1       5.486   1.507  -8.717  0.00  0.00     0.109 C 
ATOM     13  H   LIG d   1       5.439   1.505  -7.628  0.00  0.00     0.074 H 
ATOM     14  C   LIG d   1       1.529  -0.682 -10.577  0.00  0.00    -0.046 C 
ATOM     15  C   LIG d   1       1.067  -1.817 -11.492  0.00  0.00    -0.030 C 
ATOM     16  C   LIG d   1       1.448  -3.142 -10.858  0.00  0.00    -0.060 C 
ATOM     17  C   LIG d   1       0.508  -4.084 -10.777  0.00  0.00    -0.019 C 
ATOM     18  C   LIG d   1       0.827  -5.389 -10.188  0.00  0.00     0.156 C 
ATOM     19  O   LIG d   1      -0.036  -6.118  -9.747  0.00  0.00    -0.293 OA
ATOM     20  C   LIG d   1       2.292  -5.778 -10.162  0.00  0.00     0.011 C 
ATOM     21  C   LIG d   1       3.066  -4.601  -9.570  0.00  0.00    -0.037 C 
ATOM     22  C   LIG d   1       2.850  -3.328 -10.369  0.00  0.00    -0.007 C 
ATOM     23  H   LIG d   1       6.312  -1.162  -8.138  0.00  0.00     0.027 H 
ATOM     24  H   LIG d   1       4.690  -0.913  -7.436  0.00  0.00     0.027 H 
ATOM     25  H   LIG d   1       5.335  -2.422 -10.015  0.00  0.00     0.027 H 
ATOM     26  H   LIG d   1       4.838  -3.155  -8.478  0.00  0.00     0.027 H 
ATOM     27  H   LIG d   1       3.705   1.665 -11.153  0.00  0.00     0.027 H 
ATOM     28  H   LIG d   1       2.435   2.139  -9.980  0.00  0.00     0.027 H 
ATOM     29  H   LIG d   1       3.993   3.077  -8.486  0.00  0.00     0.030 H 
ATOM     30  H   LIG d   1       4.997   3.231  -9.955  0.00  0.00     0.030 H 
ATOM     31  H   LIG d   1       0.984  -0.729  -9.635  0.00  0.00     0.027 H 
ATOM     32  H   LIG d   1       1.339   0.276 -11.060  0.00  0.00     0.027 H 
ATOM     33  H   LIG d   1      -0.015  -1.769 -11.617  0.00  0.00     0.031 H 
ATOM     34  H   LIG d   1       1.552  -1.724 -12.464  0.00  0.00     0.031 H 
ATOM     35  H   LIG d   1      -0.488  -3.886 -11.146  0.00  0.00     0.065 H 
ATOM     36  H   LIG d   1       2.409  -6.597  -9.599  0.00  0.00     0.035 H 
ATOM     37  H   LIG d   1       2.640  -5.980 -11.174  0.00  0.00     0.035 H 
ATOM     38  H   LIG d   1       2.736  -4.438  -8.544  0.00  0.00     0.028 H 
ATOM     39  H   LIG d   1       4.129  -4.842  -9.565  0.00  0.00     0.028 H 
ENDROOT
BRANCH  12  40
ATOM     40  O   LIG d   1       6.832   1.815  -9.162  0.00  0.00    -0.461 OA
BRANCH  40  41
ATOM     41  C   LIG d   1       7.743   2.080  -8.211  0.00  0.00     0.308 C 
ATOM     42  O   LIG d   1       8.585   2.925  -8.401  0.00  0.00    -0.251 OA
BRANCH  41  43
ATOM     43  C   LIG d   1       7.713   1.324  -6.908  0.00  0.00     0.053 C 
ATOM     44  H   LIG d   1       8.149   0.336  -7.051  0.00  0.00     0.038 H 
ATOM     45  H   LIG d   1       6.682   1.222  -6.571  0.00  0.00     0.038 H 
BRANCH  43  46
ATOM     46  C   LIG d   1       8.520   2.090  -5.856  0.00  0.00     0.034 C 
ATOM     47  H   LIG d   1       8.527   3.151  -6.106  0.00  0.00     0.036 H 
ATOM     48  H   LIG d   1       9.543   1.714  -5.839  0.00  0.00     0.036 H 
BRANCH  46  49
ATOM     49  C   LIG d   1       7.890   1.895  -4.501  0.00  0.00     0.214 C 
ATOM     50  O   LIG d   1       8.461   2.282  -3.505  0.00  0.00    -0.276 OA
ATOM     51  N   LIG d   1       6.689   1.290  -4.397  0.00  0.00    -0.311 N 
ATOM     52  H   LIG d   1       6.232   0.980  -5.196  0.00  0.00     0.149 HD
BRANCH  51  53
ATOM     53  C   LIG d   1       6.076   1.101  -3.081  0.00  0.00     0.043 C 
ATOM     54  H   LIG d   1       5.363   1.903  -2.893  0.00  0.00     0.052 H 
ATOM     55  H   LIG d   1       6.851   1.116  -2.315  0.00  0.00     0.052 H 
BRANCH  53  56
ATOM     56  C   LIG d   1       5.361  -0.225  -3.046  0.00  0.00     0.007 A 
ATOM     57  S   LIG d   1       5.483  -1.597  -4.182  0.00  0.00    -0.100 SA
ATOM     58  C   LIG d   1       4.323  -2.692  -3.380  0.00  0.00    -0.024 A 
ATOM     59  C   LIG d   1       3.926  -1.949  -2.317  0.00  0.00    -0.054 A 
ATOM     60  H   LIG d   1       4.016  -3.687  -3.666  0.00  0.00     0.069 H 
ATOM     61  C   LIG d   1       4.459  -0.686  -2.146  0.00  0.00    -0.050 A 
ATOM     62  H   LIG d   1       3.206  -2.340  -1.614  0.00  0.00     0.062 H 
ATOM     63  H   LIG d   1       4.160  -0.073  -1.308  0.00  0.00     0.063 H 
ENDBRANCH  53  56
ENDBRANCH  51  53
ENDBRANCH  46  49
ENDBRANCH  43  46
ENDBRANCH  41  43
ENDBRANCH  40  41
ENDBRANCH  12  40
BRANCH   1  64
ATOM     64  C   LIG d   1       5.709  -0.097 -10.622  0.00  0.00    -0.056 C 
ATOM     65  H   LIG d   1       5.600   0.788 -11.249  0.00  0.00     0.024 H 
ATOM     66  H   LIG d   1       6.768  -0.309 -10.473  0.00  0.00     0.024 H 
ATOM     67  H   LIG d   1       5.233  -0.949 -11.107  0.00  0.00     0.024 H 
ENDBRANCH   1  64
BRANCH  22  68
ATOM     68  C   LIG d   1       3.774  -3.388 -11.587  0.00  0.00    -0.056 C 
ATOM     69  H   LIG d   1       4.405  -4.275 -11.521  0.00  0.00     0.024 H 
ATOM     70  H   LIG d   1       3.173  -3.437 -12.495  0.00  0.00     0.024 H 
ATOM     71  H   LIG d   1       4.401  -2.497 -11.613  0.00  0.00     0.024 H 
ENDBRANCH  22  68
TORSDOF 9
ENDMDL
MODEL 3
REMARK VINA RESULT:      -6.8      6.644     11.741
REMARK  9 active torsions:
REMARK  status: ('A' for Active; 'I' for Inactive)
REMARK    1  A    between atoms: C_1  and  C_2 
REMARK    2  A    between atoms: C_13  and  O_15 
REMARK    3  A    between atoms: O_15  and  C_16 
REMARK    4  A    between atoms: C_16  and  C_18 
REMARK    5  A    between atoms: C_18  and  C_19 
REMARK    6  A    between atoms: C_19  and  C_20 
REMARK       I    between atoms: C_20  and  N_22 
REMARK    7  A    between atoms: N_22  and  C_23 
REMARK    8  A    between atoms: C_23  and  C_24 
REMARK    9  A    between atoms: C_37  and  C_38 
ROOT
ATOM      1  C   LIG d   1      10.014   4.831  -4.313  0.00  0.00     0.008 C 
ATOM      2  C   LIG d   1       9.157   6.032  -4.664  0.00  0.00    -0.044 C 
ATOM      3  C   LIG d   1       9.837   7.270  -4.057  0.00  0.00    -0.049 C 
ATOM      4  C   LIG d   1      10.019   7.131  -2.549  0.00  0.00    -0.029 C 
ATOM      5  H   LIG d   1       9.039   7.126  -2.072  0.00  0.00     0.031 H 
ATOM      6  C   LIG d   1      10.760   5.836  -2.181  0.00  0.00    -0.034 C 
ATOM      7  H   LIG d   1      11.768   5.852  -2.595  0.00  0.00     0.031 H 
ATOM      8  C   LIG d   1       9.975   4.677  -2.768  0.00  0.00    -0.029 C 
ATOM      9  H   LIG d   1       8.946   4.697  -2.410  0.00  0.00     0.031 H 
ATOM     10  C   LIG d   1      10.595   3.289  -2.580  0.00  0.00    -0.046 C 
ATOM     11  C   LIG d   1       9.946   2.459  -3.724  0.00  0.00    -0.015 C 
ATOM     12  C   LIG d   1       9.526   3.477  -4.814  0.00  0.00     0.109 C 
ATOM     13  H   LIG d   1       8.441   3.484  -4.925  0.00  0.00     0.074 H 
ATOM     14  C   LIG d   1      10.808   5.706  -0.655  0.00  0.00    -0.046 C 
ATOM     15  C   LIG d   1      11.654   6.843  -0.079  0.00  0.00    -0.030 C 
ATOM     16  C   LIG d   1      11.090   8.166  -0.563  0.00  0.00    -0.060 C 
ATOM     17  C   LIG d   1      10.880   9.120   0.344  0.00  0.00    -0.019 C 
ATOM     18  C   LIG d   1      10.352  10.424  -0.072  0.00  0.00     0.156 C 
ATOM     19  O   LIG d   1       9.795  11.166   0.710  0.00  0.00    -0.293 OA
ATOM     20  C   LIG d   1      10.540  10.795  -1.530  0.00  0.00     0.011 C 
ATOM     21  C   LIG d   1      10.059   9.610  -2.368  0.00  0.00    -0.037 C 
ATOM     22  C   LIG d   1      10.810   8.337  -2.024  0.00  0.00    -0.007 C 
ATOM     23  H   LIG d   1       9.090   6.138  -5.747  0.00  0.00     0.027 H 
ATOM     24  H   LIG d   1       8.159   5.913  -4.240  0.00  0.00     0.027 H 
ATOM     25  H   LIG d   1      10.814   7.401  -4.523  0.00  0.00     0.027 H 
ATOM     26  H   LIG d   1       9.226   8.148  -4.262  0.00  0.00     0.027 H 
ATOM     27  H   LIG d   1      11.677   3.330  -2.698  0.00  0.00     0.027 H 
ATOM     28  H   LIG d   1      10.330   2.877  -1.605  0.00  0.00     0.027 H 
ATOM     29  H   LIG d   1       9.071   1.927  -3.352  0.00  0.00     0.030 H 
ATOM     30  H   LIG d   1      10.669   1.752  -4.131  0.00  0.00     0.030 H 
ATOM     31  H   LIG d   1       9.797   5.764  -0.253  0.00  0.00     0.027 H 
ATOM     32  H   LIG d   1      11.252   4.748  -0.386  0.00  0.00     0.027 H 
ATOM     33  H   LIG d   1      11.620   6.807   1.010  0.00  0.00     0.031 H 
ATOM     34  H   LIG d   1      12.685   6.739  -0.417  0.00  0.00     0.031 H 
ATOM     35  H   LIG d   1      11.099   8.932   1.385  0.00  0.00     0.065 H 
ATOM     36  H   LIG d   1      10.006  11.614  -1.737  0.00  0.00     0.035 H 
ATOM     37  H   LIG d   1      11.594  10.987  -1.730  0.00  0.00     0.035 H 
ATOM     38  H   LIG d   1       8.995   9.457  -2.188  0.00  0.00     0.028 H 
ATOM     39  H   LIG d   1      10.210   9.838  -3.423  0.00  0.00     0.028 H 
ENDROOT
BRANCH  12  40
ATOM     40  O   LIG d   1      10.159   3.150  -6.078  0.00  0.00    -0.461 OA
BRANCH  40  41
ATOM     41  C   LIG d   1       9.710   2.060  -6.721  0.00  0.00     0.308 C 
ATOM     42  O   LIG d   1      10.485   1.197  -7.059  0.00  0.00    -0.251 OA
BRANCH  41  43
ATOM     43  C   LIG d   1       8.240   1.914  -7.020  0.00  0.00     0.053 C 
ATOM     44  H   LIG d   1       8.047   2.210  -8.051  0.00  0.00     0.038 H 
ATOM     45  H   LIG d   1       7.667   2.550  -6.345  0.00  0.00     0.038 H 
BRANCH  43  46
ATOM     46  C   LIG d   1       7.822   0.454  -6.821  0.00  0.00     0.034 C 
ATOM     47  H   LIG d   1       8.616  -0.202  -7.177  0.00  0.00     0.036 H 
ATOM     48  H   LIG d   1       6.910   0.258  -7.385  0.00  0.00     0.036 H 
BRANCH  46  49
ATOM     49  C   LIG d   1       7.574   0.198  -5.357  0.00  0.00     0.214 C 
ATOM     50  O   LIG d   1       8.142  -0.714  -4.796  0.00  0.00    -0.276 OA
ATOM     51  N   LIG d   1       6.719   0.983  -4.671  0.00  0.00    -0.311 N 
ATOM     52  H   LIG d   1       6.264   1.713  -5.121  0.00  0.00     0.149 HD
BRANCH  51  53
ATOM     53  C   LIG d   1       6.477   0.734  -3.248  0.00  0.00     0.043 C 
ATOM     54  H   LIG d   1       6.416   1.684  -2.719  0.00  0.00     0.052 H 
ATOM     55  H   LIG d   1       7.296   0.143  -2.840  0.00  0.00     0.052 H 
BRANCH  53  56
ATOM     56  C   LIG d   1       5.183  -0.019  -3.083  0.00  0.00     0.007 A 
ATOM     57  S   LIG d   1       3.525   0.490  -3.508  0.00  0.00    -0.100 SA
ATOM     58  C   LIG d   1       2.666  -0.982  -2.978  0.00  0.00    -0.024 A 
ATOM     59  C   LIG d   1       3.684  -1.751  -2.518  0.00  0.00    -0.054 A 
ATOM     60  H   LIG d   1       1.609  -1.204  -3.013  0.00  0.00     0.069 H 
ATOM     61  C   LIG d   1       4.973  -1.256  -2.573  0.00  0.00    -0.050 A 
ATOM     62  H   LIG d   1       3.490  -2.734  -2.117  0.00  0.00     0.062 H 
ATOM     63  H   LIG d   1       5.803  -1.848  -2.213  0.00  0.00     0.063 H 
ENDBRANCH  53  56
ENDBRANCH  51  53
ENDBRANCH  46  49
ENDBRANCH  43  46
ENDBRANCH  41  43
ENDBRANCH  40  41
ENDBRANCH  12  40
BRANCH   1  64
ATOM     64  C   LIG d   1      11.453   5.069  -4.778  0.00  0.00    -0.056 C 
ATOM     65  H   LIG d   1      12.144   4.701  -4.019  0.00  0.00     0.024 H 
ATOM     66  H   LIG d   1      11.624   4.537  -5.713  0.00  0.00     0.024 H 
ATOM     67  H   LIG d   1      11.614   6.136  -4.931  0.00  0.00     0.024 H 
ENDBRANCH   1  64
BRANCH  22  68
ATOM     68  C   LIG d   1      12.149   8.380  -2.762  0.00  0.00    -0.056 C 
ATOM     69  H   LIG d   1      12.542   9.396  -2.744  0.00  0.00     0.024 H 
ATOM     70  H   LIG d   1      12.855   7.708  -2.272  0.00  0.00     0.024 H 
ATOM     71  H   LIG d   1      12.005   8.064  -3.796  0.00  0.00     0.024 H 
ENDBRANCH  22  68
TORSDOF 9
ENDMDL
MODEL 4
REMARK VINA RESULT:      -6.7      3.641      7.033
REMARK  9 active torsions:
REMARK  status: ('A' for Active; 'I' for Inactive)
REMARK    1  A    between atoms: C_1  and  C_2 
REMARK    2  A    between atoms: C_13  and  O_15 
REMARK    3  A    between atoms: O_15  and  C_16 
REMARK    4  A    between atoms: C_16  and  C_18 
REMARK    5  A    between atoms: C_18  and  C_19 
REMARK    6  A    between atoms: C_19  and  C_20 
REMARK       I    between atoms: C_20  and  N_22 
REMARK    7  A    between atoms: N_22  and  C_23 
REMARK    8  A    between atoms: C_23  and  C_24 
REMARK    9  A    between atoms: C_37  and  C_38 
ROOT
ATOM      1  C   LIG d   1       7.236  -0.159  -4.410  0.00  0.00     0.008 C 
ATOM      2  C   LIG d   1       7.225   1.182  -3.703  0.00  0.00    -0.044 C 
ATOM      3  C   LIG d   1       7.961   2.181  -4.611  0.00  0.00    -0.049 C 
ATOM      4  C   LIG d   1       9.382   1.720  -4.921  0.00  0.00    -0.029 C 
ATOM      5  H   LIG d   1       9.969   1.739  -4.003  0.00  0.00     0.031 H 
ATOM      6  C   LIG d   1       9.407   0.298  -5.502  0.00  0.00    -0.034 C 
ATOM      7  H   LIG d   1       8.879   0.274  -6.455  0.00  0.00     0.031 H 
ATOM      8  C   LIG d   1       8.718  -0.615  -4.503  0.00  0.00    -0.029 C 
ATOM      9  H   LIG d   1       9.200  -0.543  -3.528  0.00  0.00     0.031 H 
ATOM     10  C   LIG d   1       8.565  -2.078  -4.933  0.00  0.00    -0.046 C 
ATOM     11  C   LIG d   1       7.377  -2.575  -4.061  0.00  0.00    -0.015 C 
ATOM     12  C   LIG d   1       6.558  -1.316  -3.684  0.00  0.00     0.109 C 
ATOM     13  H   LIG d   1       6.587  -1.155  -2.607  0.00  0.00     0.074 H 
ATOM     14  C   LIG d   1      10.863  -0.141  -5.682  0.00  0.00    -0.046 C 
ATOM     15  C   LIG d   1      11.530   0.745  -6.735  0.00  0.00    -0.030 C 
ATOM     16  C   LIG d   1      11.375   2.197  -6.322  0.00  0.00    -0.060 C 
ATOM     17  C   LIG d   1      12.462   2.967  -6.343  0.00  0.00    -0.019 C 
ATOM     18  C   LIG d   1      12.366   4.382  -5.968  0.00  0.00     0.156 C 
ATOM     19  O   LIG d   1      13.336   5.014  -5.605  0.00  0.00    -0.293 OA
ATOM     20  C   LIG d   1      10.991   5.013  -6.062  0.00  0.00     0.011 C 
ATOM     21  C   LIG d   1      10.015   4.089  -5.334  0.00  0.00    -0.037 C 
ATOM     22  C   LIG d   1      10.019   2.691  -5.925  0.00  0.00    -0.007 C 
ATOM     23  H   LIG d   1       6.198   1.511  -3.544  0.00  0.00     0.027 H 
ATOM     24  H   LIG d   1       7.742   1.102  -2.746  0.00  0.00     0.027 H 
ATOM     25  H   LIG d   1       7.409   2.284  -5.545  0.00  0.00     0.027 H 
ATOM     26  H   LIG d   1       8.002   3.150  -4.115  0.00  0.00     0.027 H 
ATOM     27  H   LIG d   1       8.322  -2.146  -5.992  0.00  0.00     0.027 H 
ATOM     28  H   LIG d   1       9.471  -2.642  -4.711  0.00  0.00     0.027 H 
ATOM     29  H   LIG d   1       7.751  -3.061  -3.160  0.00  0.00     0.030 H 
ATOM     30  H   LIG d   1       6.759  -3.268  -4.631  0.00  0.00     0.030 H 
ATOM     31  H   LIG d   1      11.393  -0.043  -4.735  0.00  0.00     0.027 H 
ATOM     32  H   LIG d   1      10.892  -1.181  -6.008  0.00  0.00     0.027 H 
ATOM     33  H   LIG d   1      12.589   0.496  -6.805  0.00  0.00     0.031 H 
ATOM     34  H   LIG d   1      11.051   0.587  -7.702  0.00  0.00     0.031 H 
ATOM     35  H   LIG d   1      13.415   2.549  -6.635  0.00  0.00     0.065 H 
ATOM     36  H   LIG d   1      11.009   5.917  -5.632  0.00  0.00     0.035 H 
ATOM     37  H   LIG d   1      10.699   5.113  -7.107  0.00  0.00     0.035 H 
ATOM     38  H   LIG d   1      10.295   4.033  -4.283  0.00  0.00     0.028 H 
ATOM     39  H   LIG d   1       9.009   4.504  -5.410  0.00  0.00     0.028 H 
ENDROOT
BRANCH  12  40
ATOM     40  O   LIG d   1       5.185  -1.456  -4.135  0.00  0.00    -0.461 OA
BRANCH  40  41
ATOM     41  C   LIG d   1       4.248  -1.627  -3.189  0.00  0.00     0.308 C 
ATOM     42  O   LIG d   1       3.901  -2.741  -2.877  0.00  0.00    -0.251 OA
BRANCH  41  43
ATOM     43  C   LIG d   1       3.629  -0.429  -2.517  0.00  0.00     0.053 C 
ATOM     44  H   LIG d   1       4.234  -0.139  -1.659  0.00  0.00     0.038 H 
ATOM     45  H   LIG d   1       2.621  -0.678  -2.184  0.00  0.00     0.038 H 
BRANCH  43  46
ATOM     46  C   LIG d   1       3.563   0.735  -3.511  0.00  0.00     0.034 C 
ATOM     47  H   LIG d   1       4.571   0.993  -3.834  0.00  0.00     0.036 H 
ATOM     48  H   LIG d   1       3.104   1.598  -3.028  0.00  0.00     0.036 H 
BRANCH  46  49
ATOM     49  C   LIG d   1       2.739   0.329  -4.705  0.00  0.00     0.214 C 
ATOM     50  O   LIG d   1       1.593  -0.038  -4.555  0.00  0.00    -0.276 OA
ATOM     51  N   LIG d   1       3.276   0.374  -5.941  0.00  0.00    -0.311 N 
ATOM     52  H   LIG d   1       4.194   0.667  -6.060  0.00  0.00     0.149 HD
BRANCH  51  53
ATOM     53  C   LIG d   1       2.475  -0.020  -7.102  0.00  0.00     0.043 C 
ATOM     54  H   LIG d   1       1.435   0.255  -6.936  0.00  0.00     0.052 H 
ATOM     55  H   LIG d   1       2.548  -1.098  -7.244  0.00  0.00     0.052 H 
BRANCH  53  56
ATOM     56  C   LIG d   1       2.992   0.684  -8.330  0.00  0.00     0.007 A 
ATOM     57  S   LIG d   1       3.615  -0.018  -9.849  0.00  0.00    -0.100 SA
ATOM     58  C   LIG d   1       3.984   1.509 -10.698  0.00  0.00    -0.024 A 
ATOM     59  C   LIG d   1       3.615   2.436  -9.781  0.00  0.00    -0.054 A 
ATOM     60  H   LIG d   1       4.395   1.655 -11.687  0.00  0.00     0.069 H 
ATOM     61  C   LIG d   1       3.107   2.013  -8.568  0.00  0.00    -0.050 A 
ATOM     62  H   LIG d   1       3.716   3.489  -9.996  0.00  0.00     0.062 H 
ATOM     63  H   LIG d   1       2.805   2.731  -7.819  0.00  0.00     0.063 H 
ENDBRANCH  53  56
ENDBRANCH  51  53
ENDBRANCH  46  49
ENDBRANCH  43  46
ENDBRANCH  41  43
ENDBRANCH  40  41
ENDBRANCH  12  40
BRANCH   1  64
ATOM     64  C   LIG d   1       6.646  -0.010  -5.814  0.00  0.00    -0.056 C 
ATOM     65  H   LIG d   1       6.251   0.999  -5.936  0.00  0.00     0.024 H 
ATOM     66  H   LIG d   1       7.426  -0.186  -6.556  0.00  0.00     0.024 H 
ATOM     67  H   LIG d   1       5.844  -0.735  -5.950  0.00  0.00     0.024 H 
ENDBRANCH   1  64
BRANCH  22  68
ATOM     68  C   LIG d   1       9.138   2.719  -7.176  0.00  0.00    -0.056 C 
ATOM     69  H   LIG d   1       8.703   3.711  -7.292  0.00  0.00     0.024 H 
ATOM     70  H   LIG d   1       9.745   2.484  -8.051  0.00  0.00     0.024 H 
ATOM     71  H   LIG d   1       8.342   1.980  -7.078  0.00  0.00     0.024 H 
ENDBRANCH  22  68
TORSDOF 9
ENDMDL
MODEL 5
REMARK VINA RESULT:      -6.7      8.165     13.097
REMARK  9 active torsions:
REMARK  status: ('A' for Active; 'I' for Inactive)
REMARK    1  A    between atoms: C_1  and  C_2 
REMARK    2  A    between atoms: C_13  and  O_15 
REMARK    3  A    between atoms: O_15  and  C_16 
REMARK    4  A    between atoms: C_16  and  C_18 
REMARK    5  A    between atoms: C_18  and  C_19 
REMARK    6  A    between atoms: C_19  and  C_20 
REMARK       I    between atoms: C_20  and  N_22 
REMARK    7  A    between atoms: N_22  and  C_23 
REMARK    8  A    between atoms: C_23  and  C_24 
REMARK    9  A    between atoms: C_37  and  C_38 
ROOT
ATOM      1  C   LIG d   1      10.814   6.382  -2.243  0.00  0.00     0.008 C 
ATOM      2  C   LIG d   1       9.699   6.683  -3.226  0.00  0.00    -0.044 C 
ATOM      3  C   LIG d   1       9.918   8.116  -3.737  0.00  0.00    -0.049 C 
ATOM      4  C   LIG d   1       9.945   9.125  -2.592  0.00  0.00    -0.029 C 
ATOM      5  H   LIG d   1       8.956   9.171  -2.137  0.00  0.00     0.031 H 
ATOM      6  C   LIG d   1      10.973   8.740  -1.518  0.00  0.00    -0.034 C 
ATOM      7  H   LIG d   1      11.977   8.753  -1.940  0.00  0.00     0.031 H 
ATOM      8  C   LIG d   1      10.630   7.342  -1.036  0.00  0.00    -0.029 C 
ATOM      9  H   LIG d   1       9.602   7.307  -0.676  0.00  0.00     0.031 H 
ATOM     10  C   LIG d   1      11.592   6.735  -0.009  0.00  0.00    -0.046 C 
ATOM     11  C   LIG d   1      11.353   5.207  -0.168  0.00  0.00    -0.015 C 
ATOM     12  C   LIG d   1      10.797   5.000  -1.599  0.00  0.00     0.109 C 
ATOM     13  H   LIG d   1       9.779   4.615  -1.556  0.00  0.00     0.074 H 
ATOM     14  C   LIG d   1      10.867   9.727  -0.351  0.00  0.00    -0.046 C 
ATOM     15  C   LIG d   1      11.276  11.121  -0.832  0.00  0.00    -0.030 C 
ATOM     16  C   LIG d   1      10.422  11.495  -2.029  0.00  0.00    -0.060 C 
ATOM     17  C   LIG d   1       9.839  12.693  -2.026  0.00  0.00    -0.019 C 
ATOM     18  C   LIG d   1       9.015  13.112  -3.165  0.00  0.00     0.156 C 
ATOM     19  O   LIG d   1       8.179  13.984  -3.062  0.00  0.00    -0.293 OA
ATOM     20  C   LIG d   1       9.268  12.399  -4.479  0.00  0.00     0.011 C 
ATOM     21  C   LIG d   1       9.252  10.897  -4.193  0.00  0.00    -0.037 C 
ATOM     22  C   LIG d   1      10.287  10.512  -3.151  0.00  0.00    -0.007 C 
ATOM     23  H   LIG d   1       9.739   5.982  -4.060  0.00  0.00     0.027 H 
ATOM     24  H   LIG d   1       8.733   6.611  -2.727  0.00  0.00     0.027 H 
ATOM     25  H   LIG d   1      10.866   8.161  -4.273  0.00  0.00     0.027 H 
ATOM     26  H   LIG d   1       9.112   8.378  -4.421  0.00  0.00     0.027 H 
ATOM     27  H   LIG d   1      12.623   6.992  -0.248  0.00  0.00     0.027 H 
ATOM     28  H   LIG d   1      11.338   7.065   0.998  0.00  0.00     0.027 H 
ATOM     29  H   LIG d   1      10.628   4.863   0.569  0.00  0.00     0.030 H 
ATOM     30  H   LIG d   1      12.292   4.667  -0.049  0.00  0.00     0.030 H 
ATOM     31  H   LIG d   1       9.840   9.754   0.012  0.00  0.00     0.027 H 
ATOM     32  H   LIG d   1      11.530   9.410   0.454  0.00  0.00     0.027 H 
ATOM     33  H   LIG d   1      11.119  11.844  -0.031  0.00  0.00     0.031 H 
ATOM     34  H   LIG d   1      12.327  11.115  -1.120  0.00  0.00     0.031 H 
ATOM     35  H   LIG d   1       9.972  13.356  -1.183  0.00  0.00     0.065 H 
ATOM     36  H   LIG d   1       8.552  12.641  -5.133  0.00  0.00     0.035 H 
ATOM     37  H   LIG d   1      10.240  12.690  -4.878  0.00  0.00     0.035 H 
ATOM     38  H   LIG d   1       8.263  10.614  -3.834  0.00  0.00     0.028 H 
ATOM     39  H   LIG d   1       9.461  10.358  -5.117  0.00  0.00     0.028 H 
ENDROOT
BRANCH  12  40
ATOM     40  O   LIG d   1      11.648   4.089  -2.342  0.00  0.00    -0.461 OA
BRANCH  40  41
ATOM     41  C   LIG d   1      11.046   3.064  -2.965  0.00  0.00     0.308 C 
ATOM     42  O   LIG d   1      11.709   2.178  -3.449  0.00  0.00    -0.251 OA
BRANCH  41  43
ATOM     43  C   LIG d   1       9.543   3.020  -3.062  0.00  0.00     0.053 C 
ATOM     44  H   LIG d   1       9.121   3.899  -2.574  0.00  0.00     0.038 H 
ATOM     45  H   LIG d   1       9.173   2.119  -2.572  0.00  0.00     0.038 H 
BRANCH  43  46
ATOM     46  C   LIG d   1       9.127   3.006  -4.535  0.00  0.00     0.034 C 
ATOM     47  H   LIG d   1      10.014   2.914  -5.162  0.00  0.00     0.036 H 
ATOM     48  H   LIG d   1       8.608   3.934  -4.775  0.00  0.00     0.036 H 
BRANCH  46  49
ATOM     49  C   LIG d   1       8.209   1.838  -4.787  0.00  0.00     0.214 C 
ATOM     50  O   LIG d   1       7.668   1.712  -5.864  0.00  0.00    -0.276 OA
ATOM     51  N   LIG d   1       7.990   0.932  -3.812  0.00  0.00    -0.311 N 
ATOM     52  H   LIG d   1       8.423   1.033  -2.950  0.00  0.00     0.149 HD
BRANCH  51  53
ATOM     53  C   LIG d   1       7.098  -0.204  -4.056  0.00  0.00     0.043 C 
ATOM     54  H   LIG d   1       7.518  -1.100  -3.599  0.00  0.00     0.052 H 
ATOM     55  H   LIG d   1       6.993  -0.359  -5.129  0.00  0.00     0.052 H 
BRANCH  53  56
ATOM     56  C   LIG d   1       5.747   0.081  -3.455  0.00  0.00     0.007 A 
ATOM     57  S   LIG d   1       4.161  -0.629  -3.867  0.00  0.00    -0.100 SA
ATOM     58  C   LIG d   1       3.168   0.271  -2.687  0.00  0.00    -0.024 A 
ATOM     59  C   LIG d   1       4.097   1.040  -2.068  0.00  0.00    -0.054 A 
ATOM     60  H   LIG d   1       2.103   0.216  -2.512  0.00  0.00     0.069 H 
ATOM     61  C   LIG d   1       5.418   0.942  -2.462  0.00  0.00    -0.050 A 
ATOM     62  H   LIG d   1       3.808   1.718  -1.279  0.00  0.00     0.062 H 
ATOM     63  H   LIG d   1       6.178   1.544  -1.985  0.00  0.00     0.063 H 
ENDBRANCH  53  56
ENDBRANCH  51  53
ENDBRANCH  46  49
ENDBRANCH  43  46
ENDBRANCH  41  43
ENDBRANCH  40  41
ENDBRANCH  12  40
BRANCH   1  64
ATOM     64  C   LIG d   1      12.171   6.631  -2.906  0.00  0.00    -0.056 C 
ATOM     65  H   LIG d   1      12.893   6.937  -2.149  0.00  0.00     0.024 H 
ATOM     66  H   LIG d   1      12.514   5.714  -3.385  0.00  0.00     0.024 H 
ATOM     67  H   LIG d   1      12.071   7.417  -3.654  0.00  0.00     0.024 H 
ENDBRANCH   1  64
BRANCH  22  68
ATOM     68  C   LIG d   1      11.639  10.414  -3.861  0.00  0.00    -0.056 C 
ATOM     69  H   LIG d   1      12.174  11.357  -3.756  0.00  0.00     0.024 H 
ATOM     70  H   LIG d   1      12.226   9.611  -3.413  0.00  0.00     0.024 H 
ATOM     71  H   LIG d   1      11.480  10.201  -4.918  0.00  0.00     0.024 H 
ENDBRANCH  22  68
TORSDOF 9
ENDMDL
MODEL 6
REMARK VINA RESULT:      -6.5      6.559     11.440
REMARK  9 active torsions:
REMARK  status: ('A' for Active; 'I' for Inactive)
REMARK    1  A    between atoms: C_1  and  C_2 
REMARK    2  A    between atoms: C_13  and  O_15 
REMARK    3  A    between atoms: O_15  and  C_16 
REMARK    4  A    between atoms: C_16  and  C_18 
REMARK    5  A    between atoms: C_18  and  C_19 
REMARK    6  A    between atoms: C_19  and  C_20 
REMARK       I    between atoms: C_20  and  N_22 
REMARK    7  A    between atoms: N_22  and  C_23 
REMARK    8  A    between atoms: C_23  and  C_24 
REMARK    9  A    between atoms: C_37  and  C_38 
ROOT
ATOM      1  C   LIG d   1      10.182   4.264  -4.887  0.00  0.00     0.008 C 
ATOM      2  C   LIG d   1       9.346   4.991  -5.923  0.00  0.00    -0.044 C 
ATOM      3  C   LIG d   1       9.781   6.465  -5.906  0.00  0.00    -0.049 C 
ATOM      4  C   LIG d   1       9.622   7.084  -4.520  0.00  0.00    -0.029 C 
ATOM      5  H   LIG d   1       8.562   7.134  -4.274  0.00  0.00     0.031 H 
ATOM      6  C   LIG d   1      10.348   6.264  -3.443  0.00  0.00    -0.034 C 
ATOM      7  H   LIG d   1      11.420   6.257  -3.638  0.00  0.00     0.031 H 
ATOM      8  C   LIG d   1       9.801   4.849  -3.500  0.00  0.00    -0.029 C 
ATOM      9  H   LIG d   1       8.718   4.856  -3.374  0.00  0.00     0.031 H 
ATOM     10  C   LIG d   1      10.457   3.842  -2.550  0.00  0.00    -0.046 C 
ATOM     11  C   LIG d   1      10.147   2.474  -3.222  0.00  0.00    -0.015 C 
ATOM     12  C   LIG d   1       9.917   2.771  -4.725  0.00  0.00     0.109 C 
ATOM     13  H   LIG d   1       8.890   2.538  -5.003  0.00  0.00     0.074 H 
ATOM     14  C   LIG d   1      10.054   6.875  -2.069  0.00  0.00    -0.046 C 
ATOM     15  C   LIG d   1      10.663   8.277  -2.000  0.00  0.00    -0.030 C 
ATOM     16  C   LIG d   1      10.134   9.097  -3.162  0.00  0.00    -0.060 C 
ATOM     17  C   LIG d   1       9.656  10.312  -2.896  0.00  0.00    -0.019 C 
ATOM     18  C   LIG d   1       9.146  11.155  -3.983  0.00  0.00     0.156 C 
ATOM     19  O   LIG d   1       8.376  12.068  -3.776  0.00  0.00    -0.293 OA
ATOM     20  C   LIG d   1       9.638  10.825  -5.379  0.00  0.00     0.011 C 
ATOM     21  C   LIG d   1       9.445   9.323  -5.587  0.00  0.00    -0.037 C 
ATOM     22  C   LIG d   1      10.185   8.511  -4.539  0.00  0.00    -0.007 C 
ATOM     23  H   LIG d   1       9.521   4.563  -6.910  0.00  0.00     0.027 H 
ATOM     24  H   LIG d   1       8.288   4.914  -5.668  0.00  0.00     0.027 H 
ATOM     25  H   LIG d   1      10.826   6.529  -6.207  0.00  0.00     0.027 H 
ATOM     26  H   LIG d   1       9.173   7.024  -6.616  0.00  0.00     0.027 H 
ATOM     27  H   LIG d   1      11.532   4.009  -2.491  0.00  0.00     0.027 H 
ATOM     28  H   LIG d   1      10.006   3.897  -1.558  0.00  0.00     0.027 H 
ATOM     29  H   LIG d   1       9.250   2.036  -2.786  0.00  0.00     0.030 H 
ATOM     30  H   LIG d   1      10.992   1.797  -3.100  0.00  0.00     0.030 H 
ATOM     31  H   LIG d   1       8.976   6.939  -1.922  0.00  0.00     0.027 H 
ATOM     32  H   LIG d   1      10.490   6.248  -1.292  0.00  0.00     0.027 H 
ATOM     33  H   LIG d   1      10.383   8.750  -1.060  0.00  0.00     0.031 H 
ATOM     34  H   LIG d   1      11.749   8.206  -2.067  0.00  0.00     0.031 H 
ATOM     35  H   LIG d   1       9.643  10.676  -1.879  0.00  0.00     0.065 H 
ATOM     36  H   LIG d   1       9.109  11.345  -6.050  0.00  0.00     0.035 H 
ATOM     37  H   LIG d   1      10.693  11.080  -5.471  0.00  0.00     0.035 H 
ATOM     38  H   LIG d   1       8.382   9.090  -5.534  0.00  0.00     0.028 H 
ATOM     39  H   LIG d   1       9.818   9.051  -6.575  0.00  0.00     0.028 H 
ENDROOT
BRANCH  12  40
ATOM     40  O   LIG d   1      10.845   2.005  -5.537  0.00  0.00    -0.461 OA
BRANCH  40  41
ATOM     41  C   LIG d   1      10.314   1.168  -6.442  0.00  0.00     0.308 C 
ATOM     42  O   LIG d   1      10.970   0.250  -6.874  0.00  0.00    -0.251 OA
BRANCH  41  43
ATOM     43  C   LIG d   1       8.899   1.373  -6.919  0.00  0.00     0.053 C 
ATOM     44  H   LIG d   1       8.905   1.615  -7.982  0.00  0.00     0.038 H 
ATOM     45  H   LIG d   1       8.443   2.192  -6.363  0.00  0.00     0.038 H 
BRANCH  43  46
ATOM     46  C   LIG d   1       8.093   0.092  -6.693  0.00  0.00     0.034 C 
ATOM     47  H   LIG d   1       8.688  -0.770  -6.998  0.00  0.00     0.036 H 
ATOM     48  H   LIG d   1       7.178   0.129  -7.284  0.00  0.00     0.036 H 
BRANCH  46  49
ATOM     49  C   LIG d   1       7.744  -0.030  -5.232  0.00  0.00     0.214 C 
ATOM     50  O   LIG d   1       8.255  -0.895  -4.556  0.00  0.00    -0.276 OA
ATOM     51  N   LIG d   1       6.860   0.825  -4.678  0.00  0.00    -0.311 N 
ATOM     52  H   LIG d   1       6.450   1.518  -5.220  0.00  0.00     0.149 HD
BRANCH  51  53
ATOM     53  C   LIG d   1       6.520   0.708  -3.258  0.00  0.00     0.043 C 
ATOM     54  H   LIG d   1       6.429   1.702  -2.823  0.00  0.00     0.052 H 
ATOM     55  H   LIG d   1       7.305   0.155  -2.742  0.00  0.00     0.052 H 
BRANCH  53  56
ATOM     56  C   LIG d   1       5.212  -0.025  -3.114  0.00  0.00     0.007 A 
ATOM     57  S   LIG d   1       3.564   0.525  -3.530  0.00  0.00    -0.100 SA
ATOM     58  C   LIG d   1       2.677  -0.944  -3.038  0.00  0.00    -0.024 A 
ATOM     59  C   LIG d   1       3.680  -1.742  -2.596  0.00  0.00    -0.054 A 
ATOM     60  H   LIG d   1       1.616  -1.145  -3.081  0.00  0.00     0.069 H 
ATOM     61  C   LIG d   1       4.978  -1.271  -2.636  0.00  0.00    -0.050 A 
ATOM     62  H   LIG d   1       3.466  -2.732  -2.220  0.00  0.00     0.062 H 
ATOM     63  H   LIG d   1       5.796  -1.887  -2.290  0.00  0.00     0.063 H 
ENDBRANCH  53  56
ENDBRANCH  51  53
ENDBRANCH  46  49
ENDBRANCH  43  46
ENDBRANCH  41  43
ENDBRANCH  40  41
ENDBRANCH  12  40
BRANCH   1  64
ATOM     64  C   LIG d   1      11.669   4.501  -5.163  0.00  0.00    -0.056 C 
ATOM     65  H   LIG d   1      11.786   5.394  -5.777  0.00  0.00     0.024 H 
ATOM     66  H   LIG d   1      12.196   4.637  -4.219  0.00  0.00     0.024 H 
ATOM     67  H   LIG d   1      12.082   3.641  -5.690  0.00  0.00     0.024 H 
ENDBRANCH   1  64
BRANCH  22  68
ATOM     68  C   LIG d   1      11.651   8.434  -4.968  0.00  0.00    -0.056 C 
ATOM     69  H   LIG d   1      11.772   8.915  -5.939  0.00  0.00     0.024 H 
ATOM     70  H   LIG d   1      12.272   8.944  -4.231  0.00  0.00     0.024 H 
ATOM     71  H   LIG d   1      11.955   7.389  -5.040  0.00  0.00     0.024 H 
ENDBRANCH  22  68
TORSDOF 9
ENDMDL
MODEL 7
REMARK VINA RESULT:      -6.5      8.028     11.675
REMARK  9 active torsions:
REMARK  status: ('A' for Active; 'I' for Inactive)
REMARK    1  A    between atoms: C_1  and  C_2 
REMARK    2  A    between atoms: C_13  and  O_15 
REMARK    3  A    between atoms: O_15  and  C_16 
REMARK    4  A    between atoms: C_16  and  C_18 
REMARK    5  A    between atoms: C_18  and  C_19 
REMARK    6  A    between atoms: C_19  and  C_20 
REMARK       I    between atoms: C_20  and  N_22 
REMARK    7  A    between atoms: N_22  and  C_23 
REMARK    8  A    between atoms: C_23  and  C_24 
REMARK    9  A    between atoms: C_37  and  C_38 
ROOT
ATOM      1  C   LIG d   1      10.230   7.955  -4.161  0.00  0.00     0.008 C 
ATOM      2  C   LIG d   1       9.294   6.794  -4.437  0.00  0.00    -0.044 C 
ATOM      3  C   LIG d   1       9.728   6.167  -5.771  0.00  0.00    -0.049 C 
ATOM      4  C   LIG d   1       9.710   7.186  -6.906  0.00  0.00    -0.029 C 
ATOM      5  H   LIG d   1       8.679   7.487  -7.096  0.00  0.00     0.031 H 
ATOM      6  C   LIG d   1      10.540   8.433  -6.567  0.00  0.00    -0.034 C 
ATOM      7  H   LIG d   1      11.587   8.161  -6.437  0.00  0.00     0.031 H 
ATOM      8  C   LIG d   1       9.991   9.010  -5.274  0.00  0.00    -0.029 C 
ATOM      9  H   LIG d   1       8.926   9.221  -5.376  0.00  0.00     0.031 H 
ATOM     10  C   LIG d   1      10.739  10.225  -4.715  0.00  0.00    -0.046 C 
ATOM     11  C   LIG d   1      10.364  10.202  -3.206  0.00  0.00    -0.015 C 
ATOM     12  C   LIG d   1       9.983   8.737  -2.876  0.00  0.00     0.109 C 
ATOM     13  H   LIG d   1       8.933   8.675  -2.591  0.00  0.00     0.074 H 
ATOM     14  C   LIG d   1      10.386   9.458  -7.695  0.00  0.00    -0.046 C 
ATOM     15  C   LIG d   1      10.999   8.891  -8.977  0.00  0.00    -0.030 C 
ATOM     16  C   LIG d   1      10.356   7.550  -9.275  0.00  0.00    -0.060 C 
ATOM     17  C   LIG d   1       9.906   7.338 -10.512  0.00  0.00    -0.019 C 
ATOM     18  C   LIG d   1       9.290   6.053 -10.859  0.00  0.00     0.156 C 
ATOM     19  O   LIG d   1       8.544   5.939 -11.808  0.00  0.00    -0.293 OA
ATOM     20  C   LIG d   1       9.638   4.875  -9.970  0.00  0.00     0.011 C 
ATOM     21  C   LIG d   1       9.426   5.318  -8.523  0.00  0.00    -0.037 C 
ATOM     22  C   LIG d   1      10.267   6.534  -8.178  0.00  0.00    -0.007 C 
ATOM     23  H   LIG d   1       9.369   6.057  -3.638  0.00  0.00     0.027 H 
ATOM     24  H   LIG d   1       8.267   7.155  -4.513  0.00  0.00     0.027 H 
ATOM     25  H   LIG d   1      10.738   5.772  -5.665  0.00  0.00     0.027 H 
ATOM     26  H   LIG d   1       9.052   5.349  -6.017  0.00  0.00     0.027 H 
ATOM     27  H   LIG d   1      11.814  10.111  -4.848  0.00  0.00     0.027 H 
ATOM     28  H   LIG d   1      10.390  11.144  -5.187  0.00  0.00     0.027 H 
ATOM     29  H   LIG d   1       9.515  10.860  -3.021  0.00  0.00     0.030 H 
ATOM     30  H   LIG d   1      11.216  10.513  -2.603  0.00  0.00     0.030 H 
ATOM     31  H   LIG d   1       9.328   9.664  -7.857  0.00  0.00     0.027 H 
ATOM     32  H   LIG d   1      10.899  10.379  -7.422  0.00  0.00     0.027 H 
ATOM     33  H   LIG d   1      10.815   9.577  -9.804  0.00  0.00     0.031 H 
ATOM     34  H   LIG d   1      12.072   8.759  -8.841  0.00  0.00     0.031 H 
ATOM     35  H   LIG d   1       9.996   8.114 -11.259  0.00  0.00     0.065 H 
ATOM     36  H   LIG d   1       9.044   4.102 -10.193  0.00  0.00     0.035 H 
ATOM     37  H   LIG d   1      10.679   4.591 -10.122  0.00  0.00     0.035 H 
ATOM     38  H   LIG d   1       8.373   5.560  -8.376  0.00  0.00     0.028 H 
ATOM     39  H   LIG d   1       9.697   4.498  -7.857  0.00  0.00     0.028 H 
ENDROOT
BRANCH  12  40
ATOM     40  O   LIG d   1      10.824   8.229  -1.808  0.00  0.00    -0.461 OA
BRANCH  40  41
ATOM     41  C   LIG d   1      10.203   7.689  -0.747  0.00  0.00     0.308 C 
ATOM     42  O   LIG d   1       9.005   7.534  -0.764  0.00  0.00    -0.251 OA
BRANCH  41  43
ATOM     43  C   LIG d   1      11.000   7.278   0.464  0.00  0.00     0.053 C 
ATOM     44  H   LIG d   1      10.539   7.691   1.361  0.00  0.00     0.038 H 
ATOM     45  H   LIG d   1      12.019   7.654   0.373  0.00  0.00     0.038 H 
BRANCH  43  46
ATOM     46  C   LIG d   1      11.027   5.750   0.562  0.00  0.00     0.034 C 
ATOM     47  H   LIG d   1      10.006   5.372   0.609  0.00  0.00     0.036 H 
ATOM     48  H   LIG d   1      11.565   5.454   1.463  0.00  0.00     0.036 H 
BRANCH  46  49
ATOM     49  C   LIG d   1      11.720   5.182  -0.648  0.00  0.00     0.214 C 
ATOM     50  O   LIG d   1      12.878   5.462  -0.872  0.00  0.00    -0.276 OA
ATOM     51  N   LIG d   1      11.052   4.361  -1.484  0.00  0.00    -0.311 N 
ATOM     52  H   LIG d   1      10.125   4.138  -1.305  0.00  0.00     0.149 HD
BRANCH  51  53
ATOM     53  C   LIG d   1      11.726   3.808  -2.661  0.00  0.00     0.043 C 
ATOM     54  H   LIG d   1      12.384   2.996  -2.354  0.00  0.00     0.052 H 
ATOM     55  H   LIG d   1      12.312   4.589  -3.144  0.00  0.00     0.052 H 
BRANCH  53  56
ATOM     56  C   LIG d   1      10.696   3.282  -3.627  0.00  0.00     0.007 A 
ATOM     57  S   LIG d   1      10.936   2.562  -5.243  0.00  0.00    -0.100 SA
ATOM     58  C   LIG d   1       9.223   2.244  -5.634  0.00  0.00    -0.024 A 
ATOM     59  C   LIG d   1       8.593   2.702  -4.525  0.00  0.00    -0.054 A 
ATOM     60  H   LIG d   1       8.799   1.802  -6.524  0.00  0.00     0.069 H 
ATOM     61  C   LIG d   1       9.348   3.234  -3.497  0.00  0.00    -0.050 A 
ATOM     62  H   LIG d   1       7.518   2.651  -4.446  0.00  0.00     0.062 H 
ATOM     63  H   LIG d   1       8.871   3.606  -2.602  0.00  0.00     0.063 H 
ENDBRANCH  53  56
ENDBRANCH  51  53
ENDBRANCH  46  49
ENDBRANCH  43  46
ENDBRANCH  41  43
ENDBRANCH  40  41
ENDBRANCH  12  40
BRANCH   1  64
ATOM     64  C   LIG d   1      11.682   7.471  -4.203  0.00  0.00    -0.056 C 
ATOM     65  H   LIG d   1      11.997   7.181  -3.201  0.00  0.00     0.024 H 
ATOM     66  H   LIG d   1      11.759   6.612  -4.871  0.00  0.00     0.024 H 
ATOM     67  H   LIG d   1      12.322   8.274  -4.569  0.00  0.00     0.024 H 
ENDBRANCH   1  64
BRANCH  22  68
ATOM     68  C   LIG d   1      11.683   6.041  -7.873  0.00  0.00    -0.056 C 
ATOM     69  H   LIG d   1      11.994   5.330  -8.638  0.00  0.00     0.024 H 
ATOM     70  H   LIG d   1      12.368   6.889  -7.865  0.00  0.00     0.024 H 
ATOM     71  H   LIG d   1      11.697   5.554  -6.897  0.00  0.00     0.024 H 
ENDBRANCH  22  68
TORSDOF 9
ENDMDL
MODEL 8
REMARK VINA RESULT:      -6.5      5.036      8.384
REMARK  9 active torsions:
REMARK  status: ('A' for Active; 'I' for Inactive)
REMARK    1  A    between atoms: C_1  and  C_2 
REMARK    2  A    between atoms: C_13  and  O_15 
REMARK    3  A    between atoms: O_15  and  C_16 
REMARK    4  A    between atoms: C_16  and  C_18 
REMARK    5  A    between atoms: C_18  and  C_19 
REMARK    6  A    between atoms: C_19  and  C_20 
REMARK       I    between atoms: C_20  and  N_22 
REMARK    7  A    between atoms: N_22  and  C_23 
REMARK    8  A    between atoms: C_23  and  C_24 
REMARK    9  A    between atoms: C_37  and  C_38 
ROOT
ATOM      1  C   LIG d   1       6.311  -9.521  -4.098  0.00  0.00     0.008 C 
ATOM      2  C   LIG d   1       7.328  -8.418  -3.878  0.00  0.00    -0.044 C 
ATOM      3  C   LIG d   1       8.602  -9.079  -3.328  0.00  0.00    -0.049 C 
ATOM      4  C   LIG d   1       8.326  -9.853  -2.043  0.00  0.00    -0.029 C 
ATOM      5  H   LIG d   1       8.051  -9.149  -1.257  0.00  0.00     0.031 H 
ATOM      6  C   LIG d   1       7.190 -10.871  -2.223  0.00  0.00    -0.034 C 
ATOM      7  H   LIG d   1       7.475 -11.622  -2.960  0.00  0.00     0.031 H 
ATOM      8  C   LIG d   1       5.967 -10.110  -2.703  0.00  0.00    -0.029 C 
ATOM      9  H   LIG d   1       5.718  -9.312  -2.003  0.00  0.00     0.031 H 
ATOM     10  C   LIG d   1       4.735 -10.962  -3.022  0.00  0.00    -0.046 C 
ATOM     11  C   LIG d   1       3.928 -10.058  -3.996  0.00  0.00    -0.015 C 
ATOM     12  C   LIG d   1       4.952  -9.093  -4.643  0.00  0.00     0.109 C 
ATOM     13  H   LIG d   1       4.736  -8.065  -4.355  0.00  0.00     0.074 H 
ATOM     14  C   LIG d   1       6.891 -11.528  -0.872  0.00  0.00    -0.046 C 
ATOM     15  C   LIG d   1       8.107 -12.343  -0.428  0.00  0.00    -0.030 C 
ATOM     16  C   LIG d   1       9.324 -11.436  -0.412  0.00  0.00    -0.060 C 
ATOM     17  C   LIG d   1      10.093 -11.449   0.677  0.00  0.00    -0.019 C 
ATOM     18  C   LIG d   1      11.290 -10.604   0.739  0.00  0.00     0.156 C 
ATOM     19  O   LIG d   1      11.794 -10.288   1.796  0.00  0.00    -0.293 OA
ATOM     20  C   LIG d   1      11.866 -10.150  -0.588  0.00  0.00     0.011 C 
ATOM     21  C   LIG d   1      10.715  -9.572  -1.411  0.00  0.00    -0.037 C 
ATOM     22  C   LIG d   1       9.604 -10.586  -1.612  0.00  0.00    -0.007 C 
ATOM     23  H   LIG d   1       7.547  -7.919  -4.823  0.00  0.00     0.027 H 
ATOM     24  H   LIG d   1       6.944  -7.696  -3.157  0.00  0.00     0.027 H 
ATOM     25  H   LIG d   1       8.999  -9.763  -4.078  0.00  0.00     0.027 H 
ATOM     26  H   LIG d   1       9.344  -8.307  -3.125  0.00  0.00     0.027 H 
ATOM     27  H   LIG d   1       5.024 -11.893  -3.510  0.00  0.00     0.027 H 
ATOM     28  H   LIG d   1       4.161 -11.166  -2.118  0.00  0.00     0.027 H 
ATOM     29  H   LIG d   1       3.176  -9.492  -3.446  0.00  0.00     0.030 H 
ATOM     30  H   LIG d   1       3.450 -10.666  -4.764  0.00  0.00     0.030 H 
ATOM     31  H   LIG d   1       6.678 -10.758  -0.131  0.00  0.00     0.027 H 
ATOM     32  H   LIG d   1       6.027 -12.186  -0.971  0.00  0.00     0.027 H 
ATOM     33  H   LIG d   1       7.934 -12.741   0.572  0.00  0.00     0.031 H 
ATOM     34  H   LIG d   1       8.272 -13.163  -1.126  0.00  0.00     0.031 H 
ATOM     35  H   LIG d   1       9.834 -12.083   1.513  0.00  0.00     0.065 H 
ATOM     36  H   LIG d   1      12.568  -9.456  -0.426  0.00  0.00     0.035 H 
ATOM     37  H   LIG d   1      12.306 -10.999  -1.111  0.00  0.00     0.035 H 
ATOM     38  H   LIG d   1      10.312  -8.700  -0.895  0.00  0.00     0.028 H 
ATOM     39  H   LIG d   1      11.095  -9.263  -2.384  0.00  0.00     0.028 H 
ENDROOT
BRANCH  12  40
ATOM     40  O   LIG d   1       4.926  -9.227  -6.088  0.00  0.00    -0.461 OA
BRANCH  40  41
ATOM     41  C   LIG d   1       4.619  -8.129  -6.796  0.00  0.00     0.308 C 
ATOM     42  O   LIG d   1       3.766  -8.180  -7.651  0.00  0.00    -0.251 OA
BRANCH  41  43
ATOM     43  C   LIG d   1       5.338  -6.833  -6.525  0.00  0.00     0.053 C 
ATOM     44  H   LIG d   1       5.521  -6.314  -7.466  0.00  0.00     0.038 H 
ATOM     45  H   LIG d   1       6.289  -7.040  -6.034  0.00  0.00     0.038 H 
BRANCH  43  46
ATOM     46  C   LIG d   1       4.477  -5.952  -5.616  0.00  0.00     0.034 C 
ATOM     47  H   LIG d   1       4.489  -6.355  -4.603  0.00  0.00     0.036 H 
ATOM     48  H   LIG d   1       3.453  -5.938  -5.989  0.00  0.00     0.036 H 
BRANCH  46  49
ATOM     49  C   LIG d   1       5.028  -4.550  -5.607  0.00  0.00     0.214 C 
ATOM     50  O   LIG d   1       6.227  -4.369  -5.596  0.00  0.00    -0.276 OA
ATOM     51  N   LIG d   1       4.188  -3.495  -5.609  0.00  0.00    -0.311 N 
ATOM     52  H   LIG d   1       3.228  -3.640  -5.617  0.00  0.00     0.149 HD
BRANCH  51  53
ATOM     53  C   LIG d   1       4.724  -2.132  -5.600  0.00  0.00     0.043 C 
ATOM     54  H   LIG d   1       4.154  -1.514  -6.293  0.00  0.00     0.052 H 
ATOM     55  H   LIG d   1       5.769  -2.152  -5.906  0.00  0.00     0.052 H 
BRANCH  53  56
ATOM     56  C   LIG d   1       4.616  -1.560  -4.211  0.00  0.00     0.007 A 
ATOM     57  S   LIG d   1       4.966   0.098  -3.648  0.00  0.00    -0.100 SA
ATOM     58  C   LIG d   1       4.574  -0.134  -1.922  0.00  0.00    -0.024 A 
ATOM     59  C   LIG d   1       4.209  -1.439  -1.890  0.00  0.00    -0.054 A 
ATOM     60  H   LIG d   1       4.616   0.581  -1.112  0.00  0.00     0.069 H 
ATOM     61  C   LIG d   1       4.231  -2.169  -3.063  0.00  0.00    -0.050 A 
ATOM     62  H   LIG d   1       3.905  -1.900  -0.963  0.00  0.00     0.062 H 
ATOM     63  H   LIG d   1       3.945  -3.211  -3.066  0.00  0.00     0.063 H 
ENDBRANCH  53  56
ENDBRANCH  51  53
ENDBRANCH  46  49
ENDBRANCH  43  46
ENDBRANCH  41  43
ENDBRANCH  40  41
ENDBRANCH  12  40
BRANCH   1  64
ATOM     64  C   LIG d   1       6.910 -10.609  -4.992  0.00  0.00    -0.056 C 
ATOM     65  H   LIG d   1       6.163 -11.383  -5.171  0.00  0.00     0.024 H 
ATOM     66  H   LIG d   1       7.214 -10.171  -5.942  0.00  0.00     0.024 H 
ATOM     67  H   LIG d   1       7.778 -11.046  -4.499  0.00  0.00     0.024 H 
ENDBRANCH   1  64
BRANCH  22  68
ATOM     68  C   LIG d   1      10.026 -11.508  -2.758  0.00  0.00    -0.056 C 
ATOM     69  H   LIG d   1       9.200 -11.617  -3.460  0.00  0.00     0.024 H 
ATOM     70  H   LIG d   1      10.885 -11.077  -3.272  0.00  0.00     0.024 H 
ATOM     71  H   LIG d   1      10.296 -12.486  -2.358  0.00  0.00     0.024 H 
ENDBRANCH  22  68
TORSDOF 9
ENDMDL
MODEL 9
REMARK VINA RESULT:      -6.4      3.855      8.973
REMARK  9 active torsions:
REMARK  status: ('A' for Active; 'I' for Inactive)
REMARK    1  A    between atoms: C_1  and  C_2 
REMARK    2  A    between atoms: C_13  and  O_15 
REMARK    3  A    between atoms: O_15  and  C_16 
REMARK    4  A    between atoms: C_16  and  C_18 
REMARK    5  A    between atoms: C_18  and  C_19 
REMARK    6  A    between atoms: C_19  and  C_20 
REMARK       I    between atoms: C_20  and  N_22 
REMARK    7  A    between atoms: N_22  and  C_23 
REMARK    8  A    between atoms: C_23  and  C_24 
REMARK    9  A    between atoms: C_37  and  C_38 
ROOT
ATOM      1  C   LIG d   1       6.333  -5.049  -5.779  0.00  0.00     0.008 C 
ATOM      2  C   LIG d   1       4.869  -4.993  -5.388  0.00  0.00    -0.044 C 
ATOM      3  C   LIG d   1       4.453  -3.513  -5.398  0.00  0.00    -0.049 C 
ATOM      4  C   LIG d   1       5.318  -2.678  -4.458  0.00  0.00    -0.029 C 
ATOM      5  H   LIG d   1       5.124  -2.985  -3.430  0.00  0.00     0.031 H 
ATOM      6  C   LIG d   1       6.815  -2.850  -4.757  0.00  0.00    -0.034 C 
ATOM      7  H   LIG d   1       7.040  -2.487  -5.759  0.00  0.00     0.031 H 
ATOM      8  C   LIG d   1       7.133  -4.332  -4.658  0.00  0.00    -0.029 C 
ATOM      9  H   LIG d   1       6.846  -4.716  -3.679  0.00  0.00     0.031 H 
ATOM     10  C   LIG d   1       8.572  -4.729  -5.002  0.00  0.00    -0.046 C 
ATOM     11  C   LIG d   1       8.438  -6.230  -5.386  0.00  0.00    -0.015 C 
ATOM     12  C   LIG d   1       6.970  -6.434  -5.833  0.00  0.00     0.109 C 
ATOM     13  H   LIG d   1       6.457  -7.112  -5.150  0.00  0.00     0.074 H 
ATOM     14  C   LIG d   1       7.625  -2.079  -3.710  0.00  0.00    -0.046 C 
ATOM     15  C   LIG d   1       7.344  -0.582  -3.859  0.00  0.00    -0.030 C 
ATOM     16  C   LIG d   1       5.847  -0.353  -3.766  0.00  0.00    -0.060 C 
ATOM     17  C   LIG d   1       5.415   0.603  -2.945  0.00  0.00    -0.019 C 
ATOM     18  C   LIG d   1       3.979   0.878  -2.829  0.00  0.00     0.156 C 
ATOM     19  O   LIG d   1       3.512   1.438  -1.860  0.00  0.00    -0.293 OA
ATOM     20  C   LIG d   1       3.110   0.426  -3.986  0.00  0.00     0.011 C 
ATOM     21  C   LIG d   1       3.463  -1.032  -4.280  0.00  0.00    -0.037 C 
ATOM     22  C   LIG d   1       4.937  -1.199  -4.603  0.00  0.00    -0.007 C 
ATOM     23  H   LIG d   1       4.270  -5.551  -6.108  0.00  0.00     0.027 H 
ATOM     24  H   LIG d   1       4.734  -5.409  -4.390  0.00  0.00     0.027 H 
ATOM     25  H   LIG d   1       4.551  -3.123  -6.411  0.00  0.00     0.027 H 
ATOM     26  H   LIG d   1       3.412  -3.434  -5.086  0.00  0.00     0.027 H 
ATOM     27  H   LIG d   1       8.943  -4.146  -5.846  0.00  0.00     0.027 H 
ATOM     28  H   LIG d   1       9.224  -4.607  -4.137  0.00  0.00     0.027 H 
ATOM     29  H   LIG d   1       8.657  -6.858  -4.523  0.00  0.00     0.030 H 
ATOM     30  H   LIG d   1       9.116  -6.470  -6.205  0.00  0.00     0.030 H 
ATOM     31  H   LIG d   1       7.334  -2.405  -2.712  0.00  0.00     0.027 H 
ATOM     32  H   LIG d   1       8.687  -2.268  -3.860  0.00  0.00     0.027 H 
ATOM     33  H   LIG d   1       7.848  -0.035  -3.063  0.00  0.00     0.031 H 
ATOM     34  H   LIG d   1       7.707  -0.237  -4.827  0.00  0.00     0.031 H 
ATOM     35  H   LIG d   1       6.124   1.176  -2.365  0.00  0.00     0.065 H 
ATOM     36  H   LIG d   1       2.146   0.512  -3.732  0.00  0.00     0.035 H 
ATOM     37  H   LIG d   1       3.311   1.040  -4.863  0.00  0.00     0.035 H 
ATOM     38  H   LIG d   1       3.218  -1.640  -3.409  0.00  0.00     0.028 H 
ATOM     39  H   LIG d   1       2.872  -1.376  -5.130  0.00  0.00     0.028 H 
ENDROOT
BRANCH  12  40
ATOM     40  O   LIG d   1       6.924  -6.955  -7.187  0.00  0.00    -0.461 OA
BRANCH  40  41
ATOM     41  C   LIG d   1       6.360  -8.162  -7.357  0.00  0.00     0.308 C 
ATOM     42  O   LIG d   1       7.023  -9.086  -7.764  0.00  0.00    -0.251 OA
BRANCH  41  43
ATOM     43  C   LIG d   1       4.900  -8.361  -7.041  0.00  0.00     0.053 C 
ATOM     44  H   LIG d   1       4.313  -8.262  -7.953  0.00  0.00     0.038 H 
ATOM     45  H   LIG d   1       4.578  -7.611  -6.318  0.00  0.00     0.038 H 
BRANCH  43  46
ATOM     46  C   LIG d   1       4.693  -9.759  -6.451  0.00  0.00     0.034 C 
ATOM     47  H   LIG d   1       5.479 -10.424  -6.808  0.00  0.00     0.036 H 
ATOM     48  H   LIG d   1       3.722 -10.144  -6.762  0.00  0.00     0.036 H 
BRANCH  46  49
ATOM     49  C   LIG d   1       4.744  -9.681  -4.947  0.00  0.00     0.214 C 
ATOM     50  O   LIG d   1       3.988  -8.945  -4.351  0.00  0.00    -0.276 OA
ATOM     51  N   LIG d   1       5.633 -10.431  -4.263  0.00  0.00    -0.311 N 
ATOM     52  H   LIG d   1       6.238 -11.021  -4.741  0.00  0.00     0.149 HD
BRANCH  51  53
ATOM     53  C   LIG d   1       5.683 -10.356  -2.802  0.00  0.00     0.043 C 
ATOM     54  H   LIG d   1       5.494 -11.343  -2.381  0.00  0.00     0.052 H 
ATOM     55  H   LIG d   1       4.924  -9.659  -2.448  0.00  0.00     0.052 H 
BRANCH  53  56
ATOM     56  C   LIG d   1       7.045  -9.878  -2.370  0.00  0.00     0.007 A 
ATOM     57  S   LIG d   1       8.065 -10.456  -1.024  0.00  0.00    -0.100 SA
ATOM     58  C   LIG d   1       9.447  -9.351  -1.262  0.00  0.00    -0.024 A 
ATOM     59  C   LIG d   1       9.044  -8.627  -2.335  0.00  0.00    -0.054 A 
ATOM     60  H   LIG d   1      10.366  -9.279  -0.698  0.00  0.00     0.069 H 
ATOM     61  C   LIG d   1       7.814  -8.897  -2.902  0.00  0.00    -0.050 A 
ATOM     62  H   LIG d   1       9.677  -7.851  -2.740  0.00  0.00     0.062 H 
ATOM     63  H   LIG d   1       7.469  -8.334  -3.758  0.00  0.00     0.063 H 
ENDBRANCH  53  56
ENDBRANCH  51  53
ENDBRANCH  46  49
ENDBRANCH  43  46
ENDBRANCH  41  43
ENDBRANCH  40  41
ENDBRANCH  12  40
BRANCH   1  64
ATOM     64  C   LIG d   1       6.542  -4.329  -7.113  0.00  0.00    -0.056 C 
ATOM     65  H   LIG d   1       7.429  -3.698  -7.049  0.00  0.00     0.024 H 
ATOM     66  H   LIG d   1       6.677  -5.065  -7.905  0.00  0.00     0.024 H 
ATOM     67  H   LIG d   1       5.671  -3.713  -7.333  0.00  0.00     0.024 H 
ENDBRANCH   1  64
BRANCH  22  68
ATOM     68  C   LIG d   1       5.134  -0.803  -6.068  0.00  0.00    -0.056 C 
ATOM     69  H   LIG d   1       5.233   0.280  -6.141  0.00  0.00     0.024 H 
ATOM     70  H   LIG d   1       6.038  -1.277  -6.452  0.00  0.00     0.024 H 
ATOM     71  H   LIG d   1       4.274  -1.131  -6.652  0.00  0.00     0.024 H 
ENDBRANCH  22  68
TORSDOF 9
ENDMDL
