MODEL 1
REMARK VINA RESULT:      -7.6      0.000      0.000
REMARK  3 active torsions:
REMARK  status: ('A' for Active; 'I' for Inactive)
REMARK    1  A    between atoms: C_7  and  N_22 
REMARK    2  A    between atoms: C_8  and  C_10 
REMARK       I    between atoms: N_22  and  C_23 
REMARK    3  A    between atoms: C_23  and  C_25 
ROOT
ATOM      1  C   LIG d   1       4.071  -5.747  -7.460  0.00  0.00    -0.061 A 
ATOM      2  C   LIG d   1       4.744  -6.417  -6.448  0.00  0.00    -0.058 A 
ATOM      3  C   LIG d   1       5.278  -5.726  -5.381  0.00  0.00    -0.019 A 
ATOM      4  C   LIG d   1       5.145  -4.345  -5.313  0.00  0.00     0.138 A 
ATOM      5  C   LIG d   1       4.462  -3.672  -6.343  0.00  0.00     0.042 A 
ATOM      6  C   LIG d   1       3.933  -4.387  -7.417  0.00  0.00    -0.049 A 
ATOM      7  C   LIG d   1       4.495  -2.250  -5.980  0.00  0.00     0.088 A 
ATOM      8  C   LIG d   1       5.177  -2.181  -4.795  0.00  0.00     0.158 A 
ATOM      9  O   LIG d   1       5.551  -3.423  -4.417  0.00  0.00    -0.453 OA
ATOM     10  H   LIG d   1       3.659  -6.302  -8.289  0.00  0.00     0.062 H 
ATOM     11  H   LIG d   1       4.850  -7.490  -6.496  0.00  0.00     0.062 H 
ATOM     12  H   LIG d   1       5.799  -6.257  -4.599  0.00  0.00     0.065 H 
ATOM     13  H   LIG d   1       3.413  -3.870  -8.210  0.00  0.00     0.062 H 
ENDROOT
BRANCH   8  14
ATOM     14  C   LIG d   1       5.456  -0.951  -4.051  0.00  0.00     0.037 A 
ATOM     15  C   LIG d   1       6.704  -0.193  -4.271  0.00  0.00     0.030 A 
ATOM     16  C   LIG d   1       6.923   0.980  -3.532  0.00  0.00     0.140 A 
ATOM     17  C   LIG d   1       7.653  -0.625  -5.195  0.00  0.00    -0.032 A 
ATOM     18  O   LIG d   1       5.999   1.397  -2.636  0.00  0.00    -0.422 OA
ATOM     19  C   LIG d   1       8.092   1.702  -3.729  0.00  0.00    -0.017 A 
ATOM     20  C   LIG d   1       4.859   0.721  -2.422  0.00  0.00     0.338 A 
ATOM     21  C   LIG d   1       4.553  -0.455  -3.117  0.00  0.00     0.034 A 
ATOM     22  O   LIG d   1       4.065   1.147  -1.602  0.00  0.00    -0.245 OA
ATOM     23  H   LIG d   1       3.626  -0.975  -2.926  0.00  0.00     0.070 H 
ATOM     24  C   LIG d   1       9.025   1.266  -4.647  0.00  0.00    -0.040 A 
ATOM     25  H   LIG d   1       8.269   2.607  -3.167  0.00  0.00     0.066 H 
ATOM     26  C   LIG d   1       8.809   0.107  -5.378  0.00  0.00     0.042 A 
ATOM     27  H   LIG d   1       9.932   1.832  -4.797  0.00  0.00     0.063 H 
ATOM     28 CL   LIG d   1       9.997  -0.426  -6.526  0.00  0.00    -0.084 Cl
ATOM     29  H   LIG d   1       7.487  -1.527  -5.764  0.00  0.00     0.064 H 
ENDBRANCH   8  14
BRANCH   7  30
ATOM     30  N   LIG d   1       3.947  -1.189  -6.694  0.00  0.00    -0.275 N 
ATOM     31  C   LIG d   1       4.670  -0.579  -7.656  0.00  0.00     0.284 C 
ATOM     32  O   LIG d   1       5.761  -1.020  -7.968  0.00  0.00    -0.267 OA
ATOM     33  H   LIG d   1       3.046  -0.888  -6.501  0.00  0.00     0.155 HD
BRANCH  31  34
ATOM     34  C   LIG d   1       4.142   0.613  -8.324  0.00  0.00     0.189 A 
ATOM     35  O   LIG d   1       4.872   1.557  -8.953  0.00  0.00    -0.458 OA
ATOM     36  C   LIG d   1       4.054   2.496  -9.446  0.00  0.00     0.093 A 
ATOM     37  C   LIG d   1       2.781   2.173  -9.132  0.00  0.00    -0.023 A 
ATOM     38  H   LIG d   1       4.362   3.371 -10.000  0.00  0.00     0.103 H 
ATOM     39  C   LIG d   1       2.826   0.968  -8.413  0.00  0.00    -0.011 A 
ATOM     40  H   LIG d   1       1.894   2.734  -9.387  0.00  0.00     0.065 H 
ATOM     41  H   LIG d   1       1.984   0.426  -8.009  0.00  0.00     0.066 H 
ENDBRANCH  31  34
ENDBRANCH   7  30
TORSDOF 3
ENDMDL
MODEL 2
REMARK VINA RESULT:      -7.4      2.666      5.499
REMARK  3 active torsions:
REMARK  status: ('A' for Active; 'I' for Inactive)
REMARK    1  A    between atoms: C_7  and  N_22 
REMARK    2  A    between atoms: C_8  and  C_10 
REMARK       I    between atoms: N_22  and  C_23 
REMARK    3  A    between atoms: C_23  and  C_25 
ROOT
ATOM      1  C   LIG d   1       8.478   3.054  -8.671  0.00  0.00    -0.061 A 
ATOM      2  C   LIG d   1       9.305   3.120  -7.558  0.00  0.00    -0.058 A 
ATOM      3  C   LIG d   1       9.163   2.223  -6.522  0.00  0.00    -0.019 A 
ATOM      4  C   LIG d   1       8.183   1.239  -6.586  0.00  0.00     0.138 A 
ATOM      5  C   LIG d   1       7.349   1.177  -7.717  0.00  0.00     0.042 A 
ATOM      6  C   LIG d   1       7.504   2.098  -8.754  0.00  0.00    -0.049 A 
ATOM      7  C   LIG d   1       6.439   0.050  -7.481  0.00  0.00     0.088 A 
ATOM      8  C   LIG d   1       6.788  -0.463  -6.260  0.00  0.00     0.158 A 
ATOM      9  O   LIG d   1       7.816   0.248  -5.749  0.00  0.00    -0.453 OA
ATOM     10  H   LIG d   1       8.602   3.765  -9.474  0.00  0.00     0.062 H 
ATOM     11  H   LIG d   1      10.067   3.883  -7.504  0.00  0.00     0.062 H 
ATOM     12  H   LIG d   1       9.811   2.283  -5.661  0.00  0.00     0.065 H 
ATOM     13  H   LIG d   1       6.860   2.053  -9.620  0.00  0.00     0.062 H 
ENDROOT
BRANCH   8  14
ATOM     14  C   LIG d   1       6.146  -1.607  -5.610  0.00  0.00     0.037 A 
ATOM     15  C   LIG d   1       5.252  -1.423  -4.449  0.00  0.00     0.030 A 
ATOM     16  C   LIG d   1       4.661  -2.553  -3.863  0.00  0.00     0.140 A 
ATOM     17  C   LIG d   1       4.991  -0.153  -3.938  0.00  0.00    -0.032 A 
ATOM     18  O   LIG d   1       4.916  -3.784  -4.362  0.00  0.00    -0.422 OA
ATOM     19  C   LIG d   1       3.819  -2.393  -2.772  0.00  0.00    -0.017 A 
ATOM     20  C   LIG d   1       5.726  -3.972  -5.416  0.00  0.00     0.338 A 
ATOM     21  C   LIG d   1       6.353  -2.904  -6.069  0.00  0.00     0.034 A 
ATOM     22  O   LIG d   1       5.916  -5.106  -5.821  0.00  0.00    -0.245 OA
ATOM     23  H   LIG d   1       6.996  -3.086  -6.917  0.00  0.00     0.070 H 
ATOM     24  C   LIG d   1       3.567  -1.131  -2.273  0.00  0.00    -0.040 A 
ATOM     25  H   LIG d   1       3.358  -3.256  -2.314  0.00  0.00     0.066 H 
ATOM     26  C   LIG d   1       4.151  -0.014  -2.853  0.00  0.00     0.042 A 
ATOM     27  H   LIG d   1       2.911  -1.013  -1.424  0.00  0.00     0.063 H 
ATOM     28 CL   LIG d   1       3.823   1.565  -2.209  0.00  0.00    -0.084 Cl
ATOM     29  H   LIG d   1       5.445   0.718  -4.388  0.00  0.00     0.064 H 
ENDBRANCH   8  14
BRANCH   7  30
ATOM     30  N   LIG d   1       5.430  -0.404  -8.323  0.00  0.00    -0.275 N 
ATOM     31  C   LIG d   1       4.157  -0.006  -8.125  0.00  0.00     0.284 C 
ATOM     32  O   LIG d   1       3.905   0.828  -7.274  0.00  0.00    -0.267 OA
ATOM     33  H   LIG d   1       5.641  -1.006  -9.053  0.00  0.00     0.155 HD
BRANCH  31  34
ATOM     34  C   LIG d   1       3.076  -0.576  -8.933  0.00  0.00     0.189 A 
ATOM     35  O   LIG d   1       2.812  -1.890  -9.089  0.00  0.00    -0.458 OA
ATOM     36  C   LIG d   1       1.751  -2.038  -9.894  0.00  0.00     0.093 A 
ATOM     37  C   LIG d   1       1.322  -0.816 -10.277  0.00  0.00    -0.023 A 
ATOM     38  H   LIG d   1       1.314  -2.979 -10.191  0.00  0.00     0.103 H 
ATOM     39  C   LIG d   1       2.164   0.128  -9.667  0.00  0.00    -0.011 A 
ATOM     40  H   LIG d   1       0.488  -0.603 -10.929  0.00  0.00     0.065 H 
ATOM     41  H   LIG d   1       2.102   1.202  -9.759  0.00  0.00     0.066 H 
ENDBRANCH  31  34
ENDBRANCH   7  30
TORSDOF 3
ENDMDL
MODEL 3
REMARK VINA RESULT:      -7.4      2.685      5.730
REMARK  3 active torsions:
REMARK  status: ('A' for Active; 'I' for Inactive)
REMARK    1  A    between atoms: C_7  and  N_22 
REMARK    2  A    between atoms: C_8  and  C_10 
REMARK       I    between atoms: N_22  and  C_23 
REMARK    3  A    between atoms: C_23  and  C_25 
ROOT
ATOM      1  C   LIG d   1      10.327   3.571  -6.366  0.00  0.00    -0.061 A 
ATOM      2  C   LIG d   1      11.181   2.951  -5.464  0.00  0.00    -0.058 A 
ATOM      3  C   LIG d   1      10.855   1.732  -4.910  0.00  0.00    -0.019 A 
ATOM      4  C   LIG d   1       9.659   1.112  -5.255  0.00  0.00     0.138 A 
ATOM      5  C   LIG d   1       8.799   1.746  -6.169  0.00  0.00     0.042 A 
ATOM      6  C   LIG d   1       9.144   2.982  -6.715  0.00  0.00    -0.049 A 
ATOM      7  C   LIG d   1       7.646   0.850  -6.318  0.00  0.00     0.088 A 
ATOM      8  C   LIG d   1       7.896  -0.222  -5.503  0.00  0.00     0.158 A 
ATOM      9  O   LIG d   1       9.085  -0.051  -4.886  0.00  0.00    -0.453 OA
ATOM     10  H   LIG d   1      10.597   4.526  -6.790  0.00  0.00     0.062 H 
ATOM     11  H   LIG d   1      12.111   3.429  -5.194  0.00  0.00     0.062 H 
ATOM     12  H   LIG d   1      11.526   1.258  -4.210  0.00  0.00     0.065 H 
ATOM     13  H   LIG d   1       8.480   3.471  -7.413  0.00  0.00     0.062 H 
ENDROOT
BRANCH   8  14
ATOM     14  C   LIG d   1       7.012  -1.376  -5.329  0.00  0.00     0.037 A 
ATOM     15  C   LIG d   1       5.970  -1.388  -4.282  0.00  0.00     0.030 A 
ATOM     16  C   LIG d   1       5.149  -2.519  -4.157  0.00  0.00     0.140 A 
ATOM     17  C   LIG d   1       5.798  -0.300  -3.428  0.00  0.00    -0.032 A 
ATOM     18  O   LIG d   1       5.318  -3.572  -4.988  0.00  0.00    -0.422 OA
ATOM     19  C   LIG d   1       4.166  -2.543  -3.177  0.00  0.00    -0.017 A 
ATOM     20  C   LIG d   1       6.260  -3.580  -5.946  0.00  0.00     0.338 A 
ATOM     21  C   LIG d   1       7.120  -2.495  -6.148  0.00  0.00     0.034 A 
ATOM     22  O   LIG d   1       6.364  -4.560  -6.664  0.00  0.00    -0.245 OA
ATOM     23  H   LIG d   1       7.865  -2.528  -6.929  0.00  0.00     0.070 H 
ATOM     24  C   LIG d   1       4.003  -1.461  -2.337  0.00  0.00    -0.040 A 
ATOM     25  H   LIG d   1       3.527  -3.408  -3.074  0.00  0.00     0.066 H 
ATOM     26  C   LIG d   1       4.815  -0.342  -2.460  0.00  0.00     0.042 A 
ATOM     27  H   LIG d   1       3.237  -1.484  -1.577  0.00  0.00     0.063 H 
ATOM     28 CL   LIG d   1       4.595   1.008  -1.392  0.00  0.00    -0.084 Cl
ATOM     29  H   LIG d   1       6.429   0.571  -3.522  0.00  0.00     0.064 H 
ENDBRANCH   8  14
BRANCH   7  30
ATOM     30  N   LIG d   1       6.527   1.049  -7.120  0.00  0.00    -0.275 N 
ATOM     31  C   LIG d   1       6.610   0.858  -8.452  0.00  0.00     0.284 C 
ATOM     32  O   LIG d   1       7.634   0.417  -8.941  0.00  0.00    -0.267 OA
ATOM     33  H   LIG d   1       5.687   1.323  -6.722  0.00  0.00     0.155 HD
BRANCH  31  34
ATOM     34  C   LIG d   1       5.469   1.184  -9.312  0.00  0.00     0.189 A 
ATOM     35  O   LIG d   1       5.100   0.518 -10.426  0.00  0.00    -0.458 OA
ATOM     36  C   LIG d   1       4.012   1.097 -10.951  0.00  0.00     0.093 A 
ATOM     37  C   LIG d   1       3.670   2.154 -10.184  0.00  0.00    -0.023 A 
ATOM     38  H   LIG d   1       3.497   0.774 -11.843  0.00  0.00     0.103 H 
ATOM     39  C   LIG d   1       4.596   2.219  -9.131  0.00  0.00    -0.011 A 
ATOM     40  H   LIG d   1       2.838   2.824 -10.348  0.00  0.00     0.065 H 
ATOM     41  H   LIG d   1       4.615   2.946  -8.332  0.00  0.00     0.066 H 
ENDBRANCH  31  34
ENDBRANCH   7  30
TORSDOF 3
ENDMDL
MODEL 4
REMARK VINA RESULT:      -7.4      2.463      5.173
REMARK  3 active torsions:
REMARK  status: ('A' for Active; 'I' for Inactive)
REMARK    1  A    between atoms: C_7  and  N_22 
REMARK    2  A    between atoms: C_8  and  C_10 
REMARK       I    between atoms: N_22  and  C_23 
REMARK    3  A    between atoms: C_23  and  C_25 
ROOT
ATOM      1  C   LIG d   1       3.677   1.451  -2.748  0.00  0.00    -0.061 A 
ATOM      2  C   LIG d   1       4.194   0.797  -1.637  0.00  0.00    -0.058 A 
ATOM      3  C   LIG d   1       4.676  -0.490  -1.739  0.00  0.00    -0.019 A 
ATOM      4  C   LIG d   1       4.647  -1.146  -2.964  0.00  0.00     0.138 A 
ATOM      5  C   LIG d   1       4.122  -0.478  -4.085  0.00  0.00     0.042 A 
ATOM      6  C   LIG d   1       3.633   0.823  -3.961  0.00  0.00    -0.049 A 
ATOM      7  C   LIG d   1       4.233  -1.425  -5.201  0.00  0.00     0.088 A 
ATOM      8  C   LIG d   1       4.800  -2.556  -4.678  0.00  0.00     0.158 A 
ATOM      9  O   LIG d   1       5.037  -2.374  -3.361  0.00  0.00    -0.453 OA
ATOM     10  H   LIG d   1       3.303   2.458  -2.651  0.00  0.00     0.062 H 
ATOM     11  H   LIG d   1       4.219   1.303  -0.684  0.00  0.00     0.062 H 
ATOM     12  H   LIG d   1       5.077  -0.989  -0.869  0.00  0.00     0.065 H 
ATOM     13  H   LIG d   1       3.226   1.333  -4.822  0.00  0.00     0.062 H 
ENDROOT
BRANCH   8  14
ATOM     14  C   LIG d   1       5.103  -3.775  -5.430  0.00  0.00     0.037 A 
ATOM     15  C   LIG d   1       6.443  -4.393  -5.376  0.00  0.00     0.030 A 
ATOM     16  C   LIG d   1       6.681  -5.561  -6.116  0.00  0.00     0.140 A 
ATOM     17  C   LIG d   1       7.460  -3.834  -4.605  0.00  0.00    -0.032 A 
ATOM     18  O   LIG d   1       5.691  -6.102  -6.862  0.00  0.00    -0.422 OA
ATOM     19  C   LIG d   1       7.937  -6.152  -6.073  0.00  0.00    -0.017 A 
ATOM     20  C   LIG d   1       4.466  -5.555  -6.925  0.00  0.00     0.338 A 
ATOM     21  C   LIG d   1       4.136  -4.394  -6.216  0.00  0.00     0.034 A 
ATOM     22  O   LIG d   1       3.615  -6.089  -7.615  0.00  0.00    -0.245 OA
ATOM     23  H   LIG d   1       3.141  -3.980  -6.283  0.00  0.00     0.070 H 
ATOM     24  C   LIG d   1       8.937  -5.590  -5.307  0.00  0.00    -0.040 A 
ATOM     25  H   LIG d   1       8.130  -7.052  -6.638  0.00  0.00     0.066 H 
ATOM     26  C   LIG d   1       8.702  -4.435  -4.575  0.00  0.00     0.042 A 
ATOM     27  H   LIG d   1       9.912  -6.053  -5.277  0.00  0.00     0.063 H 
ATOM     28 CL   LIG d   1       9.975  -3.743  -3.618  0.00  0.00    -0.084 Cl
ATOM     29  H   LIG d   1       7.279  -2.934  -4.035  0.00  0.00     0.064 H 
ENDBRANCH   8  14
BRANCH   7  30
ATOM     30  N   LIG d   1       3.842  -1.217  -6.520  0.00  0.00    -0.275 N 
ATOM     31  C   LIG d   1       4.539  -0.371  -7.305  0.00  0.00     0.284 C 
ATOM     32  O   LIG d   1       5.567   0.135  -6.892  0.00  0.00    -0.267 OA
ATOM     33  H   LIG d   1       3.069  -1.682  -6.876  0.00  0.00     0.155 HD
BRANCH  31  34
ATOM     34  C   LIG d   1       4.059  -0.058  -8.653  0.00  0.00     0.189 A 
ATOM     35  O   LIG d   1       4.674   0.744  -9.547  0.00  0.00    -0.458 OA
ATOM     36  C   LIG d   1       3.948   0.795 -10.672  0.00  0.00     0.093 A 
ATOM     37  C   LIG d   1       2.846   0.030 -10.513  0.00  0.00    -0.023 A 
ATOM     38  H   LIG d   1       4.200   1.359 -11.557  0.00  0.00     0.103 H 
ATOM     39  C   LIG d   1       2.908  -0.521  -9.224  0.00  0.00    -0.011 A 
ATOM     40  H   LIG d   1       2.065  -0.129 -11.242  0.00  0.00     0.065 H 
ATOM     41  H   LIG d   1       2.185  -1.183  -8.770  0.00  0.00     0.066 H 
ENDBRANCH  31  34
ENDBRANCH   7  30
TORSDOF 3
ENDMDL
MODEL 5
REMARK VINA RESULT:      -7.3      4.010      6.241
REMARK  3 active torsions:
REMARK  status: ('A' for Active; 'I' for Inactive)
REMARK    1  A    between atoms: C_7  and  N_22 
REMARK    2  A    between atoms: C_8  and  C_10 
REMARK       I    between atoms: N_22  and  C_23 
REMARK    3  A    between atoms: C_23  and  C_25 
ROOT
ATOM      1  C   LIG d   1       3.641   0.009  -2.232  0.00  0.00    -0.061 A 
ATOM      2  C   LIG d   1       3.118  -1.195  -2.686  0.00  0.00    -0.058 A 
ATOM      3  C   LIG d   1       3.897  -2.072  -3.409  0.00  0.00    -0.019 A 
ATOM      4  C   LIG d   1       5.220  -1.753  -3.692  0.00  0.00     0.138 A 
ATOM      5  C   LIG d   1       5.743  -0.532  -3.230  0.00  0.00     0.042 A 
ATOM      6  C   LIG d   1       4.938   0.345  -2.503  0.00  0.00    -0.049 A 
ATOM      7  C   LIG d   1       7.138  -0.498  -3.686  0.00  0.00     0.088 A 
ATOM      8  C   LIG d   1       7.338  -1.669  -4.368  0.00  0.00     0.158 A 
ATOM      9  O   LIG d   1       6.199  -2.395  -4.360  0.00  0.00    -0.453 OA
ATOM     10  H   LIG d   1       3.018   0.685  -1.667  0.00  0.00     0.062 H 
ATOM     11  H   LIG d   1       2.091  -1.446  -2.468  0.00  0.00     0.062 H 
ATOM     12  H   LIG d   1       3.480  -3.006  -3.756  0.00  0.00     0.065 H 
ATOM     13  H   LIG d   1       5.339   1.285  -2.153  0.00  0.00     0.062 H 
ENDROOT
BRANCH   8  14
ATOM     14  C   LIG d   1       8.593  -2.071  -5.005  0.00  0.00     0.037 A 
ATOM     15  C   LIG d   1       9.474  -3.083  -4.387  0.00  0.00     0.030 A 
ATOM     16  C   LIG d   1      10.665  -3.433  -5.039  0.00  0.00     0.140 A 
ATOM     17  C   LIG d   1       9.135  -3.686  -3.177  0.00  0.00    -0.032 A 
ATOM     18  O   LIG d   1      10.991  -2.847  -6.213  0.00  0.00    -0.422 OA
ATOM     19  C   LIG d   1      11.501  -4.383  -4.468  0.00  0.00    -0.017 A 
ATOM     20  C   LIG d   1      10.204  -1.925  -6.792  0.00  0.00     0.338 A 
ATOM     21  C   LIG d   1       8.994  -1.518  -6.217  0.00  0.00     0.034 A 
ATOM     22  O   LIG d   1      10.551  -1.432  -7.851  0.00  0.00    -0.245 OA
ATOM     23  H   LIG d   1       8.380  -0.778  -6.707  0.00  0.00     0.070 H 
ATOM     24  C   LIG d   1      11.157  -4.974  -3.270  0.00  0.00    -0.040 A 
ATOM     25  H   LIG d   1      12.420  -4.661  -4.963  0.00  0.00     0.066 H 
ATOM     26  C   LIG d   1       9.978  -4.628  -2.625  0.00  0.00     0.042 A 
ATOM     27  H   LIG d   1      11.810  -5.713  -2.830  0.00  0.00     0.063 H 
ATOM     28 CL   LIG d   1       9.564  -5.382  -1.117  0.00  0.00    -0.084 Cl
ATOM     29  H   LIG d   1       8.218  -3.417  -2.673  0.00  0.00     0.064 H 
ENDBRANCH   8  14
BRANCH   7  30
ATOM     30  N   LIG d   1       8.067   0.515  -3.471  0.00  0.00    -0.275 N 
ATOM     31  C   LIG d   1       8.096   1.587  -4.288  0.00  0.00     0.284 C 
ATOM     32  O   LIG d   1       7.247   1.717  -5.151  0.00  0.00    -0.267 OA
ATOM     33  H   LIG d   1       8.692   0.451  -2.733  0.00  0.00     0.155 HD
BRANCH  31  34
ATOM     34  C   LIG d   1       9.149   2.594  -4.138  0.00  0.00     0.189 A 
ATOM     35  O   LIG d   1       9.922   2.777  -3.047  0.00  0.00    -0.458 OA
ATOM     36  C   LIG d   1      10.775   3.785  -3.271  0.00  0.00     0.093 A 
ATOM     37  C   LIG d   1      10.556   4.275  -4.510  0.00  0.00    -0.023 A 
ATOM     38  H   LIG d   1      11.514   4.150  -2.572  0.00  0.00     0.103 H 
ATOM     39  C   LIG d   1       9.516   3.519  -5.075  0.00  0.00    -0.011 A 
ATOM     40  H   LIG d   1      11.081   5.092  -4.980  0.00  0.00     0.065 H 
ATOM     41  H   LIG d   1       9.089   3.643  -6.059  0.00  0.00     0.066 H 
ENDBRANCH  31  34
ENDBRANCH   7  30
TORSDOF 3
ENDMDL
MODEL 6
REMARK VINA RESULT:      -7.1      2.380      6.067
REMARK  3 active torsions:
REMARK  status: ('A' for Active; 'I' for Inactive)
REMARK    1  A    between atoms: C_7  and  N_22 
REMARK    2  A    between atoms: C_8  and  C_10 
REMARK       I    between atoms: N_22  and  C_23 
REMARK    3  A    between atoms: C_23  and  C_25 
ROOT
ATOM      1  C   LIG d   1       4.477  -1.176  -1.611  0.00  0.00    -0.061 A 
ATOM      2  C   LIG d   1       4.466   0.212  -1.658  0.00  0.00    -0.058 A 
ATOM      3  C   LIG d   1       4.332   0.874  -2.858  0.00  0.00    -0.019 A 
ATOM      4  C   LIG d   1       4.205   0.151  -4.039  0.00  0.00     0.138 A 
ATOM      5  C   LIG d   1       4.217  -1.255  -3.984  0.00  0.00     0.042 A 
ATOM      6  C   LIG d   1       4.360  -1.908  -2.760  0.00  0.00    -0.049 A 
ATOM      7  C   LIG d   1       4.067  -1.708  -5.372  0.00  0.00     0.088 A 
ATOM      8  C   LIG d   1       3.980  -0.572  -6.131  0.00  0.00     0.158 A 
ATOM      9  O   LIG d   1       4.062   0.512  -5.330  0.00  0.00    -0.453 OA
ATOM     10  H   LIG d   1       4.583  -1.680  -0.662  0.00  0.00     0.062 H 
ATOM     11  H   LIG d   1       4.563   0.777  -0.743  0.00  0.00     0.062 H 
ATOM     12  H   LIG d   1       4.324   1.954  -2.883  0.00  0.00     0.065 H 
ATOM     13  H   LIG d   1       4.373  -2.987  -2.719  0.00  0.00     0.062 H 
ENDROOT
BRANCH   8  14
ATOM     14  C   LIG d   1       3.821  -0.537  -7.586  0.00  0.00     0.037 A 
ATOM     15  C   LIG d   1       4.989  -0.399  -8.479  0.00  0.00     0.030 A 
ATOM     16  C   LIG d   1       4.781  -0.372  -9.866  0.00  0.00     0.140 A 
ATOM     17  C   LIG d   1       6.279  -0.298  -7.962  0.00  0.00    -0.032 A 
ATOM     18  O   LIG d   1       3.528  -0.470 -10.364  0.00  0.00    -0.422 OA
ATOM     19  C   LIG d   1       5.871  -0.243 -10.716  0.00  0.00    -0.017 A 
ATOM     20  C   LIG d   1       2.453  -0.596  -9.569  0.00  0.00     0.338 A 
ATOM     21  C   LIG d   1       2.564  -0.639  -8.174  0.00  0.00     0.034 A 
ATOM     22  O   LIG d   1       1.349  -0.682 -10.077  0.00  0.00    -0.245 OA
ATOM     23  H   LIG d   1       1.683  -0.745  -7.561  0.00  0.00     0.070 H 
ATOM     24  C   LIG d   1       7.145  -0.143 -10.195  0.00  0.00    -0.040 A 
ATOM     25  H   LIG d   1       5.723  -0.221 -11.786  0.00  0.00     0.066 H 
ATOM     26  C   LIG d   1       7.351  -0.171  -8.823  0.00  0.00     0.042 A 
ATOM     27  H   LIG d   1       7.989  -0.043 -10.860  0.00  0.00     0.063 H 
ATOM     28 CL   LIG d   1       8.961  -0.043  -8.187  0.00  0.00    -0.084 Cl
ATOM     29  H   LIG d   1       6.441  -0.319  -6.895  0.00  0.00     0.064 H 
ENDBRANCH   8  14
BRANCH   7  30
ATOM     30  N   LIG d   1       4.023  -3.023  -5.825  0.00  0.00    -0.275 N 
ATOM     31  C   LIG d   1       5.167  -3.668  -6.133  0.00  0.00     0.284 C 
ATOM     32  O   LIG d   1       6.241  -3.137  -5.920  0.00  0.00    -0.267 OA
ATOM     33  H   LIG d   1       3.171  -3.476  -5.919  0.00  0.00     0.155 HD
BRANCH  31  34
ATOM     34  C   LIG d   1       5.116  -5.008  -6.724  0.00  0.00     0.189 A 
ATOM     35  O   LIG d   1       4.017  -5.782  -6.840  0.00  0.00    -0.458 OA
ATOM     36  C   LIG d   1       4.348  -6.938  -7.431  0.00  0.00     0.093 A 
ATOM     37  C   LIG d   1       5.672  -6.928  -7.696  0.00  0.00    -0.023 A 
ATOM     38  H   LIG d   1       3.668  -7.747  -7.654  0.00  0.00     0.103 H 
ATOM     39  C   LIG d   1       6.174  -5.696  -7.247  0.00  0.00    -0.011 A 
ATOM     40  H   LIG d   1       6.239  -7.718  -8.166  0.00  0.00     0.065 H 
ATOM     41  H   LIG d   1       7.197  -5.357  -7.304  0.00  0.00     0.066 H 
ENDBRANCH  31  34
ENDBRANCH   7  30
TORSDOF 3
ENDMDL
MODEL 7
REMARK VINA RESULT:      -7.0      3.535      6.004
REMARK  3 active torsions:
REMARK  status: ('A' for Active; 'I' for Inactive)
REMARK    1  A    between atoms: C_7  and  N_22 
REMARK    2  A    between atoms: C_8  and  C_10 
REMARK       I    between atoms: N_22  and  C_23 
REMARK    3  A    between atoms: C_23  and  C_25 
ROOT
ATOM      1  C   LIG d   1       4.140  -1.560  -2.391  0.00  0.00    -0.061 A 
ATOM      2  C   LIG d   1       3.543  -0.330  -2.152  0.00  0.00    -0.058 A 
ATOM      3  C   LIG d   1       4.211   0.842  -2.431  0.00  0.00    -0.019 A 
ATOM      4  C   LIG d   1       5.496   0.799  -2.959  0.00  0.00     0.138 A 
ATOM      5  C   LIG d   1       6.096  -0.450  -3.199  0.00  0.00     0.042 A 
ATOM      6  C   LIG d   1       5.406  -1.627  -2.904  0.00  0.00    -0.049 A 
ATOM      7  C   LIG d   1       7.426  -0.156  -3.746  0.00  0.00     0.088 A 
ATOM      8  C   LIG d   1       7.519   1.209  -3.790  0.00  0.00     0.158 A 
ATOM      9  O   LIG d   1       6.375   1.755  -3.324  0.00  0.00    -0.453 OA
ATOM     10  H   LIG d   1       3.604  -2.470  -2.166  0.00  0.00     0.062 H 
ATOM     11  H   LIG d   1       2.545  -0.292  -1.743  0.00  0.00     0.062 H 
ATOM     12  H   LIG d   1       3.737   1.794  -2.242  0.00  0.00     0.065 H 
ATOM     13  H   LIG d   1       5.869  -2.586  -3.084  0.00  0.00     0.062 H 
ENDROOT
BRANCH   8  14
ATOM     14  C   LIG d   1       8.680   1.962  -4.270  0.00  0.00     0.037 A 
ATOM     15  C   LIG d   1       8.865   2.246  -5.707  0.00  0.00     0.030 A 
ATOM     16  C   LIG d   1       9.995   2.971  -6.114  0.00  0.00     0.140 A 
ATOM     17  C   LIG d   1       7.938   1.807  -6.650  0.00  0.00    -0.032 A 
ATOM     18  O   LIG d   1      10.892   3.397  -5.196  0.00  0.00    -0.422 OA
ATOM     19  C   LIG d   1      10.180   3.245  -7.462  0.00  0.00    -0.017 A 
ATOM     20  C   LIG d   1      10.742   3.148  -3.884  0.00  0.00     0.338 A 
ATOM     21  C   LIG d   1       9.643   2.438  -3.386  0.00  0.00     0.034 A 
ATOM     22  O   LIG d   1      11.584   3.558  -3.105  0.00  0.00    -0.245 OA
ATOM     23  H   LIG d   1       9.547   2.257  -2.326  0.00  0.00     0.070 H 
ATOM     24  C   LIG d   1       9.257   2.806  -8.388  0.00  0.00    -0.040 A 
ATOM     25  H   LIG d   1      11.046   3.804  -7.786  0.00  0.00     0.066 H 
ATOM     26  C   LIG d   1       8.139   2.089  -7.986  0.00  0.00     0.042 A 
ATOM     27  H   LIG d   1       9.406   3.022  -9.436  0.00  0.00     0.063 H 
ATOM     28 CL   LIG d   1       6.990   1.544  -9.168  0.00  0.00    -0.084 Cl
ATOM     29  H   LIG d   1       7.068   1.248  -6.339  0.00  0.00     0.064 H 
ENDBRANCH   8  14
BRANCH   7  30
ATOM     30  N   LIG d   1       8.394  -1.075  -4.138  0.00  0.00    -0.275 N 
ATOM     31  C   LIG d   1       8.253  -1.749  -5.298  0.00  0.00     0.284 C 
ATOM     32  O   LIG d   1       7.333  -1.482  -6.049  0.00  0.00    -0.267 OA
ATOM     33  H   LIG d   1       9.170  -1.231  -3.579  0.00  0.00     0.155 HD
BRANCH  31  34
ATOM     34  C   LIG d   1       9.207  -2.803  -5.653  0.00  0.00     0.189 A 
ATOM     35  O   LIG d   1      10.503  -2.856  -5.284  0.00  0.00    -0.458 OA
ATOM     36  C   LIG d   1      11.065  -3.962  -5.791  0.00  0.00     0.093 A 
ATOM     37  C   LIG d   1      10.136  -4.633  -6.504  0.00  0.00    -0.023 A 
ATOM     38  H   LIG d   1      12.093  -4.263  -5.655  0.00  0.00     0.103 H 
ATOM     39  C   LIG d   1       8.942  -3.900  -6.423  0.00  0.00    -0.011 A 
ATOM     40  H   LIG d   1      10.283  -5.561  -7.037  0.00  0.00     0.065 H 
ATOM     41  H   LIG d   1       7.997  -4.153  -6.879  0.00  0.00     0.066 H 
ENDBRANCH  31  34
ENDBRANCH   7  30
TORSDOF 3
ENDMDL
MODEL 8
REMARK VINA RESULT:      -6.8      2.638      3.465
REMARK  3 active torsions:
REMARK  status: ('A' for Active; 'I' for Inactive)
REMARK    1  A    between atoms: C_7  and  N_22 
REMARK    2  A    between atoms: C_8  and  C_10 
REMARK       I    between atoms: N_22  and  C_23 
REMARK    3  A    between atoms: C_23  and  C_25 
ROOT
ATOM      1  C   LIG d   1       7.932  -5.423  -8.243  0.00  0.00    -0.061 A 
ATOM      2  C   LIG d   1       8.741  -5.802  -7.180  0.00  0.00    -0.058 A 
ATOM      3  C   LIG d   1       8.943  -4.953  -6.113  0.00  0.00    -0.019 A 
ATOM      4  C   LIG d   1       8.334  -3.704  -6.095  0.00  0.00     0.138 A 
ATOM      5  C   LIG d   1       7.516  -3.326  -7.175  0.00  0.00     0.042 A 
ATOM      6  C   LIG d   1       7.328  -4.196  -8.250  0.00  0.00    -0.049 A 
ATOM      7  C   LIG d   1       7.034  -1.977  -6.857  0.00  0.00     0.088 A 
ATOM      8  C   LIG d   1       7.585  -1.658  -5.645  0.00  0.00     0.158 A 
ATOM      9  O   LIG d   1       8.346  -2.686  -5.211  0.00  0.00    -0.453 OA
ATOM     10  H   LIG d   1       7.785  -6.099  -9.071  0.00  0.00     0.062 H 
ATOM     11  H   LIG d   1       9.215  -6.771  -7.189  0.00  0.00     0.062 H 
ATOM     12  H   LIG d   1       9.573  -5.258  -5.290  0.00  0.00     0.065 H 
ATOM     13  H   LIG d   1       6.704  -3.904  -9.081  0.00  0.00     0.062 H 
ENDROOT
BRANCH   8  14
ATOM     14  C   LIG d   1       7.378  -0.398  -4.929  0.00  0.00     0.037 A 
ATOM     15  C   LIG d   1       6.344  -0.275  -3.881  0.00  0.00     0.030 A 
ATOM     16  C   LIG d   1       6.188   0.955  -3.225  0.00  0.00     0.140 A 
ATOM     17  C   LIG d   1       5.534  -1.357  -3.543  0.00  0.00    -0.032 A 
ATOM     18  O   LIG d   1       6.977   2.003  -3.556  0.00  0.00    -0.422 OA
ATOM     19  C   LIG d   1       5.220   1.084  -2.239  0.00  0.00    -0.017 A 
ATOM     20  C   LIG d   1       7.922   1.911  -4.505  0.00  0.00     0.338 A 
ATOM     21  C   LIG d   1       8.154   0.723  -5.208  0.00  0.00     0.034 A 
ATOM     22  O   LIG d   1       8.602   2.890  -4.759  0.00  0.00    -0.245 OA
ATOM     23  H   LIG d   1       8.924   0.678  -5.963  0.00  0.00     0.070 H 
ATOM     24  C   LIG d   1       4.422   0.006  -1.911  0.00  0.00    -0.040 A 
ATOM     25  H   LIG d   1       5.092   2.026  -1.727  0.00  0.00     0.066 H 
ATOM     26  C   LIG d   1       4.577  -1.210  -2.559  0.00  0.00     0.042 A 
ATOM     27  H   LIG d   1       3.671   0.112  -1.143  0.00  0.00     0.063 H 
ATOM     28 CL   LIG d   1       3.562  -2.553  -2.133  0.00  0.00    -0.084 Cl
ATOM     29  H   LIG d   1       5.653  -2.304  -4.047  0.00  0.00     0.064 H 
ENDBRANCH   8  14
BRANCH   7  30
ATOM     30  N   LIG d   1       6.191  -1.184  -7.629  0.00  0.00    -0.275 N 
ATOM     31  C   LIG d   1       4.855  -1.342  -7.547  0.00  0.00     0.284 C 
ATOM     32  O   LIG d   1       4.381  -2.106  -6.726  0.00  0.00    -0.267 OA
ATOM     33  H   LIG d   1       6.564  -0.517  -8.226  0.00  0.00     0.155 HD
BRANCH  31  34
ATOM     34  C   LIG d   1       3.971  -0.594  -8.446  0.00  0.00     0.189 A 
ATOM     35  O   LIG d   1       4.163  -0.404  -9.768  0.00  0.00    -0.458 OA
ATOM     36  C   LIG d   1       3.153   0.325 -10.263  0.00  0.00     0.093 A 
ATOM     37  C   LIG d   1       2.299   0.623  -9.260  0.00  0.00    -0.023 A 
ATOM     38  H   LIG d   1       3.044   0.628 -11.293  0.00  0.00     0.103 H 
ATOM     39  C   LIG d   1       2.814   0.039  -8.091  0.00  0.00    -0.011 A 
ATOM     40  H   LIG d   1       1.391   1.201  -9.341  0.00  0.00     0.065 H 
ATOM     41  H   LIG d   1       2.379   0.081  -7.104  0.00  0.00     0.066 H 
ENDBRANCH  31  34
ENDBRANCH   7  30
TORSDOF 3
ENDMDL
MODEL 9
REMARK VINA RESULT:      -6.7      3.109      6.161
REMARK  3 active torsions:
REMARK  status: ('A' for Active; 'I' for Inactive)
REMARK    1  A    between atoms: C_7  and  N_22 
REMARK    2  A    between atoms: C_8  and  C_10 
REMARK       I    between atoms: N_22  and  C_23 
REMARK    3  A    between atoms: C_23  and  C_25 
ROOT
ATOM      1  C   LIG d   1       1.679  -3.802 -10.471  0.00  0.00    -0.061 A 
ATOM      2  C   LIG d   1       1.577  -2.421 -10.568  0.00  0.00    -0.058 A 
ATOM      3  C   LIG d   1       2.401  -1.600  -9.829  0.00  0.00    -0.019 A 
ATOM      4  C   LIG d   1       3.347  -2.156  -8.976  0.00  0.00     0.138 A 
ATOM      5  C   LIG d   1       3.446  -3.556  -8.882  0.00  0.00     0.042 A 
ATOM      6  C   LIG d   1       2.598  -4.370  -9.634  0.00  0.00    -0.049 A 
ATOM      7  C   LIG d   1       4.518  -3.816  -7.915  0.00  0.00     0.088 A 
ATOM      8  C   LIG d   1       4.968  -2.586  -7.514  0.00  0.00     0.158 A 
ATOM      9  O   LIG d   1       4.268  -1.621  -8.149  0.00  0.00    -0.453 OA
ATOM     10  H   LIG d   1       1.025  -4.430 -11.057  0.00  0.00     0.062 H 
ATOM     11  H   LIG d   1       0.844  -1.985 -11.231  0.00  0.00     0.062 H 
ATOM     12  H   LIG d   1       2.314  -0.527  -9.913  0.00  0.00     0.065 H 
ATOM     13  H   LIG d   1       2.671  -5.445  -9.558  0.00  0.00     0.062 H 
ENDROOT
BRANCH   8  14
ATOM     14  C   LIG d   1       6.042  -2.354  -6.547  0.00  0.00     0.037 A 
ATOM     15  C   LIG d   1       5.748  -1.907  -5.170  0.00  0.00     0.030 A 
ATOM     16  C   LIG d   1       6.814  -1.699  -4.283  0.00  0.00     0.140 A 
ATOM     17  C   LIG d   1       4.436  -1.694  -4.750  0.00  0.00    -0.032 A 
ATOM     18  O   LIG d   1       8.086  -1.907  -4.694  0.00  0.00    -0.422 OA
ATOM     19  C   LIG d   1       6.551  -1.279  -2.986  0.00  0.00    -0.017 A 
ATOM     20  C   LIG d   1       8.374  -2.313  -5.941  0.00  0.00     0.338 A 
ATOM     21  C   LIG d   1       7.376  -2.551  -6.892  0.00  0.00     0.034 A 
ATOM     22  O   LIG d   1       9.540  -2.483  -6.252  0.00  0.00    -0.245 OA
ATOM     23  H   LIG d   1       7.638  -2.881  -7.886  0.00  0.00     0.070 H 
ATOM     24  C   LIG d   1       5.248  -1.071  -2.580  0.00  0.00    -0.040 A 
ATOM     25  H   LIG d   1       7.364  -1.117  -2.295  0.00  0.00     0.066 H 
ATOM     26  C   LIG d   1       4.193  -1.277  -3.457  0.00  0.00     0.042 A 
ATOM     27  H   LIG d   1       5.049  -0.745  -1.571  0.00  0.00     0.063 H 
ATOM     28 CL   LIG d   1       2.562  -1.008  -2.927  0.00  0.00    -0.084 Cl
ATOM     29  H   LIG d   1       3.614  -1.854  -5.432  0.00  0.00     0.064 H 
ENDBRANCH   8  14
BRANCH   7  30
ATOM     30  N   LIG d   1       4.983  -5.057  -7.491  0.00  0.00    -0.275 N 
ATOM     31  C   LIG d   1       4.380  -5.687  -6.463  0.00  0.00     0.284 C 
ATOM     32  O   LIG d   1       3.369  -5.220  -5.971  0.00  0.00    -0.267 OA
ATOM     33  H   LIG d   1       5.740  -5.469  -7.935  0.00  0.00     0.155 HD
BRANCH  31  34
ATOM     34  C   LIG d   1       4.942  -6.934  -5.937  0.00  0.00     0.189 A 
ATOM     35  O   LIG d   1       4.248  -8.053  -5.642  0.00  0.00    -0.458 OA
ATOM     36  C   LIG d   1       5.090  -8.991  -5.187  0.00  0.00     0.093 A 
ATOM     37  C   LIG d   1       6.341  -8.483  -5.174  0.00  0.00    -0.023 A 
ATOM     38  H   LIG d   1       4.813  -9.987  -4.876  0.00  0.00     0.103 H 
ATOM     39  C   LIG d   1       6.258  -7.166  -5.653  0.00  0.00    -0.011 A 
ATOM     40  H   LIG d   1       7.238  -8.993  -4.856  0.00  0.00     0.065 H 
ATOM     41  H   LIG d   1       7.075  -6.471  -5.774  0.00  0.00     0.066 H 
ENDBRANCH  31  34
ENDBRANCH   7  30
TORSDOF 3
ENDMDL
MODEL 10
REMARK VINA RESULT:      -6.7      2.691      4.964
REMARK  3 active torsions:
REMARK  status: ('A' for Active; 'I' for Inactive)
REMARK    1  A    between atoms: C_7  and  N_22 
REMARK    2  A    between atoms: C_8  and  C_10 
REMARK       I    between atoms: N_22  and  C_23 
REMARK    3  A    between atoms: C_23  and  C_25 
ROOT
ATOM      1  C   LIG d   1      10.119  -4.427  -4.580  0.00  0.00    -0.061 A 
ATOM      2  C   LIG d   1       9.204  -5.434  -4.857  0.00  0.00    -0.058 A 
ATOM      3  C   LIG d   1       7.854  -5.163  -4.906  0.00  0.00    -0.019 A 
ATOM      4  C   LIG d   1       7.397  -3.871  -4.678  0.00  0.00     0.138 A 
ATOM      5  C   LIG d   1       8.329  -2.855  -4.398  0.00  0.00     0.042 A 
ATOM      6  C   LIG d   1       9.692  -3.150  -4.347  0.00  0.00    -0.049 A 
ATOM      7  C   LIG d   1       7.541  -1.632  -4.209  0.00  0.00     0.088 A 
ATOM      8  C   LIG d   1       6.234  -1.997  -4.384  0.00  0.00     0.158 A 
ATOM      9  O   LIG d   1       6.168  -3.318  -4.660  0.00  0.00    -0.453 OA
ATOM     10  H   LIG d   1      11.173  -4.656  -4.545  0.00  0.00     0.062 H 
ATOM     11  H   LIG d   1       9.554  -6.440  -5.035  0.00  0.00     0.062 H 
ATOM     12  H   LIG d   1       7.151  -5.954  -5.123  0.00  0.00     0.065 H 
ATOM     13  H   LIG d   1      10.407  -2.370  -4.127  0.00  0.00     0.062 H 
ENDROOT
BRANCH   8  14
ATOM     14  C   LIG d   1       5.084  -1.095  -4.289  0.00  0.00     0.037 A 
ATOM     15  C   LIG d   1       4.283  -0.751  -5.481  0.00  0.00     0.030 A 
ATOM     16  C   LIG d   1       3.191   0.118  -5.335  0.00  0.00     0.140 A 
ATOM     17  C   LIG d   1       4.597  -1.276  -6.733  0.00  0.00    -0.032 A 
ATOM     18  O   LIG d   1       2.889   0.625  -4.118  0.00  0.00    -0.422 OA
ATOM     19  C   LIG d   1       2.429   0.449  -6.447  0.00  0.00    -0.017 A 
ATOM     20  C   LIG d   1       3.605   0.325  -3.023  0.00  0.00     0.338 A 
ATOM     21  C   LIG d   1       4.707  -0.538  -3.072  0.00  0.00     0.034 A 
ATOM     22  O   LIG d   1       3.283   0.813  -1.954  0.00  0.00    -0.245 OA
ATOM     23  H   LIG d   1       5.261  -0.764  -2.174  0.00  0.00     0.070 H 
ATOM     24  C   LIG d   1       2.748  -0.076  -7.683  0.00  0.00    -0.040 A 
ATOM     25  H   LIG d   1       1.586   1.116  -6.346  0.00  0.00     0.066 H 
ATOM     26  C   LIG d   1       3.828  -0.936  -7.827  0.00  0.00     0.042 A 
ATOM     27  H   LIG d   1       2.153   0.184  -8.545  0.00  0.00     0.063 H 
ATOM     28 CL   LIG d   1       4.214  -1.585  -9.391  0.00  0.00    -0.084 Cl
ATOM     29  H   LIG d   1       5.437  -1.945  -6.847  0.00  0.00     0.064 H 
ENDBRANCH   8  14
BRANCH   7  30
ATOM     30  N   LIG d   1       8.023  -0.361  -3.912  0.00  0.00    -0.275 N 
ATOM     31  C   LIG d   1       8.213   0.536  -4.900  0.00  0.00     0.284 C 
ATOM     32  O   LIG d   1       7.869   0.271  -6.038  0.00  0.00    -0.267 OA
ATOM     33  H   LIG d   1       8.222  -0.120  -2.994  0.00  0.00     0.155 HD
BRANCH  31  34
ATOM     34  C   LIG d   1       8.834   1.831  -4.606  0.00  0.00     0.189 A 
ATOM     35  O   LIG d   1       9.138   2.303  -3.380  0.00  0.00    -0.458 OA
ATOM     36  C   LIG d   1       9.694   3.517  -3.496  0.00  0.00     0.093 A 
ATOM     37  C   LIG d   1       9.748   3.847  -4.804  0.00  0.00    -0.023 A 
ATOM     38  H   LIG d   1      10.039   4.131  -2.678  0.00  0.00     0.103 H 
ATOM     39  C   LIG d   1       9.199   2.774  -5.525  0.00  0.00    -0.011 A 
ATOM     40  H   LIG d   1      10.140   4.763  -5.220  0.00  0.00     0.065 H 
ATOM     41  H   LIG d   1       9.088   2.706  -6.596  0.00  0.00     0.066 H 
ENDBRANCH  31  34
ENDBRANCH   7  30
TORSDOF 3
ENDMDL
