MODEL 1
REMARK VINA RESULT:      -7.3      0.000      0.000
REMARK  11 active torsions:
REMARK  status: ('A' for Active; 'I' for Inactive)
REMARK    1  A    between atoms: C_1  and  C_2 
REMARK    2  A    between atoms: C_5  and  O_40 
REMARK    3  A    between atoms: C_7  and  C_37 
REMARK    4  A    between atoms: C_7  and  C_38 
REMARK    5  A    between atoms: C_14  and  N_16 
REMARK       I    between atoms: N_16  and  C_17 
REMARK    6  A    between atoms: C_17  and  C_19 
REMARK    7  A    between atoms: C_24  and  C_26 
REMARK    8  A    between atoms: C_26  and  C_27 
REMARK       I    between atoms: C_27  and  N_29 
REMARK    9  A    between atoms: N_29  and  C_30 
REMARK   10  A    between atoms: C_30  and  C_31 
REMARK   11  A    between atoms: C_38  and  O_39 
ROOT
ATOM      1  C   LIG d   1       4.237  -3.565  -7.994  0.00  0.00    -0.019 C 
ATOM      2  C   LIG d   1       3.876  -2.089  -7.785  0.00  0.00    -0.044 C 
ATOM      3  C   LIG d   1       3.563  -1.425  -9.125  0.00  0.00    -0.026 C 
ATOM      4  C   LIG d   1       2.367  -2.139  -9.761  0.00  0.00     0.063 C 
ATOM      5  H   LIG d   1       1.512  -2.092  -9.086  0.00  0.00     0.060 H 
ATOM      6  C   LIG d   1       2.742  -3.598 -10.013  0.00  0.00     0.021 C 
ATOM      7  C   LIG d   1       3.087  -4.294  -8.693  0.00  0.00    -0.021 C 
ATOM      8  H   LIG d   1       2.208  -4.327  -8.048  0.00  0.00     0.032 H 
ATOM      9  C   LIG d   1       3.540  -5.726  -9.038  0.00  0.00    -0.016 C 
ATOM     10  C   LIG d   1       4.211  -6.322  -7.852  0.00  0.00     0.015 A 
ATOM     11  C   LIG d   1       4.657  -5.682  -6.741  0.00  0.00     0.058 A 
ATOM     12  N   LIG d   1       5.223  -6.450  -5.813  0.00  0.00    -0.229 NA
ATOM     13  C   LIG d   1       5.355  -7.751  -5.963  0.00  0.00     0.165 A 
ATOM     14  S   LIG d   1       4.632  -8.013  -7.522  0.00  0.00    -0.057 SA
ATOM     15  C   LIG d   1       4.488  -4.176  -6.609  0.00  0.00     0.016 C 
ATOM     16  H   LIG d   1       3.641  -3.961  -5.958  0.00  0.00     0.037 H 
ATOM     17  H   LIG d   1       4.716  -1.576  -7.316  0.00  0.00     0.027 H 
ATOM     18  H   LIG d   1       3.004  -2.022  -7.137  0.00  0.00     0.027 H 
ATOM     19  H   LIG d   1       4.429  -1.504  -9.783  0.00  0.00     0.029 H 
ATOM     20  H   LIG d   1       3.319  -0.375  -8.963  0.00  0.00     0.029 H 
ATOM     21  H   LIG d   1       4.238  -5.695  -9.875  0.00  0.00     0.032 H 
ATOM     22  H   LIG d   1       2.673  -6.328  -9.308  0.00  0.00     0.032 H 
ENDROOT
BRANCH  15  23
ATOM     23  C   LIG d   1       5.760  -3.572  -6.008  0.00  0.00     0.033 C 
ATOM     24  H   LIG d   1       6.542  -4.329  -5.977  0.00  0.00     0.036 H 
ATOM     25  H   LIG d   1       6.089  -2.735  -6.624  0.00  0.00     0.036 H 
BRANCH  23  26
ATOM     26  C   LIG d   1       5.473  -3.086  -4.611  0.00  0.00     0.214 C 
ATOM     27  O   LIG d   1       6.388  -2.801  -3.868  0.00  0.00    -0.276 OA
ATOM     28  N   LIG d   1       4.198  -2.968  -4.188  0.00  0.00    -0.311 N 
ATOM     29  H   LIG d   1       3.467  -3.195  -4.782  0.00  0.00     0.149 HD
BRANCH  28  30
ATOM     30  C   LIG d   1       3.918  -2.494  -2.830  0.00  0.00     0.038 C 
ATOM     31  H   LIG d   1       2.955  -2.883  -2.501  0.00  0.00     0.051 H 
ATOM     32  H   LIG d   1       4.701  -2.843  -2.155  0.00  0.00     0.051 H 
BRANCH  30  33
ATOM     33  C   LIG d   1       3.883  -0.988  -2.822  0.00  0.00    -0.012 A 
ATOM     34  C   LIG d   1       3.269  -0.297  -3.849  0.00  0.00     0.032 A 
ATOM     35  N   LIG d   1       3.233   1.021  -3.849  0.00  0.00    -0.263 NA
ATOM     36  H   LIG d   1       2.814  -0.843  -4.662  0.00  0.00     0.083 H 
ATOM     37  C   LIG d   1       3.775   1.730  -2.878  0.00  0.00     0.028 A 
ATOM     38  C   LIG d   1       4.407   1.108  -1.817  0.00  0.00    -0.043 A 
ATOM     39  H   LIG d   1       3.726   2.807  -2.911  0.00  0.00     0.083 H 
ATOM     40  C   LIG d   1       4.460  -0.277  -1.780  0.00  0.00    -0.054 A 
ATOM     41  H   LIG d   1       4.849   1.693  -1.025  0.00  0.00     0.063 H 
ATOM     42  H   LIG d   1       4.942  -0.790  -0.961  0.00  0.00     0.062 H 
ENDBRANCH  30  33
ENDBRANCH  28  30
ENDBRANCH  23  26
ENDBRANCH  15  23
BRANCH   1  43
ATOM     43  C   LIG d   1       5.503  -3.667  -8.847  0.00  0.00    -0.059 C 
ATOM     44  H   LIG d   1       6.006  -2.701  -8.868  0.00  0.00     0.024 H 
ATOM     45  H   LIG d   1       6.170  -4.415  -8.418  0.00  0.00     0.024 H 
ATOM     46  H   LIG d   1       5.234  -3.959  -9.862  0.00  0.00     0.024 H 
ENDBRANCH   1  43
BRANCH   6  47
ATOM     47  C   LIG d   1       1.564  -4.317 -10.672  0.00  0.00    -0.055 C 
ATOM     48  H   LIG d   1       0.647  -4.085 -10.130  0.00  0.00     0.024 H 
ATOM     49  H   LIG d   1       1.469  -3.986 -11.707  0.00  0.00     0.024 H 
ATOM     50  H   LIG d   1       1.737  -5.393 -10.649  0.00  0.00     0.024 H 
ENDBRANCH   6  47
BRANCH   6  51
ATOM     51  C   LIG d   1       3.952  -3.655 -10.947  0.00  0.00     0.052 C 
ATOM     52  H   LIG d   1       4.583  -2.781 -10.779  0.00  0.00     0.056 H 
ATOM     53  H   LIG d   1       4.525  -4.559 -10.745  0.00  0.00     0.056 H 
BRANCH  51  54
ATOM     54  O   LIG d   1       3.506  -3.666 -12.304  0.00  0.00    -0.394 OA
ATOM     55  H   LIG d   1       4.218  -3.769 -12.951  0.00  0.00     0.209 HD
ENDBRANCH  51  54
ENDBRANCH   6  51
BRANCH  13  56
ATOM     56  N   LIG d   1       5.922  -8.678  -5.097  0.00  0.00    -0.258 N 
ATOM     57  C   LIG d   1       5.135  -9.411  -4.287  0.00  0.00     0.285 C 
ATOM     58  O   LIG d   1       3.927  -9.265  -4.314  0.00  0.00    -0.266 OA
ATOM     59  H   LIG d   1       6.884  -8.795  -5.076  0.00  0.00     0.157 HD
BRANCH  57  60
ATOM     60  C   LIG d   1       5.734 -10.389  -3.372  0.00  0.00     0.189 A 
ATOM     61  O   LIG d   1       6.599 -11.367  -3.713  0.00  0.00    -0.458 OA
ATOM     62  C   LIG d   1       6.933 -12.065  -2.620  0.00  0.00     0.093 A 
ATOM     63  C   LIG d   1       6.289 -11.540  -1.555  0.00  0.00    -0.023 A 
ATOM     64  H   LIG d   1       7.611 -12.906  -2.595  0.00  0.00     0.103 H 
ATOM     65  C   LIG d   1       5.515 -10.469  -2.027  0.00  0.00    -0.011 A 
ATOM     66  H   LIG d   1       6.357 -11.881  -0.532  0.00  0.00     0.065 H 
ATOM     67  H   LIG d   1       4.872  -9.830  -1.439  0.00  0.00     0.066 H 
ENDBRANCH  57  60
ENDBRANCH  13  56
BRANCH   4  68
ATOM     68  O   LIG d   1       2.036  -1.508 -11.000  0.00  0.00    -0.391 OA
ATOM     69  H   LIG d   1       2.366  -0.603 -11.082  0.00  0.00     0.210 HD
ENDBRANCH   4  68
TORSDOF 11
ENDMDL
MODEL 2
REMARK VINA RESULT:      -7.0      3.311      4.146
REMARK  11 active torsions:
REMARK  status: ('A' for Active; 'I' for Inactive)
REMARK    1  A    between atoms: C_1  and  C_2 
REMARK    2  A    between atoms: C_5  and  O_40 
REMARK    3  A    between atoms: C_7  and  C_37 
REMARK    4  A    between atoms: C_7  and  C_38 
REMARK    5  A    between atoms: C_14  and  N_16 
REMARK       I    between atoms: N_16  and  C_17 
REMARK    6  A    between atoms: C_17  and  C_19 
REMARK    7  A    between atoms: C_24  and  C_26 
REMARK    8  A    between atoms: C_26  and  C_27 
REMARK       I    between atoms: C_27  and  N_29 
REMARK    9  A    between atoms: N_29  and  C_30 
REMARK   10  A    between atoms: C_30  and  C_31 
REMARK   11  A    between atoms: C_38  and  O_39 
ROOT
ATOM      1  C   LIG d   1       2.699  -2.124 -10.080  0.00  0.00    -0.019 C 
ATOM      2  C   LIG d   1       1.769  -0.971 -10.471  0.00  0.00    -0.044 C 
ATOM      3  C   LIG d   1       1.314  -1.123 -11.922  0.00  0.00    -0.026 C 
ATOM      4  C   LIG d   1       0.549  -2.442 -12.061  0.00  0.00     0.063 C 
ATOM      5  H   LIG d   1      -0.300  -2.447 -11.377  0.00  0.00     0.060 H 
ATOM      6  C   LIG d   1       1.490  -3.595 -11.719  0.00  0.00     0.021 C 
ATOM      7  C   LIG d   1       1.987  -3.465 -10.276  0.00  0.00    -0.021 C 
ATOM      8  H   LIG d   1       1.150  -3.556  -9.583  0.00  0.00     0.032 H 
ATOM      9  C   LIG d   1       2.995  -4.606 -10.037  0.00  0.00    -0.016 C 
ATOM     10  C   LIG d   1       3.762  -4.324  -8.794  0.00  0.00     0.015 A 
ATOM     11  C   LIG d   1       3.835  -3.153  -8.111  0.00  0.00     0.058 A 
ATOM     12  N   LIG d   1       4.592  -3.163  -7.016  0.00  0.00    -0.229 NA
ATOM     13  C   LIG d   1       5.241  -4.238  -6.620  0.00  0.00     0.165 A 
ATOM     14  S   LIG d   1       4.795  -5.400  -7.834  0.00  0.00    -0.057 SA
ATOM     15  C   LIG d   1       3.073  -1.933  -8.604  0.00  0.00     0.016 C 
ATOM     16  H   LIG d   1       2.166  -1.807  -8.013  0.00  0.00     0.037 H 
ATOM     17  H   LIG d   1       2.299  -0.025 -10.357  0.00  0.00     0.027 H 
ATOM     18  H   LIG d   1       0.897  -0.977  -9.817  0.00  0.00     0.027 H 
ATOM     19  H   LIG d   1       2.184  -1.134 -12.578  0.00  0.00     0.029 H 
ATOM     20  H   LIG d   1       0.662  -0.292 -12.188  0.00  0.00     0.029 H 
ATOM     21  H   LIG d   1       3.682  -4.668 -10.882  0.00  0.00     0.032 H 
ATOM     22  H   LIG d   1       2.460  -5.549  -9.931  0.00  0.00     0.032 H 
ENDROOT
BRANCH  15  23
ATOM     23  C   LIG d   1       3.954  -0.690  -8.459  0.00  0.00     0.033 C 
ATOM     24  H   LIG d   1       4.972  -0.991  -8.216  0.00  0.00     0.036 H 
ATOM     25  H   LIG d   1       3.954  -0.133  -9.397  0.00  0.00     0.036 H 
BRANCH  23  26
ATOM     26  C   LIG d   1       3.411   0.183  -7.357  0.00  0.00     0.214 C 
ATOM     27  O   LIG d   1       3.375   1.387  -7.499  0.00  0.00    -0.276 OA
ATOM     28  N   LIG d   1       2.965  -0.375  -6.213  0.00  0.00    -0.311 N 
ATOM     29  H   LIG d   1       2.993  -1.337  -6.101  0.00  0.00     0.149 HD
BRANCH  28  30
ATOM     30  C   LIG d   1       2.436   0.473  -5.142  0.00  0.00     0.038 C 
ATOM     31  H   LIG d   1       2.577   1.521  -5.406  0.00  0.00     0.051 H 
ATOM     32  H   LIG d   1       1.373   0.272  -5.010  0.00  0.00     0.051 H 
BRANCH  30  33
ATOM     33  C   LIG d   1       3.167   0.175  -3.859  0.00  0.00    -0.012 A 
ATOM     34  C   LIG d   1       3.375  -1.132  -3.461  0.00  0.00     0.032 A 
ATOM     35  N   LIG d   1       4.015  -1.402  -2.339  0.00  0.00    -0.263 NA
ATOM     36  H   LIG d   1       3.010  -1.942  -4.075  0.00  0.00     0.083 H 
ATOM     37  C   LIG d   1       4.478  -0.447  -1.558  0.00  0.00     0.028 A 
ATOM     38  C   LIG d   1       4.307   0.884  -1.891  0.00  0.00    -0.043 A 
ATOM     39  H   LIG d   1       4.997  -0.705  -0.647  0.00  0.00     0.083 H 
ATOM     40  C   LIG d   1       3.645   1.207  -3.066  0.00  0.00    -0.054 A 
ATOM     41  H   LIG d   1       4.689   1.662  -1.248  0.00  0.00     0.063 H 
ATOM     42  H   LIG d   1       3.501   2.237  -3.354  0.00  0.00     0.062 H 
ENDBRANCH  30  33
ENDBRANCH  28  30
ENDBRANCH  23  26
ENDBRANCH  15  23
BRANCH   1  43
ATOM     43  C   LIG d   1       3.960  -2.082 -10.947  0.00  0.00    -0.059 C 
ATOM     44  H   LIG d   1       4.700  -1.433 -10.480  0.00  0.00     0.024 H 
ATOM     45  H   LIG d   1       4.368  -3.087 -11.045  0.00  0.00     0.024 H 
ATOM     46  H   LIG d   1       3.708  -1.694 -11.934  0.00  0.00     0.024 H 
ENDBRANCH   1  43
BRANCH   6  47
ATOM     47  C   LIG d   1       0.744  -4.922 -11.879  0.00  0.00    -0.055 C 
ATOM     48  H   LIG d   1       1.202  -5.501 -12.681  0.00  0.00     0.024 H 
ATOM     49  H   LIG d   1       0.798  -5.484 -10.947  0.00  0.00     0.024 H 
ATOM     50  H   LIG d   1      -0.300  -4.724 -12.124  0.00  0.00     0.024 H 
ENDBRANCH   6  47
BRANCH   6  51
ATOM     51  C   LIG d   1       2.686  -3.572 -12.671  0.00  0.00     0.052 C 
ATOM     52  H   LIG d   1       2.898  -2.544 -12.964  0.00  0.00     0.056 H 
ATOM     53  H   LIG d   1       3.557  -3.993 -12.171  0.00  0.00     0.056 H 
BRANCH  51  54
ATOM     54  O   LIG d   1       2.384  -4.346 -13.834  0.00  0.00    -0.394 OA
ATOM     55  H   LIG d   1       1.703  -5.018 -13.694  0.00  0.00     0.209 HD
ENDBRANCH  51  54
ENDBRANCH   6  51
BRANCH  13  56
ATOM     56  N   LIG d   1       6.065  -4.404  -5.515  0.00  0.00    -0.258 N 
ATOM     57  C   LIG d   1       7.401  -4.300  -5.649  0.00  0.00     0.285 C 
ATOM     58  O   LIG d   1       7.887  -4.057  -6.739  0.00  0.00    -0.266 OA
ATOM     59  H   LIG d   1       5.678  -4.598  -4.647  0.00  0.00     0.157 HD
BRANCH  57  60
ATOM     60  C   LIG d   1       8.272  -4.476  -4.482  0.00  0.00     0.189 A 
ATOM     61  O   LIG d   1       8.817  -5.639  -4.068  0.00  0.00    -0.458 OA
ATOM     62  C   LIG d   1       9.552  -5.418  -2.971  0.00  0.00     0.093 A 
ATOM     63  C   LIG d   1       9.493  -4.104  -2.664  0.00  0.00    -0.023 A 
ATOM     64  H   LIG d   1      10.105  -6.168  -2.424  0.00  0.00     0.103 H 
ATOM     65  C   LIG d   1       8.671  -3.492  -3.623  0.00  0.00    -0.011 A 
ATOM     66  H   LIG d   1       9.986  -3.615  -1.835  0.00  0.00     0.065 H 
ATOM     67  H   LIG d   1       8.409  -2.446  -3.674  0.00  0.00     0.066 H 
ENDBRANCH  57  60
ENDBRANCH  13  56
BRANCH   4  68
ATOM     68  O   LIG d   1       0.084  -2.586 -13.405  0.00  0.00    -0.391 OA
ATOM     69  H   LIG d   1      -0.758  -2.144 -13.580  0.00  0.00     0.210 HD
ENDBRANCH   4  68
TORSDOF 11
ENDMDL
MODEL 3
REMARK VINA RESULT:      -6.8      5.960      7.274
REMARK  11 active torsions:
REMARK  status: ('A' for Active; 'I' for Inactive)
REMARK    1  A    between atoms: C_1  and  C_2 
REMARK    2  A    between atoms: C_5  and  O_40 
REMARK    3  A    between atoms: C_7  and  C_37 
REMARK    4  A    between atoms: C_7  and  C_38 
REMARK    5  A    between atoms: C_14  and  N_16 
REMARK       I    between atoms: N_16  and  C_17 
REMARK    6  A    between atoms: C_17  and  C_19 
REMARK    7  A    between atoms: C_24  and  C_26 
REMARK    8  A    between atoms: C_26  and  C_27 
REMARK       I    between atoms: C_27  and  N_29 
REMARK    9  A    between atoms: N_29  and  C_30 
REMARK   10  A    between atoms: C_30  and  C_31 
REMARK   11  A    between atoms: C_38  and  O_39 
ROOT
ATOM      1  C   LIG d   1       3.326  -0.331 -10.101  0.00  0.00    -0.019 C 
ATOM      2  C   LIG d   1       1.845  -0.727 -10.098  0.00  0.00    -0.044 C 
ATOM      3  C   LIG d   1       1.400  -1.130 -11.502  0.00  0.00    -0.026 C 
ATOM      4  C   LIG d   1       2.231  -2.335 -11.955  0.00  0.00     0.063 C 
ATOM      5  H   LIG d   1       2.103  -3.154 -11.247  0.00  0.00     0.060 H 
ATOM      6  C   LIG d   1       3.702  -1.927 -12.004  0.00  0.00     0.021 C 
ATOM      7  C   LIG d   1       4.181  -1.492 -10.615  0.00  0.00    -0.021 C 
ATOM      8  H   LIG d   1       4.135  -2.334  -9.924  0.00  0.00     0.032 H 
ATOM      9  C   LIG d   1       5.637  -1.012 -10.765  0.00  0.00    -0.016 C 
ATOM     10  C   LIG d   1       6.029  -0.261  -9.542  0.00  0.00     0.015 A 
ATOM     11  C   LIG d   1       5.216   0.221  -8.568  0.00  0.00     0.058 A 
ATOM     12  N   LIG d   1       5.819   0.860  -7.567  0.00  0.00    -0.229 NA
ATOM     13  C   LIG d   1       7.125   1.025  -7.526  0.00  0.00     0.165 A 
ATOM     14  S   LIG d   1       7.639   0.230  -8.984  0.00  0.00    -0.057 SA
ATOM     15  C   LIG d   1       3.712   0.012  -8.655  0.00  0.00     0.016 C 
ATOM     16  H   LIG d   1       3.420  -0.806  -7.998  0.00  0.00     0.037 H 
ATOM     17  H   LIG d   1       1.246   0.119  -9.760  0.00  0.00     0.027 H 
ATOM     18  H   LIG d   1       1.700  -1.566  -9.418  0.00  0.00     0.027 H 
ATOM     19  H   LIG d   1       1.559  -0.298 -12.189  0.00  0.00     0.029 H 
ATOM     20  H   LIG d   1       0.344  -1.399 -11.488  0.00  0.00     0.029 H 
ATOM     21  H   LIG d   1       5.718  -0.359 -11.635  0.00  0.00     0.032 H 
ATOM     22  H   LIG d   1       6.294  -1.872 -10.891  0.00  0.00     0.032 H 
ENDROOT
BRANCH  15  23
ATOM     23  C   LIG d   1       2.994   1.293  -8.226  0.00  0.00     0.033 C 
ATOM     24  H   LIG d   1       3.651   2.148  -8.380  0.00  0.00     0.036 H 
ATOM     25  H   LIG d   1       2.089   1.418  -8.821  0.00  0.00     0.036 H 
BRANCH  23  26
ATOM     26  C   LIG d   1       2.627   1.198  -6.768  0.00  0.00     0.214 C 
ATOM     27  O   LIG d   1       2.381   2.203  -6.137  0.00  0.00    -0.276 OA
ATOM     28  N   LIG d   1       2.573  -0.008  -6.165  0.00  0.00    -0.311 N 
ATOM     29  H   LIG d   1       2.769  -0.811  -6.669  0.00  0.00     0.149 HD
BRANCH  28  30
ATOM     30  C   LIG d   1       2.215  -0.101  -4.747  0.00  0.00     0.038 C 
ATOM     31  H   LIG d   1       1.471   0.659  -4.510  0.00  0.00     0.051 H 
ATOM     32  H   LIG d   1       1.804  -1.089  -4.539  0.00  0.00     0.051 H 
BRANCH  30  33
ATOM     33  C   LIG d   1       3.444   0.118  -3.904  0.00  0.00    -0.012 A 
ATOM     34  C   LIG d   1       4.684  -0.293  -4.355  0.00  0.00     0.032 A 
ATOM     35  N   LIG d   1       5.765  -0.104  -3.624  0.00  0.00    -0.263 NA
ATOM     36  H   LIG d   1       4.769  -0.776  -5.318  0.00  0.00     0.083 H 
ATOM     37  C   LIG d   1       5.710   0.480  -2.443  0.00  0.00     0.028 A 
ATOM     38  C   LIG d   1       4.505   0.918  -1.926  0.00  0.00    -0.043 A 
ATOM     39  H   LIG d   1       6.616   0.617  -1.872  0.00  0.00     0.083 H 
ATOM     40  C   LIG d   1       3.348   0.741  -2.669  0.00  0.00    -0.054 A 
ATOM     41  H   LIG d   1       4.466   1.395  -0.959  0.00  0.00     0.063 H 
ATOM     42  H   LIG d   1       2.393   1.078  -2.292  0.00  0.00     0.062 H 
ENDBRANCH  30  33
ENDBRANCH  28  30
ENDBRANCH  23  26
ENDBRANCH  15  23
BRANCH   1  43
ATOM     43  C   LIG d   1       3.527   0.892 -10.998  0.00  0.00    -0.059 C 
ATOM     44  H   LIG d   1       4.427   0.758 -11.599  0.00  0.00     0.024 H 
ATOM     45  H   LIG d   1       2.665   1.007 -11.654  0.00  0.00     0.024 H 
ATOM     46  H   LIG d   1       3.633   1.783 -10.378  0.00  0.00     0.024 H 
ENDBRANCH   1  43
BRANCH   6  47
ATOM     47  C   LIG d   1       4.541  -3.114 -12.479  0.00  0.00    -0.055 C 
ATOM     48  H   LIG d   1       5.011  -2.870 -13.432  0.00  0.00     0.024 H 
ATOM     49  H   LIG d   1       5.311  -3.335 -11.739  0.00  0.00     0.024 H 
ATOM     50  H   LIG d   1       3.898  -3.986 -12.605  0.00  0.00     0.024 H 
ENDBRANCH   6  47
BRANCH   6  51
ATOM     51  C   LIG d   1       3.873  -0.766 -12.985  0.00  0.00     0.052 C 
ATOM     52  H   LIG d   1       2.980  -0.141 -12.968  0.00  0.00     0.056 H 
ATOM     53  H   LIG d   1       4.738  -0.169 -12.696  0.00  0.00     0.056 H 
BRANCH  51  54
ATOM     54  O   LIG d   1       4.069  -1.281 -14.303  0.00  0.00    -0.394 OA
ATOM     55  H   LIG d   1       3.701  -0.723 -15.003  0.00  0.00     0.209 HD
ENDBRANCH  51  54
ENDBRANCH   6  51
BRANCH  13  56
ATOM     56  N   LIG d   1       7.895   1.665  -6.563  0.00  0.00    -0.258 N 
ATOM     57  C   LIG d   1       8.560   0.943  -5.642  0.00  0.00     0.285 C 
ATOM     58  O   LIG d   1       8.488  -0.273  -5.653  0.00  0.00    -0.266 OA
ATOM     59  H   LIG d   1       7.952   2.634  -6.555  0.00  0.00     0.157 HD
BRANCH  57  60
ATOM     60  C   LIG d   1       9.372   1.620  -4.625  0.00  0.00     0.189 A 
ATOM     61  O   LIG d   1      10.694   1.445  -4.421  0.00  0.00    -0.458 OA
ATOM     62  C   LIG d   1      11.094   2.227  -3.411  0.00  0.00     0.093 A 
ATOM     63  C   LIG d   1      10.031   2.923  -2.952  0.00  0.00    -0.023 A 
ATOM     64  H   LIG d   1      12.103   2.293  -3.029  0.00  0.00     0.103 H 
ATOM     65  C   LIG d   1       8.922   2.538  -3.720  0.00  0.00    -0.011 A 
ATOM     66  H   LIG d   1      10.035   3.641  -2.144  0.00  0.00     0.065 H 
ATOM     67  H   LIG d   1       7.910   2.900  -3.617  0.00  0.00     0.066 H 
ENDBRANCH  57  60
ENDBRANCH  13  56
BRANCH   4  68
ATOM     68  O   LIG d   1       1.806  -2.750 -13.254  0.00  0.00    -0.391 OA
ATOM     69  H   LIG d   1       1.470  -3.656 -13.288  0.00  0.00     0.210 HD
ENDBRANCH   4  68
TORSDOF 11
ENDMDL
MODEL 4
REMARK VINA RESULT:      -6.8      2.067      2.897
REMARK  11 active torsions:
REMARK  status: ('A' for Active; 'I' for Inactive)
REMARK    1  A    between atoms: C_1  and  C_2 
REMARK    2  A    between atoms: C_5  and  O_40 
REMARK    3  A    between atoms: C_7  and  C_37 
REMARK    4  A    between atoms: C_7  and  C_38 
REMARK    5  A    between atoms: C_14  and  N_16 
REMARK       I    between atoms: N_16  and  C_17 
REMARK    6  A    between atoms: C_17  and  C_19 
REMARK    7  A    between atoms: C_24  and  C_26 
REMARK    8  A    between atoms: C_26  and  C_27 
REMARK       I    between atoms: C_27  and  N_29 
REMARK    9  A    between atoms: N_29  and  C_30 
REMARK   10  A    between atoms: C_30  and  C_31 
REMARK   11  A    between atoms: C_38  and  O_39 
ROOT
ATOM      1  C   LIG d   1       5.235  -1.188  -8.697  0.00  0.00    -0.019 C 
ATOM      2  C   LIG d   1       5.705   0.216  -8.301  0.00  0.00    -0.044 C 
ATOM      3  C   LIG d   1       5.387   1.217  -9.411  0.00  0.00    -0.026 C 
ATOM      4  C   LIG d   1       3.871   1.247  -9.625  0.00  0.00     0.063 C 
ATOM      5  H   LIG d   1       3.375   1.519  -8.693  0.00  0.00     0.060 H 
ATOM      6  C   LIG d   1       3.408  -0.140 -10.067  0.00  0.00     0.021 C 
ATOM      7  C   LIG d   1       3.732  -1.177  -8.987  0.00  0.00    -0.021 C 
ATOM      8  H   LIG d   1       3.171  -0.958  -8.078  0.00  0.00     0.032 H 
ATOM      9  C   LIG d   1       3.320  -2.555  -9.542  0.00  0.00    -0.016 C 
ATOM     10  C   LIG d   1       3.926  -3.619  -8.696  0.00  0.00     0.015 A 
ATOM     11  C   LIG d   1       4.918  -3.486  -7.779  0.00  0.00     0.058 A 
ATOM     12  N   LIG d   1       5.281  -4.601  -7.147  0.00  0.00    -0.229 NA
ATOM     13  C   LIG d   1       4.721  -5.765  -7.400  0.00  0.00     0.165 A 
ATOM     14  S   LIG d   1       3.554  -5.351  -8.621  0.00  0.00    -0.057 SA
ATOM     15  C   LIG d   1       5.541  -2.123  -7.520  0.00  0.00     0.016 C 
ATOM     16  H   LIG d   1       5.127  -1.703  -6.604  0.00  0.00     0.037 H 
ATOM     17  H   LIG d   1       6.782   0.201  -8.128  0.00  0.00     0.027 H 
ATOM     18  H   LIG d   1       5.198   0.519  -7.386  0.00  0.00     0.027 H 
ATOM     19  H   LIG d   1       5.880   0.909 -10.333  0.00  0.00     0.029 H 
ATOM     20  H   LIG d   1       5.735   2.207  -9.121  0.00  0.00     0.029 H 
ATOM     21  H   LIG d   1       3.677  -2.657 -10.567  0.00  0.00     0.032 H 
ATOM     22  H   LIG d   1       2.235  -2.646  -9.522  0.00  0.00     0.032 H 
ENDROOT
BRANCH  15  23
ATOM     23  C   LIG d   1       7.056  -2.276  -7.371  0.00  0.00     0.033 C 
ATOM     24  H   LIG d   1       7.343  -3.303  -7.598  0.00  0.00     0.036 H 
ATOM     25  H   LIG d   1       7.559  -1.598  -8.061  0.00  0.00     0.036 H 
BRANCH  23  26
ATOM     26  C   LIG d   1       7.458  -1.943  -5.958  0.00  0.00     0.214 C 
ATOM     27  O   LIG d   1       8.456  -1.287  -5.749  0.00  0.00    -0.276 OA
ATOM     28  N   LIG d   1       6.706  -2.375  -4.924  0.00  0.00    -0.311 N 
ATOM     29  H   LIG d   1       5.908  -2.899  -5.091  0.00  0.00     0.149 HD
BRANCH  28  30
ATOM     30  C   LIG d   1       7.095  -2.050  -3.550  0.00  0.00     0.038 C 
ATOM     31  H   LIG d   1       7.023  -2.944  -2.931  0.00  0.00     0.051 H 
ATOM     32  H   LIG d   1       8.122  -1.684  -3.539  0.00  0.00     0.051 H 
BRANCH  30  33
ATOM     33  C   LIG d   1       6.177  -0.986  -3.007  0.00  0.00    -0.012 A 
ATOM     34  C   LIG d   1       6.495   0.351  -3.150  0.00  0.00     0.032 A 
ATOM     35  N   LIG d   1       5.696   1.289  -2.679  0.00  0.00    -0.263 NA
ATOM     36  H   LIG d   1       7.408   0.632  -3.654  0.00  0.00     0.083 H 
ATOM     37  C   LIG d   1       4.572   0.994  -2.056  0.00  0.00     0.028 A 
ATOM     38  C   LIG d   1       4.188  -0.322  -1.875  0.00  0.00    -0.043 A 
ATOM     39  H   LIG d   1       3.943   1.788  -1.684  0.00  0.00     0.083 H 
ATOM     40  C   LIG d   1       5.000  -1.335  -2.362  0.00  0.00    -0.054 A 
ATOM     41  H   LIG d   1       3.267  -0.558  -1.365  0.00  0.00     0.063 H 
ATOM     42  H   LIG d   1       4.724  -2.372  -2.240  0.00  0.00     0.062 H 
ENDBRANCH  30  33
ENDBRANCH  28  30
ENDBRANCH  23  26
ENDBRANCH  15  23
BRANCH   1  43
ATOM     43  C   LIG d   1       5.995  -1.650  -9.942  0.00  0.00    -0.059 C 
ATOM     44  H   LIG d   1       5.780  -0.976 -10.771  0.00  0.00     0.024 H 
ATOM     45  H   LIG d   1       7.065  -1.645  -9.737  0.00  0.00     0.024 H 
ATOM     46  H   LIG d   1       5.680  -2.660 -10.204  0.00  0.00     0.024 H 
ENDBRANCH   1  43
BRANCH   6  47
ATOM     47  C   LIG d   1       1.898  -0.116 -10.309  0.00  0.00    -0.055 C 
ATOM     48  H   LIG d   1       1.682   0.464 -11.206  0.00  0.00     0.024 H 
ATOM     49  H   LIG d   1       1.534  -1.136 -10.438  0.00  0.00     0.024 H 
ATOM     50  H   LIG d   1       1.400   0.341  -9.453  0.00  0.00     0.024 H 
ENDBRANCH   6  47
BRANCH   6  51
ATOM     51  C   LIG d   1       4.120  -0.521 -11.365  0.00  0.00     0.052 C 
ATOM     52  H   LIG d   1       4.937   0.177 -11.551  0.00  0.00     0.056 H 
ATOM     53  H   LIG d   1       4.518  -1.531 -11.279  0.00  0.00     0.056 H 
BRANCH  51  54
ATOM     54  O   LIG d   1       3.192  -0.466 -12.451  0.00  0.00    -0.394 OA
ATOM     55  H   LIG d   1       2.994  -1.328 -12.843  0.00  0.00     0.209 HD
ENDBRANCH  51  54
ENDBRANCH   6  51
BRANCH  13  56
ATOM     56  N   LIG d   1       4.990  -7.005  -6.836  0.00  0.00    -0.258 N 
ATOM     57  C   LIG d   1       4.656  -7.249  -5.554  0.00  0.00     0.285 C 
ATOM     58  O   LIG d   1       4.116  -6.383  -4.890  0.00  0.00    -0.266 OA
ATOM     59  H   LIG d   1       5.419  -7.695  -7.365  0.00  0.00     0.157 HD
BRANCH  57  60
ATOM     60  C   LIG d   1       4.940  -8.558  -4.958  0.00  0.00     0.189 A 
ATOM     61  O   LIG d   1       4.037  -9.528  -4.705  0.00  0.00    -0.458 OA
ATOM     62  C   LIG d   1       4.657 -10.581  -4.160  0.00  0.00     0.093 A 
ATOM     63  C   LIG d   1       5.976 -10.306  -4.058  0.00  0.00    -0.023 A 
ATOM     64  H   LIG d   1       4.181 -11.502  -3.856  0.00  0.00     0.103 H 
ATOM     65  C   LIG d   1       6.167  -9.010  -4.562  0.00  0.00    -0.011 A 
ATOM     66  H   LIG d   1       6.740 -10.959  -3.661  0.00  0.00     0.065 H 
ATOM     67  H   LIG d   1       7.103  -8.475  -4.627  0.00  0.00     0.066 H 
ENDBRANCH  57  60
ENDBRANCH  13  56
BRANCH   4  68
ATOM     68  O   LIG d   1       3.549   2.204 -10.637  0.00  0.00    -0.391 OA
ATOM     69  H   LIG d   1       3.235   3.051 -10.292  0.00  0.00     0.210 HD
ENDBRANCH   4  68
TORSDOF 11
ENDMDL
MODEL 5
REMARK VINA RESULT:      -6.4      9.509     14.814
REMARK  11 active torsions:
REMARK  status: ('A' for Active; 'I' for Inactive)
REMARK    1  A    between atoms: C_1  and  C_2 
REMARK    2  A    between atoms: C_5  and  O_40 
REMARK    3  A    between atoms: C_7  and  C_37 
REMARK    4  A    between atoms: C_7  and  C_38 
REMARK    5  A    between atoms: C_14  and  N_16 
REMARK       I    between atoms: N_16  and  C_17 
REMARK    6  A    between atoms: C_17  and  C_19 
REMARK    7  A    between atoms: C_24  and  C_26 
REMARK    8  A    between atoms: C_26  and  C_27 
REMARK       I    between atoms: C_27  and  N_29 
REMARK    9  A    between atoms: N_29  and  C_30 
REMARK   10  A    between atoms: C_30  and  C_31 
REMARK   11  A    between atoms: C_38  and  O_39 
ROOT
ATOM      1  C   LIG d   1      10.384   5.771  -4.199  0.00  0.00    -0.019 C 
ATOM      2  C   LIG d   1      10.215   4.446  -3.446  0.00  0.00    -0.044 C 
ATOM      3  C   LIG d   1      10.765   4.568  -2.027  0.00  0.00    -0.026 C 
ATOM      4  C   LIG d   1       9.983   5.658  -1.288  0.00  0.00     0.063 C 
ATOM      5  H   LIG d   1       8.922   5.406  -1.282  0.00  0.00     0.060 H 
ATOM      6  C   LIG d   1      10.190   6.987  -2.010  0.00  0.00     0.021 C 
ATOM      7  C   LIG d   1       9.671   6.898  -3.448  0.00  0.00    -0.021 C 
ATOM      8  H   LIG d   1       8.593   6.732  -3.446  0.00  0.00     0.032 H 
ATOM      9  C   LIG d   1       9.997   8.239  -4.134  0.00  0.00    -0.016 C 
ATOM     10  C   LIG d   1       9.837   8.084  -5.605  0.00  0.00     0.015 A 
ATOM     11  C   LIG d   1       9.731   6.929  -6.311  0.00  0.00     0.058 A 
ATOM     12  N   LIG d   1       9.591   7.061  -7.628  0.00  0.00    -0.229 NA
ATOM     13  C   LIG d   1       9.567   8.239  -8.217  0.00  0.00     0.165 A 
ATOM     14  S   LIG d   1       9.739   9.324  -6.869  0.00  0.00    -0.057 SA
ATOM     15  C   LIG d   1       9.766   5.589  -5.592  0.00  0.00     0.016 C 
ATOM     16  H   LIG d   1       8.753   5.202  -5.493  0.00  0.00     0.037 H 
ATOM     17  H   LIG d   1      10.753   3.659  -3.975  0.00  0.00     0.027 H 
ATOM     18  H   LIG d   1       9.156   4.192  -3.403  0.00  0.00     0.027 H 
ATOM     19  H   LIG d   1      11.821   4.838  -2.065  0.00  0.00     0.029 H 
ATOM     20  H   LIG d   1      10.648   3.617  -1.507  0.00  0.00     0.029 H 
ATOM     21  H   LIG d   1      11.024   8.524  -3.907  0.00  0.00     0.032 H 
ATOM     22  H   LIG d   1       9.315   9.008  -3.772  0.00  0.00     0.032 H 
ENDROOT
BRANCH  15  23
ATOM     23  C   LIG d   1      10.612   4.601  -6.400  0.00  0.00     0.033 C 
ATOM     24  H   LIG d   1      11.075   5.119  -7.239  0.00  0.00     0.036 H 
ATOM     25  H   LIG d   1      11.388   4.181  -5.759  0.00  0.00     0.036 H 
BRANCH  23  26
ATOM     26  C   LIG d   1       9.732   3.493  -6.916  0.00  0.00     0.214 C 
ATOM     27  O   LIG d   1       9.143   3.626  -7.967  0.00  0.00    -0.276 OA
ATOM     28  N   LIG d   1       9.600   2.352  -6.208  0.00  0.00    -0.311 N 
ATOM     29  H   LIG d   1      10.071   2.246  -5.368  0.00  0.00     0.149 HD
BRANCH  28  30
ATOM     30  C   LIG d   1       8.745   1.274  -6.711  0.00  0.00     0.038 C 
ATOM     31  H   LIG d   1       8.224   1.611  -7.606  0.00  0.00     0.051 H 
ATOM     32  H   LIG d   1       9.358   0.406  -6.952  0.00  0.00     0.051 H 
BRANCH  30  33
ATOM     33  C   LIG d   1       7.738   0.898  -5.654  0.00  0.00    -0.012 A 
ATOM     34  C   LIG d   1       6.786  -0.070  -5.908  0.00  0.00     0.032 A 
ATOM     35  N   LIG d   1       5.902  -0.405  -4.989  0.00  0.00    -0.263 NA
ATOM     36  H   LIG d   1       6.765  -0.559  -6.872  0.00  0.00     0.083 H 
ATOM     37  C   LIG d   1       5.889   0.164  -3.799  0.00  0.00     0.028 A 
ATOM     38  C   LIG d   1       6.811   1.141  -3.473  0.00  0.00    -0.043 A 
ATOM     39  H   LIG d   1       5.150  -0.136  -3.072  0.00  0.00     0.083 H 
ATOM     40  C   LIG d   1       7.759   1.516  -4.413  0.00  0.00    -0.054 A 
ATOM     41  H   LIG d   1       6.795   1.604  -2.498  0.00  0.00     0.063 H 
ATOM     42  H   LIG d   1       8.494   2.273  -4.184  0.00  0.00     0.062 H 
ENDBRANCH  30  33
ENDBRANCH  28  30
ENDBRANCH  23  26
ENDBRANCH  15  23
BRANCH   1  43
ATOM     43  C   LIG d   1      11.873   6.100  -4.328  0.00  0.00    -0.059 C 
ATOM     44  H   LIG d   1      12.355   5.362  -4.968  0.00  0.00     0.024 H 
ATOM     45  H   LIG d   1      11.989   7.092  -4.765  0.00  0.00     0.024 H 
ATOM     46  H   LIG d   1      12.334   6.082  -3.340  0.00  0.00     0.024 H 
ENDBRANCH   1  43
BRANCH   6  47
ATOM     47  C   LIG d   1       9.434   8.090  -1.267  0.00  0.00    -0.055 C 
ATOM     48  H   LIG d   1      10.112   8.918  -1.057  0.00  0.00     0.024 H 
ATOM     49  H   LIG d   1       8.608   8.444  -1.884  0.00  0.00     0.024 H 
ATOM     50  H   LIG d   1       9.044   7.694  -0.329  0.00  0.00     0.024 H 
ENDBRANCH   6  47
BRANCH   6  51
ATOM     51  C   LIG d   1      11.682   7.325  -2.030  0.00  0.00     0.052 C 
ATOM     52  H   LIG d   1      12.264   6.403  -2.046  0.00  0.00     0.056 H 
ATOM     53  H   LIG d   1      11.910   7.913  -2.918  0.00  0.00     0.056 H 
BRANCH  51  54
ATOM     54  O   LIG d   1      12.016   8.078  -0.862  0.00  0.00    -0.394 OA
ATOM     55  H   LIG d   1      12.120   9.026  -1.021  0.00  0.00     0.209 HD
ENDBRANCH  51  54
ENDBRANCH   6  51
BRANCH  13  56
ATOM     56  N   LIG d   1       9.434   8.539  -9.566  0.00  0.00    -0.258 N 
ATOM     57  C   LIG d   1      10.488   8.405 -10.393  0.00  0.00     0.285 C 
ATOM     58  O   LIG d   1      11.558   8.018  -9.960  0.00  0.00    -0.266 OA
ATOM     59  H   LIG d   1       8.581   8.847  -9.912  0.00  0.00     0.157 HD
BRANCH  57  60
ATOM     60  C   LIG d   1      10.347   8.723 -11.818  0.00  0.00     0.189 A 
ATOM     61  O   LIG d   1      10.772   9.851 -12.425  0.00  0.00    -0.458 OA
ATOM     62  C   LIG d   1      10.473   9.793 -13.729  0.00  0.00     0.093 A 
ATOM     63  C   LIG d   1       9.853   8.620 -13.982  0.00  0.00    -0.023 A 
ATOM     64  H   LIG d   1      10.696  10.558 -14.459  0.00  0.00     0.103 H 
ATOM     65  C   LIG d   1       9.762   7.929 -12.763  0.00  0.00    -0.011 A 
ATOM     66  H   LIG d   1       9.492   8.278 -14.942  0.00  0.00     0.065 H 
ATOM     67  H   LIG d   1       9.320   6.957 -12.605  0.00  0.00     0.066 H 
ENDBRANCH  57  60
ENDBRANCH  13  56
BRANCH   4  68
ATOM     68  O   LIG d   1      10.460   5.763   0.055  0.00  0.00    -0.391 OA
ATOM     69  H   LIG d   1      10.377   6.648   0.435  0.00  0.00     0.210 HD
ENDBRANCH   4  68
TORSDOF 11
ENDMDL
MODEL 6
REMARK VINA RESULT:      -6.3      2.696      8.392
REMARK  11 active torsions:
REMARK  status: ('A' for Active; 'I' for Inactive)
REMARK    1  A    between atoms: C_1  and  C_2 
REMARK    2  A    between atoms: C_5  and  O_40 
REMARK    3  A    between atoms: C_7  and  C_37 
REMARK    4  A    between atoms: C_7  and  C_38 
REMARK    5  A    between atoms: C_14  and  N_16 
REMARK       I    between atoms: N_16  and  C_17 
REMARK    6  A    between atoms: C_17  and  C_19 
REMARK    7  A    between atoms: C_24  and  C_26 
REMARK    8  A    between atoms: C_26  and  C_27 
REMARK       I    between atoms: C_27  and  N_29 
REMARK    9  A    between atoms: N_29  and  C_30 
REMARK   10  A    between atoms: C_30  and  C_31 
REMARK   11  A    between atoms: C_38  and  O_39 
ROOT
ATOM      1  C   LIG d   1       4.825  -2.179  -4.658  0.00  0.00    -0.019 C 
ATOM      2  C   LIG d   1       4.448  -2.757  -3.289  0.00  0.00    -0.044 C 
ATOM      3  C   LIG d   1       4.645  -1.707  -2.197  0.00  0.00    -0.026 C 
ATOM      4  C   LIG d   1       3.735  -0.511  -2.494  0.00  0.00     0.063 C 
ATOM      5  H   LIG d   1       2.698  -0.844  -2.542  0.00  0.00     0.060 H 
ATOM      6  C   LIG d   1       4.142   0.095  -3.836  0.00  0.00     0.021 C 
ATOM      7  C   LIG d   1       3.980  -0.938  -4.957  0.00  0.00    -0.021 C 
ATOM      8  H   LIG d   1       2.930  -1.209  -5.066  0.00  0.00     0.032 H 
ATOM      9  C   LIG d   1       4.493  -0.285  -6.255  0.00  0.00    -0.016 C 
ATOM     10  C   LIG d   1       4.687  -1.340  -7.285  0.00  0.00     0.015 A 
ATOM     11  C   LIG d   1       4.725  -2.685  -7.100  0.00  0.00     0.058 A 
ATOM     12  N   LIG d   1       4.908  -3.420  -8.195  0.00  0.00    -0.229 NA
ATOM     13  C   LIG d   1       5.054  -2.879  -9.386  0.00  0.00     0.165 A 
ATOM     14  S   LIG d   1       4.924  -1.181  -9.035  0.00  0.00    -0.057 SA
ATOM     15  C   LIG d   1       4.555  -3.268  -5.705  0.00  0.00     0.016 C 
ATOM     16  H   LIG d   1       3.538  -3.641  -5.588  0.00  0.00     0.037 H 
ATOM     17  H   LIG d   1       5.078  -3.620  -3.076  0.00  0.00     0.027 H 
ATOM     18  H   LIG d   1       3.404  -3.068  -3.306  0.00  0.00     0.027 H 
ATOM     19  H   LIG d   1       5.685  -1.380  -2.186  0.00  0.00     0.029 H 
ATOM     20  H   LIG d   1       4.383  -2.133  -1.229  0.00  0.00     0.029 H 
ATOM     21  H   LIG d   1       5.443   0.214  -6.061  0.00  0.00     0.032 H 
ATOM     22  H   LIG d   1       3.764   0.442  -6.610  0.00  0.00     0.032 H 
ENDROOT
BRANCH  15  23
ATOM     23  C   LIG d   1       5.545  -4.418  -5.511  0.00  0.00     0.033 C 
ATOM     24  H   LIG d   1       6.331  -4.354  -6.263  0.00  0.00     0.036 H 
ATOM     25  H   LIG d   1       5.988  -4.352  -4.517  0.00  0.00     0.036 H 
BRANCH  23  26
ATOM     26  C   LIG d   1       4.821  -5.732  -5.651  0.00  0.00     0.214 C 
ATOM     27  O   LIG d   1       3.617  -5.750  -5.790  0.00  0.00    -0.276 OA
ATOM     28  N   LIG d   1       5.514  -6.889  -5.621  0.00  0.00    -0.311 N 
ATOM     29  H   LIG d   1       6.476  -6.875  -5.510  0.00  0.00     0.149 HD
BRANCH  28  30
ATOM     30  C   LIG d   1       4.810  -8.167  -5.758  0.00  0.00     0.038 C 
ATOM     31  H   LIG d   1       3.735  -7.988  -5.788  0.00  0.00     0.051 H 
ATOM     32  H   LIG d   1       5.122  -8.658  -6.680  0.00  0.00     0.051 H 
BRANCH  30  33
ATOM     33  C   LIG d   1       5.141  -9.050  -4.583  0.00  0.00    -0.012 A 
ATOM     34  C   LIG d   1       6.436  -9.127  -4.108  0.00  0.00     0.032 A 
ATOM     35  N   LIG d   1       6.734  -9.897  -3.080  0.00  0.00    -0.263 NA
ATOM     36  H   LIG d   1       7.215  -8.549  -4.586  0.00  0.00     0.083 H 
ATOM     37  C   LIG d   1       5.818 -10.619  -2.466  0.00  0.00     0.028 A 
ATOM     38  C   LIG d   1       4.500 -10.594  -2.885  0.00  0.00    -0.043 A 
ATOM     39  H   LIG d   1       6.099 -11.238  -1.627  0.00  0.00     0.083 H 
ATOM     40  C   LIG d   1       4.148  -9.792  -3.959  0.00  0.00    -0.054 A 
ATOM     41  H   LIG d   1       3.755 -11.187  -2.378  0.00  0.00     0.063 H 
ATOM     42  H   LIG d   1       3.127  -9.749  -4.305  0.00  0.00     0.062 H 
ENDBRANCH  30  33
ENDBRANCH  28  30
ENDBRANCH  23  26
ENDBRANCH  15  23
BRANCH   1  43
ATOM     43  C   LIG d   1       6.308  -1.805  -4.665  0.00  0.00    -0.059 C 
ATOM     44  H   LIG d   1       6.477  -0.999  -5.380  0.00  0.00     0.024 H 
ATOM     45  H   LIG d   1       6.605  -1.475  -3.670  0.00  0.00     0.024 H 
ATOM     46  H   LIG d   1       6.900  -2.674  -4.951  0.00  0.00     0.024 H 
ENDBRANCH   1  43
BRANCH   6  47
ATOM     47  C   LIG d   1       3.256   1.306  -4.134  0.00  0.00    -0.055 C 
ATOM     48  H   LIG d   1       2.503   1.407  -3.352  0.00  0.00     0.024 H 
ATOM     49  H   LIG d   1       3.871   2.206  -4.165  0.00  0.00     0.024 H 
ATOM     50  H   LIG d   1       2.764   1.169  -5.097  0.00  0.00     0.024 H 
ENDBRANCH   6  47
BRANCH   6  51
ATOM     51  C   LIG d   1       5.602   0.543  -3.768  0.00  0.00     0.052 C 
ATOM     52  H   LIG d   1       6.199  -0.233  -3.289  0.00  0.00     0.056 H 
ATOM     53  H   LIG d   1       5.977   0.718  -4.776  0.00  0.00     0.056 H 
BRANCH  51  54
ATOM     54  O   LIG d   1       5.694   1.750  -3.009  0.00  0.00    -0.394 OA
ATOM     55  H   LIG d   1       4.847   2.066  -2.666  0.00  0.00     0.209 HD
ENDBRANCH  51  54
ENDBRANCH   6  51
BRANCH  13  56
ATOM     56  N   LIG d   1       5.256  -3.504 -10.610  0.00  0.00    -0.258 N 
ATOM     57  C   LIG d   1       4.204  -3.797 -11.399  0.00  0.00     0.285 C 
ATOM     58  O   LIG d   1       3.076  -3.512 -11.041  0.00  0.00    -0.266 OA
ATOM     59  H   LIG d   1       6.155  -3.731 -10.896  0.00  0.00     0.157 HD
BRANCH  57  60
ATOM     60  C   LIG d   1       4.418  -4.457 -12.691  0.00  0.00     0.189 A 
ATOM     61  O   LIG d   1       4.573  -3.840 -13.881  0.00  0.00    -0.458 OA
ATOM     62  C   LIG d   1       4.747  -4.760 -14.838  0.00  0.00     0.093 A 
ATOM     63  C   LIG d   1       4.711  -5.988 -14.275  0.00  0.00    -0.023 A 
ATOM     64  H   LIG d   1       4.896  -4.553 -15.888  0.00  0.00     0.103 H 
ATOM     65  C   LIG d   1       4.496  -5.805 -12.900  0.00  0.00    -0.011 A 
ATOM     66  H   LIG d   1       4.825  -6.932 -14.787  0.00  0.00     0.065 H 
ATOM     67  H   LIG d   1       4.411  -6.580 -12.153  0.00  0.00     0.066 H 
ENDBRANCH  57  60
ENDBRANCH  13  56
BRANCH   4  68
ATOM     68  O   LIG d   1       3.879   0.468  -1.464  0.00  0.00    -0.391 OA
ATOM     69  H   LIG d   1       4.490   0.212  -0.759  0.00  0.00     0.210 HD
ENDBRANCH   4  68
TORSDOF 11
ENDMDL
MODEL 7
REMARK VINA RESULT:      -6.3      5.743      7.672
REMARK  11 active torsions:
REMARK  status: ('A' for Active; 'I' for Inactive)
REMARK    1  A    between atoms: C_1  and  C_2 
REMARK    2  A    between atoms: C_5  and  O_40 
REMARK    3  A    between atoms: C_7  and  C_37 
REMARK    4  A    between atoms: C_7  and  C_38 
REMARK    5  A    between atoms: C_14  and  N_16 
REMARK       I    between atoms: N_16  and  C_17 
REMARK    6  A    between atoms: C_17  and  C_19 
REMARK    7  A    between atoms: C_24  and  C_26 
REMARK    8  A    between atoms: C_26  and  C_27 
REMARK       I    between atoms: C_27  and  N_29 
REMARK    9  A    between atoms: N_29  and  C_30 
REMARK   10  A    between atoms: C_30  and  C_31 
REMARK   11  A    between atoms: C_38  and  O_39 
ROOT
ATOM      1  C   LIG d   1       6.699  -0.279  -4.099  0.00  0.00    -0.019 C 
ATOM      2  C   LIG d   1       6.595   1.067  -3.372  0.00  0.00    -0.044 C 
ATOM      3  C   LIG d   1       5.131   1.431  -3.133  0.00  0.00    -0.026 C 
ATOM      4  C   LIG d   1       4.492   0.349  -2.259  0.00  0.00     0.063 C 
ATOM      5  H   LIG d   1       5.038   0.268  -1.319  0.00  0.00     0.060 H 
ATOM      6  C   LIG d   1       4.551  -0.984  -3.003  0.00  0.00     0.021 C 
ATOM      7  C   LIG d   1       6.006  -1.373  -3.282  0.00  0.00    -0.021 C 
ATOM      8  H   LIG d   1       6.535  -1.539  -2.343  0.00  0.00     0.032 H 
ATOM      9  C   LIG d   1       5.979  -2.673  -4.110  0.00  0.00    -0.016 C 
ATOM     10  C   LIG d   1       7.325  -2.900  -4.700  0.00  0.00     0.015 A 
ATOM     11  C   LIG d   1       8.350  -2.015  -4.796  0.00  0.00     0.058 A 
ATOM     12  N   LIG d   1       9.463  -2.470  -5.368  0.00  0.00    -0.229 NA
ATOM     13  C   LIG d   1       9.564  -3.701  -5.825  0.00  0.00     0.165 A 
ATOM     14  S   LIG d   1       8.000  -4.360  -5.448  0.00  0.00    -0.057 SA
ATOM     15  C   LIG d   1       8.191  -0.601  -4.258  0.00  0.00     0.016 C 
ATOM     16  H   LIG d   1       8.685  -0.522  -3.290  0.00  0.00     0.037 H 
ATOM     17  H   LIG d   1       7.065   1.842  -3.979  0.00  0.00     0.027 H 
ATOM     18  H   LIG d   1       7.111   0.998  -2.415  0.00  0.00     0.027 H 
ATOM     19  H   LIG d   1       4.607   1.486  -4.088  0.00  0.00     0.029 H 
ATOM     20  H   LIG d   1       5.072   2.393  -2.626  0.00  0.00     0.029 H 
ATOM     21  H   LIG d   1       5.242  -2.581  -4.908  0.00  0.00     0.032 H 
ATOM     22  H   LIG d   1       5.718  -3.510  -3.464  0.00  0.00     0.032 H 
ENDROOT
BRANCH  15  23
ATOM     23  C   LIG d   1       8.824   0.390  -5.237  0.00  0.00     0.033 C 
ATOM     24  H   LIG d   1       9.171  -0.143  -6.121  0.00  0.00     0.036 H 
ATOM     25  H   LIG d   1       8.084   1.135  -5.529  0.00  0.00     0.036 H 
BRANCH  23  26
ATOM     26  C   LIG d   1       9.991   1.075  -4.573  0.00  0.00     0.214 C 
ATOM     27  O   LIG d   1      11.125   0.784  -4.887  0.00  0.00    -0.276 OA
ATOM     28  N   LIG d   1       9.772   2.012  -3.627  0.00  0.00    -0.311 N 
ATOM     29  H   LIG d   1       8.866   2.244  -3.376  0.00  0.00     0.149 HD
BRANCH  28  30
ATOM     30  C   LIG d   1      10.906   2.678  -2.982  0.00  0.00     0.038 C 
ATOM     31  H   LIG d   1      11.141   2.171  -2.047  0.00  0.00     0.051 H 
ATOM     32  H   LIG d   1      11.773   2.643  -3.642  0.00  0.00     0.051 H 
BRANCH  30  33
ATOM     33  C   LIG d   1      10.549   4.115  -2.699  0.00  0.00    -0.012 A 
ATOM     34  C   LIG d   1      10.940   4.713  -1.516  0.00  0.00     0.032 A 
ATOM     35  N   LIG d   1      10.632   5.969  -1.261  0.00  0.00    -0.263 NA
ATOM     36  H   LIG d   1      11.505   4.144  -0.792  0.00  0.00     0.083 H 
ATOM     37  C   LIG d   1       9.945   6.702  -2.115  0.00  0.00     0.028 A 
ATOM     38  C   LIG d   1       9.519   6.171  -3.319  0.00  0.00    -0.043 A 
ATOM     39  H   LIG d   1       9.711   7.727  -1.873  0.00  0.00     0.083 H 
ATOM     40  C   LIG d   1       9.829   4.855  -3.624  0.00  0.00    -0.054 A 
ATOM     41  H   LIG d   1       8.957   6.776  -4.014  0.00  0.00     0.063 H 
ATOM     42  H   LIG d   1       9.513   4.415  -4.559  0.00  0.00     0.062 H 
ENDBRANCH  30  33
ENDBRANCH  28  30
ENDBRANCH  23  26
ENDBRANCH  15  23
BRANCH   1  43
ATOM     43  C   LIG d   1       6.039  -0.170  -5.475  0.00  0.00    -0.059 C 
ATOM     44  H   LIG d   1       6.716  -0.559  -6.235  0.00  0.00     0.024 H 
ATOM     45  H   LIG d   1       5.115  -0.748  -5.482  0.00  0.00     0.024 H 
ATOM     46  H   LIG d   1       5.815   0.876  -5.688  0.00  0.00     0.024 H 
ENDBRANCH   1  43
BRANCH   6  47
ATOM     47  C   LIG d   1       3.892  -2.070  -2.150  0.00  0.00    -0.055 C 
ATOM     48  H   LIG d   1       2.894  -1.745  -1.856  0.00  0.00     0.024 H 
ATOM     49  H   LIG d   1       3.820  -2.992  -2.727  0.00  0.00     0.024 H 
ATOM     50  H   LIG d   1       4.494  -2.246  -1.258  0.00  0.00     0.024 H 
ENDBRANCH   6  47
BRANCH   6  51
ATOM     51  C   LIG d   1       3.797  -0.858  -4.327  0.00  0.00     0.052 C 
ATOM     52  H   LIG d   1       4.052   0.089  -4.803  0.00  0.00     0.056 H 
ATOM     53  H   LIG d   1       4.077  -1.681  -4.985  0.00  0.00     0.056 H 
BRANCH  51  54
ATOM     54  O   LIG d   1       2.390  -0.903  -4.081  0.00  0.00    -0.394 OA
ATOM     55  H   LIG d   1       2.141  -0.660  -3.179  0.00  0.00     0.209 HD
ENDBRANCH  51  54
ENDBRANCH   6  51
BRANCH  13  56
ATOM     56  N   LIG d   1      10.644  -4.316  -6.446  0.00  0.00    -0.258 N 
ATOM     57  C   LIG d   1      11.561  -4.971  -5.708  0.00  0.00     0.285 C 
ATOM     58  O   LIG d   1      11.444  -5.025  -4.498  0.00  0.00    -0.266 OA
ATOM     59  H   LIG d   1      10.737  -4.273  -7.410  0.00  0.00     0.157 HD
BRANCH  57  60
ATOM     60  C   LIG d   1      12.701  -5.620  -6.364  0.00  0.00     0.189 A 
ATOM     61  O   LIG d   1      13.991  -5.538  -5.977  0.00  0.00    -0.458 OA
ATOM     62  C   LIG d   1      14.751  -6.258  -6.811  0.00  0.00     0.093 A 
ATOM     63  C   LIG d   1      13.957  -6.821  -7.749  0.00  0.00    -0.023 A 
ATOM     64  H   LIG d   1      15.823  -6.374  -6.742  0.00  0.00     0.103 H 
ATOM     65  C   LIG d   1      12.643  -6.414  -7.474  0.00  0.00    -0.011 A 
ATOM     66  H   LIG d   1      14.275  -7.462  -8.558  0.00  0.00     0.065 H 
ATOM     67  H   LIG d   1      11.756  -6.681  -8.031  0.00  0.00     0.066 H 
ENDBRANCH  57  60
ENDBRANCH  13  56
BRANCH   4  68
ATOM     68  O   LIG d   1       3.129   0.689  -1.995  0.00  0.00    -0.391 OA
ATOM     69  H   LIG d   1       2.499  -0.014  -2.206  0.00  0.00     0.210 HD
ENDBRANCH   4  68
TORSDOF 11
ENDMDL
MODEL 8
REMARK VINA RESULT:      -6.2      3.789      6.357
REMARK  11 active torsions:
REMARK  status: ('A' for Active; 'I' for Inactive)
REMARK    1  A    between atoms: C_1  and  C_2 
REMARK    2  A    between atoms: C_5  and  O_40 
REMARK    3  A    between atoms: C_7  and  C_37 
REMARK    4  A    between atoms: C_7  and  C_38 
REMARK    5  A    between atoms: C_14  and  N_16 
REMARK       I    between atoms: N_16  and  C_17 
REMARK    6  A    between atoms: C_17  and  C_19 
REMARK    7  A    between atoms: C_24  and  C_26 
REMARK    8  A    between atoms: C_26  and  C_27 
REMARK       I    between atoms: C_27  and  N_29 
REMARK    9  A    between atoms: N_29  and  C_30 
REMARK   10  A    between atoms: C_30  and  C_31 
REMARK   11  A    between atoms: C_38  and  O_39 
ROOT
ATOM      1  C   LIG d   1       6.382  -1.710  -4.308  0.00  0.00    -0.019 C 
ATOM      2  C   LIG d   1       7.099  -0.672  -3.437  0.00  0.00    -0.044 C 
ATOM      3  C   LIG d   1       6.327   0.647  -3.438  0.00  0.00    -0.026 C 
ATOM      4  C   LIG d   1       4.930   0.399  -2.861  0.00  0.00     0.063 C 
ATOM      5  H   LIG d   1       5.018  -0.008  -1.854  0.00  0.00     0.060 H 
ATOM      6  C   LIG d   1       4.198  -0.599  -3.756  0.00  0.00     0.021 C 
ATOM      7  C   LIG d   1       4.955  -1.929  -3.799  0.00  0.00    -0.021 C 
ATOM      8  H   LIG d   1       4.970  -2.383  -2.808  0.00  0.00     0.032 H 
ATOM      9  C   LIG d   1       4.208  -2.846  -4.788  0.00  0.00    -0.016 C 
ATOM     10  C   LIG d   1       5.080  -4.001  -5.133  0.00  0.00     0.015 A 
ATOM     11  C   LIG d   1       6.412  -4.132  -4.905  0.00  0.00     0.058 A 
ATOM     12  N   LIG d   1       6.963  -5.275  -5.309  0.00  0.00    -0.229 NA
ATOM     13  C   LIG d   1       6.264  -6.220  -5.903  0.00  0.00     0.165 A 
ATOM     14  S   LIG d   1       4.668  -5.530  -5.929  0.00  0.00    -0.057 SA
ATOM     15  C   LIG d   1       7.183  -3.015  -4.219  0.00  0.00     0.016 C 
ATOM     16  H   LIG d   1       7.343  -3.273  -3.172  0.00  0.00     0.037 H 
ATOM     17  H   LIG d   1       8.102  -0.502  -3.829  0.00  0.00     0.027 H 
ATOM     18  H   LIG d   1       7.169  -1.048  -2.417  0.00  0.00     0.027 H 
ATOM     19  H   LIG d   1       6.240   1.019  -4.459  0.00  0.00     0.029 H 
ATOM     20  H   LIG d   1       6.852   1.378  -2.824  0.00  0.00     0.029 H 
ATOM     21  H   LIG d   1       3.968  -2.288  -5.693  0.00  0.00     0.032 H 
ATOM     22  H   LIG d   1       3.290  -3.207  -4.326  0.00  0.00     0.032 H 
ENDROOT
BRANCH  15  23
ATOM     23  C   LIG d   1       8.536  -2.831  -4.911  0.00  0.00     0.033 C 
ATOM     24  H   LIG d   1       8.508  -3.298  -5.895  0.00  0.00     0.036 H 
ATOM     25  H   LIG d   1       8.746  -1.767  -5.019  0.00  0.00     0.036 H 
BRANCH  23  26
ATOM     26  C   LIG d   1       9.616  -3.474  -4.080  0.00  0.00     0.214 C 
ATOM     27  O   LIG d   1      10.779  -3.184  -4.266  0.00  0.00    -0.276 OA
ATOM     28  N   LIG d   1       9.288  -4.373  -3.129  0.00  0.00    -0.311 N 
ATOM     29  H   LIG d   1       8.359  -4.604  -2.980  0.00  0.00     0.149 HD
BRANCH  28  30
ATOM     30  C   LIG d   1      10.338  -4.998  -2.320  0.00  0.00     0.038 C 
ATOM     31  H   LIG d   1      11.303  -4.858  -2.806  0.00  0.00     0.051 H 
ATOM     32  H   LIG d   1      10.359  -4.536  -1.332  0.00  0.00     0.051 H 
BRANCH  30  33
ATOM     33  C   LIG d   1      10.054  -6.471  -2.180  0.00  0.00    -0.012 A 
ATOM     34  C   LIG d   1      10.668  -7.210  -1.187  0.00  0.00     0.032 A 
ATOM     35  N   LIG d   1      10.424  -8.500  -1.057  0.00  0.00    -0.263 NA
ATOM     36  H   LIG d   1      11.356  -6.727  -0.509  0.00  0.00     0.083 H 
ATOM     37  C   LIG d   1       9.592  -9.132  -1.861  0.00  0.00     0.028 A 
ATOM     38  C   LIG d   1       8.940  -8.458  -2.877  0.00  0.00    -0.043 A 
ATOM     39  H   LIG d   1       9.416 -10.189  -1.724  0.00  0.00     0.083 H 
ATOM     40  C   LIG d   1       9.168  -7.100  -3.041  0.00  0.00    -0.054 A 
ATOM     41  H   LIG d   1       8.260  -8.981  -3.532  0.00  0.00     0.063 H 
ATOM     42  H   LIG d   1       8.670  -6.547  -3.823  0.00  0.00     0.062 H 
ENDBRANCH  30  33
ENDBRANCH  28  30
ENDBRANCH  23  26
ENDBRANCH  15  23
BRANCH   1  43
ATOM     43  C   LIG d   1       6.341  -1.221  -5.758  0.00  0.00    -0.059 C 
ATOM     44  H   LIG d   1       7.161  -1.671  -6.316  0.00  0.00     0.024 H 
ATOM     45  H   LIG d   1       5.392  -1.507  -6.211  0.00  0.00     0.024 H 
ATOM     46  H   LIG d   1       6.440  -0.135  -5.777  0.00  0.00     0.024 H 
ENDBRANCH   1  43
BRANCH   6  47
ATOM     47  C   LIG d   1       2.791  -0.835  -3.204  0.00  0.00    -0.055 C 
ATOM     48  H   LIG d   1       2.444  -1.824  -3.506  0.00  0.00     0.024 H 
ATOM     49  H   LIG d   1       2.812  -0.773  -2.116  0.00  0.00     0.024 H 
ATOM     50  H   LIG d   1       2.114  -0.077  -3.599  0.00  0.00     0.024 H 
ENDBRANCH   6  47
BRANCH   6  51
ATOM     51  C   LIG d   1       4.094  -0.028  -5.171  0.00  0.00     0.052 C 
ATOM     52  H   LIG d   1       5.000   0.532  -5.405  0.00  0.00     0.056 H 
ATOM     53  H   LIG d   1       3.977  -0.843  -5.884  0.00  0.00     0.056 H 
BRANCH  51  54
ATOM     54  O   LIG d   1       2.963   0.842  -5.252  0.00  0.00    -0.394 OA
ATOM     55  H   LIG d   1       2.175   0.429  -5.632  0.00  0.00     0.209 HD
ENDBRANCH  51  54
ENDBRANCH   6  51
BRANCH  13  56
ATOM     56  N   LIG d   1       6.690  -7.452  -6.382  0.00  0.00    -0.258 N 
ATOM     57  C   LIG d   1       6.468  -8.568  -5.662  0.00  0.00     0.285 C 
ATOM     58  O   LIG d   1       5.892  -8.499  -4.592  0.00  0.00    -0.266 OA
ATOM     59  H   LIG d   1       7.149  -7.508  -7.235  0.00  0.00     0.157 HD
BRANCH  57  60
ATOM     60  C   LIG d   1       6.918  -9.869  -6.168  0.00  0.00     0.189 A 
ATOM     61  O   LIG d   1       7.124 -10.188  -7.463  0.00  0.00    -0.458 OA
ATOM     62  C   LIG d   1       7.532 -11.461  -7.547  0.00  0.00     0.093 A 
ATOM     63  C   LIG d   1       7.600 -11.980  -6.301  0.00  0.00    -0.023 A 
ATOM     64  H   LIG d   1       7.772 -11.984  -8.461  0.00  0.00     0.103 H 
ATOM     65  C   LIG d   1       7.204 -10.969  -5.411  0.00  0.00    -0.011 A 
ATOM     66  H   LIG d   1       7.900 -12.984  -6.039  0.00  0.00     0.065 H 
ATOM     67  H   LIG d   1       7.141 -11.047  -4.335  0.00  0.00     0.066 H 
ENDBRANCH  57  60
ENDBRANCH  13  56
BRANCH   4  68
ATOM     68  O   LIG d   1       4.204   1.629  -2.821  0.00  0.00    -0.391 OA
ATOM     69  H   LIG d   1       4.719   2.381  -2.495  0.00  0.00     0.210 HD
ENDBRANCH   4  68
TORSDOF 11
ENDMDL
MODEL 9
REMARK VINA RESULT:      -6.2      9.943     14.565
REMARK  11 active torsions:
REMARK  status: ('A' for Active; 'I' for Inactive)
REMARK    1  A    between atoms: C_1  and  C_2 
REMARK    2  A    between atoms: C_5  and  O_40 
REMARK    3  A    between atoms: C_7  and  C_37 
REMARK    4  A    between atoms: C_7  and  C_38 
REMARK    5  A    between atoms: C_14  and  N_16 
REMARK       I    between atoms: N_16  and  C_17 
REMARK    6  A    between atoms: C_17  and  C_19 
REMARK    7  A    between atoms: C_24  and  C_26 
REMARK    8  A    between atoms: C_26  and  C_27 
REMARK       I    between atoms: C_27  and  N_29 
REMARK    9  A    between atoms: N_29  and  C_30 
REMARK   10  A    between atoms: C_30  and  C_31 
REMARK   11  A    between atoms: C_38  and  O_39 
ROOT
ATOM      1  C   LIG d   1       9.953   4.098  -5.712  0.00  0.00    -0.019 C 
ATOM      2  C   LIG d   1       9.540   3.926  -7.178  0.00  0.00    -0.044 C 
ATOM      3  C   LIG d   1       9.505   2.445  -7.550  0.00  0.00    -0.026 C 
ATOM      4  C   LIG d   1       8.476   1.739  -6.663  0.00  0.00     0.063 C 
ATOM      5  H   LIG d   1       7.499   2.205  -6.795  0.00  0.00     0.060 H 
ATOM      6  C   LIG d   1       8.912   1.869  -5.205  0.00  0.00     0.021 C 
ATOM      7  C   LIG d   1       8.982   3.345  -4.800  0.00  0.00    -0.021 C 
ATOM      8  H   LIG d   1       7.989   3.793  -4.848  0.00  0.00     0.032 H 
ATOM      9  C   LIG d   1       9.513   3.395  -3.354  0.00  0.00    -0.016 C 
ATOM     10  C   LIG d   1       9.930   4.788  -3.038  0.00  0.00     0.015 A 
ATOM     11  C   LIG d   1      10.127   5.812  -3.907  0.00  0.00     0.058 A 
ATOM     12  N   LIG d   1      10.497   6.972  -3.367  0.00  0.00    -0.229 NA
ATOM     13  C   LIG d   1      10.672   7.118  -2.070  0.00  0.00     0.165 A 
ATOM     14  S   LIG d   1      10.292   5.531  -1.470  0.00  0.00    -0.057 SA
ATOM     15  C   LIG d   1       9.918   5.600  -5.398  0.00  0.00     0.016 C 
ATOM     16  H   LIG d   1       8.952   6.010  -5.692  0.00  0.00     0.037 H 
ATOM     17  H   LIG d   1      10.258   4.441  -7.818  0.00  0.00     0.027 H 
ATOM     18  H   LIG d   1       8.551   4.359  -7.325  0.00  0.00     0.027 H 
ATOM     19  H   LIG d   1      10.489   2.004  -7.390  0.00  0.00     0.029 H 
ATOM     20  H   LIG d   1       9.220   2.339  -8.597  0.00  0.00     0.029 H 
ATOM     21  H   LIG d   1      10.370   2.727  -3.257  0.00  0.00     0.032 H 
ATOM     22  H   LIG d   1       8.728   3.084  -2.666  0.00  0.00     0.032 H 
ENDROOT
BRANCH  15  23
ATOM     23  C   LIG d   1      11.030   6.309  -6.174  0.00  0.00     0.033 C 
ATOM     24  H   LIG d   1      11.838   6.574  -5.493  0.00  0.00     0.036 H 
ATOM     25  H   LIG d   1      11.412   5.644  -6.950  0.00  0.00     0.036 H 
BRANCH  23  26
ATOM     26  C   LIG d   1      10.479   7.559  -6.811  0.00  0.00     0.214 C 
ATOM     27  O   LIG d   1      10.108   7.539  -7.965  0.00  0.00    -0.276 OA
ATOM     28  N   LIG d   1      10.398   8.700  -6.096  0.00  0.00    -0.311 N 
ATOM     29  H   LIG d   1      10.694   8.715  -5.174  0.00  0.00     0.149 HD
BRANCH  28  30
ATOM     30  C   LIG d   1       9.862   9.914  -6.715  0.00  0.00     0.038 C 
ATOM     31  H   LIG d   1      10.584  10.307  -7.429  0.00  0.00     0.051 H 
ATOM     32  H   LIG d   1       8.931   9.679  -7.231  0.00  0.00     0.051 H 
BRANCH  30  33
ATOM     33  C   LIG d   1       9.597  10.945  -5.648  0.00  0.00    -0.012 A 
ATOM     34  C   LIG d   1       9.773  12.290  -5.916  0.00  0.00     0.032 A 
ATOM     35  N   LIG d   1       9.542  13.198  -4.988  0.00  0.00    -0.263 NA
ATOM     36  H   LIG d   1      10.103  12.600  -6.896  0.00  0.00     0.083 H 
ATOM     37  C   LIG d   1       9.138  12.867  -3.777  0.00  0.00     0.028 A 
ATOM     38  C   LIG d   1       8.941  11.541  -3.437  0.00  0.00    -0.043 A 
ATOM     39  H   LIG d   1       8.960  13.638  -3.044  0.00  0.00     0.083 H 
ATOM     40  C   LIG d   1       9.167  10.558  -4.387  0.00  0.00    -0.054 A 
ATOM     41  H   LIG d   1       8.610  11.276  -2.444  0.00  0.00     0.063 H 
ATOM     42  H   LIG d   1       9.017   9.515  -4.151  0.00  0.00     0.062 H 
ENDBRANCH  30  33
ENDBRANCH  28  30
ENDBRANCH  23  26
ENDBRANCH  15  23
BRANCH   1  43
ATOM     43  C   LIG d   1      11.370   3.557  -5.512  0.00  0.00    -0.059 C 
ATOM     44  H   LIG d   1      11.983   3.814  -6.375  0.00  0.00     0.024 H 
ATOM     45  H   LIG d   1      11.804   3.997  -4.614  0.00  0.00     0.024 H 
ATOM     46  H   LIG d   1      11.332   2.473  -5.403  0.00  0.00     0.024 H 
ENDBRANCH   1  43
BRANCH   6  47
ATOM     47  C   LIG d   1       7.904   1.146  -4.309  0.00  0.00    -0.055 C 
ATOM     48  H   LIG d   1       8.317   1.045  -3.306  0.00  0.00     0.024 H 
ATOM     49  H   LIG d   1       6.978   1.720  -4.266  0.00  0.00     0.024 H 
ATOM     50  H   LIG d   1       7.699   0.156  -4.719  0.00  0.00     0.024 H 
ENDBRANCH   6  47
BRANCH   6  51
ATOM     51  C   LIG d   1      10.290   1.229  -5.030  0.00  0.00     0.052 C 
ATOM     52  H   LIG d   1      10.815   1.230  -5.986  0.00  0.00     0.056 H 
ATOM     53  H   LIG d   1      10.865   1.799  -4.301  0.00  0.00     0.056 H 
BRANCH  51  54
ATOM     54  O   LIG d   1      10.137  -0.115  -4.572  0.00  0.00    -0.394 OA
ATOM     55  H   LIG d   1      10.603  -0.306  -3.747  0.00  0.00     0.209 HD
ENDBRANCH  51  54
ENDBRANCH   6  51
BRANCH  13  56
ATOM     56  N   LIG d   1      11.057   8.249  -1.362  0.00  0.00    -0.258 N 
ATOM     57  C   LIG d   1      10.128   9.009  -0.750  0.00  0.00     0.285 C 
ATOM     58  O   LIG d   1       8.952   8.704  -0.814  0.00  0.00    -0.266 OA
ATOM     59  H   LIG d   1      11.994   8.493  -1.310  0.00  0.00     0.157 HD
BRANCH  57  60
ATOM     60  C   LIG d   1      10.536  10.204  -0.003  0.00  0.00     0.189 A 
ATOM     61  O   LIG d   1      10.075  11.457  -0.199  0.00  0.00    -0.458 OA
ATOM     62  C   LIG d   1      10.670  12.289   0.665  0.00  0.00     0.093 A 
ATOM     63  C   LIG d   1      11.523  11.579   1.436  0.00  0.00    -0.023 A 
ATOM     64  H   LIG d   1      10.493  13.352   0.736  0.00  0.00     0.103 H 
ATOM     65  C   LIG d   1      11.448  10.244   1.012  0.00  0.00    -0.011 A 
ATOM     66  H   LIG d   1      12.146  11.968   2.228  0.00  0.00     0.065 H 
ATOM     67  H   LIG d   1      12.002   9.408   1.415  0.00  0.00     0.066 H 
ENDBRANCH  57  60
ENDBRANCH  13  56
BRANCH   4  68
ATOM     68  O   LIG d   1       8.403   0.358  -7.020  0.00  0.00    -0.391 OA
ATOM     69  H   LIG d   1       8.261   0.202  -7.964  0.00  0.00     0.210 HD
ENDBRANCH   4  68
TORSDOF 11
ENDMDL
