MODEL 1
REMARK VINA RESULT:      -7.4      0.000      0.000
REMARK  7 active torsions:
REMARK  status: ('A' for Active; 'I' for Inactive)
REMARK    1  A    between atoms: C_1  and  C_2 
REMARK    2  A    between atoms: C_2  and  O_3 
REMARK    3  A    between atoms: O_3  and  C_4 
REMARK    4  A    between atoms: C_4  and  C_6 
REMARK    5  A    between atoms: C_7  and  N_29 
REMARK    6  A    between atoms: C_20  and  C_22 
REMARK       I    between atoms: N_29  and  C_30 
REMARK    7  A    between atoms: C_30  and  C_32 
ROOT
ATOM      1  C   LIG d   1       4.998  -2.534  -5.621  0.00  0.00     0.106 C 
ATOM      2  C   LIG d   1       5.090  -3.453  -6.613  0.00  0.00     0.204 C 
ATOM      3  O   LIG d   1       4.822  -3.136  -7.892  0.00  0.00    -0.440 OA
ATOM      4  C   LIG d   1       4.100  -2.035  -8.176  0.00  0.00     0.152 A 
ATOM      5  C   LIG d   1       3.449  -1.894  -9.486  0.00  0.00     0.060 A 
ATOM      6  C   LIG d   1       3.561  -2.892 -10.458  0.00  0.00    -0.048 A 
ATOM      7  C   LIG d   1       2.939  -2.729 -11.675  0.00  0.00    -0.061 A 
ATOM      8  C   LIG d   1       2.203  -1.582 -11.938  0.00  0.00    -0.058 A 
ATOM      9  C   LIG d   1       2.085  -0.590 -10.987  0.00  0.00    -0.018 A 
ATOM     10  C   LIG d   1       2.705  -0.734  -9.753  0.00  0.00     0.143 A 
ATOM     11  O   LIG d   1       2.600   0.226  -8.810  0.00  0.00    -0.422 OA
ATOM     12  C   LIG d   1       3.189   0.104  -7.610  0.00  0.00     0.345 A 
ATOM     13  O   LIG d   1       3.062   1.001  -6.794  0.00  0.00    -0.245 OA
ATOM     14  C   LIG d   1       3.951  -1.027  -7.270  0.00  0.00     0.092 A 
ATOM     15  C   LIG d   1       4.593  -1.116  -5.912  0.00  0.00     0.056 C 
ATOM     16  H   LIG d   1       3.884  -0.783  -5.154  0.00  0.00     0.045 H 
ATOM     17  H   LIG d   1       4.133  -3.786 -10.255  0.00  0.00     0.063 H 
ATOM     18  H   LIG d   1       3.022  -3.498 -12.429  0.00  0.00     0.062 H 
ATOM     19  H   LIG d   1       1.719  -1.465 -12.896  0.00  0.00     0.062 H 
ATOM     20  H   LIG d   1       1.510   0.299 -11.202  0.00  0.00     0.065 H 
ENDROOT
BRANCH   2  21
ATOM     21  N   LIG d   1       5.466  -4.738  -6.305  0.00  0.00    -0.249 N 
ATOM     22  C   LIG d   1       4.531  -5.697  -6.156  0.00  0.00     0.286 C 
ATOM     23  O   LIG d   1       3.354  -5.425  -6.296  0.00  0.00    -0.266 OA
ATOM     24  H   LIG d   1       6.405  -4.954  -6.193  0.00  0.00     0.158 HD
BRANCH  22  25
ATOM     25  C   LIG d   1       4.933  -7.068  -5.827  0.00  0.00     0.189 A 
ATOM     26  O   LIG d   1       4.160  -8.168  -5.939  0.00  0.00    -0.458 OA
ATOM     27  C   LIG d   1       4.858  -9.243  -5.550  0.00  0.00     0.093 A 
ATOM     28  C   LIG d   1       6.096  -8.846  -5.180  0.00  0.00    -0.023 A 
ATOM     29  H   LIG d   1       4.492 -10.259  -5.534  0.00  0.00     0.103 H 
ATOM     30  C   LIG d   1       6.156  -7.455  -5.359  0.00  0.00    -0.011 A 
ATOM     31  H   LIG d   1       6.893  -9.481  -4.820  0.00  0.00     0.065 H 
ATOM     32  H   LIG d   1       7.004  -6.816  -5.163  0.00  0.00     0.066 H 
ENDBRANCH  22  25
ENDBRANCH   2  21
BRANCH   1  33
ATOM     33  C   LIG d   1       5.289  -2.913  -4.299  0.00  0.00     0.341 C 
ATOM     34  O   LIG d   1       6.442  -3.109  -3.961  0.00  0.00    -0.245 OA
BRANCH  33  35
ATOM     35  O   LIG d   1       4.289  -3.060  -3.402  0.00  0.00    -0.462 OA
BRANCH  35  36
ATOM     36  C   LIG d   1       4.154  -2.042  -2.409  0.00  0.00     0.090 C 
ATOM     37  H   LIG d   1       3.956  -2.504  -1.441  0.00  0.00     0.070 H 
ATOM     38  H   LIG d   1       5.075  -1.463  -2.353  0.00  0.00     0.070 H 
BRANCH  36  39
ATOM     39  C   LIG d   1       2.992  -1.119  -2.780  0.00  0.00    -0.031 C 
ATOM     40  H   LIG d   1       2.062  -1.529  -2.386  0.00  0.00     0.026 H 
ATOM     41  H   LIG d   1       3.162  -0.131  -2.353  0.00  0.00     0.026 H 
ATOM     42  H   LIG d   1       2.922  -1.039  -3.864  0.00  0.00     0.026 H 
ENDBRANCH  36  39
ENDBRANCH  35  36
ENDBRANCH  33  35
ENDBRANCH   1  33
BRANCH  15  43
ATOM     43  C   LIG d   1       5.812  -0.231  -5.877  0.00  0.00    -0.035 A 
ATOM     44  C   LIG d   1       6.242   0.307  -4.678  0.00  0.00    -0.057 A 
ATOM     45  C   LIG d   1       7.360   1.119  -4.646  0.00  0.00    -0.048 A 
ATOM     46  H   LIG d   1       5.704   0.093  -3.766  0.00  0.00     0.062 H 
ATOM     47  C   LIG d   1       8.049   1.394  -5.813  0.00  0.00     0.018 A 
ATOM     48  H   LIG d   1       7.696   1.539  -3.709  0.00  0.00     0.063 H 
ATOM     49  C   LIG d   1       7.618   0.856  -7.013  0.00  0.00    -0.048 A 
ATOM     50 BR   LIG d   1       9.580   2.503  -5.770  0.00  0.00    -0.050 Br
ATOM     51  C   LIG d   1       6.503   0.040  -7.043  0.00  0.00    -0.057 A 
ATOM     52  H   LIG d   1       8.157   1.069  -7.925  0.00  0.00     0.063 H 
ATOM     53  H   LIG d   1       6.170  -0.384  -7.979  0.00  0.00     0.062 H 
ENDBRANCH  15  43
TORSDOF 7
ENDMDL
MODEL 2
REMARK VINA RESULT:      -7.4      2.528      5.467
REMARK  7 active torsions:
REMARK  status: ('A' for Active; 'I' for Inactive)
REMARK    1  A    between atoms: C_1  and  C_2 
REMARK    2  A    between atoms: C_2  and  O_3 
REMARK    3  A    between atoms: O_3  and  C_4 
REMARK    4  A    between atoms: C_4  and  C_6 
REMARK    5  A    between atoms: C_7  and  N_29 
REMARK    6  A    between atoms: C_20  and  C_22 
REMARK       I    between atoms: N_29  and  C_30 
REMARK    7  A    between atoms: C_30  and  C_32 
ROOT
ATOM      1  C   LIG d   1       6.344  -3.690  -7.163  0.00  0.00     0.106 C 
ATOM      2  C   LIG d   1       5.793  -4.207  -6.037  0.00  0.00     0.204 C 
ATOM      3  O   LIG d   1       5.193  -3.423  -5.125  0.00  0.00    -0.440 OA
ATOM      4  C   LIG d   1       5.449  -2.101  -5.100  0.00  0.00     0.152 A 
ATOM      5  C   LIG d   1       5.155  -1.312  -3.894  0.00  0.00     0.060 A 
ATOM      6  C   LIG d   1       4.610  -1.911  -2.756  0.00  0.00    -0.048 A 
ATOM      7  C   LIG d   1       4.346  -1.144  -1.644  0.00  0.00    -0.061 A 
ATOM      8  C   LIG d   1       4.619   0.217  -1.650  0.00  0.00    -0.058 A 
ATOM      9  C   LIG d   1       5.157   0.820  -2.768  0.00  0.00    -0.018 A 
ATOM     10  C   LIG d   1       5.430   0.064  -3.901  0.00  0.00     0.143 A 
ATOM     11  O   LIG d   1       5.958   0.638  -5.003  0.00  0.00    -0.422 OA
ATOM     12  C   LIG d   1       6.231  -0.076  -6.107  0.00  0.00     0.345 A 
ATOM     13  O   LIG d   1       6.708   0.491  -7.075  0.00  0.00    -0.245 OA
ATOM     14  C   LIG d   1       5.982  -1.458  -6.177  0.00  0.00     0.092 A 
ATOM     15  C   LIG d   1       6.306  -2.212  -7.438  0.00  0.00     0.056 C 
ATOM     16  H   LIG d   1       7.277  -1.892  -7.812  0.00  0.00     0.045 H 
ATOM     17  H   LIG d   1       4.396  -2.970  -2.749  0.00  0.00     0.063 H 
ATOM     18  H   LIG d   1       3.925  -1.603  -0.762  0.00  0.00     0.062 H 
ATOM     19  H   LIG d   1       4.409   0.809  -0.772  0.00  0.00     0.062 H 
ATOM     20  H   LIG d   1       5.366   1.879  -2.762  0.00  0.00     0.065 H 
ENDROOT
BRANCH   2  21
ATOM     21  N   LIG d   1       5.847  -5.563  -5.824  0.00  0.00    -0.249 N 
ATOM     22  C   LIG d   1       4.720  -6.299  -5.877  0.00  0.00     0.286 C 
ATOM     23  O   LIG d   1       3.654  -5.763  -6.113  0.00  0.00    -0.266 OA
ATOM     24  H   LIG d   1       6.698  -5.990  -5.635  0.00  0.00     0.158 HD
BRANCH  22  25
ATOM     25  C   LIG d   1       4.778  -7.746  -5.649  0.00  0.00     0.189 A 
ATOM     26  O   LIG d   1       4.414  -8.386  -4.518  0.00  0.00    -0.458 OA
ATOM     27  C   LIG d   1       4.602  -9.703  -4.673  0.00  0.00     0.093 A 
ATOM     28  C   LIG d   1       5.094  -9.930  -5.912  0.00  0.00    -0.023 A 
ATOM     29  H   LIG d   1       4.396 -10.459  -3.930  0.00  0.00     0.103 H 
ATOM     30  C   LIG d   1       5.204  -8.683  -6.547  0.00  0.00    -0.011 A 
ATOM     31  H   LIG d   1       5.347 -10.890  -6.335  0.00  0.00     0.065 H 
ATOM     32  H   LIG d   1       5.560  -8.501  -7.550  0.00  0.00     0.066 H 
ENDBRANCH  22  25
ENDBRANCH   2  21
BRANCH   1  33
ATOM     33  C   LIG d   1       6.961  -4.550  -8.088  0.00  0.00     0.341 C 
ATOM     34  O   LIG d   1       8.130  -4.384  -8.387  0.00  0.00    -0.245 OA
BRANCH  33  35
ATOM     35  O   LIG d   1       6.257  -5.559  -8.646  0.00  0.00    -0.462 OA
BRANCH  35  36
ATOM     36  C   LIG d   1       5.597  -5.283  -9.882  0.00  0.00     0.090 C 
ATOM     37  H   LIG d   1       5.863  -4.280 -10.220  0.00  0.00     0.070 H 
ATOM     38  H   LIG d   1       5.907  -6.012 -10.631  0.00  0.00     0.070 H 
BRANCH  36  39
ATOM     39  C   LIG d   1       4.083  -5.368  -9.682  0.00  0.00    -0.031 C 
ATOM     40  H   LIG d   1       3.862  -6.065  -8.873  0.00  0.00     0.026 H 
ATOM     41  H   LIG d   1       3.694  -4.382  -9.427  0.00  0.00     0.026 H 
ATOM     42  H   LIG d   1       3.613  -5.718 -10.600  0.00  0.00     0.026 H 
ENDBRANCH  36  39
ENDBRANCH  35  36
ENDBRANCH  33  35
ENDBRANCH   1  33
BRANCH  15  43
ATOM     43  C   LIG d   1       5.252  -1.925  -8.477  0.00  0.00    -0.035 A 
ATOM     44  C   LIG d   1       5.625  -1.559  -9.757  0.00  0.00    -0.057 A 
ATOM     45  C   LIG d   1       4.658  -1.296 -10.709  0.00  0.00    -0.048 A 
ATOM     46  H   LIG d   1       6.671  -1.480 -10.013  0.00  0.00     0.062 H 
ATOM     47  C   LIG d   1       3.318  -1.398 -10.382  0.00  0.00     0.018 A 
ATOM     48  H   LIG d   1       4.950  -1.011 -11.710  0.00  0.00     0.063 H 
ATOM     49  C   LIG d   1       2.946  -1.764  -9.101  0.00  0.00    -0.048 A 
ATOM     50 BR   LIG d   1       1.996  -1.039 -11.685  0.00  0.00    -0.050 Br
ATOM     51  C   LIG d   1       3.913  -2.032  -8.150  0.00  0.00    -0.057 A 
ATOM     52  H   LIG d   1       1.900  -1.845  -8.844  0.00  0.00     0.063 H 
ATOM     53  H   LIG d   1       3.622  -2.322  -7.151  0.00  0.00     0.062 H 
ENDBRANCH  15  43
TORSDOF 7
ENDMDL
MODEL 3
REMARK VINA RESULT:      -7.1      4.507      8.120
REMARK  7 active torsions:
REMARK  status: ('A' for Active; 'I' for Inactive)
REMARK    1  A    between atoms: C_1  and  C_2 
REMARK    2  A    between atoms: C_2  and  O_3 
REMARK    3  A    between atoms: O_3  and  C_4 
REMARK    4  A    between atoms: C_4  and  C_6 
REMARK    5  A    between atoms: C_7  and  N_29 
REMARK    6  A    between atoms: C_20  and  C_22 
REMARK       I    between atoms: N_29  and  C_30 
REMARK    7  A    between atoms: C_30  and  C_32 
ROOT
ATOM      1  C   LIG d   1       8.763  -1.791  -5.571  0.00  0.00     0.106 C 
ATOM      2  C   LIG d   1       8.602  -0.585  -4.972  0.00  0.00     0.204 C 
ATOM      3  O   LIG d   1       7.596  -0.358  -4.111  0.00  0.00    -0.440 OA
ATOM      4  C   LIG d   1       6.517  -1.164  -4.107  0.00  0.00     0.152 A 
ATOM      5  C   LIG d   1       5.256  -0.712  -3.501  0.00  0.00     0.060 A 
ATOM      6  C   LIG d   1       5.149   0.555  -2.921  0.00  0.00    -0.048 A 
ATOM      7  C   LIG d   1       3.954   0.947  -2.361  0.00  0.00    -0.061 A 
ATOM      8  C   LIG d   1       2.861   0.092  -2.372  0.00  0.00    -0.058 A 
ATOM      9  C   LIG d   1       2.954  -1.161  -2.941  0.00  0.00    -0.018 A 
ATOM     10  C   LIG d   1       4.150  -1.576  -3.510  0.00  0.00     0.143 A 
ATOM     11  O   LIG d   1       4.260  -2.799  -4.073  0.00  0.00    -0.422 OA
ATOM     12  C   LIG d   1       5.407  -3.218  -4.631  0.00  0.00     0.345 A 
ATOM     13  O   LIG d   1       5.451  -4.331  -5.127  0.00  0.00    -0.245 OA
ATOM     14  C   LIG d   1       6.557  -2.410  -4.659  0.00  0.00     0.092 A 
ATOM     15  C   LIG d   1       7.818  -2.927  -5.296  0.00  0.00     0.056 C 
ATOM     16  H   LIG d   1       7.573  -3.424  -6.233  0.00  0.00     0.045 H 
ATOM     17  H   LIG d   1       5.998   1.221  -2.912  0.00  0.00     0.063 H 
ATOM     18  H   LIG d   1       3.866   1.925  -1.912  0.00  0.00     0.062 H 
ATOM     19  H   LIG d   1       1.928   0.411  -1.930  0.00  0.00     0.062 H 
ATOM     20  H   LIG d   1       2.097  -1.817  -2.944  0.00  0.00     0.065 H 
ENDROOT
BRANCH   2  21
ATOM     21  N   LIG d   1       9.490   0.427  -5.249  0.00  0.00    -0.249 N 
ATOM     22  C   LIG d   1       9.058   1.559  -5.839  0.00  0.00     0.286 C 
ATOM     23  O   LIG d   1       7.883   1.686  -6.124  0.00  0.00    -0.266 OA
ATOM     24  H   LIG d   1      10.428   0.324  -5.022  0.00  0.00     0.158 HD
BRANCH  22  25
ATOM     25  C   LIG d   1      10.005   2.638  -6.135  0.00  0.00     0.189 A 
ATOM     26  O   LIG d   1      11.284   2.482  -6.535  0.00  0.00    -0.458 OA
ATOM     27  C   LIG d   1      11.844   3.686  -6.713  0.00  0.00     0.093 A 
ATOM     28  C   LIG d   1      10.928   4.638  -6.426  0.00  0.00    -0.023 A 
ATOM     29  H   LIG d   1      12.860   3.866  -7.031  0.00  0.00     0.103 H 
ATOM     30  C   LIG d   1       9.745   3.976  -6.061  0.00  0.00    -0.011 A 
ATOM     31  H   LIG d   1      11.076   5.706  -6.475  0.00  0.00     0.065 H 
ATOM     32  H   LIG d   1       8.811   4.437  -5.775  0.00  0.00     0.066 H 
ENDBRANCH  22  25
ENDBRANCH   2  21
BRANCH   1  33
ATOM     33  C   LIG d   1       9.832  -1.981  -6.465  0.00  0.00     0.341 C 
ATOM     34  O   LIG d   1       9.633  -1.952  -7.666  0.00  0.00    -0.245 OA
BRANCH  33  35
ATOM     35  O   LIG d   1      11.079  -2.197  -5.991  0.00  0.00    -0.462 OA
BRANCH  35  36
ATOM     36  C   LIG d   1      11.652  -3.482  -6.236  0.00  0.00     0.090 C 
ATOM     37  H   LIG d   1      10.883  -4.155  -6.618  0.00  0.00     0.070 H 
ATOM     38  H   LIG d   1      12.451  -3.390  -6.971  0.00  0.00     0.070 H 
BRANCH  36  39
ATOM     39  C   LIG d   1      12.219  -4.044  -4.932  0.00  0.00    -0.031 C 
ATOM     40  H   LIG d   1      12.590  -3.225  -4.314  0.00  0.00     0.026 H 
ATOM     41  H   LIG d   1      11.436  -4.577  -4.394  0.00  0.00     0.026 H 
ATOM     42  H   LIG d   1      13.037  -4.728  -5.156  0.00  0.00     0.026 H 
ENDBRANCH  36  39
ENDBRANCH  35  36
ENDBRANCH  33  35
ENDBRANCH   1  33
BRANCH  15  43
ATOM     43  C   LIG d   1       8.480  -3.912  -4.367  0.00  0.00    -0.035 A 
ATOM     44  C   LIG d   1       8.949  -3.494  -3.136  0.00  0.00    -0.057 A 
ATOM     45  C   LIG d   1       9.555  -4.397  -2.284  0.00  0.00    -0.048 A 
ATOM     46  H   LIG d   1       8.842  -2.461  -2.840  0.00  0.00     0.062 H 
ATOM     47  C   LIG d   1       9.694  -5.720  -2.663  0.00  0.00     0.018 A 
ATOM     48  H   LIG d   1       9.922  -4.070  -1.322  0.00  0.00     0.063 H 
ATOM     49  C   LIG d   1       9.224  -6.139  -3.895  0.00  0.00    -0.048 A 
ATOM     50 BR   LIG d   1      10.522  -6.957  -1.497  0.00  0.00    -0.050 Br
ATOM     51  C   LIG d   1       8.613  -5.236  -4.745  0.00  0.00    -0.057 A 
ATOM     52  H   LIG d   1       9.330  -7.172  -4.191  0.00  0.00     0.063 H 
ATOM     53  H   LIG d   1       8.242  -5.564  -5.704  0.00  0.00     0.062 H 
ENDBRANCH  15  43
TORSDOF 7
ENDMDL
MODEL 4
REMARK VINA RESULT:      -7.0      2.607      6.610
REMARK  7 active torsions:
REMARK  status: ('A' for Active; 'I' for Inactive)
REMARK    1  A    between atoms: C_1  and  C_2 
REMARK    2  A    between atoms: C_2  and  O_3 
REMARK    3  A    between atoms: O_3  and  C_4 
REMARK    4  A    between atoms: C_4  and  C_6 
REMARK    5  A    between atoms: C_7  and  N_29 
REMARK    6  A    between atoms: C_20  and  C_22 
REMARK       I    between atoms: N_29  and  C_30 
REMARK    7  A    between atoms: C_30  and  C_32 
ROOT
ATOM      1  C   LIG d   1       3.778  -1.685  -7.822  0.00  0.00     0.106 C 
ATOM      2  C   LIG d   1       4.516  -2.044  -6.742  0.00  0.00     0.204 C 
ATOM      3  O   LIG d   1       5.014  -3.286  -6.613  0.00  0.00    -0.440 OA
ATOM      4  C   LIG d   1       4.493  -4.299  -7.332  0.00  0.00     0.152 A 
ATOM      5  C   LIG d   1       4.716  -5.692  -6.917  0.00  0.00     0.060 A 
ATOM      6  C   LIG d   1       5.466  -5.994  -5.778  0.00  0.00    -0.048 A 
ATOM      7  C   LIG d   1       5.657  -7.309  -5.417  0.00  0.00    -0.061 A 
ATOM      8  C   LIG d   1       5.108  -8.330  -6.180  0.00  0.00    -0.058 A 
ATOM      9  C   LIG d   1       4.366  -8.045  -7.307  0.00  0.00    -0.018 A 
ATOM     10  C   LIG d   1       4.163  -6.726  -7.688  0.00  0.00     0.143 A 
ATOM     11  O   LIG d   1       3.438  -6.428  -8.788  0.00  0.00    -0.422 OA
ATOM     12  C   LIG d   1       3.227  -5.159  -9.171  0.00  0.00     0.345 A 
ATOM     13  O   LIG d   1       2.565  -4.945 -10.172  0.00  0.00    -0.245 OA
ATOM     14  C   LIG d   1       3.750  -4.070  -8.452  0.00  0.00     0.092 A 
ATOM     15  C   LIG d   1       3.486  -2.666  -8.924  0.00  0.00     0.056 C 
ATOM     16  H   LIG d   1       2.442  -2.574  -9.219  0.00  0.00     0.045 H 
ATOM     17  H   LIG d   1       5.893  -5.200  -5.183  0.00  0.00     0.063 H 
ATOM     18  H   LIG d   1       6.235  -7.546  -4.537  0.00  0.00     0.062 H 
ATOM     19  H   LIG d   1       5.263  -9.358  -5.888  0.00  0.00     0.062 H 
ATOM     20  H   LIG d   1       3.944  -8.848  -7.893  0.00  0.00     0.065 H 
ENDROOT
BRANCH   2  21
ATOM     21  N   LIG d   1       4.761  -1.117  -5.758  0.00  0.00    -0.249 N 
ATOM     22  C   LIG d   1       4.285  -1.313  -4.513  0.00  0.00     0.286 C 
ATOM     23  O   LIG d   1       3.639  -2.313  -4.259  0.00  0.00    -0.266 OA
ATOM     24  H   LIG d   1       5.275  -0.319  -5.961  0.00  0.00     0.158 HD
BRANCH  22  25
ATOM     25  C   LIG d   1       4.546  -0.324  -3.464  0.00  0.00     0.189 A 
ATOM     26  O   LIG d   1       5.126   0.882  -3.638  0.00  0.00    -0.458 OA
ATOM     27  C   LIG d   1       5.199   1.514  -2.459  0.00  0.00     0.093 A 
ATOM     28  C   LIG d   1       4.665   0.719  -1.505  0.00  0.00    -0.023 A 
ATOM     29  H   LIG d   1       5.617   2.497  -2.298  0.00  0.00     0.103 H 
ATOM     30  C   LIG d   1       4.239  -0.458  -2.140  0.00  0.00    -0.011 A 
ATOM     31  H   LIG d   1       4.578   0.948  -0.454  0.00  0.00     0.065 H 
ATOM     32  H   LIG d   1       3.762  -1.306  -1.671  0.00  0.00     0.066 H 
ENDBRANCH  22  25
ENDBRANCH   2  21
BRANCH   1  33
ATOM     33  C   LIG d   1       3.278  -0.374  -7.913  0.00  0.00     0.341 C 
ATOM     34  O   LIG d   1       2.086  -0.188  -8.083  0.00  0.00    -0.245 OA
BRANCH  33  35
ATOM     35  O   LIG d   1       4.119   0.678  -7.812  0.00  0.00    -0.462 OA
BRANCH  35  36
ATOM     36  C   LIG d   1       4.677   1.180  -9.027  0.00  0.00     0.090 C 
ATOM     37  H   LIG d   1       5.738   1.389  -8.879  0.00  0.00     0.070 H 
ATOM     38  H   LIG d   1       4.561   0.438  -9.816  0.00  0.00     0.070 H 
BRANCH  36  39
ATOM     39  C   LIG d   1       3.955   2.468  -9.426  0.00  0.00    -0.031 C 
ATOM     40  H   LIG d   1       2.899   2.255  -9.593  0.00  0.00     0.026 H 
ATOM     41  H   LIG d   1       4.055   3.204  -8.628  0.00  0.00     0.026 H 
ATOM     42  H   LIG d   1       4.394   2.863 -10.341  0.00  0.00     0.026 H 
ENDBRANCH  36  39
ENDBRANCH  35  36
ENDBRANCH  33  35
ENDBRANCH   1  33
BRANCH  15  43
ATOM     43  C   LIG d   1       4.368  -2.363 -10.108  0.00  0.00    -0.035 A 
ATOM     44  C   LIG d   1       3.822  -1.820 -11.255  0.00  0.00    -0.057 A 
ATOM     45  C   LIG d   1       4.630  -1.541 -12.341  0.00  0.00    -0.048 A 
ATOM     46  H   LIG d   1       2.763  -1.612 -11.304  0.00  0.00     0.062 H 
ATOM     47  C   LIG d   1       5.986  -1.807 -12.280  0.00  0.00     0.018 A 
ATOM     48  H   LIG d   1       4.203  -1.117 -13.238  0.00  0.00     0.063 H 
ATOM     49  C   LIG d   1       6.533  -2.351 -11.132  0.00  0.00    -0.048 A 
ATOM     50 BR   LIG d   1       7.093  -1.426 -13.765  0.00  0.00    -0.050 Br
ATOM     51  C   LIG d   1       5.724  -2.624 -10.044  0.00  0.00    -0.057 A 
ATOM     52  H   LIG d   1       7.592  -2.558 -11.083  0.00  0.00     0.063 H 
ATOM     53  H   LIG d   1       6.152  -3.044  -9.146  0.00  0.00     0.062 H 
ENDBRANCH  15  43
TORSDOF 7
ENDMDL
MODEL 5
REMARK VINA RESULT:      -6.7      4.898      9.121
REMARK  7 active torsions:
REMARK  status: ('A' for Active; 'I' for Inactive)
REMARK    1  A    between atoms: C_1  and  C_2 
REMARK    2  A    between atoms: C_2  and  O_3 
REMARK    3  A    between atoms: O_3  and  C_4 
REMARK    4  A    between atoms: C_4  and  C_6 
REMARK    5  A    between atoms: C_7  and  N_29 
REMARK    6  A    between atoms: C_20  and  C_22 
REMARK       I    between atoms: N_29  and  C_30 
REMARK    7  A    between atoms: C_30  and  C_32 
ROOT
ATOM      1  C   LIG d   1       9.088   2.471  -5.477  0.00  0.00     0.106 C 
ATOM      2  C   LIG d   1       8.699   2.698  -4.198  0.00  0.00     0.204 C 
ATOM      3  O   LIG d   1       7.847   1.873  -3.566  0.00  0.00    -0.440 OA
ATOM      4  C   LIG d   1       7.068   1.035  -4.277  0.00  0.00     0.152 A 
ATOM      5  C   LIG d   1       5.866   0.446  -3.669  0.00  0.00     0.060 A 
ATOM      6  C   LIG d   1       5.505   0.742  -2.353  0.00  0.00    -0.048 A 
ATOM      7  C   LIG d   1       4.373   0.174  -1.813  0.00  0.00    -0.061 A 
ATOM      8  C   LIG d   1       3.592  -0.687  -2.572  0.00  0.00    -0.058 A 
ATOM      9  C   LIG d   1       3.938  -0.988  -3.872  0.00  0.00    -0.018 A 
ATOM     10  C   LIG d   1       5.076  -0.426  -4.435  0.00  0.00     0.143 A 
ATOM     11  O   LIG d   1       5.429  -0.707  -5.707  0.00  0.00    -0.422 OA
ATOM     12  C   LIG d   1       6.524  -0.172  -6.271  0.00  0.00     0.345 A 
ATOM     13  O   LIG d   1       6.797  -0.459  -7.423  0.00  0.00    -0.245 OA
ATOM     14  C   LIG d   1       7.364   0.708  -5.567  0.00  0.00     0.092 A 
ATOM     15  C   LIG d   1       8.581   1.281  -6.243  0.00  0.00     0.056 C 
ATOM     16  H   LIG d   1       8.321   1.589  -7.255  0.00  0.00     0.045 H 
ATOM     17  H   LIG d   1       6.111   1.413  -1.761  0.00  0.00     0.063 H 
ATOM     18  H   LIG d   1       4.090   0.400  -0.796  0.00  0.00     0.062 H 
ATOM     19  H   LIG d   1       2.706  -1.127  -2.138  0.00  0.00     0.062 H 
ATOM     20  H   LIG d   1       3.323  -1.659  -4.453  0.00  0.00     0.065 H 
ENDROOT
BRANCH   2  21
ATOM     21  N   LIG d   1       9.187   3.797  -3.533  0.00  0.00    -0.249 N 
ATOM     22  C   LIG d   1      10.257   3.673  -2.724  0.00  0.00     0.286 C 
ATOM     23  O   LIG d   1      10.792   2.589  -2.582  0.00  0.00    -0.266 OA
ATOM     24  H   LIG d   1       8.760   4.661  -3.645  0.00  0.00     0.158 HD
BRANCH  22  25
ATOM     25  C   LIG d   1      10.778   4.845  -2.013  0.00  0.00     0.189 A 
ATOM     26  O   LIG d   1      10.050   5.889  -1.565  0.00  0.00    -0.458 OA
ATOM     27  C   LIG d   1      10.860   6.770  -0.964  0.00  0.00     0.093 A 
ATOM     28  C   LIG d   1      12.128   6.304  -1.019  0.00  0.00    -0.023 A 
ATOM     29  H   LIG d   1      10.551   7.701  -0.512  0.00  0.00     0.103 H 
ATOM     30  C   LIG d   1      12.085   5.068  -1.684  0.00  0.00    -0.011 A 
ATOM     31  H   LIG d   1      13.007   6.787  -0.621  0.00  0.00     0.065 H 
ATOM     32  H   LIG d   1      12.923   4.421  -1.896  0.00  0.00     0.066 H 
ENDBRANCH  22  25
ENDBRANCH   2  21
BRANCH   1  33
ATOM     33  C   LIG d   1       9.982   3.362  -6.096  0.00  0.00     0.341 C 
ATOM     34  O   LIG d   1      11.178   3.136  -6.077  0.00  0.00    -0.245 OA
BRANCH  33  35
ATOM     35  O   LIG d   1       9.514   4.469  -6.712  0.00  0.00    -0.462 OA
BRANCH  35  36
ATOM     36  C   LIG d   1      10.291   5.661  -6.584  0.00  0.00     0.090 C 
ATOM     37  H   LIG d   1      11.290   5.406  -6.226  0.00  0.00     0.070 H 
ATOM     38  H   LIG d   1      10.369   6.151  -7.554  0.00  0.00     0.070 H 
BRANCH  36  39
ATOM     39  C   LIG d   1       9.617   6.604  -5.586  0.00  0.00    -0.031 C 
ATOM     40  H   LIG d   1       8.547   6.401  -5.561  0.00  0.00     0.026 H 
ATOM     41  H   LIG d   1      10.040   6.445  -4.594  0.00  0.00     0.026 H 
ATOM     42  H   LIG d   1       9.784   7.636  -5.891  0.00  0.00     0.026 H 
ENDBRANCH  36  39
ENDBRANCH  35  36
ENDBRANCH  33  35
ENDBRANCH   1  33
BRANCH  15  43
ATOM     43  C   LIG d   1       9.660   0.230  -6.304  0.00  0.00    -0.035 A 
ATOM     44  C   LIG d   1      10.245  -0.091  -7.514  0.00  0.00    -0.057 A 
ATOM     45  C   LIG d   1      11.234  -1.055  -7.570  0.00  0.00    -0.048 A 
ATOM     46  H   LIG d   1       9.929   0.411  -8.417  0.00  0.00     0.062 H 
ATOM     47  C   LIG d   1      11.638  -1.699  -6.415  0.00  0.00     0.018 A 
ATOM     48  H   LIG d   1      11.691  -1.305  -8.516  0.00  0.00     0.063 H 
ATOM     49  C   LIG d   1      11.052  -1.378  -5.204  0.00  0.00    -0.048 A 
ATOM     50 BR   LIG d   1      12.993  -3.017  -6.491  0.00  0.00    -0.050 Br
ATOM     51  C   LIG d   1      10.067  -0.410  -5.148  0.00  0.00    -0.057 A 
ATOM     52  H   LIG d   1      11.368  -1.879  -4.301  0.00  0.00     0.063 H 
ATOM     53  H   LIG d   1       9.613  -0.156  -4.201  0.00  0.00     0.062 H 
ENDBRANCH  15  43
TORSDOF 7
ENDMDL
MODEL 6
REMARK VINA RESULT:      -6.2      3.235      6.138
REMARK  7 active torsions:
REMARK  status: ('A' for Active; 'I' for Inactive)
REMARK    1  A    between atoms: C_1  and  C_2 
REMARK    2  A    between atoms: C_2  and  O_3 
REMARK    3  A    between atoms: O_3  and  C_4 
REMARK    4  A    between atoms: C_4  and  C_6 
REMARK    5  A    between atoms: C_7  and  N_29 
REMARK    6  A    between atoms: C_20  and  C_22 
REMARK       I    between atoms: N_29  and  C_30 
REMARK    7  A    between atoms: C_30  and  C_32 
ROOT
ATOM      1  C   LIG d   1       5.627  -0.401  -5.690  0.00  0.00     0.106 C 
ATOM      2  C   LIG d   1       5.513   0.021  -6.973  0.00  0.00     0.204 C 
ATOM      3  O   LIG d   1       6.515   0.670  -7.590  0.00  0.00    -0.440 OA
ATOM      4  C   LIG d   1       7.488   1.253  -6.864  0.00  0.00     0.152 A 
ATOM      5  C   LIG d   1       8.333   2.297  -7.462  0.00  0.00     0.060 A 
ATOM      6  C   LIG d   1       8.148   2.706  -8.785  0.00  0.00    -0.048 A 
ATOM      7  C   LIG d   1       8.957   3.685  -9.314  0.00  0.00    -0.061 A 
ATOM      8  C   LIG d   1       9.952   4.266  -8.540  0.00  0.00    -0.058 A 
ATOM      9  C   LIG d   1      10.146   3.870  -7.233  0.00  0.00    -0.018 A 
ATOM     10  C   LIG d   1       9.341   2.884  -6.680  0.00  0.00     0.143 A 
ATOM     11  O   LIG d   1       9.515   2.485  -5.402  0.00  0.00    -0.422 OA
ATOM     12  C   LIG d   1       8.745   1.535  -4.848  0.00  0.00     0.345 A 
ATOM     13  O   LIG d   1       8.945   1.213  -3.689  0.00  0.00    -0.245 OA
ATOM     14  C   LIG d   1       7.718   0.901  -5.567  0.00  0.00     0.092 A 
ATOM     15  C   LIG d   1       6.883  -0.159  -4.901  0.00  0.00     0.056 C 
ATOM     16  H   LIG d   1       6.619   0.167  -3.896  0.00  0.00     0.045 H 
ATOM     17  H   LIG d   1       7.373   2.255  -9.388  0.00  0.00     0.063 H 
ATOM     18  H   LIG d   1       8.817   4.004 -10.336  0.00  0.00     0.062 H 
ATOM     19  H   LIG d   1      10.581   5.034  -8.966  0.00  0.00     0.062 H 
ATOM     20  H   LIG d   1      10.924   4.329  -6.640  0.00  0.00     0.065 H 
ENDROOT
BRANCH   2  21
ATOM     21  N   LIG d   1       4.347  -0.223  -7.659  0.00  0.00    -0.249 N 
ATOM     22  C   LIG d   1       4.317  -1.163  -8.624  0.00  0.00     0.286 C 
ATOM     23  O   LIG d   1       5.322  -1.797  -8.888  0.00  0.00    -0.266 OA
ATOM     24  H   LIG d   1       3.547   0.284  -7.450  0.00  0.00     0.158 HD
BRANCH  22  25
ATOM     25  C   LIG d   1       3.075  -1.422  -9.357  0.00  0.00     0.189 A 
ATOM     26  O   LIG d   1       2.501  -2.629  -9.542  0.00  0.00    -0.458 OA
ATOM     27  C   LIG d   1       1.377  -2.482 -10.256  0.00  0.00     0.093 A 
ATOM     28  C   LIG d   1       1.213  -1.172 -10.543  0.00  0.00    -0.023 A 
ATOM     29  H   LIG d   1       0.713  -3.280 -10.555  0.00  0.00     0.103 H 
ATOM     30  C   LIG d   1       2.291  -0.484  -9.966  0.00  0.00    -0.011 A 
ATOM     31  H   LIG d   1       0.400  -0.735 -11.105  0.00  0.00     0.065 H 
ATOM     32  H   LIG d   1       2.468   0.581 -10.000  0.00  0.00     0.066 H 
ENDBRANCH  22  25
ENDBRANCH   2  21
BRANCH   1  33
ATOM     33  C   LIG d   1       4.551  -1.078  -5.087  0.00  0.00     0.341 C 
ATOM     34  O   LIG d   1       4.412  -2.275  -5.259  0.00  0.00    -0.245 OA
BRANCH  33  35
ATOM     35  O   LIG d   1       3.673  -0.400  -4.316  0.00  0.00    -0.462 OA
BRANCH  35  36
ATOM     36  C   LIG d   1       3.368  -0.956  -3.037  0.00  0.00     0.090 C 
ATOM     37  H   LIG d   1       2.358  -0.664  -2.745  0.00  0.00     0.070 H 
ATOM     38  H   LIG d   1       3.430  -2.043  -3.088  0.00  0.00     0.070 H 
BRANCH  36  39
ATOM     39  C   LIG d   1       4.368  -0.435  -2.003  0.00  0.00    -0.031 C 
ATOM     40  H   LIG d   1       5.211  -1.123  -1.934  0.00  0.00     0.026 H 
ATOM     41  H   LIG d   1       4.726   0.548  -2.308  0.00  0.00     0.026 H 
ATOM     42  H   LIG d   1       3.881  -0.359  -1.032  0.00  0.00     0.026 H 
ENDBRANCH  36  39
ENDBRANCH  35  36
ENDBRANCH  33  35
ENDBRANCH   1  33
BRANCH  15  43
ATOM     43  C   LIG d   1       7.675  -1.439  -4.818  0.00  0.00    -0.035 A 
ATOM     44  C   LIG d   1       7.666  -2.183  -3.653  0.00  0.00    -0.057 A 
ATOM     45  C   LIG d   1       8.392  -3.357  -3.577  0.00  0.00    -0.048 A 
ATOM     46  H   LIG d   1       7.093  -1.847  -2.801  0.00  0.00     0.062 H 
ATOM     47  C   LIG d   1       9.127  -3.787  -4.666  0.00  0.00     0.018 A 
ATOM     48  H   LIG d   1       8.385  -3.938  -2.666  0.00  0.00     0.063 H 
ATOM     49  C   LIG d   1       9.136  -3.043  -5.832  0.00  0.00    -0.048 A 
ATOM     50 BR   LIG d   1      10.119  -5.394  -4.562  0.00  0.00    -0.050 Br
ATOM     51  C   LIG d   1       8.405  -1.872  -5.909  0.00  0.00    -0.057 A 
ATOM     52  H   LIG d   1       9.709  -3.379  -6.684  0.00  0.00     0.063 H 
ATOM     53  H   LIG d   1       8.409  -1.293  -6.821  0.00  0.00     0.062 H 
ENDBRANCH  15  43
TORSDOF 7
ENDMDL
MODEL 7
REMARK VINA RESULT:      -6.2      4.108      7.931
REMARK  7 active torsions:
REMARK  status: ('A' for Active; 'I' for Inactive)
REMARK    1  A    between atoms: C_1  and  C_2 
REMARK    2  A    between atoms: C_2  and  O_3 
REMARK    3  A    between atoms: O_3  and  C_4 
REMARK    4  A    between atoms: C_4  and  C_6 
REMARK    5  A    between atoms: C_7  and  N_29 
REMARK    6  A    between atoms: C_20  and  C_22 
REMARK       I    between atoms: N_29  and  C_30 
REMARK    7  A    between atoms: C_30  and  C_32 
ROOT
ATOM      1  C   LIG d   1       8.283  -2.648  -6.349  0.00  0.00     0.106 C 
ATOM      2  C   LIG d   1       8.506  -1.424  -5.811  0.00  0.00     0.204 C 
ATOM      3  O   LIG d   1       7.810  -0.987  -4.747  0.00  0.00    -0.440 OA
ATOM      4  C   LIG d   1       6.637  -1.566  -4.426  0.00  0.00     0.152 A 
ATOM      5  C   LIG d   1       5.677  -0.863  -3.561  0.00  0.00     0.060 A 
ATOM      6  C   LIG d   1       5.957   0.410  -3.059  0.00  0.00    -0.048 A 
ATOM      7  C   LIG d   1       5.037   1.040  -2.252  0.00  0.00    -0.061 A 
ATOM      8  C   LIG d   1       3.838   0.416  -1.937  0.00  0.00    -0.058 A 
ATOM      9  C   LIG d   1       3.550  -0.841  -2.426  0.00  0.00    -0.018 A 
ATOM     10  C   LIG d   1       4.465  -1.494  -3.241  0.00  0.00     0.143 A 
ATOM     11  O   LIG d   1       4.200  -2.724  -3.730  0.00  0.00    -0.422 OA
ATOM     12  C   LIG d   1       5.070  -3.371  -4.522  0.00  0.00     0.345 A 
ATOM     13  O   LIG d   1       4.781  -4.480  -4.937  0.00  0.00    -0.245 OA
ATOM     14  C   LIG d   1       6.304  -2.805  -4.885  0.00  0.00     0.092 A 
ATOM     15  C   LIG d   1       7.245  -3.572  -5.775  0.00  0.00     0.056 C 
ATOM     16  H   LIG d   1       6.682  -4.029  -6.588  0.00  0.00     0.045 H 
ATOM     17  H   LIG d   1       6.890   0.897  -3.303  0.00  0.00     0.063 H 
ATOM     18  H   LIG d   1       5.249   2.024  -1.862  0.00  0.00     0.062 H 
ATOM     19  H   LIG d   1       3.123   0.920  -1.303  0.00  0.00     0.062 H 
ATOM     20  H   LIG d   1       2.614  -1.316  -2.175  0.00  0.00     0.065 H 
ENDROOT
BRANCH   2  21
ATOM     21  N   LIG d   1       9.466  -0.612  -6.365  0.00  0.00    -0.249 N 
ATOM     22  C   LIG d   1       9.104   0.499  -7.036  0.00  0.00     0.286 C 
ATOM     23  O   LIG d   1       7.926   0.783  -7.152  0.00  0.00    -0.266 OA
ATOM     24  H   LIG d   1      10.405  -0.839  -6.273  0.00  0.00     0.158 HD
BRANCH  22  25
ATOM     25  C   LIG d   1      10.127   1.365  -7.628  0.00  0.00     0.189 A 
ATOM     26  O   LIG d   1      10.272   1.639  -8.941  0.00  0.00    -0.458 OA
ATOM     27  C   LIG d   1      11.310   2.466  -9.111  0.00  0.00     0.093 A 
ATOM     28  C   LIG d   1      11.853   2.737  -7.903  0.00  0.00    -0.023 A 
ATOM     29  H   LIG d   1      11.658   2.853 -10.058  0.00  0.00     0.103 H 
ATOM     30  C   LIG d   1      11.098   2.041  -6.946  0.00  0.00    -0.011 A 
ATOM     31  H   LIG d   1      12.703   3.375  -7.709  0.00  0.00     0.065 H 
ATOM     32  H   LIG d   1      11.257   2.039  -5.878  0.00  0.00     0.066 H 
ENDBRANCH  22  25
ENDBRANCH   2  21
BRANCH   1  33
ATOM     33  C   LIG d   1       9.037  -3.062  -7.462  0.00  0.00     0.341 C 
ATOM     34  O   LIG d   1      10.145  -3.542  -7.301  0.00  0.00    -0.245 OA
BRANCH  33  35
ATOM     35  O   LIG d   1       8.533  -2.927  -8.707  0.00  0.00    -0.462 OA
BRANCH  35  36
ATOM     36  C   LIG d   1       9.302  -2.165  -9.639  0.00  0.00     0.090 C 
ATOM     37  H   LIG d   1      10.119  -1.668  -9.114  0.00  0.00     0.070 H 
ATOM     38  H   LIG d   1       9.711  -2.827 -10.401  0.00  0.00     0.070 H 
BRANCH  36  39
ATOM     39  C   LIG d   1       8.408  -1.115 -10.301  0.00  0.00    -0.031 C 
ATOM     40  H   LIG d   1       7.889  -0.543  -9.532  0.00  0.00     0.026 H 
ATOM     41  H   LIG d   1       9.020  -0.443 -10.901  0.00  0.00     0.026 H 
ATOM     42  H   LIG d   1       7.677  -1.610 -10.940  0.00  0.00     0.026 H 
ENDBRANCH  36  39
ENDBRANCH  35  36
ENDBRANCH  33  35
ENDBRANCH   1  33
BRANCH  15  43
ATOM     43  C   LIG d   1       7.926  -4.650  -4.971  0.00  0.00    -0.035 A 
ATOM     44  C   LIG d   1       7.753  -5.979  -5.312  0.00  0.00    -0.057 A 
ATOM     45  C   LIG d   1       8.378  -6.968  -4.575  0.00  0.00    -0.048 A 
ATOM     46  H   LIG d   1       7.131  -6.244  -6.154  0.00  0.00     0.062 H 
ATOM     47  C   LIG d   1       9.174  -6.629  -3.496  0.00  0.00     0.018 A 
ATOM     48  H   LIG d   1       8.243  -8.006  -4.842  0.00  0.00     0.063 H 
ATOM     49  C   LIG d   1       9.346  -5.299  -3.156  0.00  0.00    -0.048 A 
ATOM     50 BR   LIG d   1      10.029  -7.981  -2.489  0.00  0.00    -0.050 Br
ATOM     51  C   LIG d   1       8.726  -4.310  -3.896  0.00  0.00    -0.057 A 
ATOM     52  H   LIG d   1       9.969  -5.033  -2.314  0.00  0.00     0.063 H 
ATOM     53  H   LIG d   1       8.864  -3.272  -3.632  0.00  0.00     0.062 H 
ENDBRANCH  15  43
TORSDOF 7
ENDMDL
MODEL 8
REMARK VINA RESULT:      -6.1      4.536      8.546
REMARK  7 active torsions:
REMARK  status: ('A' for Active; 'I' for Inactive)
REMARK    1  A    between atoms: C_1  and  C_2 
REMARK    2  A    between atoms: C_2  and  O_3 
REMARK    3  A    between atoms: O_3  and  C_4 
REMARK    4  A    between atoms: C_4  and  C_6 
REMARK    5  A    between atoms: C_7  and  N_29 
REMARK    6  A    between atoms: C_20  and  C_22 
REMARK       I    between atoms: N_29  and  C_30 
REMARK    7  A    between atoms: C_30  and  C_32 
ROOT
ATOM      1  C   LIG d   1       9.292   0.615  -5.705  0.00  0.00     0.106 C 
ATOM      2  C   LIG d   1       9.067   1.003  -4.425  0.00  0.00     0.204 C 
ATOM      3  O   LIG d   1       7.954   0.638  -3.766  0.00  0.00    -0.440 OA
ATOM      4  C   LIG d   1       6.874   0.215  -4.450  0.00  0.00     0.152 A 
ATOM      5  C   LIG d   1       5.548   0.216  -3.815  0.00  0.00     0.060 A 
ATOM      6  C   LIG d   1       5.379   0.654  -2.499  0.00  0.00    -0.048 A 
ATOM      7  C   LIG d   1       4.124   0.641  -1.934  0.00  0.00    -0.061 A 
ATOM      8  C   LIG d   1       3.031   0.197  -2.665  0.00  0.00    -0.058 A 
ATOM      9  C   LIG d   1       3.184  -0.238  -3.964  0.00  0.00    -0.018 A 
ATOM     10  C   LIG d   1       4.442  -0.234  -4.553  0.00  0.00     0.143 A 
ATOM     11  O   LIG d   1       4.611  -0.655  -5.825  0.00  0.00    -0.422 OA
ATOM     12  C   LIG d   1       5.818  -0.657  -6.413  0.00  0.00     0.345 A 
ATOM     13  O   LIG d   1       5.915  -1.047  -7.563  0.00  0.00    -0.245 OA
ATOM     14  C   LIG d   1       6.972  -0.222  -5.738  0.00  0.00     0.092 A 
ATOM     15  C   LIG d   1       8.302  -0.245  -6.441  0.00  0.00     0.056 C 
ATOM     16  H   LIG d   1       8.182   0.135  -7.455  0.00  0.00     0.045 H 
ATOM     17  H   LIG d   1       6.229   1.000  -1.929  0.00  0.00     0.063 H 
ATOM     18  H   LIG d   1       3.989   0.979  -0.918  0.00  0.00     0.062 H 
ATOM     19  H   LIG d   1       2.050   0.192  -2.212  0.00  0.00     0.062 H 
ATOM     20  H   LIG d   1       2.327  -0.581  -4.524  0.00  0.00     0.065 H 
ENDROOT
BRANCH   2  21
ATOM     21  N   LIG d   1       9.998   1.787  -3.788  0.00  0.00    -0.249 N 
ATOM     22  C   LIG d   1       9.799   3.115  -3.676  0.00  0.00     0.286 C 
ATOM     23  O   LIG d   1       8.793   3.620  -4.138  0.00  0.00    -0.266 OA
ATOM     24  H   LIG d   1      10.801   1.384  -3.420  0.00  0.00     0.158 HD
BRANCH  22  25
ATOM     25  C   LIG d   1      10.792   3.951  -2.996  0.00  0.00     0.189 A 
ATOM     26  O   LIG d   1      12.119   3.964  -3.242  0.00  0.00    -0.458 OA
ATOM     27  C   LIG d   1      12.712   4.851  -2.434  0.00  0.00     0.093 A 
ATOM     28  C   LIG d   1      11.771   5.423  -1.651  0.00  0.00    -0.023 A 
ATOM     29  H   LIG d   1      13.770   5.071  -2.410  0.00  0.00     0.103 H 
ATOM     30  C   LIG d   1      10.537   4.858  -2.008  0.00  0.00    -0.011 A 
ATOM     31  H   LIG d   1      11.936   6.179  -0.897  0.00  0.00     0.065 H 
ATOM     32  H   LIG d   1       9.573   5.093  -1.581  0.00  0.00     0.066 H 
ENDBRANCH  22  25
ENDBRANCH   2  21
BRANCH   1  33
ATOM     33  C   LIG d   1      10.472   1.021  -6.353  0.00  0.00     0.341 C 
ATOM     34  O   LIG d   1      11.505   0.399  -6.183  0.00  0.00    -0.245 OA
BRANCH  33  35
ATOM     35  O   LIG d   1      10.459   2.101  -7.164  0.00  0.00    -0.462 OA
BRANCH  35  36
ATOM     36  C   LIG d   1      11.467   3.089  -6.943  0.00  0.00     0.090 C 
ATOM     37  H   LIG d   1      11.941   2.915  -5.976  0.00  0.00     0.070 H 
ATOM     38  H   LIG d   1      12.217   3.026  -7.731  0.00  0.00     0.070 H 
BRANCH  36  39
ATOM     39  C   LIG d   1      10.829   4.479  -6.955  0.00  0.00    -0.031 C 
ATOM     40  H   LIG d   1      10.425   4.685  -7.946  0.00  0.00     0.026 H 
ATOM     41  H   LIG d   1      10.025   4.516  -6.220  0.00  0.00     0.026 H 
ATOM     42  H   LIG d   1      11.582   5.228  -6.708  0.00  0.00     0.026 H 
ENDBRANCH  36  39
ENDBRANCH  35  36
ENDBRANCH  33  35
ENDBRANCH   1  33
BRANCH  15  43
ATOM     43  C   LIG d   1       8.815  -1.661  -6.496  0.00  0.00    -0.035 A 
ATOM     44  C   LIG d   1       8.907  -2.408  -5.337  0.00  0.00    -0.057 A 
ATOM     45  C   LIG d   1       9.376  -3.708  -5.388  0.00  0.00    -0.048 A 
ATOM     46  H   LIG d   1       8.611  -1.978  -4.392  0.00  0.00     0.062 H 
ATOM     47  C   LIG d   1       9.756  -4.259  -6.598  0.00  0.00     0.018 A 
ATOM     48  H   LIG d   1       9.448  -4.292  -4.482  0.00  0.00     0.063 H 
ATOM     49  C   LIG d   1       9.664  -3.510  -7.758  0.00  0.00    -0.048 A 
ATOM     50 BR   LIG d   1      10.398  -6.037  -6.668  0.00  0.00    -0.050 Br
ATOM     51  C   LIG d   1       9.189  -2.213  -7.707  0.00  0.00    -0.057 A 
ATOM     52  H   LIG d   1       9.959  -3.941  -8.704  0.00  0.00     0.063 H 
ATOM     53  H   LIG d   1       9.113  -1.631  -8.614  0.00  0.00     0.062 H 
ENDBRANCH  15  43
TORSDOF 7
ENDMDL
MODEL 9
REMARK VINA RESULT:      -6.1      4.767      8.465
REMARK  7 active torsions:
REMARK  status: ('A' for Active; 'I' for Inactive)
REMARK    1  A    between atoms: C_1  and  C_2 
REMARK    2  A    between atoms: C_2  and  O_3 
REMARK    3  A    between atoms: O_3  and  C_4 
REMARK    4  A    between atoms: C_4  and  C_6 
REMARK    5  A    between atoms: C_7  and  N_29 
REMARK    6  A    between atoms: C_20  and  C_22 
REMARK       I    between atoms: N_29  and  C_30 
REMARK    7  A    between atoms: C_30  and  C_32 
ROOT
ATOM      1  C   LIG d   1       8.552   0.681  -6.922  0.00  0.00     0.106 C 
ATOM      2  C   LIG d   1       8.813   0.448  -5.612  0.00  0.00     0.204 C 
ATOM      3  O   LIG d   1      10.056   0.562  -5.113  0.00  0.00    -0.440 OA
ATOM      4  C   LIG d   1      11.119   0.531  -5.939  0.00  0.00     0.152 A 
ATOM      5  C   LIG d   1      12.459   0.234  -5.410  0.00  0.00     0.060 A 
ATOM      6  C   LIG d   1      12.657  -0.023  -4.051  0.00  0.00    -0.048 A 
ATOM      7  C   LIG d   1      13.924  -0.298  -3.588  0.00  0.00    -0.061 A 
ATOM      8  C   LIG d   1      15.000  -0.321  -4.465  0.00  0.00    -0.058 A 
ATOM      9  C   LIG d   1      14.818  -0.068  -5.808  0.00  0.00    -0.018 A 
ATOM     10  C   LIG d   1      13.548   0.212  -6.295  0.00  0.00     0.143 A 
ATOM     11  O   LIG d   1      13.350   0.460  -7.608  0.00  0.00    -0.422 OA
ATOM     12  C   LIG d   1      12.130   0.730  -8.099  0.00  0.00     0.345 A 
ATOM     13  O   LIG d   1      12.006   0.946  -9.292  0.00  0.00    -0.245 OA
ATOM     14  C   LIG d   1      10.992   0.771  -7.274  0.00  0.00     0.092 A 
ATOM     15  C   LIG d   1       9.646   1.079  -7.873  0.00  0.00     0.056 C 
ATOM     16  H   LIG d   1       9.530   0.527  -8.805  0.00  0.00     0.045 H 
ATOM     17  H   LIG d   1      11.820  -0.006  -3.368  0.00  0.00     0.063 H 
ATOM     18  H   LIG d   1      14.082  -0.497  -2.540  0.00  0.00     0.062 H 
ATOM     19  H   LIG d   1      15.990  -0.538  -4.091  0.00  0.00     0.062 H 
ATOM     20  H   LIG d   1      15.662  -0.089  -6.481  0.00  0.00     0.065 H 
ENDROOT
BRANCH   2  21
ATOM     21  N   LIG d   1       7.784   0.088  -4.776  0.00  0.00    -0.249 N 
ATOM     22  C   LIG d   1       7.163   1.023  -4.031  0.00  0.00     0.286 C 
ATOM     23  O   LIG d   1       7.512   2.186  -4.099  0.00  0.00    -0.266 OA
ATOM     24  H   LIG d   1       7.506  -0.840  -4.721  0.00  0.00     0.158 HD
BRANCH  22  25
ATOM     25  C   LIG d   1       6.065   0.639  -3.138  0.00  0.00     0.189 A 
ATOM     26  O   LIG d   1       5.357   1.473  -2.349  0.00  0.00    -0.458 OA
ATOM     27  C   LIG d   1       4.435   0.772  -1.676  0.00  0.00     0.093 A 
ATOM     28  C   LIG d   1       4.540  -0.530  -2.023  0.00  0.00    -0.023 A 
ATOM     29  H   LIG d   1       3.727   1.181  -0.971  0.00  0.00     0.103 H 
ATOM     30  C   LIG d   1       5.577  -0.624  -2.964  0.00  0.00    -0.011 A 
ATOM     31  H   LIG d   1       3.934  -1.343  -1.652  0.00  0.00     0.065 H 
ATOM     32  H   LIG d   1       5.923  -1.523  -3.453  0.00  0.00     0.066 H 
ENDBRANCH  22  25
ENDBRANCH   2  21
BRANCH   1  33
ATOM     33  C   LIG d   1       7.235   0.548  -7.399  0.00  0.00     0.341 C 
ATOM     34  O   LIG d   1       6.705  -0.548  -7.423  0.00  0.00    -0.245 OA
BRANCH  33  35
ATOM     35  O   LIG d   1       6.560   1.636  -7.829  0.00  0.00    -0.462 OA
BRANCH  35  36
ATOM     36  C   LIG d   1       5.940   1.548  -9.113  0.00  0.00     0.090 C 
ATOM     37  H   LIG d   1       6.659   1.828  -9.884  0.00  0.00     0.070 H 
ATOM     38  H   LIG d   1       5.603   0.526  -9.285  0.00  0.00     0.070 H 
BRANCH  36  39
ATOM     39  C   LIG d   1       4.741   2.497  -9.165  0.00  0.00    -0.031 C 
ATOM     40  H   LIG d   1       4.146   2.281 -10.053  0.00  0.00     0.026 H 
ATOM     41  H   LIG d   1       4.128   2.358  -8.275  0.00  0.00     0.026 H 
ATOM     42  H   LIG d   1       5.094   3.527  -9.207  0.00  0.00     0.026 H 
ENDBRANCH  36  39
ENDBRANCH  35  36
ENDBRANCH  33  35
ENDBRANCH   1  33
BRANCH  15  43
ATOM     43  C   LIG d   1       9.550   2.556  -8.154  0.00  0.00    -0.035 A 
ATOM     44  C   LIG d   1       9.266   3.000  -9.432  0.00  0.00    -0.057 A 
ATOM     45  C   LIG d   1       9.177   4.356  -9.689  0.00  0.00    -0.048 A 
ATOM     46  H   LIG d   1       9.112   2.289 -10.229  0.00  0.00     0.062 H 
ATOM     47  C   LIG d   1       9.375   5.268  -8.668  0.00  0.00     0.018 A 
ATOM     48  H   LIG d   1       8.955   4.702 -10.687  0.00  0.00     0.063 H 
ATOM     49  C   LIG d   1       9.660   4.823  -7.390  0.00  0.00    -0.048 A 
ATOM     50 BR   LIG d   1       9.253   7.122  -9.020  0.00  0.00    -0.050 Br
ATOM     51  C   LIG d   1       9.742   3.467  -7.132  0.00  0.00    -0.057 A 
ATOM     52  H   LIG d   1       9.813   5.535  -6.591  0.00  0.00     0.063 H 
ATOM     53  H   LIG d   1       9.961   3.121  -6.133  0.00  0.00     0.062 H 
ENDBRANCH  15  43
TORSDOF 7
ENDMDL
MODEL 10
REMARK VINA RESULT:      -5.9      3.500      6.281
REMARK  7 active torsions:
REMARK  status: ('A' for Active; 'I' for Inactive)
REMARK    1  A    between atoms: C_1  and  C_2 
REMARK    2  A    between atoms: C_2  and  O_3 
REMARK    3  A    between atoms: O_3  and  C_4 
REMARK    4  A    between atoms: C_4  and  C_6 
REMARK    5  A    between atoms: C_7  and  N_29 
REMARK    6  A    between atoms: C_20  and  C_22 
REMARK       I    between atoms: N_29  and  C_30 
REMARK    7  A    between atoms: C_30  and  C_32 
ROOT
ATOM      1  C   LIG d   1       5.972  -1.411  -8.856  0.00  0.00     0.106 C 
ATOM      2  C   LIG d   1       6.273  -2.322  -7.897  0.00  0.00     0.204 C 
ATOM      3  O   LIG d   1       5.518  -2.454  -6.793  0.00  0.00    -0.440 OA
ATOM      4  C   LIG d   1       4.689  -1.461  -6.420  0.00  0.00     0.152 A 
ATOM      5  C   LIG d   1       4.187  -1.394  -5.040  0.00  0.00     0.060 A 
ATOM      6  C   LIG d   1       4.556  -2.351  -4.091  0.00  0.00    -0.048 A 
ATOM      7  C   LIG d   1       4.067  -2.260  -2.807  0.00  0.00    -0.061 A 
ATOM      8  C   LIG d   1       3.213  -1.225  -2.455  0.00  0.00    -0.058 A 
ATOM      9  C   LIG d   1       2.840  -0.274  -3.382  0.00  0.00    -0.018 A 
ATOM     10  C   LIG d   1       3.322  -0.348  -4.682  0.00  0.00     0.143 A 
ATOM     11  O   LIG d   1       2.969   0.574  -5.603  0.00  0.00    -0.422 OA
ATOM     12  C   LIG d   1       3.425   0.522  -6.865  0.00  0.00     0.345 A 
ATOM     13  O   LIG d   1       3.076   1.380  -7.656  0.00  0.00    -0.245 OA
ATOM     14  C   LIG d   1       4.293  -0.496  -7.298  0.00  0.00     0.092 A 
ATOM     15  C   LIG d   1       4.776  -0.510  -8.723  0.00  0.00     0.056 C 
ATOM     16  H   LIG d   1       5.053   0.500  -9.021  0.00  0.00     0.045 H 
ATOM     17  H   LIG d   1       5.221  -3.158  -4.364  0.00  0.00     0.063 H 
ATOM     18  H   LIG d   1       4.351  -2.997  -2.071  0.00  0.00     0.062 H 
ATOM     19  H   LIG d   1       2.836  -1.163  -1.444  0.00  0.00     0.062 H 
ATOM     20  H   LIG d   1       2.176   0.527  -3.096  0.00  0.00     0.065 H 
ENDROOT
BRANCH   2  21
ATOM     21  N   LIG d   1       7.374  -3.128  -8.059  0.00  0.00    -0.249 N 
ATOM     22  C   LIG d   1       7.217  -4.427  -8.380  0.00  0.00     0.286 C 
ATOM     23  O   LIG d   1       6.100  -4.886  -8.529  0.00  0.00    -0.266 OA
ATOM     24  H   LIG d   1       8.264  -2.761  -7.939  0.00  0.00     0.158 HD
BRANCH  22  25
ATOM     25  C   LIG d   1       8.391  -5.287  -8.552  0.00  0.00     0.189 A 
ATOM     26  O   LIG d   1       8.373  -6.612  -8.807  0.00  0.00    -0.458 OA
ATOM     27  C   LIG d   1       9.630  -7.063  -8.902  0.00  0.00     0.093 A 
ATOM     28  C   LIG d   1      10.479  -6.030  -8.707  0.00  0.00    -0.023 A 
ATOM     29  H   LIG d   1       9.917  -8.085  -9.100  0.00  0.00     0.103 H 
ATOM     30  C   LIG d   1       9.695  -4.887  -8.488  0.00  0.00    -0.011 A 
ATOM     31  H   LIG d   1      11.558  -6.075  -8.723  0.00  0.00     0.065 H 
ATOM     32  H   LIG d   1      10.055  -3.885  -8.303  0.00  0.00     0.066 H 
ENDBRANCH  22  25
ENDBRANCH   2  21
BRANCH   1  33
ATOM     33  C   LIG d   1       6.791  -1.309  -9.994  0.00  0.00     0.341 C 
ATOM     34  O   LIG d   1       7.656  -0.453 -10.046  0.00  0.00    -0.245 OA
BRANCH  33  35
ATOM     35  O   LIG d   1       6.620  -2.160 -11.029  0.00  0.00    -0.462 OA
BRANCH  35  36
ATOM     36  C   LIG d   1       7.661  -2.212 -12.005  0.00  0.00     0.090 C 
ATOM     37  H   LIG d   1       7.223  -2.224 -13.004  0.00  0.00     0.070 H 
ATOM     38  H   LIG d   1       8.302  -1.337 -11.901  0.00  0.00     0.070 H 
BRANCH  36  39
ATOM     39  C   LIG d   1       8.491  -3.480 -11.797  0.00  0.00    -0.031 C 
ATOM     40  H   LIG d   1       7.831  -4.347 -11.774  0.00  0.00     0.026 H 
ATOM     41  H   LIG d   1       9.201  -3.588 -12.618  0.00  0.00     0.026 H 
ATOM     42  H   LIG d   1       9.033  -3.411 -10.855  0.00  0.00     0.026 H 
ENDBRANCH  36  39
ENDBRANCH  35  36
ENDBRANCH  33  35
ENDBRANCH   1  33
BRANCH  15  43
ATOM     43  C   LIG d   1       3.672  -1.010  -9.619  0.00  0.00    -0.035 A 
ATOM     44  C   LIG d   1       3.331  -0.302 -10.757  0.00  0.00    -0.057 A 
ATOM     45  C   LIG d   1       2.319  -0.760 -11.579  0.00  0.00    -0.048 A 
ATOM     46  H   LIG d   1       3.856   0.609 -11.003  0.00  0.00     0.062 H 
ATOM     47  C   LIG d   1       1.646  -1.927 -11.263  0.00  0.00     0.018 A 
ATOM     48  H   LIG d   1       2.054  -0.207 -12.468  0.00  0.00     0.063 H 
ATOM     49  C   LIG d   1       1.988  -2.635 -10.125  0.00  0.00    -0.048 A 
ATOM     50 BR   LIG d   1       0.262  -2.555 -12.389  0.00  0.00    -0.050 Br
ATOM     51  C   LIG d   1       3.004  -2.179  -9.306  0.00  0.00    -0.057 A 
ATOM     52  H   LIG d   1       1.463  -3.547  -9.878  0.00  0.00     0.063 H 
ATOM     53  H   LIG d   1       3.272  -2.734  -8.419  0.00  0.00     0.062 H 
ENDBRANCH  15  43
TORSDOF 7
ENDMDL
