MODEL 1
REMARK VINA RESULT:      -6.2      0.000      0.000
REMARK  9 active torsions:
REMARK  status: ('A' for Active; 'I' for Inactive)
REMARK    1  A    between atoms: C_1  and  O_2 
REMARK    2  A    between atoms: O_2  and  C_3 
REMARK    3  A    between atoms: C_6  and  C_10 
REMARK    4  A    between atoms: C_10  and  C_11 
REMARK    5  A    between atoms: C_11  and  N_12 
REMARK       I    between atoms: N_12  and  C_13 
REMARK    6  A    between atoms: C_13  and  C_15 
REMARK    7  A    between atoms: C_20  and  C_21 
REMARK    8  A    between atoms: C_21  and  C_22 
REMARK    9  A    between atoms: C_22  and  O_23 
ROOT
ATOM      1  N   LIG d   1       2.516  -0.088  -5.769  0.00  0.00    -0.311 N 
ATOM      2  C   LIG d   1       3.454  -0.030  -6.734  0.00  0.00     0.244 C 
ATOM      3  O   LIG d   1       4.579   0.345  -6.467  0.00  0.00    -0.270 OA
ATOM      4  H   LIG d   1       1.618  -0.387  -5.982  0.00  0.00     0.149 HD
ENDROOT
BRANCH   1   5
ATOM      5  C   LIG d   1       2.851   0.301  -4.397  0.00  0.00     0.016 C 
ATOM      6  H   LIG d   1       2.065   0.942  -3.999  0.00  0.00     0.046 H 
ATOM      7  H   LIG d   1       3.798   0.842  -4.393  0.00  0.00     0.046 H 
BRANCH   5   8
ATOM      8  C   LIG d   1       2.977  -0.952  -3.528  0.00  0.00    -0.012 C 
ATOM      9  H   LIG d   1       2.258  -1.699  -3.861  0.00  0.00     0.033 H 
ATOM     10  H   LIG d   1       2.779  -0.694  -2.488  0.00  0.00     0.033 H 
BRANCH   8  11
ATOM     11  C   LIG d   1       4.372  -1.509  -3.649  0.00  0.00    -0.044 A 
ATOM     12  C   LIG d   1       5.430  -0.864  -3.035  0.00  0.00    -0.055 A 
ATOM     13  C   LIG d   1       6.710  -1.373  -3.144  0.00  0.00    -0.018 A 
ATOM     14  H   LIG d   1       5.254   0.039  -2.468  0.00  0.00     0.062 H 
ATOM     15  C   LIG d   1       6.934  -2.531  -3.871  0.00  0.00     0.138 A 
ATOM     16  H   LIG d   1       7.534  -0.867  -2.663  0.00  0.00     0.066 H 
ATOM     17  C   LIG d   1       5.873  -3.174  -4.493  0.00  0.00     0.083 A 
ATOM     18  C   LIG d   1       4.593  -2.665  -4.375  0.00  0.00    -0.037 A 
ATOM     19 CL   LIG d   1       6.151  -4.623  -5.410  0.00  0.00    -0.080 Cl
ATOM     20  H   LIG d   1       3.766  -3.168  -4.854  0.00  0.00     0.064 H 
BRANCH  15  21
ATOM     21  O   LIG d   1       8.193  -3.033  -3.981  0.00  0.00    -0.494 OA
BRANCH  21  22
ATOM     22  C   LIG d   1       9.048  -2.433  -4.956  0.00  0.00     0.079 C 
ATOM     23  H   LIG d   1      10.011  -2.201  -4.503  0.00  0.00     0.066 H 
ATOM     24  H   LIG d   1       9.193  -3.124  -5.786  0.00  0.00     0.066 H 
ATOM     25  H   LIG d   1       8.589  -1.514  -5.324  0.00  0.00     0.066 H 
ENDBRANCH  21  22
ENDBRANCH  15  21
ENDBRANCH   8  11
ENDBRANCH   5   8
ENDBRANCH   1   5
BRANCH   2  26
ATOM     26  C   LIG d   1       3.115  -0.422  -8.119  0.00  0.00     0.040 A 
ATOM     27  C   LIG d   1       2.813   0.554  -9.069  0.00  0.00    -0.033 A 
ATOM     28  C   LIG d   1       2.503   0.182 -10.362  0.00  0.00    -0.058 A 
ATOM     29  C   LIG d   1       2.482  -1.156 -10.712  0.00  0.00    -0.061 A 
ATOM     30  H   LIG d   1       2.273   0.937 -11.099  0.00  0.00     0.062 H 
ATOM     31  C   LIG d   1       2.775  -2.129  -9.774  0.00  0.00    -0.061 A 
ATOM     32  H   LIG d   1       2.235  -1.442 -11.724  0.00  0.00     0.062 H 
ATOM     33  C   LIG d   1       3.093  -1.770  -8.480  0.00  0.00    -0.049 A 
ATOM     34  H   LIG d   1       2.756  -3.172 -10.055  0.00  0.00     0.062 H 
ATOM     35  H   LIG d   1       3.322  -2.530  -7.749  0.00  0.00     0.062 H 
BRANCH  27  36
ATOM     36  C   LIG d   1       2.830   2.012  -8.687  0.00  0.00    -0.004 C 
ATOM     37  H   LIG d   1       1.904   2.484  -9.015  0.00  0.00     0.034 H 
ATOM     38  H   LIG d   1       2.922   2.102  -7.605  0.00  0.00     0.034 H 
BRANCH  36  39
ATOM     39  C   LIG d   1       4.020   2.701  -9.359  0.00  0.00     0.048 C 
ATOM     40  H   LIG d   1       4.018   2.471 -10.424  0.00  0.00     0.056 H 
ATOM     41  H   LIG d   1       3.941   3.779  -9.219  0.00  0.00     0.056 H 
BRANCH  39  42
ATOM     42  O   LIG d   1       5.235   2.231  -8.772  0.00  0.00    -0.395 OA
ATOM     43  H   LIG d   1       5.357   1.274  -8.835  0.00  0.00     0.209 HD
ENDBRANCH  39  42
ENDBRANCH  36  39
ENDBRANCH  27  36
ENDBRANCH   2  26
TORSDOF 9
ENDMDL
MODEL 2
REMARK VINA RESULT:      -6.1      6.066      8.257
REMARK  9 active torsions:
REMARK  status: ('A' for Active; 'I' for Inactive)
REMARK    1  A    between atoms: C_1  and  O_2 
REMARK    2  A    between atoms: O_2  and  C_3 
REMARK    3  A    between atoms: C_6  and  C_10 
REMARK    4  A    between atoms: C_10  and  C_11 
REMARK    5  A    between atoms: C_11  and  N_12 
REMARK       I    between atoms: N_12  and  C_13 
REMARK    6  A    between atoms: C_13  and  C_15 
REMARK    7  A    between atoms: C_20  and  C_21 
REMARK    8  A    between atoms: C_21  and  C_22 
REMARK    9  A    between atoms: C_22  and  O_23 
ROOT
ATOM      1  N   LIG d   1       8.510   1.413  -3.476  0.00  0.00    -0.311 N 
ATOM      2  C   LIG d   1       7.356   1.087  -4.091  0.00  0.00     0.244 C 
ATOM      3  O   LIG d   1       7.216   1.312  -5.278  0.00  0.00    -0.270 OA
ATOM      4  H   LIG d   1       8.622   1.233  -2.529  0.00  0.00     0.149 HD
ENDROOT
BRANCH   1   5
ATOM      5  C   LIG d   1       9.595   2.037  -4.236  0.00  0.00     0.016 C 
ATOM      6  H   LIG d   1       9.195   2.852  -4.839  0.00  0.00     0.046 H 
ATOM      7  H   LIG d   1      10.057   1.295  -4.888  0.00  0.00     0.046 H 
BRANCH   5   8
ATOM      8  C   LIG d   1      10.645   2.587  -3.268  0.00  0.00    -0.012 C 
ATOM      9  H   LIG d   1      11.639   2.443  -3.690  0.00  0.00     0.033 H 
ATOM     10  H   LIG d   1      10.574   2.060  -2.317  0.00  0.00     0.033 H 
BRANCH   8  11
ATOM     11  C   LIG d   1      10.403   4.058  -3.046  0.00  0.00    -0.044 A 
ATOM     12  C   LIG d   1      10.655   4.621  -1.808  0.00  0.00    -0.055 A 
ATOM     13  C   LIG d   1      10.434   5.969  -1.603  0.00  0.00    -0.018 A 
ATOM     14  H   LIG d   1      11.027   4.005  -1.003  0.00  0.00     0.062 H 
ATOM     15  C   LIG d   1       9.957   6.758  -2.638  0.00  0.00     0.138 A 
ATOM     16  H   LIG d   1      10.633   6.406  -0.636  0.00  0.00     0.066 H 
ATOM     17  C   LIG d   1       9.698   6.190  -3.878  0.00  0.00     0.083 A 
ATOM     18  C   LIG d   1       9.927   4.843  -4.080  0.00  0.00    -0.037 A 
ATOM     19 CL   LIG d   1       9.095   7.174  -5.175  0.00  0.00    -0.080 Cl
ATOM     20  H   LIG d   1       9.731   4.401  -5.046  0.00  0.00     0.064 H 
BRANCH  15  21
ATOM     21  O   LIG d   1       9.738   8.085  -2.437  0.00  0.00    -0.494 OA
BRANCH  21  22
ATOM     22  C   LIG d   1       9.496   8.506  -1.093  0.00  0.00     0.079 C 
ATOM     23  H   LIG d   1       9.827   7.730  -0.403  0.00  0.00     0.066 H 
ATOM     24  H   LIG d   1      10.044   9.427  -0.896  0.00  0.00     0.066 H 
ATOM     25  H   LIG d   1       8.428   8.682  -0.955  0.00  0.00     0.066 H 
ENDBRANCH  21  22
ENDBRANCH  15  21
ENDBRANCH   8  11
ENDBRANCH   5   8
ENDBRANCH   1   5
BRANCH   2  26
ATOM     26  C   LIG d   1       6.261   0.457  -3.323  0.00  0.00     0.040 A 
ATOM     27  C   LIG d   1       6.161  -0.933  -3.257  0.00  0.00    -0.033 A 
ATOM     28  C   LIG d   1       5.139  -1.514  -2.534  0.00  0.00    -0.058 A 
ATOM     29  C   LIG d   1       4.210  -0.721  -1.885  0.00  0.00    -0.061 A 
ATOM     30  H   LIG d   1       5.063  -2.590  -2.478  0.00  0.00     0.062 H 
ATOM     31  C   LIG d   1       4.300   0.657  -1.951  0.00  0.00    -0.061 A 
ATOM     32  H   LIG d   1       3.410  -1.181  -1.323  0.00  0.00     0.062 H 
ATOM     33  C   LIG d   1       5.320   1.252  -2.665  0.00  0.00    -0.049 A 
ATOM     34  H   LIG d   1       3.571   1.270  -1.441  0.00  0.00     0.062 H 
ATOM     35  H   LIG d   1       5.390   2.328  -2.715  0.00  0.00     0.062 H 
BRANCH  27  36
ATOM     36  C   LIG d   1       7.168  -1.798  -3.969  0.00  0.00    -0.004 C 
ATOM     37  H   LIG d   1       8.001  -1.182  -4.309  0.00  0.00     0.034 H 
ATOM     38  H   LIG d   1       7.537  -2.563  -3.287  0.00  0.00     0.034 H 
BRANCH  36  39
ATOM     39  C   LIG d   1       6.504  -2.467  -5.174  0.00  0.00     0.048 C 
ATOM     40  H   LIG d   1       7.176  -3.218  -5.589  0.00  0.00     0.056 H 
ATOM     41  H   LIG d   1       5.576  -2.944  -4.859  0.00  0.00     0.056 H 
BRANCH  39  42
ATOM     42  O   LIG d   1       6.219  -1.482  -6.169  0.00  0.00    -0.395 OA
ATOM     43  H   LIG d   1       6.602  -0.613  -5.983  0.00  0.00     0.209 HD
ENDBRANCH  39  42
ENDBRANCH  36  39
ENDBRANCH  27  36
ENDBRANCH   2  26
TORSDOF 9
ENDMDL
MODEL 3
REMARK VINA RESULT:      -6.1      6.274      8.402
REMARK  9 active torsions:
REMARK  status: ('A' for Active; 'I' for Inactive)
REMARK    1  A    between atoms: C_1  and  O_2 
REMARK    2  A    between atoms: O_2  and  C_3 
REMARK    3  A    between atoms: C_6  and  C_10 
REMARK    4  A    between atoms: C_10  and  C_11 
REMARK    5  A    between atoms: C_11  and  N_12 
REMARK       I    between atoms: N_12  and  C_13 
REMARK    6  A    between atoms: C_13  and  C_15 
REMARK    7  A    between atoms: C_20  and  C_21 
REMARK    8  A    between atoms: C_21  and  C_22 
REMARK    9  A    between atoms: C_22  and  O_23 
ROOT
ATOM      1  N   LIG d   1       8.530   1.506  -3.440  0.00  0.00    -0.311 N 
ATOM      2  C   LIG d   1       7.387   1.162  -4.064  0.00  0.00     0.244 C 
ATOM      3  O   LIG d   1       7.249   1.390  -5.250  0.00  0.00    -0.270 OA
ATOM      4  H   LIG d   1       8.641   1.324  -2.493  0.00  0.00     0.149 HD
ENDROOT
BRANCH   1   5
ATOM      5  C   LIG d   1       9.609   2.154  -4.190  0.00  0.00     0.016 C 
ATOM      6  H   LIG d   1       9.202   2.986  -4.765  0.00  0.00     0.046 H 
ATOM      7  H   LIG d   1      10.065   1.432  -4.869  0.00  0.00     0.046 H 
BRANCH   5   8
ATOM      8  C   LIG d   1      10.667   2.675  -3.216  0.00  0.00    -0.012 C 
ATOM      9  H   LIG d   1      11.651   2.606  -3.678  0.00  0.00     0.033 H 
ATOM     10  H   LIG d   1      10.649   2.076  -2.305  0.00  0.00     0.033 H 
BRANCH   8  11
ATOM     11  C   LIG d   1      10.372   4.114  -2.876  0.00  0.00    -0.044 A 
ATOM     12  C   LIG d   1       9.748   4.928  -3.804  0.00  0.00    -0.055 A 
ATOM     13  C   LIG d   1       9.476   6.247  -3.494  0.00  0.00    -0.018 A 
ATOM     14  H   LIG d   1       9.472   4.532  -4.770  0.00  0.00     0.062 H 
ATOM     15  C   LIG d   1       9.830   6.755  -2.254  0.00  0.00     0.138 A 
ATOM     16  H   LIG d   1       8.988   6.881  -4.220  0.00  0.00     0.066 H 
ATOM     17  C   LIG d   1      10.462   5.938  -1.327  0.00  0.00     0.083 A 
ATOM     18  C   LIG d   1      10.726   4.617  -1.638  0.00  0.00    -0.037 A 
ATOM     19 CL   LIG d   1      10.913   6.572   0.225  0.00  0.00    -0.080 Cl
ATOM     20  H   LIG d   1      11.213   3.979  -0.916  0.00  0.00     0.064 H 
BRANCH  15  21
ATOM     21  O   LIG d   1       9.564   8.053  -1.948  0.00  0.00    -0.494 OA
BRANCH  21  22
ATOM     22  C   LIG d   1      10.424   9.042  -2.519  0.00  0.00     0.079 C 
ATOM     23  H   LIG d   1      11.227   9.273  -1.821  0.00  0.00     0.066 H 
ATOM     24  H   LIG d   1      10.847   8.663  -3.449  0.00  0.00     0.066 H 
ATOM     25  H   LIG d   1       9.849   9.946  -2.724  0.00  0.00     0.066 H 
ENDBRANCH  21  22
ENDBRANCH  15  21
ENDBRANCH   8  11
ENDBRANCH   5   8
ENDBRANCH   1   5
BRANCH   2  26
ATOM     26  C   LIG d   1       6.298   0.509  -3.305  0.00  0.00     0.040 A 
ATOM     27  C   LIG d   1       6.211  -0.883  -3.264  0.00  0.00    -0.033 A 
ATOM     28  C   LIG d   1       5.196  -1.487  -2.550  0.00  0.00    -0.058 A 
ATOM     29  C   LIG d   1       4.261  -0.714  -1.884  0.00  0.00    -0.061 A 
ATOM     30  H   LIG d   1       5.129  -2.564  -2.514  0.00  0.00     0.062 H 
ATOM     31  C   LIG d   1       4.339   0.666  -1.925  0.00  0.00    -0.061 A 
ATOM     32  H   LIG d   1       3.467  -1.191  -1.330  0.00  0.00     0.062 H 
ATOM     33  C   LIG d   1       5.352   1.283  -2.631  0.00  0.00    -0.049 A 
ATOM     34  H   LIG d   1       3.606   1.263  -1.403  0.00  0.00     0.062 H 
ATOM     35  H   LIG d   1       5.413   2.360  -2.661  0.00  0.00     0.062 H 
BRANCH  27  36
ATOM     36  C   LIG d   1       7.225  -1.726  -3.994  0.00  0.00    -0.004 C 
ATOM     37  H   LIG d   1       8.097  -1.118  -4.235  0.00  0.00     0.034 H 
ATOM     38  H   LIG d   1       7.526  -2.561  -3.362  0.00  0.00     0.034 H 
BRANCH  36  39
ATOM     39  C   LIG d   1       6.605  -2.263  -5.286  0.00  0.00     0.048 C 
ATOM     40  H   LIG d   1       6.945  -3.285  -5.455  0.00  0.00     0.056 H 
ATOM     41  H   LIG d   1       5.519  -2.251  -5.201  0.00  0.00     0.056 H 
BRANCH  39  42
ATOM     42  O   LIG d   1       7.006  -1.440  -6.384  0.00  0.00    -0.395 OA
ATOM     43  H   LIG d   1       7.860  -1.683  -6.766  0.00  0.00     0.209 HD
ENDBRANCH  39  42
ENDBRANCH  36  39
ENDBRANCH  27  36
ENDBRANCH   2  26
TORSDOF 9
ENDMDL
MODEL 4
REMARK VINA RESULT:      -6.0      1.374      2.661
REMARK  9 active torsions:
REMARK  status: ('A' for Active; 'I' for Inactive)
REMARK    1  A    between atoms: C_1  and  O_2 
REMARK    2  A    between atoms: O_2  and  C_3 
REMARK    3  A    between atoms: C_6  and  C_10 
REMARK    4  A    between atoms: C_10  and  C_11 
REMARK    5  A    between atoms: C_11  and  N_12 
REMARK       I    between atoms: N_12  and  C_13 
REMARK    6  A    between atoms: C_13  and  C_15 
REMARK    7  A    between atoms: C_20  and  C_21 
REMARK    8  A    between atoms: C_21  and  C_22 
REMARK    9  A    between atoms: C_22  and  O_23 
ROOT
ATOM      1  N   LIG d   1       2.492  -0.237  -5.895  0.00  0.00    -0.311 N 
ATOM      2  C   LIG d   1       3.316  -0.193  -6.960  0.00  0.00     0.244 C 
ATOM      3  O   LIG d   1       4.418   0.308  -6.856  0.00  0.00    -0.270 OA
ATOM      4  H   LIG d   1       1.612  -0.638  -5.977  0.00  0.00     0.149 HD
ENDROOT
BRANCH   1   5
ATOM      5  C   LIG d   1       2.925   0.318  -4.610  0.00  0.00     0.016 C 
ATOM      6  H   LIG d   1       2.175   1.021  -4.247  0.00  0.00     0.046 H 
ATOM      7  H   LIG d   1       3.876   0.837  -4.740  0.00  0.00     0.046 H 
BRANCH   5   8
ATOM      8  C   LIG d   1       3.097  -0.815  -3.596  0.00  0.00    -0.012 C 
ATOM      9  H   LIG d   1       2.380  -1.607  -3.811  0.00  0.00     0.033 H 
ATOM     10  H   LIG d   1       2.925  -0.431  -2.591  0.00  0.00     0.033 H 
BRANCH   8  11
ATOM     11  C   LIG d   1       4.496  -1.366  -3.691  0.00  0.00    -0.044 A 
ATOM     12  C   LIG d   1       5.556  -0.659  -3.152  0.00  0.00    -0.055 A 
ATOM     13  C   LIG d   1       6.839  -1.162  -3.237  0.00  0.00    -0.018 A 
ATOM     14  H   LIG d   1       5.377   0.288  -2.663  0.00  0.00     0.062 H 
ATOM     15  C   LIG d   1       7.066  -2.377  -3.865  0.00  0.00     0.138 A 
ATOM     16  H   LIG d   1       7.664  -0.609  -2.815  0.00  0.00     0.066 H 
ATOM     17  C   LIG d   1       6.003  -3.082  -4.412  0.00  0.00     0.083 A 
ATOM     18  C   LIG d   1       4.720  -2.578  -4.318  0.00  0.00    -0.037 A 
ATOM     19 CL   LIG d   1       6.284  -4.602  -5.205  0.00  0.00    -0.080 Cl
ATOM     20  H   LIG d   1       3.891  -3.129  -4.738  0.00  0.00     0.064 H 
BRANCH  15  21
ATOM     21  O   LIG d   1       8.329  -2.874  -3.951  0.00  0.00    -0.494 OA
BRANCH  21  22
ATOM     22  C   LIG d   1       9.169  -2.335  -4.974  0.00  0.00     0.079 C 
ATOM     23  H   LIG d   1       9.340  -1.276  -4.784  0.00  0.00     0.066 H 
ATOM     24  H   LIG d   1      10.122  -2.863  -4.977  0.00  0.00     0.066 H 
ATOM     25  H   LIG d   1       8.683  -2.457  -5.943  0.00  0.00     0.066 H 
ENDBRANCH  21  22
ENDBRANCH  15  21
ENDBRANCH   8  11
ENDBRANCH   5   8
ENDBRANCH   1   5
BRANCH   2  26
ATOM     26  C   LIG d   1       2.878  -0.754  -8.257  0.00  0.00     0.040 A 
ATOM     27  C   LIG d   1       3.254  -2.046  -8.624  0.00  0.00    -0.033 A 
ATOM     28  C   LIG d   1       2.838  -2.565  -9.833  0.00  0.00    -0.058 A 
ATOM     29  C   LIG d   1       2.057  -1.803 -10.684  0.00  0.00    -0.061 A 
ATOM     30  H   LIG d   1       3.125  -3.567 -10.117  0.00  0.00     0.062 H 
ATOM     31  C   LIG d   1       1.685  -0.520 -10.328  0.00  0.00    -0.061 A 
ATOM     32  H   LIG d   1       1.737  -2.213 -11.630  0.00  0.00     0.062 H 
ATOM     33  C   LIG d   1       2.090   0.010  -9.119  0.00  0.00    -0.049 A 
ATOM     34  H   LIG d   1       1.076   0.070 -10.997  0.00  0.00     0.062 H 
ATOM     35  H   LIG d   1       1.798   1.011  -8.842  0.00  0.00     0.062 H 
BRANCH  27  36
ATOM     36  C   LIG d   1       4.110  -2.875  -7.701  0.00  0.00    -0.004 C 
ATOM     37  H   LIG d   1       5.162  -2.708  -7.933  0.00  0.00     0.034 H 
ATOM     38  H   LIG d   1       3.915  -2.587  -6.668  0.00  0.00     0.034 H 
BRANCH  36  39
ATOM     39  C   LIG d   1       3.775  -4.357  -7.889  0.00  0.00     0.048 C 
ATOM     40  H   LIG d   1       3.063  -4.467  -8.707  0.00  0.00     0.056 H 
ATOM     41  H   LIG d   1       4.686  -4.908  -8.123  0.00  0.00     0.056 H 
BRANCH  39  42
ATOM     42  O   LIG d   1       3.201  -4.871  -6.686  0.00  0.00    -0.395 OA
ATOM     43  H   LIG d   1       3.840  -5.002  -5.971  0.00  0.00     0.209 HD
ENDBRANCH  39  42
ENDBRANCH  36  39
ENDBRANCH  27  36
ENDBRANCH   2  26
TORSDOF 9
ENDMDL
MODEL 5
REMARK VINA RESULT:      -5.8      5.723      7.855
REMARK  9 active torsions:
REMARK  status: ('A' for Active; 'I' for Inactive)
REMARK    1  A    between atoms: C_1  and  O_2 
REMARK    2  A    between atoms: O_2  and  C_3 
REMARK    3  A    between atoms: C_6  and  C_10 
REMARK    4  A    between atoms: C_10  and  C_11 
REMARK    5  A    between atoms: C_11  and  N_12 
REMARK       I    between atoms: N_12  and  C_13 
REMARK    6  A    between atoms: C_13  and  C_15 
REMARK    7  A    between atoms: C_20  and  C_21 
REMARK    8  A    between atoms: C_21  and  C_22 
REMARK    9  A    between atoms: C_22  and  O_23 
ROOT
ATOM      1  N   LIG d   1       8.454   0.550  -3.884  0.00  0.00    -0.311 N 
ATOM      2  C   LIG d   1       7.237   0.454  -4.454  0.00  0.00     0.244 C 
ATOM      3  O   LIG d   1       6.915   1.227  -5.335  0.00  0.00    -0.270 OA
ATOM      4  H   LIG d   1       8.712  -0.067  -3.181  0.00  0.00     0.149 HD
ENDROOT
BRANCH   1   5
ATOM      5  C   LIG d   1       9.391   1.586  -4.327  0.00  0.00     0.016 C 
ATOM      6  H   LIG d   1       8.934   2.172  -5.124  0.00  0.00     0.046 H 
ATOM      7  H   LIG d   1      10.303   1.117  -4.698  0.00  0.00     0.046 H 
BRANCH   5   8
ATOM      8  C   LIG d   1       9.732   2.503  -3.150  0.00  0.00    -0.012 C 
ATOM      9  H   LIG d   1      10.731   2.267  -2.784  0.00  0.00     0.033 H 
ATOM     10  H   LIG d   1       9.006   2.353  -2.352  0.00  0.00     0.033 H 
BRANCH   8  11
ATOM     11  C   LIG d   1       9.691   3.939  -3.604  0.00  0.00    -0.044 A 
ATOM     12  C   LIG d   1       9.544   4.235  -4.948  0.00  0.00    -0.055 A 
ATOM     13  C   LIG d   1       9.505   5.551  -5.366  0.00  0.00    -0.018 A 
ATOM     14  H   LIG d   1       9.459   3.436  -5.669  0.00  0.00     0.062 H 
ATOM     15  C   LIG d   1       9.614   6.576  -4.439  0.00  0.00     0.138 A 
ATOM     16  H   LIG d   1       9.389   5.780  -6.415  0.00  0.00     0.066 H 
ATOM     17  C   LIG d   1       9.768   6.277  -3.092  0.00  0.00     0.083 A 
ATOM     18  C   LIG d   1       9.800   4.959  -2.678  0.00  0.00    -0.037 A 
ATOM     19 CL   LIG d   1       9.911   7.558  -1.929  0.00  0.00    -0.080 Cl
ATOM     20  H   LIG d   1       9.914   4.726  -1.629  0.00  0.00     0.064 H 
BRANCH  15  21
ATOM     21  O   LIG d   1       9.577   7.872  -4.849  0.00  0.00    -0.494 OA
BRANCH  21  22
ATOM     22  C   LIG d   1       9.335   8.105  -6.238  0.00  0.00     0.079 C 
ATOM     23  H   LIG d   1       8.578   8.880  -6.351  0.00  0.00     0.066 H 
ATOM     24  H   LIG d   1      10.259   8.427  -6.719  0.00  0.00     0.066 H 
ATOM     25  H   LIG d   1       8.985   7.184  -6.705  0.00  0.00     0.066 H 
ENDBRANCH  21  22
ENDBRANCH  15  21
ENDBRANCH   8  11
ENDBRANCH   5   8
ENDBRANCH   1   5
BRANCH   2  26
ATOM     26  C   LIG d   1       6.292  -0.591  -4.005  0.00  0.00     0.040 A 
ATOM     27  C   LIG d   1       5.319  -0.292  -3.051  0.00  0.00    -0.033 A 
ATOM     28  C   LIG d   1       4.436  -1.271  -2.641  0.00  0.00    -0.058 A 
ATOM     29  C   LIG d   1       4.521  -2.547  -3.167  0.00  0.00    -0.061 A 
ATOM     30  H   LIG d   1       3.680  -1.040  -1.905  0.00  0.00     0.062 H 
ATOM     31  C   LIG d   1       5.486  -2.851  -4.110  0.00  0.00    -0.061 A 
ATOM     32  H   LIG d   1       3.829  -3.310  -2.841  0.00  0.00     0.062 H 
ATOM     33  C   LIG d   1       6.371  -1.880  -4.533  0.00  0.00    -0.049 A 
ATOM     34  H   LIG d   1       5.546  -3.849  -4.517  0.00  0.00     0.062 H 
ATOM     35  H   LIG d   1       7.124  -2.118  -5.270  0.00  0.00     0.062 H 
BRANCH  27  36
ATOM     36  C   LIG d   1       5.229   1.096  -2.471  0.00  0.00    -0.004 C 
ATOM     37  H   LIG d   1       5.676   1.105  -1.477  0.00  0.00     0.034 H 
ATOM     38  H   LIG d   1       5.763   1.794  -3.116  0.00  0.00     0.034 H 
BRANCH  36  39
ATOM     39  C   LIG d   1       3.760   1.514  -2.374  0.00  0.00     0.048 C 
ATOM     40  H   LIG d   1       3.133   0.624  -2.316  0.00  0.00     0.056 H 
ATOM     41  H   LIG d   1       3.614   2.122  -1.482  0.00  0.00     0.056 H 
BRANCH  39  42
ATOM     42  O   LIG d   1       3.404   2.273  -3.532  0.00  0.00    -0.395 OA
ATOM     43  H   LIG d   1       2.917   1.768  -4.198  0.00  0.00     0.209 HD
ENDBRANCH  39  42
ENDBRANCH  36  39
ENDBRANCH  27  36
ENDBRANCH   2  26
TORSDOF 9
ENDMDL
MODEL 6
REMARK VINA RESULT:      -5.7      2.867      7.101
REMARK  9 active torsions:
REMARK  status: ('A' for Active; 'I' for Inactive)
REMARK    1  A    between atoms: C_1  and  O_2 
REMARK    2  A    between atoms: O_2  and  C_3 
REMARK    3  A    between atoms: C_6  and  C_10 
REMARK    4  A    between atoms: C_10  and  C_11 
REMARK    5  A    between atoms: C_11  and  N_12 
REMARK       I    between atoms: N_12  and  C_13 
REMARK    6  A    between atoms: C_13  and  C_15 
REMARK    7  A    between atoms: C_20  and  C_21 
REMARK    8  A    between atoms: C_21  and  C_22 
REMARK    9  A    between atoms: C_22  and  O_23 
ROOT
ATOM      1  N   LIG d   1       6.473   0.315  -6.144  0.00  0.00    -0.311 N 
ATOM      2  C   LIG d   1       6.962   0.093  -4.909  0.00  0.00     0.244 C 
ATOM      3  O   LIG d   1       8.163   0.027  -4.733  0.00  0.00    -0.270 OA
ATOM      4  H   LIG d   1       5.514   0.367  -6.285  0.00  0.00     0.149 HD
ENDROOT
BRANCH   1   5
ATOM      5  C   LIG d   1       7.388   0.478  -7.276  0.00  0.00     0.016 C 
ATOM      6  H   LIG d   1       7.380  -0.427  -7.884  0.00  0.00     0.046 H 
ATOM      7  H   LIG d   1       8.398   0.657  -6.905  0.00  0.00     0.046 H 
BRANCH   5   8
ATOM      8  C   LIG d   1       6.940   1.668  -8.127  0.00  0.00    -0.012 C 
ATOM      9  H   LIG d   1       7.812   2.147  -8.570  0.00  0.00     0.033 H 
ATOM     10  H   LIG d   1       6.410   2.384  -7.499  0.00  0.00     0.033 H 
BRANCH   8  11
ATOM     11  C   LIG d   1       6.023   1.186  -9.222  0.00  0.00    -0.044 A 
ATOM     12  C   LIG d   1       4.860   1.879  -9.504  0.00  0.00    -0.055 A 
ATOM     13  C   LIG d   1       4.018   1.439 -10.507  0.00  0.00    -0.018 A 
ATOM     14  H   LIG d   1       4.611   2.766  -8.940  0.00  0.00     0.062 H 
ATOM     15  C   LIG d   1       4.338   0.302 -11.231  0.00  0.00     0.138 A 
ATOM     16  H   LIG d   1       3.111   1.983 -10.727  0.00  0.00     0.066 H 
ATOM     17  C   LIG d   1       5.503  -0.397 -10.942  0.00  0.00     0.083 A 
ATOM     18  C   LIG d   1       6.345   0.051  -9.942  0.00  0.00    -0.037 A 
ATOM     19 CL   LIG d   1       5.905  -1.826 -11.842  0.00  0.00    -0.080 Cl
ATOM     20  H   LIG d   1       7.254  -0.489  -9.720  0.00  0.00     0.064 H 
BRANCH  15  21
ATOM     21  O   LIG d   1       3.511  -0.133 -12.218  0.00  0.00    -0.494 OA
BRANCH  21  22
ATOM     22  C   LIG d   1       2.370  -0.897 -11.819  0.00  0.00     0.079 C 
ATOM     23  H   LIG d   1       1.511  -0.237 -11.709  0.00  0.00     0.066 H 
ATOM     24  H   LIG d   1       2.156  -1.652 -12.575  0.00  0.00     0.066 H 
ATOM     25  H   LIG d   1       2.578  -1.385 -10.866  0.00  0.00     0.066 H 
ENDBRANCH  21  22
ENDBRANCH  15  21
ENDBRANCH   8  11
ENDBRANCH   5   8
ENDBRANCH   1   5
BRANCH   2  26
ATOM     26  C   LIG d   1       6.038  -0.073  -3.766  0.00  0.00     0.040 A 
ATOM     27  C   LIG d   1       5.553  -1.339  -3.435  0.00  0.00    -0.033 A 
ATOM     28  C   LIG d   1       4.695  -1.487  -2.364  0.00  0.00    -0.058 A 
ATOM     29  C   LIG d   1       4.308  -0.383  -1.627  0.00  0.00    -0.061 A 
ATOM     30  H   LIG d   1       4.323  -2.467  -2.104  0.00  0.00     0.062 H 
ATOM     31  C   LIG d   1       4.780   0.875  -1.953  0.00  0.00    -0.061 A 
ATOM     32  H   LIG d   1       3.634  -0.504  -0.792  0.00  0.00     0.062 H 
ATOM     33  C   LIG d   1       5.644   1.037  -3.018  0.00  0.00    -0.049 A 
ATOM     34  H   LIG d   1       4.474   1.733  -1.373  0.00  0.00     0.062 H 
ATOM     35  H   LIG d   1       6.012   2.020  -3.271  0.00  0.00     0.062 H 
BRANCH  27  36
ATOM     36  C   LIG d   1       5.969  -2.542  -4.241  0.00  0.00    -0.004 C 
ATOM     37  H   LIG d   1       6.745  -2.254  -4.950  0.00  0.00     0.034 H 
ATOM     38  H   LIG d   1       6.354  -3.312  -3.573  0.00  0.00     0.034 H 
BRANCH  36  39
ATOM     39  C   LIG d   1       4.759  -3.087  -5.004  0.00  0.00     0.048 C 
ATOM     40  H   LIG d   1       5.044  -3.996  -5.534  0.00  0.00     0.056 H 
ATOM     41  H   LIG d   1       3.958  -3.312  -4.300  0.00  0.00     0.056 H 
BRANCH  39  42
ATOM     42  O   LIG d   1       4.309  -2.109  -5.943  0.00  0.00    -0.395 OA
ATOM     43  H   LIG d   1       3.368  -1.896  -5.868  0.00  0.00     0.209 HD
ENDBRANCH  39  42
ENDBRANCH  36  39
ENDBRANCH  27  36
ENDBRANCH   2  26
TORSDOF 9
ENDMDL
MODEL 7
REMARK VINA RESULT:      -5.7      3.261      7.502
REMARK  9 active torsions:
REMARK  status: ('A' for Active; 'I' for Inactive)
REMARK    1  A    between atoms: C_1  and  O_2 
REMARK    2  A    between atoms: O_2  and  C_3 
REMARK    3  A    between atoms: C_6  and  C_10 
REMARK    4  A    between atoms: C_10  and  C_11 
REMARK    5  A    between atoms: C_11  and  N_12 
REMARK       I    between atoms: N_12  and  C_13 
REMARK    6  A    between atoms: C_13  and  C_15 
REMARK    7  A    between atoms: C_20  and  C_21 
REMARK    8  A    between atoms: C_21  and  C_22 
REMARK    9  A    between atoms: C_22  and  O_23 
ROOT
ATOM      1  N   LIG d   1       2.932  -0.502  -7.201  0.00  0.00    -0.311 N 
ATOM      2  C   LIG d   1       3.956  -0.326  -6.343  0.00  0.00     0.244 C 
ATOM      3  O   LIG d   1       4.944   0.289  -6.693  0.00  0.00    -0.270 OA
ATOM      4  H   LIG d   1       2.143  -0.993  -6.921  0.00  0.00     0.149 HD
ENDROOT
BRANCH   1   5
ATOM      5  C   LIG d   1       3.009   0.049  -8.556  0.00  0.00     0.016 C 
ATOM      6  H   LIG d   1       3.963  -0.225  -9.006  0.00  0.00     0.046 H 
ATOM      7  H   LIG d   1       2.926   1.135  -8.512  0.00  0.00     0.046 H 
BRANCH   5   8
ATOM      8  C   LIG d   1       1.865  -0.516  -9.402  0.00  0.00    -0.012 C 
ATOM      9  H   LIG d   1       1.045   0.201  -9.429  0.00  0.00     0.033 H 
ATOM     10  H   LIG d   1       1.517  -1.451  -8.963  0.00  0.00     0.033 H 
BRANCH   8  11
ATOM     11  C   LIG d   1       2.356  -0.771 -10.804  0.00  0.00    -0.044 A 
ATOM     12  C   LIG d   1       3.551  -0.219 -11.229  0.00  0.00    -0.055 A 
ATOM     13  C   LIG d   1       4.002  -0.451 -12.513  0.00  0.00    -0.018 A 
ATOM     14  H   LIG d   1       4.131   0.394 -10.554  0.00  0.00     0.062 H 
ATOM     15  C   LIG d   1       3.257  -1.237 -13.378  0.00  0.00     0.138 A 
ATOM     16  H   LIG d   1       4.936  -0.020 -12.842  0.00  0.00     0.066 H 
ATOM     17  C   LIG d   1       2.055  -1.785 -12.952  0.00  0.00     0.083 A 
ATOM     18  C   LIG d   1       1.610  -1.555 -11.664  0.00  0.00    -0.037 A 
ATOM     19 CL   LIG d   1       1.115  -2.766 -14.034  0.00  0.00    -0.080 Cl
ATOM     20  H   LIG d   1       0.678  -1.986 -11.330  0.00  0.00     0.064 H 
BRANCH  15  21
ATOM     21  O   LIG d   1       3.700  -1.467 -14.643  0.00  0.00    -0.494 OA
BRANCH  21  22
ATOM     22  C   LIG d   1       4.695  -2.480 -14.807  0.00  0.00     0.079 C 
ATOM     23  H   LIG d   1       5.573  -2.052 -15.289  0.00  0.00     0.066 H 
ATOM     24  H   LIG d   1       4.972  -2.878 -13.832  0.00  0.00     0.066 H 
ATOM     25  H   LIG d   1       4.295  -3.283 -15.428  0.00  0.00     0.066 H 
ENDBRANCH  21  22
ENDBRANCH  15  21
ENDBRANCH   8  11
ENDBRANCH   5   8
ENDBRANCH   1   5
BRANCH   2  26
ATOM     26  C   LIG d   1       3.879  -0.883  -4.975  0.00  0.00     0.040 A 
ATOM     27  C   LIG d   1       4.454  -2.122  -4.689  0.00  0.00    -0.033 A 
ATOM     28  C   LIG d   1       4.383  -2.633  -3.409  0.00  0.00    -0.058 A 
ATOM     29  C   LIG d   1       3.734  -1.925  -2.414  0.00  0.00    -0.061 A 
ATOM     30  H   LIG d   1       4.832  -3.589  -3.186  0.00  0.00     0.062 H 
ATOM     31  C   LIG d   1       3.157  -0.699  -2.692  0.00  0.00    -0.061 A 
ATOM     32  H   LIG d   1       3.679  -2.331  -1.415  0.00  0.00     0.062 H 
ATOM     33  C   LIG d   1       3.226  -0.173  -3.966  0.00  0.00    -0.049 A 
ATOM     34  H   LIG d   1       2.652  -0.151  -1.909  0.00  0.00     0.062 H 
ATOM     35  H   LIG d   1       2.776   0.784  -4.181  0.00  0.00     0.062 H 
BRANCH  27  36
ATOM     36  C   LIG d   1       5.156  -2.897  -5.774  0.00  0.00    -0.004 C 
ATOM     37  H   LIG d   1       4.876  -2.494  -6.748  0.00  0.00     0.034 H 
ATOM     38  H   LIG d   1       6.234  -2.814  -5.641  0.00  0.00     0.034 H 
BRANCH  36  39
ATOM     39  C   LIG d   1       4.745  -4.369  -5.695  0.00  0.00     0.048 C 
ATOM     40  H   LIG d   1       5.472  -4.979  -6.231  0.00  0.00     0.056 H 
ATOM     41  H   LIG d   1       4.709  -4.680  -4.651  0.00  0.00     0.056 H 
BRANCH  39  42
ATOM     42  O   LIG d   1       3.455  -4.536  -6.287  0.00  0.00    -0.395 OA
ATOM     43  H   LIG d   1       3.478  -4.700  -7.240  0.00  0.00     0.209 HD
ENDBRANCH  39  42
ENDBRANCH  36  39
ENDBRANCH  27  36
ENDBRANCH   2  26
TORSDOF 9
ENDMDL
MODEL 8
REMARK VINA RESULT:      -5.7      3.024      7.469
REMARK  9 active torsions:
REMARK  status: ('A' for Active; 'I' for Inactive)
REMARK    1  A    between atoms: C_1  and  O_2 
REMARK    2  A    between atoms: O_2  and  C_3 
REMARK    3  A    between atoms: C_6  and  C_10 
REMARK    4  A    between atoms: C_10  and  C_11 
REMARK    5  A    between atoms: C_11  and  N_12 
REMARK       I    between atoms: N_12  and  C_13 
REMARK    6  A    between atoms: C_13  and  C_15 
REMARK    7  A    between atoms: C_20  and  C_21 
REMARK    8  A    between atoms: C_21  and  C_22 
REMARK    9  A    between atoms: C_22  and  O_23 
ROOT
ATOM      1  N   LIG d   1       3.505  -1.104  -6.993  0.00  0.00    -0.311 N 
ATOM      2  C   LIG d   1       4.363  -0.450  -6.186  0.00  0.00     0.244 C 
ATOM      3  O   LIG d   1       5.209   0.281  -6.662  0.00  0.00    -0.270 OA
ATOM      4  H   LIG d   1       2.830  -1.687  -6.613  0.00  0.00     0.149 HD
ENDROOT
BRANCH   1   5
ATOM      5  C   LIG d   1       3.590  -0.932  -8.445  0.00  0.00     0.016 C 
ATOM      6  H   LIG d   1       3.830  -1.888  -8.910  0.00  0.00     0.046 H 
ATOM      7  H   LIG d   1       4.371  -0.208  -8.681  0.00  0.00     0.046 H 
BRANCH   5   8
ATOM      8  C   LIG d   1       2.248  -0.427  -8.979  0.00  0.00    -0.012 C 
ATOM      9  H   LIG d   1       2.375   0.575  -9.389  0.00  0.00     0.033 H 
ATOM     10  H   LIG d   1       1.522  -0.399  -8.167  0.00  0.00     0.033 H 
BRANCH   8  11
ATOM     11  C   LIG d   1       1.757  -1.353 -10.061  0.00  0.00    -0.044 A 
ATOM     12  C   LIG d   1       1.194  -0.833 -11.213  0.00  0.00    -0.055 A 
ATOM     13  C   LIG d   1       0.743  -1.681 -12.206  0.00  0.00    -0.018 A 
ATOM     14  H   LIG d   1       1.109   0.237 -11.335  0.00  0.00     0.062 H 
ATOM     15  C   LIG d   1       0.853  -3.053 -12.048  0.00  0.00     0.138 A 
ATOM     16  H   LIG d   1       0.305  -1.272 -13.105  0.00  0.00     0.066 H 
ATOM     17  C   LIG d   1       1.412  -3.574 -10.889  0.00  0.00     0.083 A 
ATOM     18  C   LIG d   1       1.868  -2.722  -9.901  0.00  0.00    -0.037 A 
ATOM     19 CL   LIG d   1       1.546  -5.293 -10.685  0.00  0.00    -0.080 Cl
ATOM     20  H   LIG d   1       2.307  -3.126  -9.001  0.00  0.00     0.064 H 
BRANCH  15  21
ATOM     21  O   LIG d   1       0.409  -3.889 -13.025  0.00  0.00    -0.494 OA
BRANCH  21  22
ATOM     22  C   LIG d   1       1.250  -4.053 -14.169  0.00  0.00     0.079 C 
ATOM     23  H   LIG d   1       0.978  -3.321 -14.929  0.00  0.00     0.066 H 
ATOM     24  H   LIG d   1       2.290  -3.906 -13.879  0.00  0.00     0.066 H 
ATOM     25  H   LIG d   1       1.123  -5.059 -14.571  0.00  0.00     0.066 H 
ENDBRANCH  21  22
ENDBRANCH  15  21
ENDBRANCH   8  11
ENDBRANCH   5   8
ENDBRANCH   1   5
BRANCH   2  26
ATOM     26  C   LIG d   1       4.277  -0.624  -4.720  0.00  0.00     0.040 A 
ATOM     27  C   LIG d   1       4.933  -1.689  -4.101  0.00  0.00    -0.033 A 
ATOM     28  C   LIG d   1       4.854  -1.842  -2.732  0.00  0.00    -0.058 A 
ATOM     29  C   LIG d   1       4.117  -0.948  -1.975  0.00  0.00    -0.061 A 
ATOM     30  H   LIG d   1       5.364  -2.663  -2.251  0.00  0.00     0.062 H 
ATOM     31  C   LIG d   1       3.461   0.106  -2.582  0.00  0.00    -0.061 A 
ATOM     32  H   LIG d   1       4.056  -1.075  -0.904  0.00  0.00     0.062 H 
ATOM     33  C   LIG d   1       3.537   0.275  -3.950  0.00  0.00    -0.049 A 
ATOM     34  H   LIG d   1       2.888   0.801  -1.985  0.00  0.00     0.062 H 
ATOM     35  H   LIG d   1       3.025   1.099  -4.423  0.00  0.00     0.062 H 
BRANCH  27  36
ATOM     36  C   LIG d   1       5.730  -2.667  -4.925  0.00  0.00    -0.004 C 
ATOM     37  H   LIG d   1       5.840  -2.283  -5.939  0.00  0.00     0.034 H 
ATOM     38  H   LIG d   1       6.715  -2.802  -4.478  0.00  0.00     0.034 H 
BRANCH  36  39
ATOM     39  C   LIG d   1       5.000  -4.012  -4.966  0.00  0.00     0.048 C 
ATOM     40  H   LIG d   1       5.681  -4.783  -5.327  0.00  0.00     0.056 H 
ATOM     41  H   LIG d   1       4.657  -4.269  -3.964  0.00  0.00     0.056 H 
BRANCH  39  42
ATOM     42  O   LIG d   1       3.878  -3.917  -5.845  0.00  0.00    -0.395 OA
ATOM     43  H   LIG d   1       3.028  -4.096  -5.418  0.00  0.00     0.209 HD
ENDBRANCH  39  42
ENDBRANCH  36  39
ENDBRANCH  27  36
ENDBRANCH   2  26
TORSDOF 9
ENDMDL
MODEL 9
REMARK VINA RESULT:      -5.6      5.391      7.717
REMARK  9 active torsions:
REMARK  status: ('A' for Active; 'I' for Inactive)
REMARK    1  A    between atoms: C_1  and  O_2 
REMARK    2  A    between atoms: O_2  and  C_3 
REMARK    3  A    between atoms: C_6  and  C_10 
REMARK    4  A    between atoms: C_10  and  C_11 
REMARK    5  A    between atoms: C_11  and  N_12 
REMARK       I    between atoms: N_12  and  C_13 
REMARK    6  A    between atoms: C_13  and  C_15 
REMARK    7  A    between atoms: C_20  and  C_21 
REMARK    8  A    between atoms: C_21  and  C_22 
REMARK    9  A    between atoms: C_22  and  O_23 
ROOT
ATOM      1  N   LIG d   1       8.143   0.420  -3.917  0.00  0.00    -0.311 N 
ATOM      2  C   LIG d   1       6.855   0.626  -3.581  0.00  0.00     0.244 C 
ATOM      3  O   LIG d   1       6.441   1.759  -3.425  0.00  0.00    -0.270 OA
ATOM      4  H   LIG d   1       8.473  -0.484  -4.042  0.00  0.00     0.149 HD
ENDROOT
BRANCH   1   5
ATOM      5  C   LIG d   1       9.045   1.559  -4.097  0.00  0.00     0.016 C 
ATOM      6  H   LIG d   1      10.034   1.304  -3.716  0.00  0.00     0.046 H 
ATOM      7  H   LIG d   1       8.657   2.420  -3.551  0.00  0.00     0.046 H 
BRANCH   5   8
ATOM      8  C   LIG d   1       9.145   1.902  -5.585  0.00  0.00    -0.012 C 
ATOM      9  H   LIG d   1       8.201   1.666  -6.076  0.00  0.00     0.033 H 
ATOM     10  H   LIG d   1       9.947   1.321  -6.038  0.00  0.00     0.033 H 
BRANCH   8  11
ATOM     11  C   LIG d   1       9.438   3.372  -5.743  0.00  0.00    -0.044 A 
ATOM     12  C   LIG d   1       9.332   4.219  -4.655  0.00  0.00    -0.055 A 
ATOM     13  C   LIG d   1       9.601   5.566  -4.798  0.00  0.00    -0.018 A 
ATOM     14  H   LIG d   1       9.040   3.825  -3.693  0.00  0.00     0.062 H 
ATOM     15  C   LIG d   1       9.975   6.071  -6.033  0.00  0.00     0.138 A 
ATOM     16  H   LIG d   1       9.518   6.226  -3.946  0.00  0.00     0.066 H 
ATOM     17  C   LIG d   1      10.074   5.221  -7.126  0.00  0.00     0.083 A 
ATOM     18  C   LIG d   1       9.811   3.872  -6.977  0.00  0.00    -0.037 A 
ATOM     19 CL   LIG d   1      10.537   5.850  -8.677  0.00  0.00    -0.080 Cl
ATOM     20  H   LIG d   1       9.893   3.209  -7.825  0.00  0.00     0.064 H 
BRANCH  15  21
ATOM     21  O   LIG d   1      10.239   7.397  -6.176  0.00  0.00    -0.494 OA
BRANCH  21  22
ATOM     22  C   LIG d   1       9.162   8.303  -5.927  0.00  0.00     0.079 C 
ATOM     23  H   LIG d   1       8.219   7.833  -6.206  0.00  0.00     0.066 H 
ATOM     24  H   LIG d   1       9.141   8.560  -4.868  0.00  0.00     0.066 H 
ATOM     25  H   LIG d   1       9.306   9.208  -6.518  0.00  0.00     0.066 H 
ENDBRANCH  21  22
ENDBRANCH  15  21
ENDBRANCH   8  11
ENDBRANCH   5   8
ENDBRANCH   1   5
BRANCH   2  26
ATOM     26  C   LIG d   1       5.944  -0.525  -3.399  0.00  0.00     0.040 A 
ATOM     27  C   LIG d   1       4.869  -0.434  -2.514  0.00  0.00    -0.033 A 
ATOM     28  C   LIG d   1       4.020  -1.510  -2.353  0.00  0.00    -0.058 A 
ATOM     29  C   LIG d   1       4.239  -2.679  -3.059  0.00  0.00    -0.061 A 
ATOM     30  H   LIG d   1       3.184  -1.440  -1.672  0.00  0.00     0.062 H 
ATOM     31  C   LIG d   1       5.306  -2.777  -3.934  0.00  0.00    -0.061 A 
ATOM     32  H   LIG d   1       3.573  -3.519  -2.928  0.00  0.00     0.062 H 
ATOM     33  C   LIG d   1       6.159  -1.707  -4.109  0.00  0.00    -0.049 A 
ATOM     34  H   LIG d   1       5.471  -3.693  -4.482  0.00  0.00     0.062 H 
ATOM     35  H   LIG d   1       6.991  -1.784  -4.793  0.00  0.00     0.062 H 
BRANCH  27  36
ATOM     36  C   LIG d   1       4.633   0.836  -1.739  0.00  0.00    -0.004 C 
ATOM     37  H   LIG d   1       4.522   0.602  -0.681  0.00  0.00     0.034 H 
ATOM     38  H   LIG d   1       5.479   1.508  -1.877  0.00  0.00     0.034 H 
BRANCH  36  39
ATOM     39  C   LIG d   1       3.357   1.513  -2.247  0.00  0.00     0.048 C 
ATOM     40  H   LIG d   1       2.593   0.757  -2.429  0.00  0.00     0.056 H 
ATOM     41  H   LIG d   1       2.999   2.221  -1.500  0.00  0.00     0.056 H 
BRANCH  39  42
ATOM     42  O   LIG d   1       3.639   2.207  -3.464  0.00  0.00    -0.395 OA
ATOM     43  H   LIG d   1       3.822   3.149  -3.347  0.00  0.00     0.209 HD
ENDBRANCH  39  42
ENDBRANCH  36  39
ENDBRANCH  27  36
ENDBRANCH   2  26
TORSDOF 9
ENDMDL
