MODEL 1
REMARK VINA RESULT:      -6.2      0.000      0.000
REMARK  2 active torsions:
REMARK  status: ('A' for Active; 'I' for Inactive)
REMARK    1  A    between atoms: C_4  and  C_7 
REMARK    2  A    between atoms: C_7  and  C_8 
ROOT
ATOM      1  C   LIG d   1       5.304  -2.809  -4.450  0.00  0.00     0.021 C 
ATOM      2  H   LIG d   1       5.140  -2.095  -5.131  0.00  0.00     0.038 H 
ATOM      3  C   LIG d   1       6.734  -2.696  -3.912  0.00  0.00    -0.043 C 
ATOM      4  C   LIG d   1       7.725  -2.993  -5.039  0.00  0.00    -0.052 C 
ATOM      5  C   LIG d   1       7.554  -4.438  -5.512  0.00  0.00    -0.046 C 
ATOM      6  C   LIG d   1       6.155  -4.616  -6.109  0.00  0.00     0.006 C 
ATOM      7  C   LIG d   1       5.135  -4.171  -5.085  0.00  0.00     0.137 C 
ATOM      8  O   LIG d   1       4.208  -4.884  -4.782  0.00  0.00    -0.297 OA
ATOM      9  H   LIG d   1       6.876  -3.413  -3.104  0.00  0.00     0.027 H 
ATOM     10  H   LIG d   1       6.903  -1.687  -3.536  0.00  0.00     0.027 H 
ATOM     11  H   LIG d   1       7.540  -2.316  -5.872  0.00  0.00     0.027 H 
ATOM     12  H   LIG d   1       8.742  -2.850  -4.674  0.00  0.00     0.027 H 
ATOM     13  H   LIG d   1       8.305  -4.663  -6.269  0.00  0.00     0.027 H 
ATOM     14  H   LIG d   1       7.677  -5.114  -4.665  0.00  0.00     0.027 H 
ATOM     15  H   LIG d   1       6.073  -4.062  -6.937  0.00  0.00     0.034 H 
ATOM     16  H   LIG d   1       5.994  -5.665  -6.358  0.00  0.00     0.034 H 
ENDROOT
BRANCH   1  17
ATOM     17  C   LIG d   1       4.308  -2.651  -3.298  0.00  0.00    -0.018 C 
ATOM     18  H   LIG d   1       3.364  -3.123  -3.568  0.00  0.00     0.032 H 
ATOM     19  H   LIG d   1       4.709  -3.126  -2.403  0.00  0.00     0.032 H 
BRANCH  17  20
ATOM     20  C   LIG d   1       4.078  -1.186  -3.030  0.00  0.00    -0.047 A 
ATOM     21  C   LIG d   1       4.618  -0.597  -1.903  0.00  0.00    -0.059 A 
ATOM     22  C   LIG d   1       4.408   0.746  -1.656  0.00  0.00    -0.061 A 
ATOM     23  H   LIG d   1       5.205  -1.187  -1.213  0.00  0.00     0.062 H 
ATOM     24  C   LIG d   1       3.657   1.501  -2.539  0.00  0.00    -0.062 A 
ATOM     25  H   LIG d   1       4.829   1.207  -0.775  0.00  0.00     0.062 H 
ATOM     26  C   LIG d   1       3.117   0.913  -3.666  0.00  0.00    -0.061 A 
ATOM     27  H   LIG d   1       3.493   2.551  -2.346  0.00  0.00     0.062 H 
ATOM     28  C   LIG d   1       3.333  -0.430  -3.915  0.00  0.00    -0.059 A 
ATOM     29  H   LIG d   1       2.530   1.503  -4.355  0.00  0.00     0.062 H 
ATOM     30  H   LIG d   1       2.914  -0.889  -4.799  0.00  0.00     0.062 H 
ENDBRANCH  17  20
ENDBRANCH   1  17
TORSDOF 2
ENDMDL
MODEL 2
REMARK VINA RESULT:      -5.9      3.753      5.334
REMARK  2 active torsions:
REMARK  status: ('A' for Active; 'I' for Inactive)
REMARK    1  A    between atoms: C_4  and  C_7 
REMARK    2  A    between atoms: C_7  and  C_8 
ROOT
ATOM      1  C   LIG d   1       3.972  -1.082  -5.239  0.00  0.00     0.021 C 
ATOM      2  H   LIG d   1       3.277  -1.679  -5.640  0.00  0.00     0.038 H 
ATOM      3  C   LIG d   1       5.030  -1.928  -4.522  0.00  0.00    -0.043 C 
ATOM      4  C   LIG d   1       4.390  -2.641  -3.330  0.00  0.00    -0.052 C 
ATOM      5  C   LIG d   1       3.899  -1.610  -2.312  0.00  0.00    -0.046 C 
ATOM      6  C   LIG d   1       2.799  -0.753  -2.946  0.00  0.00     0.006 C 
ATOM      7  C   LIG d   1       3.333  -0.156  -4.229  0.00  0.00     0.137 C 
ATOM      8  O   LIG d   1       3.250   1.030  -4.442  0.00  0.00    -0.297 OA
ATOM      9  H   LIG d   1       5.834  -1.282  -4.170  0.00  0.00     0.027 H 
ATOM     10  H   LIG d   1       5.435  -2.667  -5.214  0.00  0.00     0.027 H 
ATOM     11  H   LIG d   1       3.546  -3.238  -3.676  0.00  0.00     0.027 H 
ATOM     12  H   LIG d   1       5.126  -3.292  -2.859  0.00  0.00     0.027 H 
ATOM     13  H   LIG d   1       3.502  -2.125  -1.437  0.00  0.00     0.027 H 
ATOM     14  H   LIG d   1       4.730  -0.972  -2.012  0.00  0.00     0.027 H 
ATOM     15  H   LIG d   1       2.002  -1.325  -3.140  0.00  0.00     0.034 H 
ATOM     16  H   LIG d   1       2.514   0.044  -2.258  0.00  0.00     0.034 H 
ENDROOT
BRANCH   1  17
ATOM     17  C   LIG d   1       4.635  -0.258  -6.345  0.00  0.00    -0.018 C 
ATOM     18  H   LIG d   1       4.809   0.756  -5.987  0.00  0.00     0.032 H 
ATOM     19  H   LIG d   1       5.586  -0.715  -6.618  0.00  0.00     0.032 H 
BRANCH  17  20
ATOM     20  C   LIG d   1       3.732  -0.219  -7.551  0.00  0.00    -0.047 A 
ATOM     21  C   LIG d   1       3.347  -1.395  -8.165  0.00  0.00    -0.059 A 
ATOM     22  C   LIG d   1       2.519  -1.359  -9.271  0.00  0.00    -0.061 A 
ATOM     23  H   LIG d   1       3.693  -2.344  -7.780  0.00  0.00     0.062 H 
ATOM     24  C   LIG d   1       2.076  -0.145  -9.763  0.00  0.00    -0.062 A 
ATOM     25  H   LIG d   1       2.218  -2.278  -9.751  0.00  0.00     0.062 H 
ATOM     26  C   LIG d   1       2.461   1.031  -9.149  0.00  0.00    -0.061 A 
ATOM     27  H   LIG d   1       1.430  -0.117 -10.628  0.00  0.00     0.062 H 
ATOM     28  C   LIG d   1       3.285   0.994  -8.040  0.00  0.00    -0.059 A 
ATOM     29  H   LIG d   1       2.115   1.980  -9.534  0.00  0.00     0.062 H 
ATOM     30  H   LIG d   1       3.582   1.914  -7.557  0.00  0.00     0.062 H 
ENDBRANCH  17  20
ENDBRANCH   1  17
TORSDOF 2
ENDMDL
MODEL 3
REMARK VINA RESULT:      -5.8      3.635      4.845
REMARK  2 active torsions:
REMARK  status: ('A' for Active; 'I' for Inactive)
REMARK    1  A    between atoms: C_4  and  C_7 
REMARK    2  A    between atoms: C_7  and  C_8 
ROOT
ATOM      1  C   LIG d   1       3.425  -0.217  -7.326  0.00  0.00     0.021 C 
ATOM      2  H   LIG d   1       2.618  -0.097  -6.746  0.00  0.00     0.038 H 
ATOM      3  C   LIG d   1       3.672   1.056  -8.140  0.00  0.00    -0.043 C 
ATOM      4  C   LIG d   1       2.515   1.269  -9.117  0.00  0.00    -0.052 C 
ATOM      5  C   LIG d   1       2.467   0.116 -10.122  0.00  0.00    -0.046 C 
ATOM      6  C   LIG d   1       2.174  -1.193  -9.381  0.00  0.00     0.006 C 
ATOM      7  C   LIG d   1       3.201  -1.365  -8.285  0.00  0.00     0.137 C 
ATOM      8  O   LIG d   1       3.825  -2.393  -8.176  0.00  0.00    -0.297 OA
ATOM      9  H   LIG d   1       4.604   0.956  -8.697  0.00  0.00     0.027 H 
ATOM     10  H   LIG d   1       3.742   1.912  -7.468  0.00  0.00     0.027 H 
ATOM     11  H   LIG d   1       1.576   1.306  -8.564  0.00  0.00     0.027 H 
ATOM     12  H   LIG d   1       2.659   2.208  -9.651  0.00  0.00     0.027 H 
ATOM     13  H   LIG d   1       1.681   0.305 -10.853  0.00  0.00     0.027 H 
ATOM     14  H   LIG d   1       3.427   0.038 -10.632  0.00  0.00     0.027 H 
ATOM     15  H   LIG d   1       1.255  -1.154  -8.988  0.00  0.00     0.034 H 
ATOM     16  H   LIG d   1       2.234  -2.029 -10.079  0.00  0.00     0.034 H 
ENDROOT
BRANCH   1  17
ATOM     17  C   LIG d   1       4.643  -0.511  -6.447  0.00  0.00    -0.018 C 
ATOM     18  H   LIG d   1       5.218  -1.326  -6.885  0.00  0.00     0.032 H 
ATOM     19  H   LIG d   1       5.268   0.380  -6.383  0.00  0.00     0.032 H 
BRANCH  17  20
ATOM     20  C   LIG d   1       4.184  -0.904  -5.066  0.00  0.00    -0.047 A 
ATOM     21  C   LIG d   1       3.209  -0.163  -4.426  0.00  0.00    -0.059 A 
ATOM     22  C   LIG d   1       2.788  -0.523  -3.160  0.00  0.00    -0.061 A 
ATOM     23  H   LIG d   1       2.775   0.697  -4.915  0.00  0.00     0.062 H 
ATOM     24  C   LIG d   1       3.342  -1.625  -2.535  0.00  0.00    -0.062 A 
ATOM     25  H   LIG d   1       2.026   0.055  -2.659  0.00  0.00     0.062 H 
ATOM     26  C   LIG d   1       4.317  -2.365  -3.175  0.00  0.00    -0.061 A 
ATOM     27  H   LIG d   1       3.013  -1.906  -1.545  0.00  0.00     0.062 H 
ATOM     28  C   LIG d   1       4.734  -2.008  -4.443  0.00  0.00    -0.059 A 
ATOM     29  H   LIG d   1       4.751  -3.225  -2.686  0.00  0.00     0.062 H 
ATOM     30  H   LIG d   1       5.494  -2.589  -4.946  0.00  0.00     0.062 H 
ENDBRANCH  17  20
ENDBRANCH   1  17
TORSDOF 2
ENDMDL
MODEL 4
REMARK VINA RESULT:      -5.8      3.581      5.210
REMARK  2 active torsions:
REMARK  status: ('A' for Active; 'I' for Inactive)
REMARK    1  A    between atoms: C_4  and  C_7 
REMARK    2  A    between atoms: C_7  and  C_8 
ROOT
ATOM      1  C   LIG d   1       4.015  -0.487  -5.410  0.00  0.00     0.021 C 
ATOM      2  H   LIG d   1       4.765   0.175  -5.412  0.00  0.00     0.038 H 
ATOM      3  C   LIG d   1       2.816   0.090  -4.651  0.00  0.00    -0.043 C 
ATOM      4  C   LIG d   1       3.184   0.270  -3.178  0.00  0.00    -0.052 C 
ATOM      5  C   LIG d   1       3.479  -1.093  -2.547  0.00  0.00    -0.046 C 
ATOM      6  C   LIG d   1       4.704  -1.713  -3.227  0.00  0.00     0.006 C 
ATOM      7  C   LIG d   1       4.455  -1.758  -4.718  0.00  0.00     0.137 C 
ATOM      8  O   LIG d   1       4.605  -2.782  -5.341  0.00  0.00    -0.297 OA
ATOM      9  H   LIG d   1       1.970  -0.594  -4.734  0.00  0.00     0.027 H 
ATOM     10  H   LIG d   1       2.544   1.055  -5.079  0.00  0.00     0.027 H 
ATOM     11  H   LIG d   1       4.068   0.903  -3.100  0.00  0.00     0.027 H 
ATOM     12  H   LIG d   1       2.354   0.739  -2.651  0.00  0.00     0.027 H 
ATOM     13  H   LIG d   1       3.679  -0.964  -1.483  0.00  0.00     0.027 H 
ATOM     14  H   LIG d   1       2.618  -1.748  -2.680  0.00  0.00     0.027 H 
ATOM     15  H   LIG d   1       5.511  -1.157  -3.031  0.00  0.00     0.034 H 
ATOM     16  H   LIG d   1       4.859  -2.724  -2.848  0.00  0.00     0.034 H 
ENDROOT
BRANCH   1  17
ATOM     17  C   LIG d   1       3.609  -0.800  -6.852  0.00  0.00    -0.018 C 
ATOM     18  H   LIG d   1       4.173  -1.662  -7.209  0.00  0.00     0.032 H 
ATOM     19  H   LIG d   1       2.543  -1.023  -6.890  0.00  0.00     0.032 H 
BRANCH  17  20
ATOM     20  C   LIG d   1       3.905   0.391  -7.727  0.00  0.00    -0.047 A 
ATOM     21  C   LIG d   1       2.891   1.263  -8.072  0.00  0.00    -0.059 A 
ATOM     22  C   LIG d   1       3.162   2.355  -8.874  0.00  0.00    -0.061 A 
ATOM     23  H   LIG d   1       1.886   1.092  -7.715  0.00  0.00     0.062 H 
ATOM     24  C   LIG d   1       4.449   2.575  -9.331  0.00  0.00    -0.062 A 
ATOM     25  H   LIG d   1       2.369   3.037  -9.145  0.00  0.00     0.062 H 
ATOM     26  C   LIG d   1       5.463   1.703  -8.986  0.00  0.00    -0.061 A 
ATOM     27  H   LIG d   1       4.660   3.428  -9.959  0.00  0.00     0.062 H 
ATOM     28  C   LIG d   1       5.192   0.613  -8.179  0.00  0.00    -0.059 A 
ATOM     29  H   LIG d   1       6.467   1.874  -9.344  0.00  0.00     0.062 H 
ATOM     30  H   LIG d   1       5.986  -0.067  -7.905  0.00  0.00     0.062 H 
ENDBRANCH  17  20
ENDBRANCH   1  17
TORSDOF 2
ENDMDL
MODEL 5
REMARK VINA RESULT:      -5.7      3.606      4.625
REMARK  2 active torsions:
REMARK  status: ('A' for Active; 'I' for Inactive)
REMARK    1  A    between atoms: C_4  and  C_7 
REMARK    2  A    between atoms: C_7  and  C_8 
ROOT
ATOM      1  C   LIG d   1       3.595   0.189  -6.616  0.00  0.00     0.021 C 
ATOM      2  H   LIG d   1       4.504   0.271  -6.207  0.00  0.00     0.038 H 
ATOM      3  C   LIG d   1       3.468  -1.158  -7.333  0.00  0.00    -0.043 C 
ATOM      4  C   LIG d   1       4.437  -1.198  -8.516  0.00  0.00    -0.052 C 
ATOM      5  C   LIG d   1       4.051  -0.127  -9.538  0.00  0.00    -0.046 C 
ATOM      6  C   LIG d   1       4.200   1.259  -8.903  0.00  0.00     0.006 C 
ATOM      7  C   LIG d   1       3.387   1.294  -7.628  0.00  0.00     0.137 C 
ATOM      8  O   LIG d   1       2.595   2.181  -7.422  0.00  0.00    -0.297 OA
ATOM      9  H   LIG d   1       2.447  -1.283  -7.695  0.00  0.00     0.027 H 
ATOM     10  H   LIG d   1       3.708  -1.964  -6.639  0.00  0.00     0.027 H 
ATOM     11  H   LIG d   1       5.450  -1.011  -8.161  0.00  0.00     0.027 H 
ATOM     12  H   LIG d   1       4.393  -2.180  -8.988  0.00  0.00     0.027 H 
ATOM     13  H   LIG d   1       4.705  -0.203 -10.407  0.00  0.00     0.027 H 
ATOM     14  H   LIG d   1       3.016  -0.277  -9.848  0.00  0.00     0.027 H 
ATOM     15  H   LIG d   1       5.163   1.431  -8.701  0.00  0.00     0.034 H 
ATOM     16  H   LIG d   1       3.834   2.019  -9.595  0.00  0.00     0.034 H 
ENDROOT
BRANCH   1  17
ATOM     17  C   LIG d   1       2.532   0.290  -5.519  0.00  0.00    -0.018 C 
ATOM     18  H   LIG d   1       2.061   1.272  -5.560  0.00  0.00     0.032 H 
ATOM     19  H   LIG d   1       1.777  -0.481  -5.672  0.00  0.00     0.032 H 
BRANCH  17  20
ATOM     20  C   LIG d   1       3.181   0.099  -4.172  0.00  0.00    -0.047 A 
ATOM     21  C   LIG d   1       3.542   1.199  -3.418  0.00  0.00    -0.059 A 
ATOM     22  C   LIG d   1       4.136   1.025  -2.182  0.00  0.00    -0.061 A 
ATOM     23  H   LIG d   1       3.360   2.196  -3.793  0.00  0.00     0.062 H 
ATOM     24  C   LIG d   1       4.369  -0.251  -1.701  0.00  0.00    -0.062 A 
ATOM     25  H   LIG d   1       4.419   1.884  -1.592  0.00  0.00     0.062 H 
ATOM     26  C   LIG d   1       4.007  -1.350  -2.456  0.00  0.00    -0.061 A 
ATOM     27  H   LIG d   1       4.834  -0.387  -0.736  0.00  0.00     0.062 H 
ATOM     28  C   LIG d   1       3.408  -1.175  -3.689  0.00  0.00    -0.059 A 
ATOM     29  H   LIG d   1       4.190  -2.347  -2.080  0.00  0.00     0.062 H 
ATOM     30  H   LIG d   1       3.121  -2.035  -4.277  0.00  0.00     0.062 H 
ENDBRANCH  17  20
ENDBRANCH   1  17
TORSDOF 2
ENDMDL
MODEL 6
REMARK VINA RESULT:      -5.6      2.116      5.316
REMARK  2 active torsions:
REMARK  status: ('A' for Active; 'I' for Inactive)
REMARK    1  A    between atoms: C_4  and  C_7 
REMARK    2  A    between atoms: C_7  and  C_8 
ROOT
ATOM      1  C   LIG d   1       4.922  -1.332  -3.778  0.00  0.00     0.021 C 
ATOM      2  H   LIG d   1       4.553  -1.011  -4.650  0.00  0.00     0.038 H 
ATOM      3  C   LIG d   1       3.802  -1.395  -2.734  0.00  0.00    -0.043 C 
ATOM      4  C   LIG d   1       3.293   0.019  -2.448  0.00  0.00    -0.052 C 
ATOM      5  C   LIG d   1       4.414   0.858  -1.830  0.00  0.00    -0.046 C 
ATOM      6  C   LIG d   1       5.556   1.004  -2.841  0.00  0.00     0.006 C 
ATOM      7  C   LIG d   1       5.985  -0.376  -3.286  0.00  0.00     0.137 C 
ATOM      8  O   LIG d   1       7.146  -0.705  -3.251  0.00  0.00    -0.297 OA
ATOM      9  H   LIG d   1       4.187  -1.836  -1.814  0.00  0.00     0.027 H 
ATOM     10  H   LIG d   1       2.983  -2.006  -3.114  0.00  0.00     0.027 H 
ATOM     11  H   LIG d   1       2.967   0.481  -3.380  0.00  0.00     0.027 H 
ATOM     12  H   LIG d   1       2.455  -0.031  -1.754  0.00  0.00     0.027 H 
ATOM     13  H   LIG d   1       4.028   1.844  -1.570  0.00  0.00     0.027 H 
ATOM     14  H   LIG d   1       4.784   0.364  -0.932  0.00  0.00     0.027 H 
ATOM     15  H   LIG d   1       5.239   1.535  -3.626  0.00  0.00     0.034 H 
ATOM     16  H   LIG d   1       6.395   1.519  -2.371  0.00  0.00     0.034 H 
ENDROOT
BRANCH   1  17
ATOM     17  C   LIG d   1       5.529  -2.725  -3.964  0.00  0.00    -0.018 C 
ATOM     18  H   LIG d   1       6.612  -2.640  -4.048  0.00  0.00     0.032 H 
ATOM     19  H   LIG d   1       5.279  -3.349  -3.106  0.00  0.00     0.032 H 
BRANCH  17  20
ATOM     20  C   LIG d   1       4.975  -3.351  -5.219  0.00  0.00    -0.047 A 
ATOM     21  C   LIG d   1       4.679  -4.700  -5.244  0.00  0.00    -0.059 A 
ATOM     22  C   LIG d   1       4.171  -5.274  -6.394  0.00  0.00    -0.061 A 
ATOM     23  H   LIG d   1       4.843  -5.307  -4.365  0.00  0.00     0.062 H 
ATOM     24  C   LIG d   1       3.960  -4.498  -7.519  0.00  0.00    -0.062 A 
ATOM     25  H   LIG d   1       3.939  -6.329  -6.414  0.00  0.00     0.062 H 
ATOM     26  C   LIG d   1       4.256  -3.149  -7.493  0.00  0.00    -0.061 A 
ATOM     27  H   LIG d   1       3.563  -4.947  -8.417  0.00  0.00     0.062 H 
ATOM     28  C   LIG d   1       4.759  -2.574  -6.341  0.00  0.00    -0.059 A 
ATOM     29  H   LIG d   1       4.092  -2.543  -8.372  0.00  0.00     0.062 H 
ATOM     30  H   LIG d   1       4.987  -1.518  -6.319  0.00  0.00     0.062 H 
ENDBRANCH  17  20
ENDBRANCH   1  17
TORSDOF 2
ENDMDL
MODEL 7
REMARK VINA RESULT:      -5.5      1.612      5.540
REMARK  2 active torsions:
REMARK  status: ('A' for Active; 'I' for Inactive)
REMARK    1  A    between atoms: C_4  and  C_7 
REMARK    2  A    between atoms: C_7  and  C_8 
ROOT
ATOM      1  C   LIG d   1       6.014  -1.513  -3.602  0.00  0.00     0.021 C 
ATOM      2  H   LIG d   1       6.778  -1.666  -2.975  0.00  0.00     0.038 H 
ATOM      3  C   LIG d   1       5.952  -0.033  -3.994  0.00  0.00    -0.043 C 
ATOM      4  C   LIG d   1       5.620   0.806  -2.758  0.00  0.00    -0.052 C 
ATOM      5  C   LIG d   1       4.229   0.438  -2.240  0.00  0.00    -0.046 C 
ATOM      6  C   LIG d   1       4.226  -1.025  -1.784  0.00  0.00     0.006 C 
ATOM      7  C   LIG d   1       4.713  -1.886  -2.927  0.00  0.00     0.137 C 
ATOM      8  O   LIG d   1       4.081  -2.849  -3.291  0.00  0.00    -0.297 OA
ATOM      9  H   LIG d   1       5.180   0.111  -4.749  0.00  0.00     0.027 H 
ATOM     10  H   LIG d   1       6.916   0.278  -4.396  0.00  0.00     0.027 H 
ATOM     11  H   LIG d   1       6.359   0.613  -1.980  0.00  0.00     0.027 H 
ATOM     12  H   LIG d   1       5.640   1.863  -3.023  0.00  0.00     0.027 H 
ATOM     13  H   LIG d   1       3.972   1.083  -1.400  0.00  0.00     0.027 H 
ATOM     14  H   LIG d   1       3.497   0.571  -3.038  0.00  0.00     0.027 H 
ATOM     15  H   LIG d   1       4.832  -1.128  -0.995  0.00  0.00     0.034 H 
ATOM     16  H   LIG d   1       3.214  -1.319  -1.504  0.00  0.00     0.034 H 
ENDROOT
BRANCH   1  17
ATOM     17  C   LIG d   1       6.206  -2.369  -4.857  0.00  0.00    -0.018 C 
ATOM     18  H   LIG d   1       5.260  -2.837  -5.125  0.00  0.00     0.032 H 
ATOM     19  H   LIG d   1       6.545  -1.738  -5.679  0.00  0.00     0.032 H 
BRANCH  17  20
ATOM     20  C   LIG d   1       7.235  -3.436  -4.584  0.00  0.00    -0.047 A 
ATOM     21  C   LIG d   1       7.164  -4.648  -5.242  0.00  0.00    -0.059 A 
ATOM     22  C   LIG d   1       8.107  -5.627  -4.993  0.00  0.00    -0.061 A 
ATOM     23  H   LIG d   1       6.370  -4.832  -5.952  0.00  0.00     0.062 H 
ATOM     24  C   LIG d   1       9.123  -5.392  -4.085  0.00  0.00    -0.062 A 
ATOM     25  H   LIG d   1       8.051  -6.575  -5.506  0.00  0.00     0.062 H 
ATOM     26  C   LIG d   1       9.195  -4.179  -3.427  0.00  0.00    -0.061 A 
ATOM     27  H   LIG d   1       9.860  -6.157  -3.889  0.00  0.00     0.062 H 
ATOM     28  C   LIG d   1       8.254  -3.199  -3.681  0.00  0.00    -0.059 A 
ATOM     29  H   LIG d   1       9.988  -3.996  -2.717  0.00  0.00     0.062 H 
ATOM     30  H   LIG d   1       8.312  -2.248  -3.170  0.00  0.00     0.062 H 
ENDBRANCH  17  20
ENDBRANCH   1  17
TORSDOF 2
ENDMDL
MODEL 8
REMARK VINA RESULT:      -5.5      3.896      4.677
REMARK  2 active torsions:
REMARK  status: ('A' for Active; 'I' for Inactive)
REMARK    1  A    between atoms: C_4  and  C_7 
REMARK    2  A    between atoms: C_7  and  C_8 
ROOT
ATOM      1  C   LIG d   1       7.498   1.379  -4.298  0.00  0.00     0.021 C 
ATOM      2  H   LIG d   1       6.670   1.940  -4.325  0.00  0.00     0.038 H 
ATOM      3  C   LIG d   1       8.662   2.198  -3.731  0.00  0.00    -0.043 C 
ATOM      4  C   LIG d   1       8.994   3.342  -4.691  0.00  0.00    -0.052 C 
ATOM      5  C   LIG d   1       9.476   2.774  -6.027  0.00  0.00    -0.046 C 
ATOM      6  C   LIG d   1       8.343   1.977  -6.680  0.00  0.00     0.006 C 
ATOM      7  C   LIG d   1       7.861   0.933  -5.697  0.00  0.00     0.137 C 
ATOM      8  O   LIG d   1       7.766  -0.227  -6.021  0.00  0.00    -0.297 OA
ATOM      9  H   LIG d   1       9.535   1.555  -3.615  0.00  0.00     0.027 H 
ATOM     10  H   LIG d   1       8.381   2.607  -2.761  0.00  0.00     0.027 H 
ATOM     11  H   LIG d   1       8.103   3.947  -4.855  0.00  0.00     0.027 H 
ATOM     12  H   LIG d   1       9.779   3.962  -4.257  0.00  0.00     0.027 H 
ATOM     13  H   LIG d   1       9.772   3.592  -6.683  0.00  0.00     0.027 H 
ATOM     14  H   LIG d   1      10.331   2.118  -5.856  0.00  0.00     0.027 H 
ATOM     15  H   LIG d   1       7.594   2.596  -6.917  0.00  0.00     0.034 H 
ATOM     16  H   LIG d   1       8.711   1.491  -7.584  0.00  0.00     0.034 H 
ENDROOT
BRANCH   1  17
ATOM     17  C   LIG d   1       7.253   0.153  -3.415  0.00  0.00    -0.018 C 
ATOM     18  H   LIG d   1       7.538  -0.748  -3.957  0.00  0.00     0.032 H 
ATOM     19  H   LIG d   1       7.850   0.234  -2.507  0.00  0.00     0.032 H 
BRANCH  17  20
ATOM     20  C   LIG d   1       5.792   0.080  -3.052  0.00  0.00    -0.047 A 
ATOM     21  C   LIG d   1       5.093   1.236  -2.764  0.00  0.00    -0.059 A 
ATOM     22  C   LIG d   1       3.753   1.169  -2.431  0.00  0.00    -0.061 A 
ATOM     23  H   LIG d   1       5.593   2.193  -2.799  0.00  0.00     0.062 H 
ATOM     24  C   LIG d   1       3.113  -0.056  -2.386  0.00  0.00    -0.062 A 
ATOM     25  H   LIG d   1       3.207   2.072  -2.205  0.00  0.00     0.062 H 
ATOM     26  C   LIG d   1       3.812  -1.212  -2.674  0.00  0.00    -0.061 A 
ATOM     27  H   LIG d   1       2.066  -0.108  -2.125  0.00  0.00     0.062 H 
ATOM     28  C   LIG d   1       5.150  -1.144  -3.013  0.00  0.00    -0.059 A 
ATOM     29  H   LIG d   1       3.312  -2.169  -2.638  0.00  0.00     0.062 H 
ATOM     30  H   LIG d   1       5.697  -2.048  -3.242  0.00  0.00     0.062 H 
ENDBRANCH  17  20
ENDBRANCH   1  17
TORSDOF 2
ENDMDL
MODEL 9
REMARK VINA RESULT:      -5.4      4.426      5.430
REMARK  2 active torsions:
REMARK  status: ('A' for Active; 'I' for Inactive)
REMARK    1  A    between atoms: C_4  and  C_7 
REMARK    2  A    between atoms: C_7  and  C_8 
ROOT
ATOM      1  C   LIG d   1       3.326  -0.057  -7.929  0.00  0.00     0.021 C 
ATOM      2  H   LIG d   1       3.802  -0.897  -7.669  0.00  0.00     0.038 H 
ATOM      3  C   LIG d   1       2.054  -0.403  -8.710  0.00  0.00    -0.043 C 
ATOM      4  C   LIG d   1       2.434  -1.065 -10.035  0.00  0.00    -0.052 C 
ATOM      5  C   LIG d   1       3.218  -0.078 -10.902  0.00  0.00    -0.046 C 
ATOM      6  C   LIG d   1       4.533   0.280 -10.203  0.00  0.00     0.006 C 
ATOM      7  C   LIG d   1       4.218   0.786  -8.813  0.00  0.00     0.137 C 
ATOM      8  O   LIG d   1       4.667   1.835  -8.419  0.00  0.00    -0.297 OA
ATOM      9  H   LIG d   1       1.489   0.509  -8.908  0.00  0.00     0.027 H 
ATOM     10  H   LIG d   1       1.441  -1.088  -8.124  0.00  0.00     0.027 H 
ATOM     11  H   LIG d   1       3.051  -1.942  -9.838  0.00  0.00     0.027 H 
ATOM     12  H   LIG d   1       1.530  -1.369 -10.561  0.00  0.00     0.027 H 
ATOM     13  H   LIG d   1       3.430  -0.534 -11.869  0.00  0.00     0.027 H 
ATOM     14  H   LIG d   1       2.626   0.826 -11.048  0.00  0.00     0.027 H 
ATOM     15  H   LIG d   1       5.113  -0.533 -10.149  0.00  0.00     0.034 H 
ATOM     16  H   LIG d   1       5.049   1.055 -10.770  0.00  0.00     0.034 H 
ENDROOT
BRANCH   1  17
ATOM     17  C   LIG d   1       2.958   0.731  -6.670  0.00  0.00    -0.018 C 
ATOM     18  H   LIG d   1       3.560   1.637  -6.620  0.00  0.00     0.032 H 
ATOM     19  H   LIG d   1       1.902   0.998  -6.704  0.00  0.00     0.032 H 
BRANCH  17  20
ATOM     20  C   LIG d   1       3.223  -0.117  -5.452  0.00  0.00    -0.047 A 
ATOM     21  C   LIG d   1       4.233  -1.059  -5.473  0.00  0.00    -0.059 A 
ATOM     22  C   LIG d   1       4.477  -1.836  -4.357  0.00  0.00    -0.061 A 
ATOM     23  H   LIG d   1       4.833  -1.189  -6.362  0.00  0.00     0.062 H 
ATOM     24  C   LIG d   1       3.710  -1.670  -3.218  0.00  0.00    -0.062 A 
ATOM     25  H   LIG d   1       5.266  -2.573  -4.373  0.00  0.00     0.062 H 
ATOM     26  C   LIG d   1       2.700  -0.727  -3.197  0.00  0.00    -0.061 A 
ATOM     27  H   LIG d   1       3.900  -2.278  -2.346  0.00  0.00     0.062 H 
ATOM     28  C   LIG d   1       2.460   0.053  -4.312  0.00  0.00    -0.059 A 
ATOM     29  H   LIG d   1       2.100  -0.598  -2.308  0.00  0.00     0.062 H 
ATOM     30  H   LIG d   1       1.673   0.794  -4.295  0.00  0.00     0.062 H 
ENDBRANCH  17  20
ENDBRANCH   1  17
TORSDOF 2
ENDMDL
