MODEL 1
REMARK VINA RESULT:      -4.3      0.000      0.000
REMARK  8 active torsions:
REMARK  status: ('A' for Active; 'I' for Inactive)
REMARK    1  A    between atoms: C_1  and  C_2 
REMARK    2  A    between atoms: C_2  and  C_3 
REMARK    3  A    between atoms: C_2  and  C_4 
REMARK    4  A    between atoms: C_2  and  C_5 
REMARK    5  A    between atoms: C_5  and  C_7 
REMARK    6  A    between atoms: C_5  and  N_25 
REMARK    7  A    between atoms: C_7  and  O_9 
REMARK    8  A    between atoms: O_9  and  C_10 
ROOT
ATOM      1  C   LIG d   1       4.299  -0.180  -2.761  0.00  0.00     0.015 C 
ENDROOT
BRANCH   1   2
ATOM      2  C   LIG d   1       5.592   0.038  -3.550  0.00  0.00    -0.054 C 
ATOM      3  H   LIG d   1       5.944  -0.917  -3.942  0.00  0.00     0.024 H 
ATOM      4  H   LIG d   1       5.402   0.722  -4.376  0.00  0.00     0.024 H 
ATOM      5  H   LIG d   1       6.351   0.462  -2.893  0.00  0.00     0.024 H 
ENDBRANCH   1   2
BRANCH   1   6
ATOM      6  C   LIG d   1       3.919   1.114  -2.039  0.00  0.00    -0.054 C 
ATOM      7  H   LIG d   1       4.389   1.133  -1.056  0.00  0.00     0.024 H 
ATOM      8  H   LIG d   1       4.262   1.969  -2.622  0.00  0.00     0.024 H 
ATOM      9  H   LIG d   1       2.836   1.162  -1.926  0.00  0.00     0.024 H 
ENDBRANCH   1   6
BRANCH   1  10
ATOM     10  C   LIG d   1       4.509  -1.295  -1.734  0.00  0.00    -0.054 C 
ATOM     11  H   LIG d   1       5.364  -1.052  -1.103  0.00  0.00     0.024 H 
ATOM     12  H   LIG d   1       3.616  -1.392  -1.116  0.00  0.00     0.024 H 
ATOM     13  H   LIG d   1       4.695  -2.236  -2.253  0.00  0.00     0.024 H 
ENDBRANCH   1  10
BRANCH   1  14
ATOM     14  C   LIG d   1       3.176  -0.577  -3.722  0.00  0.00     0.079 C 
ATOM     15  H   LIG d   1       2.220  -0.531  -3.201  0.00  0.00     0.097 H 
BRANCH  14  16
ATOM     16  C   LIG d   1       3.157   0.373  -4.892  0.00  0.00     0.356 C 
ATOM     17  O   LIG d   1       2.585   1.434  -4.799  0.00  0.00    -0.244 OA
BRANCH  16  18
ATOM     18  O   LIG d   1       3.774   0.041  -6.037  0.00  0.00    -0.464 OA
BRANCH  18  19
ATOM     19  C   LIG d   1       2.985   0.107  -7.253  0.00  0.00     0.082 C 
ATOM     20  H   LIG d   1       1.927   0.176  -6.998  0.00  0.00     0.066 H 
ATOM     21  H   LIG d   1       3.278   0.984  -7.829  0.00  0.00     0.066 H 
ATOM     22  H   LIG d   1       3.158  -0.792  -7.847  0.00  0.00     0.066 H 
ENDBRANCH  18  19
ENDBRANCH  16  18
ENDBRANCH  14  16
BRANCH  14  23
ATOM     23  N   LIG d   1       3.386  -1.947  -4.221  0.00  0.00     0.229 N 
ATOM     24  H   LIG d   1       3.884  -1.923  -5.109  0.00  0.00     0.200 HD
ATOM     25  H   LIG d   1       3.923  -2.487  -3.545  0.00  0.00     0.200 HD
ATOM     26  H   LIG d   1       2.474  -2.399  -4.361  0.00  0.00     0.200 HD
ENDBRANCH  14  23
ENDBRANCH   1  14
TORSDOF 8
ENDMDL
MODEL 2
REMARK VINA RESULT:      -4.1      1.607      2.275
REMARK  8 active torsions:
REMARK  status: ('A' for Active; 'I' for Inactive)
REMARK    1  A    between atoms: C_1  and  C_2 
REMARK    2  A    between atoms: C_2  and  C_3 
REMARK    3  A    between atoms: C_2  and  C_4 
REMARK    4  A    between atoms: C_2  and  C_5 
REMARK    5  A    between atoms: C_5  and  C_7 
REMARK    6  A    between atoms: C_5  and  N_25 
REMARK    7  A    between atoms: C_7  and  O_9 
REMARK    8  A    between atoms: O_9  and  C_10 
ROOT
ATOM      1  C   LIG d   1       4.251  -0.300  -2.632  0.00  0.00     0.015 C 
ENDROOT
BRANCH   1   2
ATOM      2  C   LIG d   1       4.341  -1.641  -1.901  0.00  0.00    -0.054 C 
ATOM      3  H   LIG d   1       4.221  -1.480  -0.830  0.00  0.00     0.024 H 
ATOM      4  H   LIG d   1       3.554  -2.303  -2.260  0.00  0.00     0.024 H 
ATOM      5  H   LIG d   1       5.314  -2.094  -2.094  0.00  0.00     0.024 H 
ENDBRANCH   1   2
BRANCH   1   6
ATOM      6  C   LIG d   1       4.539   0.836  -1.649  0.00  0.00    -0.054 C 
ATOM      7  H   LIG d   1       4.669   1.768  -2.200  0.00  0.00     0.024 H 
ATOM      8  H   LIG d   1       3.705   0.937  -0.955  0.00  0.00     0.024 H 
ATOM      9  H   LIG d   1       5.449   0.613  -1.092  0.00  0.00     0.024 H 
ENDBRANCH   1   6
BRANCH   1  10
ATOM     10  C   LIG d   1       2.845  -0.129  -3.213  0.00  0.00    -0.054 C 
ATOM     11  H   LIG d   1       2.229   0.436  -2.514  0.00  0.00     0.024 H 
ATOM     12  H   LIG d   1       2.907   0.409  -4.159  0.00  0.00     0.024 H 
ATOM     13  H   LIG d   1       2.400  -1.110  -3.381  0.00  0.00     0.024 H 
ENDBRANCH   1  10
BRANCH   1  14
ATOM     14  C   LIG d   1       5.278  -0.266  -3.765  0.00  0.00     0.079 C 
ATOM     15  H   LIG d   1       6.078  -0.975  -3.552  0.00  0.00     0.097 H 
BRANCH  14  16
ATOM     16  C   LIG d   1       4.608  -0.643  -5.062  0.00  0.00     0.356 C 
ATOM     17  O   LIG d   1       4.422  -1.807  -5.330  0.00  0.00    -0.244 OA
BRANCH  16  18
ATOM     18  O   LIG d   1       4.218   0.313  -5.919  0.00  0.00    -0.464 OA
BRANCH  18  19
ATOM     19  C   LIG d   1       3.265  -0.071  -6.945  0.00  0.00     0.082 C 
ATOM     20  H   LIG d   1       2.923   0.818  -7.475  0.00  0.00     0.066 H 
ATOM     21  H   LIG d   1       3.744  -0.752  -7.649  0.00  0.00     0.066 H 
ATOM     22  H   LIG d   1       2.413  -0.568  -6.481  0.00  0.00     0.066 H 
ENDBRANCH  18  19
ENDBRANCH  16  18
ENDBRANCH  14  16
BRANCH  14  23
ATOM     23  N   LIG d   1       5.854   1.083  -3.898  0.00  0.00     0.229 N 
ATOM     24  H   LIG d   1       5.432   1.712  -3.217  0.00  0.00     0.200 HD
ATOM     25  H   LIG d   1       6.861   1.049  -3.750  0.00  0.00     0.200 HD
ATOM     26  H   LIG d   1       5.667   1.439  -4.843  0.00  0.00     0.200 HD
ENDBRANCH  14  23
ENDBRANCH   1  14
TORSDOF 8
ENDMDL
MODEL 3
REMARK VINA RESULT:      -4.1      2.344      3.339
REMARK  8 active torsions:
REMARK  status: ('A' for Active; 'I' for Inactive)
REMARK    1  A    between atoms: C_1  and  C_2 
REMARK    2  A    between atoms: C_2  and  C_3 
REMARK    3  A    between atoms: C_2  and  C_4 
REMARK    4  A    between atoms: C_2  and  C_5 
REMARK    5  A    between atoms: C_5  and  C_7 
REMARK    6  A    between atoms: C_5  and  N_25 
REMARK    7  A    between atoms: C_7  and  O_9 
REMARK    8  A    between atoms: O_9  and  C_10 
ROOT
ATOM      1  C   LIG d   1       4.020  -0.365  -2.723  0.00  0.00     0.015 C 
ENDROOT
BRANCH   1   2
ATOM      2  C   LIG d   1       4.420  -1.632  -1.966  0.00  0.00    -0.054 C 
ATOM      3  H   LIG d   1       3.558  -2.295  -1.884  0.00  0.00     0.024 H 
ATOM      4  H   LIG d   1       5.219  -2.140  -2.506  0.00  0.00     0.024 H 
ATOM      5  H   LIG d   1       4.768  -1.365  -0.968  0.00  0.00     0.024 H 
ENDBRANCH   1   2
BRANCH   1   6
ATOM      6  C   LIG d   1       4.262   0.857  -1.836  0.00  0.00    -0.054 C 
ATOM      7  H   LIG d   1       3.873   0.663  -0.836  0.00  0.00     0.024 H 
ATOM      8  H   LIG d   1       5.332   1.056  -1.776  0.00  0.00     0.024 H 
ATOM      9  H   LIG d   1       3.755   1.723  -2.262  0.00  0.00     0.024 H 
ENDBRANCH   1   6
BRANCH   1  10
ATOM     10  C   LIG d   1       2.538  -0.439  -3.097  0.00  0.00    -0.054 C 
ATOM     11  H   LIG d   1       1.950   0.114  -2.365  0.00  0.00     0.024 H 
ATOM     12  H   LIG d   1       2.391  -0.005  -4.086  0.00  0.00     0.024 H 
ATOM     13  H   LIG d   1       2.218  -1.482  -3.107  0.00  0.00     0.024 H 
ENDBRANCH   1  10
BRANCH   1  14
ATOM     14  C   LIG d   1       4.860  -0.245  -3.997  0.00  0.00     0.079 C 
ATOM     15  H   LIG d   1       4.394   0.471  -4.674  0.00  0.00     0.097 H 
BRANCH  14  16
ATOM     16  C   LIG d   1       6.245   0.232  -3.641  0.00  0.00     0.356 C 
ATOM     17  O   LIG d   1       7.064  -0.552  -3.222  0.00  0.00    -0.244 OA
BRANCH  16  18
ATOM     18  O   LIG d   1       6.570   1.526  -3.790  0.00  0.00    -0.464 OA
BRANCH  18  19
ATOM     19  C   LIG d   1       7.984   1.846  -3.867  0.00  0.00     0.082 C 
ATOM     20  H   LIG d   1       8.517   1.025  -4.347  0.00  0.00     0.066 H 
ATOM     21  H   LIG d   1       8.118   2.757  -4.451  0.00  0.00     0.066 H 
ATOM     22  H   LIG d   1       8.377   1.997  -2.862  0.00  0.00     0.066 H 
ENDBRANCH  18  19
ENDBRANCH  16  18
ENDBRANCH  14  16
BRANCH  14  23
ATOM     23  N   LIG d   1       4.961  -1.550  -4.672  0.00  0.00     0.229 N 
ATOM     24  H   LIG d   1       5.903  -1.682  -5.038  0.00  0.00     0.200 HD
ATOM     25  H   LIG d   1       4.743  -2.299  -4.018  0.00  0.00     0.200 HD
ATOM     26  H   LIG d   1       4.293  -1.580  -5.451  0.00  0.00     0.200 HD
ENDBRANCH  14  23
ENDBRANCH   1  14
TORSDOF 8
ENDMDL
MODEL 4
REMARK VINA RESULT:      -4.0      1.934      2.560
REMARK  8 active torsions:
REMARK  status: ('A' for Active; 'I' for Inactive)
REMARK    1  A    between atoms: C_1  and  C_2 
REMARK    2  A    between atoms: C_2  and  C_3 
REMARK    3  A    between atoms: C_2  and  C_4 
REMARK    4  A    between atoms: C_2  and  C_5 
REMARK    5  A    between atoms: C_5  and  C_7 
REMARK    6  A    between atoms: C_5  and  N_25 
REMARK    7  A    between atoms: C_7  and  O_9 
REMARK    8  A    between atoms: O_9  and  C_10 
ROOT
ATOM      1  C   LIG d   1       4.275  -0.278  -2.631  0.00  0.00     0.015 C 
ENDROOT
BRANCH   1   2
ATOM      2  C   LIG d   1       4.535   0.868  -1.651  0.00  0.00    -0.054 C 
ATOM      3  H   LIG d   1       5.188   0.520  -0.850  0.00  0.00     0.024 H 
ATOM      4  H   LIG d   1       5.014   1.693  -2.177  0.00  0.00     0.024 H 
ATOM      5  H   LIG d   1       3.589   1.206  -1.227  0.00  0.00     0.024 H 
ENDBRANCH   1   2
BRANCH   1   6
ATOM      6  C   LIG d   1       2.896  -0.099  -3.268  0.00  0.00    -0.054 C 
ATOM      7  H   LIG d   1       2.214  -0.853  -2.874  0.00  0.00     0.024 H 
ATOM      8  H   LIG d   1       2.514   0.894  -3.035  0.00  0.00     0.024 H 
ATOM      9  H   LIG d   1       2.978  -0.213  -4.350  0.00  0.00     0.024 H 
ENDBRANCH   1   6
BRANCH   1  10
ATOM     10  C   LIG d   1       4.324  -1.611  -1.882  0.00  0.00    -0.054 C 
ATOM     11  H   LIG d   1       4.818  -1.471  -0.921  0.00  0.00     0.024 H 
ATOM     12  H   LIG d   1       3.308  -1.973  -1.719  0.00  0.00     0.024 H 
ATOM     13  H   LIG d   1       4.878  -2.340  -2.474  0.00  0.00     0.024 H 
ENDBRANCH   1  10
BRANCH   1  14
ATOM     14  C   LIG d   1       5.347  -0.268  -3.723  0.00  0.00     0.079 C 
ATOM     15  H   LIG d   1       6.142  -0.965  -3.459  0.00  0.00     0.097 H 
BRANCH  14  16
ATOM     16  C   LIG d   1       4.732  -0.682  -5.034  0.00  0.00     0.356 C 
ATOM     17  O   LIG d   1       4.445   0.154  -5.858  0.00  0.00    -0.244 OA
BRANCH  16  18
ATOM     18  O   LIG d   1       4.502  -1.980  -5.288  0.00  0.00    -0.464 OA
BRANCH  18  19
ATOM     19  C   LIG d   1       5.624  -2.889  -5.141  0.00  0.00     0.082 C 
ATOM     20  H   LIG d   1       5.285  -3.813  -4.673  0.00  0.00     0.066 H 
ATOM     21  H   LIG d   1       6.043  -3.110  -6.122  0.00  0.00     0.066 H 
ATOM     22  H   LIG d   1       6.388  -2.424  -4.516  0.00  0.00     0.066 H 
ENDBRANCH  18  19
ENDBRANCH  16  18
ENDBRANCH  14  16
BRANCH  14  23
ATOM     23  N   LIG d   1       5.921   1.081  -3.868  0.00  0.00     0.229 N 
ATOM     24  H   LIG d   1       6.928   1.019  -4.011  0.00  0.00     0.200 HD
ATOM     25  H   LIG d   1       5.495   1.559  -4.660  0.00  0.00     0.200 HD
ATOM     26  H   LIG d   1       5.738   1.621  -3.014  0.00  0.00     0.200 HD
ENDBRANCH  14  23
ENDBRANCH   1  14
TORSDOF 8
ENDMDL
MODEL 5
REMARK VINA RESULT:      -4.0      2.486      3.234
REMARK  8 active torsions:
REMARK  status: ('A' for Active; 'I' for Inactive)
REMARK    1  A    between atoms: C_1  and  C_2 
REMARK    2  A    between atoms: C_2  and  C_3 
REMARK    3  A    between atoms: C_2  and  C_4 
REMARK    4  A    between atoms: C_2  and  C_5 
REMARK    5  A    between atoms: C_5  and  C_7 
REMARK    6  A    between atoms: C_5  and  N_25 
REMARK    7  A    between atoms: C_7  and  O_9 
REMARK    8  A    between atoms: O_9  and  C_10 
ROOT
ATOM      1  C   LIG d   1       3.896  -0.450  -2.791  0.00  0.00     0.015 C 
ENDROOT
BRANCH   1   2
ATOM      2  C   LIG d   1       4.116   0.870  -2.051  0.00  0.00    -0.054 C 
ATOM      3  H   LIG d   1       5.174   0.983  -1.814  0.00  0.00     0.024 H 
ATOM      4  H   LIG d   1       3.794   1.698  -2.682  0.00  0.00     0.024 H 
ATOM      5  H   LIG d   1       3.536   0.870  -1.127  0.00  0.00     0.024 H 
ENDBRANCH   1   2
BRANCH   1   6
ATOM      6  C   LIG d   1       2.411  -0.607  -3.122  0.00  0.00    -0.054 C 
ATOM      7  H   LIG d   1       1.828  -0.574  -2.201  0.00  0.00     0.024 H 
ATOM      8  H   LIG d   1       2.098   0.204  -3.780  0.00  0.00     0.024 H 
ATOM      9  H   LIG d   1       2.249  -1.563  -3.621  0.00  0.00     0.024 H 
ENDBRANCH   1   6
BRANCH   1  10
ATOM     10  C   LIG d   1       4.348  -1.614  -1.906  0.00  0.00    -0.054 C 
ATOM     11  H   LIG d   1       3.976  -2.550  -2.319  0.00  0.00     0.024 H 
ATOM     12  H   LIG d   1       5.438  -1.640  -1.871  0.00  0.00     0.024 H 
ATOM     13  H   LIG d   1       3.955  -1.477  -0.898  0.00  0.00     0.024 H 
ENDBRANCH   1  10
BRANCH   1  14
ATOM     14  C   LIG d   1       4.710  -0.449  -4.087  0.00  0.00     0.079 C 
ATOM     15  H   LIG d   1       4.845   0.577  -4.431  0.00  0.00     0.097 H 
BRANCH  14  16
ATOM     16  C   LIG d   1       6.057  -1.075  -3.834  0.00  0.00     0.356 C 
ATOM     17  O   LIG d   1       6.254  -2.228  -4.138  0.00  0.00    -0.244 OA
BRANCH  16  18
ATOM     18  O   LIG d   1       7.039  -0.352  -3.272  0.00  0.00    -0.464 OA
BRANCH  18  19
ATOM     19  C   LIG d   1       7.335   0.936  -3.873  0.00  0.00     0.082 C 
ATOM     20  H   LIG d   1       8.071   0.807  -4.666  0.00  0.00     0.066 H 
ATOM     21  H   LIG d   1       6.422   1.361  -4.289  0.00  0.00     0.066 H 
ATOM     22  H   LIG d   1       7.735   1.608  -3.112  0.00  0.00     0.066 H 
ENDBRANCH  18  19
ENDBRANCH  16  18
ENDBRANCH  14  16
BRANCH  14  23
ATOM     23  N   LIG d   1       4.013  -1.218  -5.133  0.00  0.00     0.229 N 
ATOM     24  H   LIG d   1       3.262  -0.660  -5.536  0.00  0.00     0.200 HD
ATOM     25  H   LIG d   1       4.668  -1.485  -5.866  0.00  0.00     0.200 HD
ATOM     26  H   LIG d   1       3.612  -2.068  -4.717  0.00  0.00     0.200 HD
ENDBRANCH  14  23
ENDBRANCH   1  14
TORSDOF 8
ENDMDL
MODEL 6
REMARK VINA RESULT:      -3.9      2.354      3.222
REMARK  8 active torsions:
REMARK  status: ('A' for Active; 'I' for Inactive)
REMARK    1  A    between atoms: C_1  and  C_2 
REMARK    2  A    between atoms: C_2  and  C_3 
REMARK    3  A    between atoms: C_2  and  C_4 
REMARK    4  A    between atoms: C_2  and  C_5 
REMARK    5  A    between atoms: C_5  and  C_7 
REMARK    6  A    between atoms: C_5  and  N_25 
REMARK    7  A    between atoms: C_7  and  O_9 
REMARK    8  A    between atoms: O_9  and  C_10 
ROOT
ATOM      1  C   LIG d   1       4.023  -0.392  -2.726  0.00  0.00     0.015 C 
ENDROOT
BRANCH   1   2
ATOM      2  C   LIG d   1       2.574  -0.565  -3.185  0.00  0.00    -0.054 C 
ATOM      3  H   LIG d   1       2.214  -1.550  -2.887  0.00  0.00     0.024 H 
ATOM      4  H   LIG d   1       1.953   0.203  -2.725  0.00  0.00     0.024 H 
ATOM      5  H   LIG d   1       2.523  -0.473  -4.270  0.00  0.00     0.024 H 
ENDBRANCH   1   2
BRANCH   1   6
ATOM      6  C   LIG d   1       4.425  -1.577  -1.847  0.00  0.00    -0.054 C 
ATOM      7  H   LIG d   1       3.536  -1.997  -1.375  0.00  0.00     0.024 H 
ATOM      8  H   LIG d   1       4.905  -2.338  -2.461  0.00  0.00     0.024 H 
ATOM      9  H   LIG d   1       5.119  -1.239  -1.077  0.00  0.00     0.024 H 
ENDBRANCH   1   6
BRANCH   1  10
ATOM     10  C   LIG d   1       4.153   0.906  -1.926  0.00  0.00    -0.054 C 
ATOM     11  H   LIG d   1       3.931   1.755  -2.572  0.00  0.00     0.024 H 
ATOM     12  H   LIG d   1       3.451   0.890  -1.092  0.00  0.00     0.024 H 
ATOM     13  H   LIG d   1       5.170   0.996  -1.543  0.00  0.00     0.024 H 
ENDBRANCH   1  10
BRANCH   1  14
ATOM     14  C   LIG d   1       4.941  -0.330  -3.949  0.00  0.00     0.079 C 
ATOM     15  H   LIG d   1       5.805   0.295  -3.724  0.00  0.00     0.097 H 
BRANCH  14  16
ATOM     16  C   LIG d   1       5.406  -1.721  -4.298  0.00  0.00     0.356 C 
ATOM     17  O   LIG d   1       6.502  -2.096  -3.953  0.00  0.00    -0.244 OA
BRANCH  16  18
ATOM     18  O   LIG d   1       4.603  -2.543  -4.992  0.00  0.00    -0.464 OA
BRANCH  18  19
ATOM     19  C   LIG d   1       4.975  -3.946  -5.033  0.00  0.00     0.082 C 
ATOM     20  H   LIG d   1       5.771  -4.133  -4.314  0.00  0.00     0.066 H 
ATOM     21  H   LIG d   1       4.108  -4.558  -4.784  0.00  0.00     0.066 H 
ATOM     22  H   LIG d   1       5.322  -4.200  -6.036  0.00  0.00     0.066 H 
ENDBRANCH  18  19
ENDBRANCH  16  18
ENDBRANCH  14  16
BRANCH  14  23
ATOM     23  N   LIG d   1       4.224   0.239  -5.103  0.00  0.00     0.229 N 
ATOM     24  H   LIG d   1       4.888   0.533  -5.818  0.00  0.00     0.200 HD
ATOM     25  H   LIG d   1       3.588  -0.453  -5.496  0.00  0.00     0.200 HD
ATOM     26  H   LIG d   1       3.681   1.055  -4.796  0.00  0.00     0.200 HD
ENDBRANCH  14  23
ENDBRANCH   1  14
TORSDOF 8
ENDMDL
MODEL 7
REMARK VINA RESULT:      -3.8      2.292      3.237
REMARK  8 active torsions:
REMARK  status: ('A' for Active; 'I' for Inactive)
REMARK    1  A    between atoms: C_1  and  C_2 
REMARK    2  A    between atoms: C_2  and  C_3 
REMARK    3  A    between atoms: C_2  and  C_4 
REMARK    4  A    between atoms: C_2  and  C_5 
REMARK    5  A    between atoms: C_5  and  C_7 
REMARK    6  A    between atoms: C_5  and  N_25 
REMARK    7  A    between atoms: C_7  and  O_9 
REMARK    8  A    between atoms: O_9  and  C_10 
ROOT
ATOM      1  C   LIG d   1       4.029  -0.363  -2.724  0.00  0.00     0.015 C 
ENDROOT
BRANCH   1   2
ATOM      2  C   LIG d   1       2.526  -0.465  -2.994  0.00  0.00    -0.054 C 
ATOM      3  H   LIG d   1       1.985  -0.450  -2.047  0.00  0.00     0.024 H 
ATOM      4  H   LIG d   1       2.210   0.378  -3.607  0.00  0.00     0.024 H 
ATOM      5  H   LIG d   1       2.314  -1.397  -3.518  0.00  0.00     0.024 H 
ENDBRANCH   1   2
BRANCH   1   6
ATOM      6  C   LIG d   1       4.515  -1.649  -2.053  0.00  0.00    -0.054 C 
ATOM      7  H   LIG d   1       5.487  -1.473  -1.593  0.00  0.00     0.024 H 
ATOM      8  H   LIG d   1       3.800  -1.952  -1.288  0.00  0.00     0.024 H 
ATOM      9  H   LIG d   1       4.603  -2.438  -2.801  0.00  0.00     0.024 H 
ENDBRANCH   1   6
BRANCH   1  10
ATOM     10  C   LIG d   1       4.303   0.828  -1.804  0.00  0.00    -0.054 C 
ATOM     11  H   LIG d   1       5.042   0.547  -1.055  0.00  0.00     0.024 H 
ATOM     12  H   LIG d   1       4.681   1.663  -2.394  0.00  0.00     0.024 H 
ATOM     13  H   LIG d   1       3.377   1.125  -1.308  0.00  0.00     0.024 H 
ENDBRANCH   1  10
BRANCH   1  14
ATOM     14  C   LIG d   1       4.772  -0.166  -4.047  0.00  0.00     0.079 C 
ATOM     15  H   LIG d   1       5.516   0.622  -3.932  0.00  0.00     0.097 H 
BRANCH  14  16
ATOM     16  C   LIG d   1       5.457  -1.451  -4.435  0.00  0.00     0.356 C 
ATOM     17  O   LIG d   1       4.827  -2.335  -4.967  0.00  0.00    -0.244 OA
BRANCH  16  18
ATOM     18  O   LIG d   1       6.766  -1.615  -4.189  0.00  0.00    -0.464 OA
BRANCH  18  19
ATOM     19  C   LIG d   1       7.607  -0.435  -4.280  0.00  0.00     0.082 C 
ATOM     20  H   LIG d   1       8.517  -0.678  -4.828  0.00  0.00     0.066 H 
ATOM     21  H   LIG d   1       7.068   0.355  -4.803  0.00  0.00     0.066 H 
ATOM     22  H   LIG d   1       7.866  -0.095  -3.277  0.00  0.00     0.066 H 
ENDBRANCH  18  19
ENDBRANCH  16  18
ENDBRANCH  14  16
BRANCH  14  23
ATOM     23  N   LIG d   1       3.830   0.215  -5.114  0.00  0.00     0.229 N 
ATOM     24  H   LIG d   1       3.311  -0.602  -5.431  0.00  0.00     0.200 HD
ATOM     25  H   LIG d   1       3.179   0.919  -4.771  0.00  0.00     0.200 HD
ATOM     26  H   LIG d   1       4.356   0.605  -5.906  0.00  0.00     0.200 HD
ENDBRANCH  14  23
ENDBRANCH   1  14
TORSDOF 8
ENDMDL
MODEL 8
REMARK VINA RESULT:      -3.7      1.596      2.049
REMARK  8 active torsions:
REMARK  status: ('A' for Active; 'I' for Inactive)
REMARK    1  A    between atoms: C_1  and  C_2 
REMARK    2  A    between atoms: C_2  and  C_3 
REMARK    3  A    between atoms: C_2  and  C_4 
REMARK    4  A    between atoms: C_2  and  C_5 
REMARK    5  A    between atoms: C_5  and  C_7 
REMARK    6  A    between atoms: C_5  and  N_25 
REMARK    7  A    between atoms: C_7  and  O_9 
REMARK    8  A    between atoms: O_9  and  C_10 
ROOT
ATOM      1  C   LIG d   1       4.417  -0.407  -2.784  0.00  0.00     0.015 C 
ENDROOT
BRANCH   1   2
ATOM      2  C   LIG d   1       3.185  -1.309  -2.699  0.00  0.00    -0.054 C 
ATOM      3  H   LIG d   1       2.939  -1.683  -3.693  0.00  0.00     0.024 H 
ATOM      4  H   LIG d   1       3.394  -2.149  -2.037  0.00  0.00     0.024 H 
ATOM      5  H   LIG d   1       2.343  -0.738  -2.307  0.00  0.00     0.024 H 
ENDBRANCH   1   2
BRANCH   1   6
ATOM      6  C   LIG d   1       5.660  -1.265  -3.030  0.00  0.00    -0.054 C 
ATOM      7  H   LIG d   1       6.528  -0.784  -2.578  0.00  0.00     0.024 H 
ATOM      8  H   LIG d   1       5.517  -2.249  -2.584  0.00  0.00     0.024 H 
ATOM      9  H   LIG d   1       5.821  -1.372  -4.103  0.00  0.00     0.024 H 
ENDBRANCH   1   6
BRANCH   1  10
ATOM     10  C   LIG d   1       4.579   0.362  -1.471  0.00  0.00    -0.054 C 
ATOM     11  H   LIG d   1       4.778   1.411  -1.686  0.00  0.00     0.024 H 
ATOM     12  H   LIG d   1       3.662   0.278  -0.886  0.00  0.00     0.024 H 
ATOM     13  H   LIG d   1       5.410  -0.059  -0.904  0.00  0.00     0.024 H 
ENDBRANCH   1  10
BRANCH   1  14
ATOM     14  C   LIG d   1       4.246   0.584  -3.937  0.00  0.00     0.079 C 
ATOM     15  H   LIG d   1       5.220   0.808  -4.372  0.00  0.00     0.097 H 
BRANCH  14  16
ATOM     16  C   LIG d   1       3.354  -0.021  -4.990  0.00  0.00     0.356 C 
ATOM     17  O   LIG d   1       2.180   0.265  -5.024  0.00  0.00    -0.244 OA
BRANCH  16  18
ATOM     18  O   LIG d   1       3.862  -0.876  -5.891  0.00  0.00    -0.464 OA
BRANCH  18  19
ATOM     19  C   LIG d   1       3.724  -0.518  -7.291  0.00  0.00     0.082 C 
ATOM     20  H   LIG d   1       3.404  -1.391  -7.860  0.00  0.00     0.066 H 
ATOM     21  H   LIG d   1       2.982   0.274  -7.392  0.00  0.00     0.066 H 
ATOM     22  H   LIG d   1       4.683  -0.167  -7.672  0.00  0.00     0.066 H 
ENDBRANCH  18  19
ENDBRANCH  16  18
ENDBRANCH  14  16
BRANCH  14  23
ATOM     23  N   LIG d   1       3.636   1.835  -3.454  0.00  0.00     0.229 N 
ATOM     24  H   LIG d   1       2.945   2.169  -4.124  0.00  0.00     0.200 HD
ATOM     25  H   LIG d   1       3.188   1.680  -2.552  0.00  0.00     0.200 HD
ATOM     26  H   LIG d   1       4.368   2.548  -3.346  0.00  0.00     0.200 HD
ENDBRANCH  14  23
ENDBRANCH   1  14
TORSDOF 8
ENDMDL
MODEL 9
REMARK VINA RESULT:      -3.6      1.708      2.124
REMARK  8 active torsions:
REMARK  status: ('A' for Active; 'I' for Inactive)
REMARK    1  A    between atoms: C_1  and  C_2 
REMARK    2  A    between atoms: C_2  and  C_3 
REMARK    3  A    between atoms: C_2  and  C_4 
REMARK    4  A    between atoms: C_2  and  C_5 
REMARK    5  A    between atoms: C_5  and  C_7 
REMARK    6  A    between atoms: C_5  and  N_25 
REMARK    7  A    between atoms: C_7  and  O_9 
REMARK    8  A    between atoms: O_9  and  C_10 
ROOT
ATOM      1  C   LIG d   1       4.623  -1.733  -3.541  0.00  0.00     0.015 C 
ENDROOT
BRANCH   1   2
ATOM      2  C   LIG d   1       4.684  -2.881  -4.550  0.00  0.00    -0.054 C 
ATOM      3  H   LIG d   1       5.718  -3.206  -4.670  0.00  0.00     0.024 H 
ATOM      4  H   LIG d   1       4.081  -3.714  -4.189  0.00  0.00     0.024 H 
ATOM      5  H   LIG d   1       4.297  -2.542  -5.511  0.00  0.00     0.024 H 
ENDBRANCH   1   2
BRANCH   1   6
ATOM      6  C   LIG d   1       6.042  -1.349  -3.119  0.00  0.00    -0.054 C 
ATOM      7  H   LIG d   1       6.681  -2.233  -3.147  0.00  0.00     0.024 H 
ATOM      8  H   LIG d   1       6.433  -0.597  -3.804  0.00  0.00     0.024 H 
ATOM      9  H   LIG d   1       6.024  -0.946  -2.107  0.00  0.00     0.024 H 
ENDBRANCH   1   6
BRANCH   1  10
ATOM     10  C   LIG d   1       3.826  -2.176  -2.312  0.00  0.00    -0.054 C 
ATOM     11  H   LIG d   1       3.916  -3.254  -2.189  0.00  0.00     0.024 H 
ATOM     12  H   LIG d   1       4.218  -1.675  -1.426  0.00  0.00     0.024 H 
ATOM     13  H   LIG d   1       2.777  -1.910  -2.444  0.00  0.00     0.024 H 
ENDBRANCH   1  10
BRANCH   1  14
ATOM     14  C   LIG d   1       3.938  -0.525  -4.184  0.00  0.00     0.079 C 
ATOM     15  H   LIG d   1       4.194   0.377  -3.628  0.00  0.00     0.097 H 
BRANCH  14  16
ATOM     16  C   LIG d   1       4.404  -0.384  -5.610  0.00  0.00     0.356 C 
ATOM     17  O   LIG d   1       5.483   0.105  -5.848  0.00  0.00    -0.244 OA
BRANCH  16  18
ATOM     18  O   LIG d   1       3.621  -0.802  -6.617  0.00  0.00    -0.464 OA
BRANCH  18  19
ATOM     19  C   LIG d   1       3.185   0.200  -7.573  0.00  0.00     0.082 C 
ATOM     20  H   LIG d   1       3.538   1.182  -7.257  0.00  0.00     0.066 H 
ATOM     21  H   LIG d   1       3.592  -0.034  -8.556  0.00  0.00     0.066 H 
ATOM     22  H   LIG d   1       2.095   0.205  -7.623  0.00  0.00     0.066 H 
ENDBRANCH  18  19
ENDBRANCH  16  18
ENDBRANCH  14  16
BRANCH  14  23
ATOM     23  N   LIG d   1       2.475  -0.697  -4.173  0.00  0.00     0.229 N 
ATOM     24  H   LIG d   1       2.224  -1.531  -3.644  0.00  0.00     0.200 HD
ATOM     25  H   LIG d   1       2.031   0.117  -3.751  0.00  0.00     0.200 HD
ATOM     26  H   LIG d   1       2.138  -0.799  -5.138  0.00  0.00     0.200 HD
ENDBRANCH  14  23
ENDBRANCH   1  14
TORSDOF 8
ENDMDL
MODEL 10
REMARK VINA RESULT:      -3.5      2.078      2.558
REMARK  8 active torsions:
REMARK  status: ('A' for Active; 'I' for Inactive)
REMARK    1  A    between atoms: C_1  and  C_2 
REMARK    2  A    between atoms: C_2  and  C_3 
REMARK    3  A    between atoms: C_2  and  C_4 
REMARK    4  A    between atoms: C_2  and  C_5 
REMARK    5  A    between atoms: C_5  and  C_7 
REMARK    6  A    between atoms: C_5  and  N_25 
REMARK    7  A    between atoms: C_7  and  O_9 
REMARK    8  A    between atoms: O_9  and  C_10 
ROOT
ATOM      1  C   LIG d   1       5.244  -1.522  -3.433  0.00  0.00     0.015 C 
ENDROOT
BRANCH   1   2
ATOM      2  C   LIG d   1       6.741  -1.635  -3.140  0.00  0.00    -0.054 C 
ATOM      3  H   LIG d   1       7.152  -2.494  -3.671  0.00  0.00     0.024 H 
ATOM      4  H   LIG d   1       7.245  -0.727  -3.472  0.00  0.00     0.024 H 
ATOM      5  H   LIG d   1       6.893  -1.764  -2.068  0.00  0.00     0.024 H 
ENDBRANCH   1   2
BRANCH   1   6
ATOM      6  C   LIG d   1       4.489  -1.246  -2.131  0.00  0.00    -0.054 C 
ATOM      7  H   LIG d   1       3.827  -0.392  -2.270  0.00  0.00     0.024 H 
ATOM      8  H   LIG d   1       3.901  -2.123  -1.860  0.00  0.00     0.024 H 
ATOM      9  H   LIG d   1       5.203  -1.028  -1.336  0.00  0.00     0.024 H 
ENDBRANCH   1   6
BRANCH   1  10
ATOM     10  C   LIG d   1       4.743  -2.831  -4.046  0.00  0.00    -0.054 C 
ATOM     11  H   LIG d   1       3.962  -2.616  -4.775  0.00  0.00     0.024 H 
ATOM     12  H   LIG d   1       5.571  -3.341  -4.540  0.00  0.00     0.024 H 
ATOM     13  H   LIG d   1       4.341  -3.471  -3.260  0.00  0.00     0.024 H 
ENDBRANCH   1  10
BRANCH   1  14
ATOM     14  C   LIG d   1       5.002  -0.374  -4.415  0.00  0.00     0.079 C 
ATOM     15  H   LIG d   1       4.250  -0.673  -5.146  0.00  0.00     0.097 H 
BRANCH  14  16
ATOM     16  C   LIG d   1       4.514   0.837  -3.662  0.00  0.00     0.356 C 
ATOM     17  O   LIG d   1       5.286   1.485  -2.995  0.00  0.00    -0.244 OA
BRANCH  16  18
ATOM     18  O   LIG d   1       3.222   1.196  -3.732  0.00  0.00    -0.464 OA
BRANCH  18  19
ATOM     19  C   LIG d   1       2.417   0.563  -4.761  0.00  0.00     0.082 C 
ATOM     20  H   LIG d   1       1.819   1.319  -5.270  0.00  0.00     0.066 H 
ATOM     21  H   LIG d   1       3.070   0.069  -5.480  0.00  0.00     0.066 H 
ATOM     22  H   LIG d   1       1.757  -0.175  -4.302  0.00  0.00     0.066 H 
ENDBRANCH  18  19
ENDBRANCH  16  18
ENDBRANCH  14  16
BRANCH  14  23
ATOM     23  N   LIG d   1       6.248  -0.029  -5.121  0.00  0.00     0.229 N 
ATOM     24  H   LIG d   1       6.093   0.772  -5.732  0.00  0.00     0.200 HD
ATOM     25  H   LIG d   1       6.980   0.193  -4.449  0.00  0.00     0.200 HD
ATOM     26  H   LIG d   1       6.547  -0.830  -5.690  0.00  0.00     0.200 HD
ENDBRANCH  14  23
ENDBRANCH   1  14
TORSDOF 8
ENDMDL
