MODEL 1
REMARK VINA RESULT:      -6.1      0.000      0.000
REMARK  2 active torsions:
REMARK  status: ('A' for Active; 'I' for Inactive)
REMARK    1  A    between atoms: C_4  and  C_7 
REMARK    2  A    between atoms: C_8  and  C_17 
ROOT
ATOM      1  C   LIG d   1       4.454  -1.643  -5.097  0.00  0.00     0.100 A 
ATOM      2  C   LIG d   1       4.292  -1.403  -6.453  0.00  0.00     0.093 A 
ATOM      3  N   LIG d   1       4.349  -2.649  -7.089  0.00  0.00    -0.306 N 
ATOM      4  C   LIG d   1       4.510  -3.552  -6.102  0.00  0.00     0.252 A 
ATOM      5  N   LIG d   1       4.589  -2.967  -4.941  0.00  0.00    -0.211 NA
ATOM      6  S   LIG d   1       4.521  -5.152  -6.884  0.00  0.00     0.032 S 
ATOM      7  O   LIG d   1       5.883  -5.552  -6.937  0.00  0.00    -0.166 OA
ATOM      8  O   LIG d   1       3.544  -5.928  -6.202  0.00  0.00    -0.166 OA
ATOM      9  C   LIG d   1       3.916  -4.632  -8.544  0.00  0.00     0.092 C 
ATOM     10  C   LIG d   1       4.294  -3.133  -8.473  0.00  0.00     0.046 C 
ATOM     11  H   LIG d   1       2.839  -4.769  -8.638  0.00  0.00     0.052 H 
ATOM     12  H   LIG d   1       4.453  -5.142  -9.344  0.00  0.00     0.052 H 
ATOM     13  H   LIG d   1       3.553  -2.553  -9.024  0.00  0.00     0.051 H 
ATOM     14  H   LIG d   1       5.270  -2.992  -8.937  0.00  0.00     0.051 H 
ENDROOT
BRANCH   1  15
ATOM     15  C   LIG d   1       4.475  -0.624  -4.022  0.00  0.00     0.003 A 
ATOM     16  C   LIG d   1       5.665   0.025  -3.695  0.00  0.00    -0.052 A 
ATOM     17  C   LIG d   1       5.678   0.973  -2.692  0.00  0.00    -0.061 A 
ATOM     18  H   LIG d   1       6.575  -0.213  -4.226  0.00  0.00     0.062 H 
ATOM     19  C   LIG d   1       4.512   1.279  -2.012  0.00  0.00    -0.062 A 
ATOM     20  H   LIG d   1       6.598   1.477  -2.439  0.00  0.00     0.062 H 
ATOM     21  C   LIG d   1       3.329   0.638  -2.331  0.00  0.00    -0.061 A 
ATOM     22  H   LIG d   1       4.527   2.022  -1.227  0.00  0.00     0.062 H 
ATOM     23  C   LIG d   1       3.303  -0.307  -3.336  0.00  0.00    -0.052 A 
ATOM     24  H   LIG d   1       2.423   0.881  -1.796  0.00  0.00     0.062 H 
ATOM     25  H   LIG d   1       2.377  -0.803  -3.588  0.00  0.00     0.062 H 
ENDBRANCH   1  15
BRANCH   2  26
ATOM     26  C   LIG d   1       4.099  -0.103  -7.093  0.00  0.00     0.090 C 
ATOM     27  O   LIG d   1       2.975   0.323  -7.279  0.00  0.00    -0.543 OA
ATOM     28  O   LIG d   1       5.168   0.625  -7.479  0.00  0.00    -0.543 OA
ENDBRANCH   2  26
TORSDOF 2
ENDMDL
MODEL 2
REMARK VINA RESULT:      -6.1      2.164      3.614
REMARK  2 active torsions:
REMARK  status: ('A' for Active; 'I' for Inactive)
REMARK    1  A    between atoms: C_4  and  C_7 
REMARK    2  A    between atoms: C_8  and  C_17 
ROOT
ATOM      1  C   LIG d   1       3.978  -0.437  -5.821  0.00  0.00     0.100 A 
ATOM      2  C   LIG d   1       4.324  -1.671  -6.349  0.00  0.00     0.093 A 
ATOM      3  N   LIG d   1       3.900  -1.667  -7.684  0.00  0.00    -0.306 N 
ATOM      4  C   LIG d   1       3.361  -0.449  -7.888  0.00  0.00     0.252 A 
ATOM      5  N   LIG d   1       3.389   0.264  -6.800  0.00  0.00    -0.211 NA
ATOM      6  S   LIG d   1       2.872  -0.400  -9.601  0.00  0.00     0.032 S 
ATOM      7  O   LIG d   1       1.464  -0.592  -9.611  0.00  0.00    -0.166 OA
ATOM      8  O   LIG d   1       3.467   0.772 -10.144  0.00  0.00    -0.166 OA
ATOM      9  C   LIG d   1       3.753  -1.916 -10.165  0.00  0.00     0.092 C 
ATOM     10  C   LIG d   1       3.903  -2.624  -8.797  0.00  0.00     0.046 C 
ATOM     11  H   LIG d   1       4.723  -1.676 -10.600  0.00  0.00     0.052 H 
ATOM     12  H   LIG d   1       3.143  -2.501 -10.854  0.00  0.00     0.052 H 
ATOM     13  H   LIG d   1       4.840  -3.181  -8.786  0.00  0.00     0.051 H 
ATOM     14  H   LIG d   1       3.074  -3.321  -8.667  0.00  0.00     0.051 H 
ENDROOT
BRANCH   1  15
ATOM     15  C   LIG d   1       4.216   0.021  -4.433  0.00  0.00     0.003 A 
ATOM     16  C   LIG d   1       5.518   0.219  -3.974  0.00  0.00    -0.052 A 
ATOM     17  C   LIG d   1       5.733   0.645  -2.679  0.00  0.00    -0.061 A 
ATOM     18  H   LIG d   1       6.356   0.038  -4.631  0.00  0.00     0.062 H 
ATOM     19  C   LIG d   1       4.660   0.877  -1.837  0.00  0.00    -0.062 A 
ATOM     20  H   LIG d   1       6.741   0.800  -2.323  0.00  0.00     0.062 H 
ATOM     21  C   LIG d   1       3.366   0.682  -2.286  0.00  0.00    -0.061 A 
ATOM     22  H   LIG d   1       4.833   1.211  -0.825  0.00  0.00     0.062 H 
ATOM     23  C   LIG d   1       3.139   0.262  -3.580  0.00  0.00    -0.052 A 
ATOM     24  H   LIG d   1       2.533   0.864  -1.624  0.00  0.00     0.062 H 
ATOM     25  H   LIG d   1       2.128   0.114  -3.931  0.00  0.00     0.062 H 
ENDBRANCH   1  15
BRANCH   2  26
ATOM     26  C   LIG d   1       5.000  -2.763  -5.650  0.00  0.00     0.090 C 
ATOM     27  O   LIG d   1       6.168  -3.006  -5.887  0.00  0.00    -0.543 OA
ATOM     28  O   LIG d   1       4.328  -3.501  -4.743  0.00  0.00    -0.543 OA
ENDBRANCH   2  26
TORSDOF 2
ENDMDL
MODEL 3
REMARK VINA RESULT:      -6.1      2.986      4.194
REMARK  2 active torsions:
REMARK  status: ('A' for Active; 'I' for Inactive)
REMARK    1  A    between atoms: C_4  and  C_7 
REMARK    2  A    between atoms: C_8  and  C_17 
ROOT
ATOM      1  C   LIG d   1       4.247  -0.301  -5.747  0.00  0.00     0.100 A 
ATOM      2  C   LIG d   1       5.259  -0.529  -6.666  0.00  0.00     0.093 A 
ATOM      3  N   LIG d   1       4.765  -0.127  -7.913  0.00  0.00    -0.306 N 
ATOM      4  C   LIG d   1       3.522   0.337  -7.676  0.00  0.00     0.252 A 
ATOM      5  N   LIG d   1       3.211   0.222  -6.417  0.00  0.00    -0.211 NA
ATOM      6  S   LIG d   1       2.897   0.914  -9.242  0.00  0.00     0.032 S 
ATOM      7  O   LIG d   1       2.009  -0.094  -9.704  0.00  0.00    -0.166 OA
ATOM      8  O   LIG d   1       2.459   2.248  -9.020  0.00  0.00    -0.166 OA
ATOM      9  C   LIG d   1       4.482   0.883 -10.180  0.00  0.00     0.092 C 
ATOM     10  C   LIG d   1       5.260  -0.121  -9.294  0.00  0.00     0.046 C 
ATOM     11  H   LIG d   1       4.961   1.862 -10.189  0.00  0.00     0.052 H 
ATOM     12  H   LIG d   1       4.342   0.499 -11.191  0.00  0.00     0.052 H 
ATOM     13  H   LIG d   1       6.316   0.150  -9.293  0.00  0.00     0.051 H 
ATOM     14  H   LIG d   1       5.151  -1.121  -9.714  0.00  0.00     0.051 H 
ENDROOT
BRANCH   1  15
ATOM     15  C   LIG d   1       4.301  -0.581  -4.293  0.00  0.00     0.003 A 
ATOM     16  C   LIG d   1       3.962  -1.845  -3.811  0.00  0.00    -0.052 A 
ATOM     17  C   LIG d   1       4.015  -2.101  -2.456  0.00  0.00    -0.061 A 
ATOM     18  H   LIG d   1       3.660  -2.623  -4.497  0.00  0.00     0.062 H 
ATOM     19  C   LIG d   1       4.402  -1.105  -1.577  0.00  0.00    -0.062 A 
ATOM     20  H   LIG d   1       3.754  -3.079  -2.081  0.00  0.00     0.062 H 
ATOM     21  C   LIG d   1       4.739   0.150  -2.049  0.00  0.00    -0.061 A 
ATOM     22  H   LIG d   1       4.442  -1.310  -0.516  0.00  0.00     0.062 H 
ATOM     23  C   LIG d   1       4.696   0.415  -3.402  0.00  0.00    -0.052 A 
ATOM     24  H   LIG d   1       5.040   0.923  -1.357  0.00  0.00     0.062 H 
ATOM     25  H   LIG d   1       4.964   1.395  -3.770  0.00  0.00     0.062 H 
ENDBRANCH   1  15
BRANCH   2  26
ATOM     26  C   LIG d   1       6.584  -1.082  -6.388  0.00  0.00     0.090 C 
ATOM     27  O   LIG d   1       7.540  -0.339  -6.266  0.00  0.00    -0.543 OA
ATOM     28  O   LIG d   1       6.746  -2.416  -6.266  0.00  0.00    -0.543 OA
ENDBRANCH   2  26
TORSDOF 2
ENDMDL
MODEL 4
REMARK VINA RESULT:      -6.0      4.391      6.371
REMARK  2 active torsions:
REMARK  status: ('A' for Active; 'I' for Inactive)
REMARK    1  A    between atoms: C_4  and  C_7 
REMARK    2  A    between atoms: C_8  and  C_17 
ROOT
ATOM      1  C   LIG d   1       6.559   0.473  -3.723  0.00  0.00     0.100 A 
ATOM      2  C   LIG d   1       7.617  -0.141  -4.375  0.00  0.00     0.093 A 
ATOM      3  N   LIG d   1       8.625   0.824  -4.499  0.00  0.00    -0.306 N 
ATOM      4  C   LIG d   1       8.140   1.931  -3.902  0.00  0.00     0.252 A 
ATOM      5  N   LIG d   1       6.929   1.735  -3.464  0.00  0.00    -0.211 NA
ATOM      6  S   LIG d   1       9.432   3.154  -3.992  0.00  0.00     0.032 S 
ATOM      7  O   LIG d   1       9.064   4.036  -5.044  0.00  0.00    -0.166 OA
ATOM      8  O   LIG d   1       9.622   3.620  -2.663  0.00  0.00    -0.166 OA
ATOM      9  C   LIG d   1      10.806   2.041  -4.509  0.00  0.00     0.092 C 
ATOM     10  C   LIG d   1       9.962   0.884  -5.099  0.00  0.00     0.046 C 
ATOM     11  H   LIG d   1      11.395   1.710  -3.655  0.00  0.00     0.052 H 
ATOM     12  H   LIG d   1      11.434   2.506  -5.270  0.00  0.00     0.052 H 
ATOM     13  H   LIG d   1      10.477  -0.059  -4.918  0.00  0.00     0.051 H 
ATOM     14  H   LIG d   1       9.862   1.033  -6.175  0.00  0.00     0.051 H 
ENDROOT
BRANCH   1  15
ATOM     15  C   LIG d   1       5.261  -0.151  -3.376  0.00  0.00     0.003 A 
ATOM     16  C   LIG d   1       4.067   0.448  -3.776  0.00  0.00    -0.052 A 
ATOM     17  C   LIG d   1       2.861  -0.137  -3.450  0.00  0.00    -0.061 A 
ATOM     18  H   LIG d   1       4.086   1.369  -4.341  0.00  0.00     0.062 H 
ATOM     19  C   LIG d   1       2.835  -1.316  -2.726  0.00  0.00    -0.062 A 
ATOM     20  H   LIG d   1       1.936   0.325  -3.760  0.00  0.00     0.062 H 
ATOM     21  C   LIG d   1       4.016  -1.915  -2.326  0.00  0.00    -0.061 A 
ATOM     22  H   LIG d   1       1.889  -1.771  -2.473  0.00  0.00     0.062 H 
ATOM     23  C   LIG d   1       5.228  -1.342  -2.652  0.00  0.00    -0.052 A 
ATOM     24  H   LIG d   1       3.989  -2.835  -1.761  0.00  0.00     0.062 H 
ATOM     25  H   LIG d   1       6.149  -1.813  -2.343  0.00  0.00     0.062 H 
ENDBRANCH   1  15
BRANCH   2  26
ATOM     26  C   LIG d   1       7.670  -1.525  -4.843  0.00  0.00     0.090 C 
ATOM     27  O   LIG d   1       8.344  -2.344  -4.246  0.00  0.00    -0.543 OA
ATOM     28  O   LIG d   1       6.973  -1.895  -5.937  0.00  0.00    -0.543 OA
ENDBRANCH   2  26
TORSDOF 2
ENDMDL
MODEL 5
REMARK VINA RESULT:      -5.8      3.389      4.194
REMARK  2 active torsions:
REMARK  status: ('A' for Active; 'I' for Inactive)
REMARK    1  A    between atoms: C_4  and  C_7 
REMARK    2  A    between atoms: C_8  and  C_17 
ROOT
ATOM      1  C   LIG d   1       6.458  -2.046  -3.575  0.00  0.00     0.100 A 
ATOM      2  C   LIG d   1       6.198  -3.024  -4.521  0.00  0.00     0.093 A 
ATOM      3  N   LIG d   1       7.359  -3.801  -4.624  0.00  0.00    -0.306 N 
ATOM      4  C   LIG d   1       8.223  -3.277  -3.733  0.00  0.00     0.252 A 
ATOM      5  N   LIG d   1       7.708  -2.243  -3.132  0.00  0.00    -0.211 NA
ATOM      6  S   LIG d   1       9.687  -4.290  -3.800  0.00  0.00     0.032 S 
ATOM      7  O   LIG d   1      10.636  -3.556  -4.562  0.00  0.00    -0.166 OA
ATOM      8  O   LIG d   1       9.952  -4.684  -2.461  0.00  0.00    -0.166 OA
ATOM      9  C   LIG d   1       8.989  -5.687  -4.778  0.00  0.00     0.092 C 
ATOM     10  C   LIG d   1       7.797  -4.944  -5.431  0.00  0.00     0.046 C 
ATOM     11  H   LIG d   1       8.650  -6.496  -4.133  0.00  0.00     0.052 H 
ATOM     12  H   LIG d   1       9.696  -6.045  -5.527  0.00  0.00     0.052 H 
ATOM     13  H   LIG d   1       6.966  -5.639  -5.546  0.00  0.00     0.051 H 
ATOM     14  H   LIG d   1       8.101  -4.587  -6.416  0.00  0.00     0.051 H 
ENDROOT
BRANCH   1  15
ATOM     15  C   LIG d   1       5.528  -0.981  -3.134  0.00  0.00     0.003 A 
ATOM     16  C   LIG d   1       4.238  -1.306  -2.716  0.00  0.00    -0.052 A 
ATOM     17  C   LIG d   1       3.376  -0.310  -2.306  0.00  0.00    -0.061 A 
ATOM     18  H   LIG d   1       3.915  -2.337  -2.712  0.00  0.00     0.062 H 
ATOM     19  C   LIG d   1       3.789   1.011  -2.311  0.00  0.00    -0.062 A 
ATOM     20  H   LIG d   1       2.377  -0.561  -1.982  0.00  0.00     0.062 H 
ATOM     21  C   LIG d   1       5.067   1.340  -2.724  0.00  0.00    -0.061 A 
ATOM     22  H   LIG d   1       3.111   1.787  -1.989  0.00  0.00     0.062 H 
ATOM     23  C   LIG d   1       5.940   0.352  -3.130  0.00  0.00    -0.052 A 
ATOM     24  H   LIG d   1       5.384   2.372  -2.726  0.00  0.00     0.062 H 
ATOM     25  H   LIG d   1       6.939   0.610  -3.448  0.00  0.00     0.062 H 
ENDBRANCH   1  15
BRANCH   2  26
ATOM     26  C   LIG d   1       4.954  -3.209  -5.268  0.00  0.00     0.090 C 
ATOM     27  O   LIG d   1       4.225  -4.149  -5.012  0.00  0.00    -0.543 OA
ATOM     28  O   LIG d   1       4.615  -2.337  -6.240  0.00  0.00    -0.543 OA
ENDBRANCH   2  26
TORSDOF 2
ENDMDL
MODEL 6
REMARK VINA RESULT:      -5.7      2.603      4.396
REMARK  2 active torsions:
REMARK  status: ('A' for Active; 'I' for Inactive)
REMARK    1  A    between atoms: C_4  and  C_7 
REMARK    2  A    between atoms: C_8  and  C_17 
ROOT
ATOM      1  C   LIG d   1       4.528  -0.743  -6.281  0.00  0.00     0.100 A 
ATOM      2  C   LIG d   1       4.686  -1.674  -7.295  0.00  0.00     0.093 A 
ATOM      3  N   LIG d   1       4.719  -0.955  -8.497  0.00  0.00    -0.306 N 
ATOM      4  C   LIG d   1       4.611   0.341  -8.144  0.00  0.00     0.252 A 
ATOM      5  N   LIG d   1       4.482   0.467  -6.854  0.00  0.00    -0.211 NA
ATOM      6  S   LIG d   1       4.715   1.281  -9.654  0.00  0.00     0.032 S 
ATOM      7  O   LIG d   1       3.383   1.663  -9.970  0.00  0.00    -0.166 OA
ATOM      8  O   LIG d   1       5.736   2.247  -9.444  0.00  0.00    -0.166 OA
ATOM      9  C   LIG d   1       5.299  -0.072 -10.760  0.00  0.00     0.092 C 
ATOM     10  C   LIG d   1       4.820  -1.283  -9.923  0.00  0.00     0.046 C 
ATOM     11  H   LIG d   1       6.383  -0.063 -10.865  0.00  0.00     0.052 H 
ATOM     12  H   LIG d   1       4.805  -0.037 -11.731  0.00  0.00     0.052 H 
ATOM     13  H   LIG d   1       5.525  -2.104 -10.051  0.00  0.00     0.051 H 
ATOM     14  H   LIG d   1       3.840  -1.597 -10.284  0.00  0.00     0.051 H 
ENDROOT
BRANCH   1  15
ATOM     15  C   LIG d   1       4.429  -1.033  -4.831  0.00  0.00     0.003 A 
ATOM     16  C   LIG d   1       3.195  -0.962  -4.186  0.00  0.00    -0.052 A 
ATOM     17  C   LIG d   1       3.109  -1.233  -2.836  0.00  0.00    -0.061 A 
ATOM     18  H   LIG d   1       2.308  -0.696  -4.742  0.00  0.00     0.062 H 
ATOM     19  C   LIG d   1       4.245  -1.574  -2.122  0.00  0.00    -0.062 A 
ATOM     20  H   LIG d   1       2.154  -1.179  -2.334  0.00  0.00     0.062 H 
ATOM     21  C   LIG d   1       5.472  -1.646  -2.757  0.00  0.00    -0.061 A 
ATOM     22  H   LIG d   1       4.173  -1.786  -1.065  0.00  0.00     0.062 H 
ATOM     23  C   LIG d   1       5.569  -1.383  -4.108  0.00  0.00    -0.052 A 
ATOM     24  H   LIG d   1       6.355  -1.912  -2.195  0.00  0.00     0.062 H 
ATOM     25  H   LIG d   1       6.527  -1.444  -4.603  0.00  0.00     0.062 H 
ENDBRANCH   1  15
BRANCH   2  26
ATOM     26  C   LIG d   1       4.796  -3.124  -7.142  0.00  0.00     0.090 C 
ATOM     27  O   LIG d   1       3.844  -3.837  -7.400  0.00  0.00    -0.543 OA
ATOM     28  O   LIG d   1       5.953  -3.671  -6.715  0.00  0.00    -0.543 OA
ENDBRANCH   2  26
TORSDOF 2
ENDMDL
MODEL 7
REMARK VINA RESULT:      -5.7      1.970      3.929
REMARK  2 active torsions:
REMARK  status: ('A' for Active; 'I' for Inactive)
REMARK    1  A    between atoms: C_4  and  C_7 
REMARK    2  A    between atoms: C_8  and  C_17 
ROOT
ATOM      1  C   LIG d   1       4.388  -1.006  -7.316  0.00  0.00     0.100 A 
ATOM      2  C   LIG d   1       4.806  -1.192  -6.008  0.00  0.00     0.093 A 
ATOM      3  N   LIG d   1       4.832  -2.575  -5.789  0.00  0.00    -0.306 N 
ATOM      4  C   LIG d   1       4.465  -3.132  -6.959  0.00  0.00     0.252 A 
ATOM      5  N   LIG d   1       4.189  -2.221  -7.847  0.00  0.00    -0.211 NA
ATOM      6  S   LIG d   1       4.553  -4.896  -6.722  0.00  0.00     0.032 S 
ATOM      7  O   LIG d   1       3.214  -5.334  -6.544  0.00  0.00    -0.166 OA
ATOM      8  O   LIG d   1       5.364  -5.393  -7.779  0.00  0.00    -0.166 OA
ATOM      9  C   LIG d   1       5.471  -4.896  -5.125  0.00  0.00     0.092 C 
ATOM     10  C   LIG d   1       5.130  -3.460  -4.657  0.00  0.00     0.046 C 
ATOM     11  H   LIG d   1       6.542  -5.022  -5.279  0.00  0.00     0.052 H 
ATOM     12  H   LIG d   1       5.077  -5.645  -4.437  0.00  0.00     0.052 H 
ATOM     13  H   LIG d   1       5.976  -3.057  -4.102  0.00  0.00     0.051 H 
ATOM     14  H   LIG d   1       4.260  -3.500  -4.000  0.00  0.00     0.051 H 
ENDROOT
BRANCH   1  15
ATOM     15  C   LIG d   1       4.197   0.294  -8.001  0.00  0.00     0.003 A 
ATOM     16  C   LIG d   1       5.254   0.880  -8.697  0.00  0.00    -0.052 A 
ATOM     17  C   LIG d   1       5.071   2.091  -9.332  0.00  0.00    -0.061 A 
ATOM     18  H   LIG d   1       6.215   0.387  -8.737  0.00  0.00     0.062 H 
ATOM     19  C   LIG d   1       3.841   2.723  -9.280  0.00  0.00    -0.062 A 
ATOM     20  H   LIG d   1       5.889   2.546  -9.872  0.00  0.00     0.062 H 
ATOM     21  C   LIG d   1       2.789   2.146  -8.592  0.00  0.00    -0.061 A 
ATOM     22  H   LIG d   1       3.702   3.671  -9.780  0.00  0.00     0.062 H 
ATOM     23  C   LIG d   1       2.959   0.933  -7.958  0.00  0.00    -0.052 A 
ATOM     24  H   LIG d   1       1.832   2.645  -8.555  0.00  0.00     0.062 H 
ATOM     25  H   LIG d   1       2.135   0.482  -7.424  0.00  0.00     0.062 H 
ENDBRANCH   1  15
BRANCH   2  26
ATOM     26  C   LIG d   1       5.151  -0.148  -5.044  0.00  0.00     0.090 C 
ATOM     27  O   LIG d   1       4.323   0.236  -4.240  0.00  0.00    -0.543 OA
ATOM     28  O   LIG d   1       6.388   0.391  -5.047  0.00  0.00    -0.543 OA
ENDBRANCH   2  26
TORSDOF 2
ENDMDL
MODEL 8
REMARK VINA RESULT:      -5.5      3.451      4.170
REMARK  2 active torsions:
REMARK  status: ('A' for Active; 'I' for Inactive)
REMARK    1  A    between atoms: C_4  and  C_7 
REMARK    2  A    between atoms: C_8  and  C_17 
ROOT
ATOM      1  C   LIG d   1       6.727  -1.291  -3.961  0.00  0.00     0.100 A 
ATOM      2  C   LIG d   1       7.466  -0.775  -5.014  0.00  0.00     0.093 A 
ATOM      3  N   LIG d   1       8.555  -1.637  -5.199  0.00  0.00    -0.306 N 
ATOM      4  C   LIG d   1       8.399  -2.616  -4.286  0.00  0.00     0.252 A 
ATOM      5  N   LIG d   1       7.344  -2.408  -3.552  0.00  0.00    -0.211 NA
ATOM      6  S   LIG d   1       9.741  -3.758  -4.545  0.00  0.00     0.032 S 
ATOM      7  O   LIG d   1      10.686  -3.491  -3.518  0.00  0.00    -0.166 OA
ATOM      8  O   LIG d   1       9.141  -5.039  -4.688  0.00  0.00    -0.166 OA
ATOM      9  C   LIG d   1      10.322  -3.111  -6.168  0.00  0.00     0.092 C 
ATOM     10  C   LIG d   1       9.727  -1.684  -6.079  0.00  0.00     0.046 C 
ATOM     11  H   LIG d   1       9.894  -3.671  -6.999  0.00  0.00     0.052 H 
ATOM     12  H   LIG d   1      11.411  -3.087  -6.224  0.00  0.00     0.052 H 
ATOM     13  H   LIG d   1       9.437  -1.358  -7.077  0.00  0.00     0.051 H 
ATOM     14  H   LIG d   1      10.489  -1.007  -5.692  0.00  0.00     0.051 H 
ENDROOT
BRANCH   1  15
ATOM     15  C   LIG d   1       5.486  -0.715  -3.394  0.00  0.00     0.003 A 
ATOM     16  C   LIG d   1       4.257  -1.330  -3.630  0.00  0.00    -0.052 A 
ATOM     17  C   LIG d   1       3.104  -0.788  -3.099  0.00  0.00    -0.061 A 
ATOM     18  H   LIG d   1       4.207  -2.229  -4.227  0.00  0.00     0.062 H 
ATOM     19  C   LIG d   1       3.166   0.364  -2.334  0.00  0.00    -0.062 A 
ATOM     20  H   LIG d   1       2.152  -1.264  -3.280  0.00  0.00     0.062 H 
ATOM     21  C   LIG d   1       4.382   0.978  -2.097  0.00  0.00    -0.061 A 
ATOM     22  H   LIG d   1       2.261   0.784  -1.921  0.00  0.00     0.062 H 
ATOM     23  C   LIG d   1       5.542   0.442  -2.618  0.00  0.00    -0.052 A 
ATOM     24  H   LIG d   1       4.424   1.877  -1.500  0.00  0.00     0.062 H 
ATOM     25  H   LIG d   1       6.492   0.921  -2.428  0.00  0.00     0.062 H 
ENDBRANCH   1  15
BRANCH   2  26
ATOM     26  C   LIG d   1       7.167   0.432  -5.783  0.00  0.00     0.090 C 
ATOM     27  O   LIG d   1       7.708   1.484  -5.499  0.00  0.00    -0.543 OA
ATOM     28  O   LIG d   1       6.291   0.380  -6.808  0.00  0.00    -0.543 OA
ENDBRANCH   2  26
TORSDOF 2
ENDMDL
MODEL 9
REMARK VINA RESULT:      -5.4      4.206      5.486
REMARK  2 active torsions:
REMARK  status: ('A' for Active; 'I' for Inactive)
REMARK    1  A    between atoms: C_4  and  C_7 
REMARK    2  A    between atoms: C_8  and  C_17 
ROOT
ATOM      1  C   LIG d   1       7.239   0.400  -4.605  0.00  0.00     0.100 A 
ATOM      2  C   LIG d   1       7.136   0.242  -5.978  0.00  0.00     0.093 A 
ATOM      3  N   LIG d   1       8.339   0.708  -6.525  0.00  0.00    -0.306 N 
ATOM      4  C   LIG d   1       9.092   1.085  -5.472  0.00  0.00     0.252 A 
ATOM      5  N   LIG d   1       8.447   0.922  -4.353  0.00  0.00    -0.211 NA
ATOM      6  S   LIG d   1      10.653   1.622  -6.142  0.00  0.00     0.032 S 
ATOM      7  O   LIG d   1      10.618   3.043  -6.124  0.00  0.00    -0.166 OA
ATOM      8  O   LIG d   1      11.651   0.894  -5.439  0.00  0.00    -0.166 OA
ATOM      9  C   LIG d   1      10.437   0.974  -7.852  0.00  0.00     0.092 C 
ATOM     10  C   LIG d   1       8.892   0.874  -7.873  0.00  0.00     0.046 C 
ATOM     11  H   LIG d   1      10.903  -0.003  -7.971  0.00  0.00     0.052 H 
ATOM     12  H   LIG d   1      10.802   1.682  -8.598  0.00  0.00     0.052 H 
ATOM     13  H   LIG d   1       8.600   0.021  -8.486  0.00  0.00     0.051 H 
ATOM     14  H   LIG d   1       8.485   1.784  -8.314  0.00  0.00     0.051 H 
ENDROOT
BRANCH   1  15
ATOM     15  C   LIG d   1       6.205   0.054  -3.602  0.00  0.00     0.003 A 
ATOM     16  C   LIG d   1       5.859  -1.279  -3.383  0.00  0.00    -0.052 A 
ATOM     17  C   LIG d   1       4.896  -1.595  -2.448  0.00  0.00    -0.061 A 
ATOM     18  H   LIG d   1       6.346  -2.063  -3.945  0.00  0.00     0.062 H 
ATOM     19  C   LIG d   1       4.272  -0.591  -1.728  0.00  0.00    -0.062 A 
ATOM     20  H   LIG d   1       4.628  -2.627  -2.277  0.00  0.00     0.062 H 
ATOM     21  C   LIG d   1       4.609   0.733  -1.940  0.00  0.00    -0.061 A 
ATOM     22  H   LIG d   1       3.518  -0.844  -0.997  0.00  0.00     0.062 H 
ATOM     23  C   LIG d   1       5.576   1.060  -2.869  0.00  0.00    -0.052 A 
ATOM     24  H   LIG d   1       4.119   1.511  -1.376  0.00  0.00     0.062 H 
ATOM     25  H   LIG d   1       5.843   2.094  -3.030  0.00  0.00     0.062 H 
ENDBRANCH   1  15
BRANCH   2  26
ATOM     26  C   LIG d   1       5.996  -0.304  -6.713  0.00  0.00     0.090 C 
ATOM     27  O   LIG d   1       6.027  -1.449  -7.121  0.00  0.00    -0.543 OA
ATOM     28  O   LIG d   1       4.909   0.463  -6.939  0.00  0.00    -0.543 OA
ENDBRANCH   2  26
TORSDOF 2
ENDMDL
MODEL 10
REMARK VINA RESULT:      -5.2      2.202      2.597
REMARK  2 active torsions:
REMARK  status: ('A' for Active; 'I' for Inactive)
REMARK    1  A    between atoms: C_4  and  C_7 
REMARK    2  A    between atoms: C_8  and  C_17 
ROOT
ATOM      1  C   LIG d   1       4.919  -1.158  -5.855  0.00  0.00     0.100 A 
ATOM      2  C   LIG d   1       4.178  -0.519  -6.838  0.00  0.00     0.093 A 
ATOM      3  N   LIG d   1       4.679  -0.962  -8.068  0.00  0.00    -0.306 N 
ATOM      4  C   LIG d   1       5.652  -1.844  -7.765  0.00  0.00     0.252 A 
ATOM      5  N   LIG d   1       5.805  -1.947  -6.476  0.00  0.00    -0.211 NA
ATOM      6  S   LIG d   1       6.261  -2.470  -9.318  0.00  0.00     0.032 S 
ATOM      7  O   LIG d   1       7.489  -1.795  -9.556  0.00  0.00    -0.166 OA
ATOM      8  O   LIG d   1       6.197  -3.886  -9.221  0.00  0.00    -0.166 OA
ATOM      9  C   LIG d   1       4.923  -1.816 -10.403  0.00  0.00     0.092 C 
ATOM     10  C   LIG d   1       4.407  -0.683  -9.483  0.00  0.00     0.046 C 
ATOM     11  H   LIG d   1       4.154  -2.566 -10.584  0.00  0.00     0.052 H 
ATOM     12  H   LIG d   1       5.322  -1.422 -11.337  0.00  0.00     0.052 H 
ATOM     13  H   LIG d   1       3.332  -0.573  -9.624  0.00  0.00     0.051 H 
ATOM     14  H   LIG d   1       4.899   0.250  -9.761  0.00  0.00     0.051 H 
ENDROOT
BRANCH   1  15
ATOM     15  C   LIG d   1       4.759  -0.997  -4.392  0.00  0.00     0.003 A 
ATOM     16  C   LIG d   1       5.248   0.144  -3.755  0.00  0.00    -0.052 A 
ATOM     17  C   LIG d   1       5.096   0.288  -2.391  0.00  0.00    -0.061 A 
ATOM     18  H   LIG d   1       5.745   0.913  -4.329  0.00  0.00     0.062 H 
ATOM     19  C   LIG d   1       4.459  -0.697  -1.656  0.00  0.00    -0.062 A 
ATOM     20  H   LIG d   1       5.473   1.171  -1.897  0.00  0.00     0.062 H 
ATOM     21  C   LIG d   1       3.972  -1.830  -2.281  0.00  0.00    -0.061 A 
ATOM     22  H   LIG d   1       4.342  -0.579  -0.588  0.00  0.00     0.062 H 
ATOM     23  C   LIG d   1       4.113  -1.982  -3.645  0.00  0.00    -0.052 A 
ATOM     24  H   LIG d   1       3.477  -2.595  -1.702  0.00  0.00     0.062 H 
ATOM     25  H   LIG d   1       3.728  -2.865  -4.134  0.00  0.00     0.062 H 
ENDBRANCH   1  15
BRANCH   2  26
ATOM     26  C   LIG d   1       3.086   0.432  -6.630  0.00  0.00     0.090 C 
ATOM     27  O   LIG d   1       3.048   1.463  -7.274  0.00  0.00    -0.543 OA
ATOM     28  O   LIG d   1       2.122   0.165  -5.725  0.00  0.00    -0.543 OA
ENDBRANCH   2  26
TORSDOF 2
ENDMDL
