MODEL 1
REMARK VINA RESULT:      -6.3      0.000      0.000
REMARK  10 active torsions:
REMARK  status: ('A' for Active; 'I' for Inactive)
REMARK    1  A    between atoms: C_1  and  O_2 
REMARK    2  A    between atoms: O_2  and  C_3 
REMARK    3  A    between atoms: C_6  and  C_10 
REMARK    4  A    between atoms: C_7  and  O_9 
REMARK    5  A    between atoms: C_11  and  C_19 
REMARK    6  A    between atoms: C_12  and  C_15 
REMARK    7  A    between atoms: C_22  and  O_27 
REMARK    8  A    between atoms: C_23  and  O_25 
REMARK    9  A    between atoms: O_25  and  C_26 
REMARK   10  A    between atoms: O_27  and  C_28 
ROOT
ATOM      1  C   LIG d   1       3.383   0.274  -5.754  0.00  0.00     0.179 A 
ATOM      2  C   LIG d   1       4.207  -0.325  -4.816  0.00  0.00     0.061 A 
ATOM      3  C   LIG d   1       3.986   0.327  -3.582  0.00  0.00     0.194 A 
ATOM      4  N   LIG d   1       3.093   1.256  -3.765  0.00  0.00    -0.073 NA
ATOM      5  O   LIG d   1       2.700   1.249  -5.124  0.00  0.00    -0.353 OA
ENDROOT
BRANCH   2   6
ATOM      6  C   LIG d   1       5.144  -1.445  -5.060  0.00  0.00    -0.009 A 
ATOM      7  C   LIG d   1       6.407  -1.196  -5.598  0.00  0.00    -0.008 A 
ATOM      8  C   LIG d   1       7.281  -2.244  -5.819  0.00  0.00     0.162 A 
ATOM      9  H   LIG d   1       6.702  -0.184  -5.837  0.00  0.00     0.066 H 
ATOM     10  C   LIG d   1       6.896  -3.547  -5.515  0.00  0.00     0.162 A 
ATOM     11  C   LIG d   1       5.639  -3.796  -4.986  0.00  0.00    -0.016 A 
ATOM     12  C   LIG d   1       4.764  -2.753  -4.759  0.00  0.00    -0.050 A 
ATOM     13  H   LIG d   1       5.344  -4.808  -4.752  0.00  0.00     0.066 H 
ATOM     14  H   LIG d   1       3.786  -2.949  -4.346  0.00  0.00     0.062 H 
BRANCH   8  15
ATOM     15  O   LIG d   1       8.515  -2.003  -6.338  0.00  0.00    -0.491 OA
BRANCH  15  16
ATOM     16  C   LIG d   1       9.480  -1.408  -5.468  0.00  0.00     0.079 C 
ATOM     17  H   LIG d   1      10.159  -0.786  -6.050  0.00  0.00     0.066 H 
ATOM     18  H   LIG d   1       8.970  -0.794  -4.725  0.00  0.00     0.066 H 
ATOM     19  H   LIG d   1      10.046  -2.192  -4.964  0.00  0.00     0.066 H 
ENDBRANCH  15  16
ENDBRANCH   8  15
BRANCH  10  20
ATOM     20  O   LIG d   1       7.756  -4.578  -5.738  0.00  0.00    -0.491 OA
BRANCH  20  21
ATOM     21  C   LIG d   1       8.470  -5.082  -4.608  0.00  0.00     0.079 C 
ATOM     22  H   LIG d   1       9.149  -4.314  -4.235  0.00  0.00     0.066 H 
ATOM     23  H   LIG d   1       7.765  -5.354  -3.823  0.00  0.00     0.066 H 
ATOM     24  H   LIG d   1       9.043  -5.961  -4.903  0.00  0.00     0.066 H 
ENDBRANCH  20  21
ENDBRANCH  10  20
ENDBRANCH   2   6
BRANCH   1  25
ATOM     25  C   LIG d   1       3.280  -0.083  -7.179  0.00  0.00     0.062 A 
ATOM     26  C   LIG d   1       3.427  -1.413  -7.583  0.00  0.00    -0.044 A 
ATOM     27  C   LIG d   1       3.329  -1.743  -8.915  0.00  0.00    -0.019 A 
ATOM     28  H   LIG d   1       3.618  -2.182  -6.848  0.00  0.00     0.063 H 
ATOM     29  C   LIG d   1       3.083  -0.757  -9.864  0.00  0.00     0.124 A 
ATOM     30  H   LIG d   1       3.443  -2.772  -9.225  0.00  0.00     0.065 H 
ATOM     31  C   LIG d   1       2.940   0.568  -9.476  0.00  0.00     0.022 A 
ATOM     32  C   LIG d   1       3.032   0.911  -8.138  0.00  0.00     0.131 A 
ATOM     33  H   LIG d   1       2.754   1.330 -10.217  0.00  0.00     0.069 H 
BRANCH  29  34
ATOM     34  O   LIG d   1       2.988  -1.091 -11.178  0.00  0.00    -0.495 OA
BRANCH  34  35
ATOM     35  C   LIG d   1       1.677  -1.117 -11.747  0.00  0.00     0.079 C 
ATOM     36  H   LIG d   1       1.568  -2.006 -12.367  0.00  0.00     0.066 H 
ATOM     37  H   LIG d   1       0.935  -1.138 -10.948  0.00  0.00     0.066 H 
ATOM     38  H   LIG d   1       1.528  -0.226 -12.358  0.00  0.00     0.066 H 
ENDBRANCH  34  35
ENDBRANCH  29  34
BRANCH  32  39
ATOM     39  O   LIG d   1       2.887   2.205  -7.755  0.00  0.00    -0.506 OA
ATOM     40  H   LIG d   1       2.057   2.388  -7.294  0.00  0.00     0.292 HD
ENDBRANCH  32  39
ENDBRANCH   1  25
BRANCH   3  41
ATOM     41  C   LIG d   1       4.669   0.003  -2.278  0.00  0.00     0.438 C 
ATOM     42  F   LIG d   1       6.055  -0.029  -2.473  0.00  0.00    -0.164 F 
ATOM     43  F   LIG d   1       4.354   0.983  -1.331  0.00  0.00    -0.164 F 
ATOM     44  F   LIG d   1       4.234  -1.244  -1.822  0.00  0.00    -0.164 F 
ENDBRANCH   3  41
TORSDOF 10
ENDMDL
MODEL 2
REMARK VINA RESULT:      -6.3      0.955      2.081
REMARK  10 active torsions:
REMARK  status: ('A' for Active; 'I' for Inactive)
REMARK    1  A    between atoms: C_1  and  O_2 
REMARK    2  A    between atoms: O_2  and  C_3 
REMARK    3  A    between atoms: C_6  and  C_10 
REMARK    4  A    between atoms: C_7  and  O_9 
REMARK    5  A    between atoms: C_11  and  C_19 
REMARK    6  A    between atoms: C_12  and  C_15 
REMARK    7  A    between atoms: C_22  and  O_27 
REMARK    8  A    between atoms: C_23  and  O_25 
REMARK    9  A    between atoms: O_25  and  C_26 
REMARK   10  A    between atoms: O_27  and  C_28 
ROOT
ATOM      1  C   LIG d   1       3.320   0.282  -5.871  0.00  0.00     0.179 A 
ATOM      2  C   LIG d   1       4.154  -0.400  -5.001  0.00  0.00     0.061 A 
ATOM      3  C   LIG d   1       3.979   0.164  -3.718  0.00  0.00     0.194 A 
ATOM      4  N   LIG d   1       3.101   1.120  -3.808  0.00  0.00    -0.073 NA
ATOM      5  O   LIG d   1       2.674   1.220  -5.153  0.00  0.00    -0.353 OA
ENDROOT
BRANCH   2   6
ATOM      6  C   LIG d   1       5.062  -1.517  -5.351  0.00  0.00    -0.009 A 
ATOM      7  C   LIG d   1       4.652  -2.836  -5.160  0.00  0.00    -0.008 A 
ATOM      8  C   LIG d   1       5.501  -3.876  -5.493  0.00  0.00     0.162 A 
ATOM      9  H   LIG d   1       3.672  -3.045  -4.757  0.00  0.00     0.066 H 
ATOM     10  C   LIG d   1       6.766  -3.605  -6.007  0.00  0.00     0.162 A 
ATOM     11  C   LIG d   1       7.175  -2.294  -6.191  0.00  0.00    -0.016 A 
ATOM     12  C   LIG d   1       6.331  -1.251  -5.865  0.00  0.00    -0.050 A 
ATOM     13  H   LIG d   1       8.157  -2.087  -6.590  0.00  0.00     0.066 H 
ATOM     14  H   LIG d   1       6.651  -0.231  -6.011  0.00  0.00     0.062 H 
BRANCH   8  15
ATOM     15  O   LIG d   1       5.102  -5.165  -5.313  0.00  0.00    -0.491 OA
BRANCH  15  16
ATOM     16  C   LIG d   1       4.238  -5.721  -6.305  0.00  0.00     0.079 C 
ATOM     17  H   LIG d   1       3.211  -5.415  -6.106  0.00  0.00     0.066 H 
ATOM     18  H   LIG d   1       4.539  -5.364  -7.291  0.00  0.00     0.066 H 
ATOM     19  H   LIG d   1       4.305  -6.809  -6.277  0.00  0.00     0.066 H 
ENDBRANCH  15  16
ENDBRANCH   8  15
BRANCH  10  20
ATOM     20  O   LIG d   1       7.602  -4.629  -6.329  0.00  0.00    -0.491 OA
BRANCH  20  21
ATOM     21  C   LIG d   1       7.736  -4.944  -7.717  0.00  0.00     0.079 C 
ATOM     22  H   LIG d   1       8.268  -4.137  -8.223  0.00  0.00     0.066 H 
ATOM     23  H   LIG d   1       8.297  -5.872  -7.827  0.00  0.00     0.066 H 
ATOM     24  H   LIG d   1       6.747  -5.062  -8.160  0.00  0.00     0.066 H 
ENDBRANCH  20  21
ENDBRANCH  10  20
ENDBRANCH   2   6
BRANCH   1  25
ATOM     25  C   LIG d   1       3.173   0.032  -7.315  0.00  0.00     0.062 A 
ATOM     26  C   LIG d   1       3.256  -1.271  -7.814  0.00  0.00    -0.044 A 
ATOM     27  C   LIG d   1       3.117  -1.500  -9.164  0.00  0.00    -0.019 A 
ATOM     28  H   LIG d   1       3.429  -2.097  -7.141  0.00  0.00     0.063 H 
ATOM     29  C   LIG d   1       2.893  -0.439 -10.035  0.00  0.00     0.124 A 
ATOM     30  H   LIG d   1       3.181  -2.508  -9.548  0.00  0.00     0.065 H 
ATOM     31  C   LIG d   1       2.814   0.858  -9.551  0.00  0.00     0.022 A 
ATOM     32  C   LIG d   1       2.947   1.101  -8.194  0.00  0.00     0.131 A 
ATOM     33  H   LIG d   1       2.645   1.679 -10.232  0.00  0.00     0.069 H 
BRANCH  29  34
ATOM     34  O   LIG d   1       2.757  -0.674 -11.366  0.00  0.00    -0.495 OA
BRANCH  34  35
ATOM     35  C   LIG d   1       1.521  -1.244 -11.802  0.00  0.00     0.079 C 
ATOM     36  H   LIG d   1       1.295  -2.125 -11.200  0.00  0.00     0.066 H 
ATOM     37  H   LIG d   1       0.723  -0.511 -11.687  0.00  0.00     0.066 H 
ATOM     38  H   LIG d   1       1.603  -1.531 -12.850  0.00  0.00     0.066 H 
ENDBRANCH  34  35
ENDBRANCH  29  34
BRANCH  32  39
ATOM     39  O   LIG d   1       2.864   2.369  -7.718  0.00  0.00    -0.506 OA
ATOM     40  H   LIG d   1       3.709   2.839  -7.701  0.00  0.00     0.292 HD
ENDBRANCH  32  39
ENDBRANCH   1  25
BRANCH   3  41
ATOM     41  C   LIG d   1       4.689  -0.268  -2.459  0.00  0.00     0.438 C 
ATOM     42  F   LIG d   1       4.259  -1.550  -2.100  0.00  0.00    -0.164 F 
ATOM     43  F   LIG d   1       6.069  -0.284  -2.685  0.00  0.00    -0.164 F 
ATOM     44  F   LIG d   1       4.395   0.629  -1.428  0.00  0.00    -0.164 F 
ENDBRANCH   3  41
TORSDOF 10
ENDMDL
MODEL 3
REMARK VINA RESULT:      -6.1      2.656      5.303
REMARK  10 active torsions:
REMARK  status: ('A' for Active; 'I' for Inactive)
REMARK    1  A    between atoms: C_1  and  O_2 
REMARK    2  A    between atoms: O_2  and  C_3 
REMARK    3  A    between atoms: C_6  and  C_10 
REMARK    4  A    between atoms: C_7  and  O_9 
REMARK    5  A    between atoms: C_11  and  C_19 
REMARK    6  A    between atoms: C_12  and  C_15 
REMARK    7  A    between atoms: C_22  and  O_27 
REMARK    8  A    between atoms: C_23  and  O_25 
REMARK    9  A    between atoms: O_25  and  C_26 
REMARK   10  A    between atoms: O_27  and  C_28 
ROOT
ATOM      1  C   LIG d   1       4.653  -3.157  -4.494  0.00  0.00     0.179 A 
ATOM      2  C   LIG d   1       4.463  -1.812  -4.759  0.00  0.00     0.061 A 
ATOM      3  C   LIG d   1       3.765  -1.259  -3.662  0.00  0.00     0.194 A 
ATOM      4  N   LIG d   1       3.548  -2.206  -2.797  0.00  0.00    -0.073 NA
ATOM      5  O   LIG d   1       4.090  -3.413  -3.297  0.00  0.00    -0.353 OA
ENDROOT
BRANCH   2   6
ATOM      6  C   LIG d   1       4.912  -1.084  -5.968  0.00  0.00    -0.009 A 
ATOM      7  C   LIG d   1       4.061  -0.962  -7.067  0.00  0.00    -0.008 A 
ATOM      8  C   LIG d   1       4.483  -0.278  -8.192  0.00  0.00     0.162 A 
ATOM      9  H   LIG d   1       3.073  -1.398  -7.036  0.00  0.00     0.066 H 
ATOM     10  C   LIG d   1       5.758   0.279  -8.231  0.00  0.00     0.162 A 
ATOM     11  C   LIG d   1       6.606   0.152  -7.142  0.00  0.00    -0.016 A 
ATOM     12  C   LIG d   1       6.190  -0.526  -6.014  0.00  0.00    -0.050 A 
ATOM     13  H   LIG d   1       7.595   0.585  -7.176  0.00  0.00     0.066 H 
ATOM     14  H   LIG d   1       6.851  -0.622  -5.167  0.00  0.00     0.062 H 
BRANCH   8  15
ATOM     15  O   LIG d   1       3.652  -0.152  -9.263  0.00  0.00    -0.491 OA
BRANCH  15  16
ATOM     16  C   LIG d   1       2.257  -0.356  -9.029  0.00  0.00     0.079 C 
ATOM     17  H   LIG d   1       1.680   0.267  -9.712  0.00  0.00     0.066 H 
ATOM     18  H   LIG d   1       2.010  -1.405  -9.196  0.00  0.00     0.066 H 
ATOM     19  H   LIG d   1       2.019  -0.086  -8.000  0.00  0.00     0.066 H 
ENDBRANCH  15  16
ENDBRANCH   8  15
BRANCH  10  20
ATOM     20  O   LIG d   1       6.173   0.947  -9.341  0.00  0.00    -0.491 OA
BRANCH  20  21
ATOM     21  C   LIG d   1       7.205   0.336 -10.119  0.00  0.00     0.079 C 
ATOM     22  H   LIG d   1       7.529  -0.584  -9.632  0.00  0.00     0.066 H 
ATOM     23  H   LIG d   1       6.824   0.106 -11.113  0.00  0.00     0.066 H 
ATOM     24  H   LIG d   1       8.050   1.020 -10.202  0.00  0.00     0.066 H 
ENDBRANCH  20  21
ENDBRANCH  10  20
ENDBRANCH   2   6
BRANCH   1  25
ATOM     25  C   LIG d   1       5.335  -4.130  -5.364  0.00  0.00     0.062 A 
ATOM     26  C   LIG d   1       6.732  -4.182  -5.399  0.00  0.00    -0.044 A 
ATOM     27  C   LIG d   1       7.366  -5.093  -6.213  0.00  0.00    -0.019 A 
ATOM     28  H   LIG d   1       7.313  -3.505  -4.789  0.00  0.00     0.063 H 
ATOM     29  C   LIG d   1       6.622  -5.965  -7.000  0.00  0.00     0.124 A 
ATOM     30  H   LIG d   1       8.445  -5.131  -6.240  0.00  0.00     0.065 H 
ATOM     31  C   LIG d   1       5.236  -5.920  -6.976  0.00  0.00     0.022 A 
ATOM     32  C   LIG d   1       4.586  -5.011  -6.158  0.00  0.00     0.131 A 
ATOM     33  H   LIG d   1       4.663  -6.596  -7.593  0.00  0.00     0.069 H 
BRANCH  29  34
ATOM     34  O   LIG d   1       7.256  -6.861  -7.801  0.00  0.00    -0.495 OA
BRANCH  34  35
ATOM     35  C   LIG d   1       6.552  -7.304  -8.963  0.00  0.00     0.079 C 
ATOM     36  H   LIG d   1       5.499  -7.040  -8.873  0.00  0.00     0.066 H 
ATOM     37  H   LIG d   1       6.974  -6.824  -9.846  0.00  0.00     0.066 H 
ATOM     38  H   LIG d   1       6.650  -8.386  -9.057  0.00  0.00     0.066 H 
ENDBRANCH  34  35
ENDBRANCH  29  34
BRANCH  32  39
ATOM     39  O   LIG d   1       3.230  -4.969  -6.129  0.00  0.00    -0.506 OA
ATOM     40  H   LIG d   1       2.846  -4.275  -6.682  0.00  0.00     0.292 HD
ENDBRANCH  32  39
ENDBRANCH   1  25
BRANCH   3  41
ATOM     41  C   LIG d   1       3.344   0.182  -3.519  0.00  0.00     0.438 C 
ATOM     42  F   LIG d   1       4.465   1.009  -3.646  0.00  0.00    -0.164 F 
ATOM     43  F   LIG d   1       2.416   0.497  -4.517  0.00  0.00    -0.164 F 
ATOM     44  F   LIG d   1       2.762   0.374  -2.263  0.00  0.00    -0.164 F 
ENDBRANCH   3  41
TORSDOF 10
ENDMDL
MODEL 4
REMARK VINA RESULT:      -6.1      2.774      5.057
REMARK  10 active torsions:
REMARK  status: ('A' for Active; 'I' for Inactive)
REMARK    1  A    between atoms: C_1  and  O_2 
REMARK    2  A    between atoms: O_2  and  C_3 
REMARK    3  A    between atoms: C_6  and  C_10 
REMARK    4  A    between atoms: C_7  and  O_9 
REMARK    5  A    between atoms: C_11  and  C_19 
REMARK    6  A    between atoms: C_12  and  C_15 
REMARK    7  A    between atoms: C_22  and  O_27 
REMARK    8  A    between atoms: C_23  and  O_25 
REMARK    9  A    between atoms: O_25  and  C_26 
REMARK   10  A    between atoms: O_27  and  C_28 
ROOT
ATOM      1  C   LIG d   1       4.632  -3.090  -4.980  0.00  0.00     0.179 A 
ATOM      2  C   LIG d   1       4.337  -1.747  -5.138  0.00  0.00     0.061 A 
ATOM      3  C   LIG d   1       3.802  -1.283  -3.916  0.00  0.00     0.194 A 
ATOM      4  N   LIG d   1       3.776  -2.279  -3.078  0.00  0.00    -0.073 NA
ATOM      5  O   LIG d   1       4.286  -3.429  -3.723  0.00  0.00    -0.353 OA
ENDROOT
BRANCH   2   6
ATOM      6  C   LIG d   1       4.546  -0.942  -6.365  0.00  0.00    -0.009 A 
ATOM      7  C   LIG d   1       5.746  -0.258  -6.555  0.00  0.00    -0.008 A 
ATOM      8  C   LIG d   1       5.939   0.488  -7.704  0.00  0.00     0.162 A 
ATOM      9  H   LIG d   1       6.525  -0.315  -5.809  0.00  0.00     0.066 H 
ATOM     10  C   LIG d   1       4.932   0.564  -8.662  0.00  0.00     0.162 A 
ATOM     11  C   LIG d   1       3.737  -0.111  -8.469  0.00  0.00    -0.016 A 
ATOM     12  C   LIG d   1       3.540  -0.861  -7.327  0.00  0.00    -0.050 A 
ATOM     13  H   LIG d   1       2.957  -0.050  -9.214  0.00  0.00     0.066 H 
ATOM     14  H   LIG d   1       2.609  -1.387  -7.180  0.00  0.00     0.062 H 
BRANCH   8  15
ATOM     15  O   LIG d   1       7.112   1.152  -7.895  0.00  0.00    -0.491 OA
BRANCH  15  16
ATOM     16  C   LIG d   1       7.938   1.354  -6.747  0.00  0.00     0.079 C 
ATOM     17  H   LIG d   1       7.366   1.134  -5.845  0.00  0.00     0.066 H 
ATOM     18  H   LIG d   1       8.802   0.691  -6.800  0.00  0.00     0.066 H 
ATOM     19  H   LIG d   1       8.276   2.390  -6.720  0.00  0.00     0.066 H 
ENDBRANCH  15  16
ENDBRANCH   8  15
BRANCH  10  20
ATOM     20  O   LIG d   1       5.121   1.302  -9.789  0.00  0.00    -0.491 OA
BRANCH  20  21
ATOM     21  C   LIG d   1       4.025   1.384 -10.703  0.00  0.00     0.079 C 
ATOM     22  H   LIG d   1       4.114   0.592 -11.448  0.00  0.00     0.066 H 
ATOM     23  H   LIG d   1       3.089   1.266 -10.159  0.00  0.00     0.066 H 
ATOM     24  H   LIG d   1       4.038   2.353 -11.200  0.00  0.00     0.066 H 
ENDBRANCH  20  21
ENDBRANCH  10  20
ENDBRANCH   2   6
BRANCH   1  25
ATOM     25  C   LIG d   1       5.209  -3.984  -5.998  0.00  0.00     0.062 A 
ATOM     26  C   LIG d   1       6.551  -3.856  -6.365  0.00  0.00    -0.044 A 
ATOM     27  C   LIG d   1       7.087  -4.694  -7.317  0.00  0.00    -0.019 A 
ATOM     28  H   LIG d   1       7.168  -3.100  -5.902  0.00  0.00     0.063 H 
ATOM     29  C   LIG d   1       6.296  -5.669  -7.916  0.00  0.00     0.124 A 
ATOM     30  H   LIG d   1       8.125  -4.594  -7.599  0.00  0.00     0.065 H 
ATOM     31  C   LIG d   1       4.961  -5.801  -7.563  0.00  0.00     0.022 A 
ATOM     32  C   LIG d   1       4.412  -4.968  -6.603  0.00  0.00     0.131 A 
ATOM     33  H   LIG d   1       4.351  -6.556  -8.035  0.00  0.00     0.069 H 
BRANCH  29  34
ATOM     34  O   LIG d   1       6.832  -6.491  -8.855  0.00  0.00    -0.495 OA
BRANCH  34  35
ATOM     35  C   LIG d   1       5.919  -7.184  -9.708  0.00  0.00     0.079 C 
ATOM     36  H   LIG d   1       5.008  -7.413  -9.156  0.00  0.00     0.066 H 
ATOM     37  H   LIG d   1       5.677  -6.556 -10.566  0.00  0.00     0.066 H 
ATOM     38  H   LIG d   1       6.378  -8.110 -10.056  0.00  0.00     0.066 H 
ENDBRANCH  34  35
ENDBRANCH  29  34
BRANCH  32  39
ATOM     39  O   LIG d   1       3.108  -5.099  -6.253  0.00  0.00    -0.506 OA
ATOM     40  H   LIG d   1       2.967  -5.617  -5.449  0.00  0.00     0.292 HD
ENDBRANCH  32  39
ENDBRANCH   1  25
BRANCH   3  41
ATOM     41  C   LIG d   1       3.342   0.124  -3.631  0.00  0.00     0.438 C 
ATOM     42  F   LIG d   1       2.809   0.186  -2.339  0.00  0.00    -0.164 F 
ATOM     43  F   LIG d   1       4.429   0.999  -3.730  0.00  0.00    -0.164 F 
ATOM     44  F   LIG d   1       2.362   0.490  -4.558  0.00  0.00    -0.164 F 
ENDBRANCH   3  41
TORSDOF 10
ENDMDL
MODEL 5
REMARK VINA RESULT:      -5.9      2.418      4.721
REMARK  10 active torsions:
REMARK  status: ('A' for Active; 'I' for Inactive)
REMARK    1  A    between atoms: C_1  and  O_2 
REMARK    2  A    between atoms: O_2  and  C_3 
REMARK    3  A    between atoms: C_6  and  C_10 
REMARK    4  A    between atoms: C_7  and  O_9 
REMARK    5  A    between atoms: C_11  and  C_19 
REMARK    6  A    between atoms: C_12  and  C_15 
REMARK    7  A    between atoms: C_22  and  O_27 
REMARK    8  A    between atoms: C_23  and  O_25 
REMARK    9  A    between atoms: O_25  and  C_26 
REMARK   10  A    between atoms: O_27  and  C_28 
ROOT
ATOM      1  C   LIG d   1       7.009   0.523  -4.404  0.00  0.00     0.179 A 
ATOM      2  C   LIG d   1       5.813  -0.133  -4.165  0.00  0.00     0.061 A 
ATOM      3  C   LIG d   1       5.095   0.629  -3.218  0.00  0.00     0.194 A 
ATOM      4  N   LIG d   1       5.809   1.672  -2.906  0.00  0.00    -0.073 NA
ATOM      5  O   LIG d   1       7.021   1.627  -3.633  0.00  0.00    -0.353 OA
ENDROOT
BRANCH   2   6
ATOM      6  C   LIG d   1       5.368  -1.400  -4.790  0.00  0.00    -0.009 A 
ATOM      7  C   LIG d   1       4.844  -1.395  -6.083  0.00  0.00    -0.008 A 
ATOM      8  C   LIG d   1       4.434  -2.580  -6.665  0.00  0.00     0.162 A 
ATOM      9  H   LIG d   1       4.763  -0.466  -6.630  0.00  0.00     0.066 H 
ATOM     10  C   LIG d   1       4.534  -3.775  -5.956  0.00  0.00     0.162 A 
ATOM     11  C   LIG d   1       5.049  -3.778  -4.670  0.00  0.00    -0.016 A 
ATOM     12  C   LIG d   1       5.464  -2.599  -4.085  0.00  0.00    -0.050 A 
ATOM     13  H   LIG d   1       5.125  -4.707  -4.123  0.00  0.00     0.066 H 
ATOM     14  H   LIG d   1       5.866  -2.605  -3.083  0.00  0.00     0.062 H 
BRANCH   8  15
ATOM     15  O   LIG d   1       3.927  -2.579  -7.928  0.00  0.00    -0.491 OA
BRANCH  15  16
ATOM     16  C   LIG d   1       3.319  -1.368  -8.381  0.00  0.00     0.079 C 
ATOM     17  H   LIG d   1       4.002  -0.847  -9.052  0.00  0.00     0.066 H 
ATOM     18  H   LIG d   1       2.395  -1.602  -8.913  0.00  0.00     0.066 H 
ATOM     19  H   LIG d   1       3.093  -0.732  -7.525  0.00  0.00     0.066 H 
ENDBRANCH  15  16
ENDBRANCH   8  15
BRANCH  10  20
ATOM     20  O   LIG d   1       4.125  -4.940  -6.528  0.00  0.00    -0.491 OA
BRANCH  20  21
ATOM     21  C   LIG d   1       4.639  -6.151  -5.970  0.00  0.00     0.079 C 
ATOM     22  H   LIG d   1       3.988  -6.982  -6.246  0.00  0.00     0.066 H 
ATOM     23  H   LIG d   1       5.642  -6.333  -6.355  0.00  0.00     0.066 H 
ATOM     24  H   LIG d   1       4.675  -6.063  -4.884  0.00  0.00     0.066 H 
ENDBRANCH  20  21
ENDBRANCH  10  20
ENDBRANCH   2   6
BRANCH   1  25
ATOM     25  C   LIG d   1       8.075   0.088  -5.323  0.00  0.00     0.062 A 
ATOM     26  C   LIG d   1       8.890  -0.997  -4.991  0.00  0.00    -0.044 A 
ATOM     27  C   LIG d   1       9.884  -1.400  -5.854  0.00  0.00    -0.019 A 
ATOM     28  H   LIG d   1       8.741  -1.518  -4.057  0.00  0.00     0.063 H 
ATOM     29  C   LIG d   1      10.080  -0.731  -7.057  0.00  0.00     0.124 A 
ATOM     30  H   LIG d   1      10.514  -2.239  -5.595  0.00  0.00     0.065 H 
ATOM     31  C   LIG d   1       9.279   0.350  -7.395  0.00  0.00     0.022 A 
ATOM     32  C   LIG d   1       8.273   0.762  -6.538  0.00  0.00     0.131 A 
ATOM     33  H   LIG d   1       9.439   0.868  -8.328  0.00  0.00     0.069 H 
BRANCH  29  34
ATOM     34  O   LIG d   1      11.063  -1.135  -7.903  0.00  0.00    -0.495 OA
BRANCH  34  35
ATOM     35  C   LIG d   1      10.763  -1.124  -9.300  0.00  0.00     0.079 C 
ATOM     36  H   LIG d   1       9.683  -1.080  -9.439  0.00  0.00     0.066 H 
ATOM     37  H   LIG d   1      11.225  -0.252  -9.763  0.00  0.00     0.066 H 
ATOM     38  H   LIG d   1      11.153  -2.031  -9.763  0.00  0.00     0.066 H 
ENDBRANCH  34  35
ENDBRANCH  29  34
BRANCH  32  39
ATOM     39  O   LIG d   1       7.485   1.816  -6.869  0.00  0.00    -0.506 OA
ATOM     40  H   LIG d   1       6.881   1.641  -7.603  0.00  0.00     0.292 HD
ENDBRANCH  32  39
ENDBRANCH   1  25
BRANCH   3  41
ATOM     41  C   LIG d   1       3.734   0.293  -2.663  0.00  0.00     0.438 C 
ATOM     42  F   LIG d   1       3.241   1.386  -1.942  0.00  0.00    -0.164 F 
ATOM     43  F   LIG d   1       2.861  -0.002  -3.717  0.00  0.00    -0.164 F 
ATOM     44  F   LIG d   1       3.836  -0.815  -1.818  0.00  0.00    -0.164 F 
ENDBRANCH   3  41
TORSDOF 10
ENDMDL
MODEL 6
REMARK VINA RESULT:      -5.8      3.361      5.961
REMARK  10 active torsions:
REMARK  status: ('A' for Active; 'I' for Inactive)
REMARK    1  A    between atoms: C_1  and  O_2 
REMARK    2  A    between atoms: O_2  and  C_3 
REMARK    3  A    between atoms: C_6  and  C_10 
REMARK    4  A    between atoms: C_7  and  O_9 
REMARK    5  A    between atoms: C_11  and  C_19 
REMARK    6  A    between atoms: C_12  and  C_15 
REMARK    7  A    between atoms: C_22  and  O_27 
REMARK    8  A    between atoms: C_23  and  O_25 
REMARK    9  A    between atoms: O_25  and  C_26 
REMARK   10  A    between atoms: O_27  and  C_28 
ROOT
ATOM      1  C   LIG d   1       4.280  -2.929  -7.587  0.00  0.00     0.179 A 
ATOM      2  C   LIG d   1       4.324  -1.577  -7.295  0.00  0.00     0.061 A 
ATOM      3  C   LIG d   1       3.409  -0.928  -8.153  0.00  0.00     0.194 A 
ATOM      4  N   LIG d   1       2.851  -1.828  -8.911  0.00  0.00    -0.073 NA
ATOM      5  O   LIG d   1       3.385  -3.095  -8.580  0.00  0.00    -0.353 OA
ENDROOT
BRANCH   2   6
ATOM      6  C   LIG d   1       5.174  -0.928  -6.270  0.00  0.00    -0.009 A 
ATOM      7  C   LIG d   1       4.766  -0.906  -4.936  0.00  0.00    -0.008 A 
ATOM      8  C   LIG d   1       5.566  -0.304  -3.981  0.00  0.00     0.162 A 
ATOM      9  H   LIG d   1       3.830  -1.362  -4.650  0.00  0.00     0.066 H 
ATOM     10  C   LIG d   1       6.769   0.288  -4.354  0.00  0.00     0.162 A 
ATOM     11  C   LIG d   1       7.171   0.271  -5.680  0.00  0.00    -0.016 A 
ATOM     12  C   LIG d   1       6.381  -0.332  -6.637  0.00  0.00    -0.050 A 
ATOM     13  H   LIG d   1       8.106   0.731  -5.965  0.00  0.00     0.066 H 
ATOM     14  H   LIG d   1       6.696  -0.345  -7.669  0.00  0.00     0.062 H 
BRANCH   8  15
ATOM     15  O   LIG d   1       5.173  -0.286  -2.679  0.00  0.00    -0.491 OA
BRANCH  15  16
ATOM     16  C   LIG d   1       4.335  -1.357  -2.239  0.00  0.00     0.079 C 
ATOM     17  H   LIG d   1       3.316  -0.993  -2.115  0.00  0.00     0.066 H 
ATOM     18  H   LIG d   1       4.349  -2.157  -2.980  0.00  0.00     0.066 H 
ATOM     19  H   LIG d   1       4.704  -1.738  -1.286  0.00  0.00     0.066 H 
ENDBRANCH  15  16
ENDBRANCH   8  15
BRANCH  10  20
ATOM     20  O   LIG d   1       7.552   0.884  -3.414  0.00  0.00    -0.491 OA
BRANCH  20  21
ATOM     21  C   LIG d   1       8.321   2.014  -3.832  0.00  0.00     0.079 C 
ATOM     22  H   LIG d   1       8.050   2.881  -3.229  0.00  0.00     0.066 H 
ATOM     23  H   LIG d   1       9.382   1.800  -3.703  0.00  0.00     0.066 H 
ATOM     24  H   LIG d   1       8.117   2.223  -4.882  0.00  0.00     0.066 H 
ENDBRANCH  20  21
ENDBRANCH  10  20
ENDBRANCH   2   6
BRANCH   1  25
ATOM     25  C   LIG d   1       5.070  -3.989  -6.938  0.00  0.00     0.062 A 
ATOM     26  C   LIG d   1       6.467  -3.948  -6.978  0.00  0.00    -0.044 A 
ATOM     27  C   LIG d   1       7.201  -4.940  -6.370  0.00  0.00    -0.019 A 
ATOM     28  H   LIG d   1       6.969  -3.139  -7.488  0.00  0.00     0.063 H 
ATOM     29  C   LIG d   1       6.559  -5.984  -5.712  0.00  0.00     0.124 A 
ATOM     30  H   LIG d   1       8.280  -4.908  -6.402  0.00  0.00     0.065 H 
ATOM     31  C   LIG d   1       5.173  -6.037  -5.670  0.00  0.00     0.022 A 
ATOM     32  C   LIG d   1       4.423  -5.042  -6.274  0.00  0.00     0.131 A 
ATOM     33  H   LIG d   1       4.680  -6.852  -5.162  0.00  0.00     0.069 H 
BRANCH  29  34
ATOM     34  O   LIG d   1       7.292  -6.959  -5.114  0.00  0.00    -0.495 OA
BRANCH  34  35
ATOM     35  C   LIG d   1       7.027  -8.306  -5.512  0.00  0.00     0.079 C 
ATOM     36  H   LIG d   1       5.965  -8.517  -5.398  0.00  0.00     0.066 H 
ATOM     37  H   LIG d   1       7.314  -8.439  -6.555  0.00  0.00     0.066 H 
ATOM     38  H   LIG d   1       7.604  -8.989  -4.888  0.00  0.00     0.066 H 
ENDBRANCH  34  35
ENDBRANCH  29  34
BRANCH  32  39
ATOM     39  O   LIG d   1       3.068  -5.089  -6.229  0.00  0.00    -0.506 OA
ATOM     40  H   LIG d   1       2.641  -4.224  -6.306  0.00  0.00     0.292 HD
ENDBRANCH  32  39
ENDBRANCH   1  25
BRANCH   3  41
ATOM     41  C   LIG d   1       3.126   0.552  -8.186  0.00  0.00     0.438 C 
ATOM     42  F   LIG d   1       4.279   1.238  -8.582  0.00  0.00    -0.164 F 
ATOM     43  F   LIG d   1       2.094   0.810  -9.095  0.00  0.00    -0.164 F 
ATOM     44  F   LIG d   1       2.743   0.981  -6.912  0.00  0.00    -0.164 F 
ENDBRANCH   3  41
TORSDOF 10
ENDMDL
MODEL 7
REMARK VINA RESULT:      -5.6      1.279      2.486
REMARK  10 active torsions:
REMARK  status: ('A' for Active; 'I' for Inactive)
REMARK    1  A    between atoms: C_1  and  O_2 
REMARK    2  A    between atoms: O_2  and  C_3 
REMARK    3  A    between atoms: C_6  and  C_10 
REMARK    4  A    between atoms: C_7  and  O_9 
REMARK    5  A    between atoms: C_11  and  C_19 
REMARK    6  A    between atoms: C_12  and  C_15 
REMARK    7  A    between atoms: C_22  and  O_27 
REMARK    8  A    between atoms: C_23  and  O_25 
REMARK    9  A    between atoms: O_25  and  C_26 
REMARK   10  A    between atoms: O_27  and  C_28 
ROOT
ATOM      1  C   LIG d   1       3.349  -0.085  -5.813  0.00  0.00     0.179 A 
ATOM      2  C   LIG d   1       4.453  -0.384  -5.034  0.00  0.00     0.061 A 
ATOM      3  C   LIG d   1       4.047  -0.324  -3.683  0.00  0.00     0.194 A 
ATOM      4  N   LIG d   1       2.785  -0.008  -3.649  0.00  0.00    -0.073 NA
ATOM      5  O   LIG d   1       2.321   0.154  -4.976  0.00  0.00    -0.353 OA
ENDROOT
BRANCH   2   6
ATOM      6  C   LIG d   1       5.812  -0.710  -5.527  0.00  0.00    -0.009 A 
ATOM      7  C   LIG d   1       6.292  -2.017  -5.439  0.00  0.00    -0.008 A 
ATOM      8  C   LIG d   1       7.559  -2.318  -5.906  0.00  0.00     0.162 A 
ATOM      9  H   LIG d   1       5.674  -2.792  -5.011  0.00  0.00     0.066 H 
ATOM     10  C   LIG d   1       8.356  -1.316  -6.451  0.00  0.00     0.162 A 
ATOM     11  C   LIG d   1       7.881  -0.016  -6.533  0.00  0.00    -0.016 A 
ATOM     12  C   LIG d   1       6.616   0.290  -6.074  0.00  0.00    -0.050 A 
ATOM     13  H   LIG d   1       8.502   0.759  -6.957  0.00  0.00     0.066 H 
ATOM     14  H   LIG d   1       6.247   1.302  -6.140  0.00  0.00     0.062 H 
BRANCH   8  15
ATOM     15  O   LIG d   1       8.028  -3.593  -5.826  0.00  0.00    -0.491 OA
BRANCH  15  16
ATOM     16  C   LIG d   1       7.123  -4.588  -5.343  0.00  0.00     0.079 C 
ATOM     17  H   LIG d   1       6.104  -4.205  -5.388  0.00  0.00     0.066 H 
ATOM     18  H   LIG d   1       7.203  -5.483  -5.961  0.00  0.00     0.066 H 
ATOM     19  H   LIG d   1       7.374  -4.836  -4.311  0.00  0.00     0.066 H 
ENDBRANCH  15  16
ENDBRANCH   8  15
BRANCH  10  20
ATOM     20  O   LIG d   1       9.604  -1.613  -6.905  0.00  0.00    -0.491 OA
BRANCH  20  21
ATOM     21  C   LIG d   1      10.631  -0.651  -6.653  0.00  0.00     0.079 C 
ATOM     22  H   LIG d   1      10.177   0.307  -6.399  0.00  0.00     0.066 H 
ATOM     23  H   LIG d   1      11.251  -0.990  -5.823  0.00  0.00     0.066 H 
ATOM     24  H   LIG d   1      11.247  -0.537  -7.545  0.00  0.00     0.066 H 
ENDBRANCH  20  21
ENDBRANCH  10  20
ENDBRANCH   2   6
BRANCH   1  25
ATOM     25  C   LIG d   1       3.307  -0.029  -7.284  0.00  0.00     0.062 A 
ATOM     26  C   LIG d   1       3.169   1.199  -7.937  0.00  0.00    -0.044 A 
ATOM     27  C   LIG d   1       3.131   1.246  -9.312  0.00  0.00    -0.019 A 
ATOM     28  H   LIG d   1       3.091   2.110  -7.363  0.00  0.00     0.063 H 
ATOM     29  C   LIG d   1       3.230   0.075 -10.056  0.00  0.00     0.124 A 
ATOM     30  H   LIG d   1       3.024   2.196  -9.815  0.00  0.00     0.065 H 
ATOM     31  C   LIG d   1       3.363  -1.149  -9.418  0.00  0.00     0.022 A 
ATOM     32  C   LIG d   1       3.408  -1.209  -8.036  0.00  0.00     0.131 A 
ATOM     33  H   LIG d   1       3.436  -2.055 -10.001  0.00  0.00     0.069 H 
BRANCH  29  34
ATOM     34  O   LIG d   1       3.192   0.131 -11.413  0.00  0.00    -0.495 OA
BRANCH  34  35
ATOM     35  C   LIG d   1       2.814  -1.063 -12.101  0.00  0.00     0.079 C 
ATOM     36  H   LIG d   1       1.849  -1.406 -11.731  0.00  0.00     0.066 H 
ATOM     37  H   LIG d   1       2.743  -0.859 -13.169  0.00  0.00     0.066 H 
ATOM     38  H   LIG d   1       3.565  -1.835 -11.928  0.00  0.00     0.066 H 
ENDBRANCH  34  35
ENDBRANCH  29  34
BRANCH  32  39
ATOM     39  O   LIG d   1       3.543  -2.406  -7.410  0.00  0.00    -0.506 OA
ATOM     40  H   LIG d   1       2.703  -2.833  -7.192  0.00  0.00     0.292 HD
ENDBRANCH  32  39
ENDBRANCH   1  25
BRANCH   3  41
ATOM     41  C   LIG d   1       4.926  -0.580  -2.485  0.00  0.00     0.438 C 
ATOM     42  F   LIG d   1       5.094  -1.959  -2.317  0.00  0.00    -0.164 F 
ATOM     43  F   LIG d   1       6.173   0.021  -2.684  0.00  0.00    -0.164 F 
ATOM     44  F   LIG d   1       4.326  -0.042  -1.343  0.00  0.00    -0.164 F 
ENDBRANCH   3  41
TORSDOF 10
ENDMDL
MODEL 8
REMARK VINA RESULT:      -5.6      3.447      4.547
REMARK  10 active torsions:
REMARK  status: ('A' for Active; 'I' for Inactive)
REMARK    1  A    between atoms: C_1  and  O_2 
REMARK    2  A    between atoms: O_2  and  C_3 
REMARK    3  A    between atoms: C_6  and  C_10 
REMARK    4  A    between atoms: C_7  and  O_9 
REMARK    5  A    between atoms: C_11  and  C_19 
REMARK    6  A    between atoms: C_12  and  C_15 
REMARK    7  A    between atoms: C_22  and  O_27 
REMARK    8  A    between atoms: C_23  and  O_25 
REMARK    9  A    between atoms: O_25  and  C_26 
REMARK   10  A    between atoms: O_27  and  C_28 
ROOT
ATOM      1  C   LIG d   1       7.131   0.670  -4.697  0.00  0.00     0.179 A 
ATOM      2  C   LIG d   1       6.336  -0.318  -4.142  0.00  0.00     0.061 A 
ATOM      3  C   LIG d   1       5.611   0.268  -3.081  0.00  0.00     0.194 A 
ATOM      4  N   LIG d   1       5.947   1.522  -3.001  0.00  0.00    -0.073 NA
ATOM      5  O   LIG d   1       6.906   1.801  -4.002  0.00  0.00    -0.353 OA
ENDROOT
BRANCH   2   6
ATOM      6  C   LIG d   1       6.258  -1.731  -4.582  0.00  0.00    -0.009 A 
ATOM      7  C   LIG d   1       7.295  -2.614  -4.284  0.00  0.00    -0.008 A 
ATOM      8  C   LIG d   1       7.215  -3.933  -4.692  0.00  0.00     0.162 A 
ATOM      9  H   LIG d   1       8.157  -2.269  -3.731  0.00  0.00     0.066 H 
ATOM     10  C   LIG d   1       6.106  -4.374  -5.409  0.00  0.00     0.162 A 
ATOM     11  C   LIG d   1       5.078  -3.495  -5.710  0.00  0.00    -0.016 A 
ATOM     12  C   LIG d   1       5.150  -2.179  -5.301  0.00  0.00    -0.050 A 
ATOM     13  H   LIG d   1       4.219  -3.840  -6.266  0.00  0.00     0.066 H 
ATOM     14  H   LIG d   1       4.348  -1.496  -5.536  0.00  0.00     0.062 H 
BRANCH   8  15
ATOM     15  O   LIG d   1       8.223  -4.799  -4.398  0.00  0.00    -0.491 OA
BRANCH  15  16
ATOM     16  C   LIG d   1       9.193  -4.364  -3.442  0.00  0.00     0.079 C 
ATOM     17  H   LIG d   1       8.828  -3.472  -2.934  0.00  0.00     0.066 H 
ATOM     18  H   LIG d   1       9.363  -5.155  -2.711  0.00  0.00     0.066 H 
ATOM     19  H   LIG d   1      10.129  -4.135  -3.953  0.00  0.00     0.066 H 
ENDBRANCH  15  16
ENDBRANCH   8  15
BRANCH  10  20
ATOM     20  O   LIG d   1       6.032  -5.671  -5.814  0.00  0.00    -0.491 OA
BRANCH  20  21
ATOM     21  C   LIG d   1       4.790  -6.346  -5.601  0.00  0.00     0.079 C 
ATOM     22  H   LIG d   1       4.967  -7.261  -5.033  0.00  0.00     0.066 H 
ATOM     23  H   LIG d   1       4.114  -5.698  -5.044  0.00  0.00     0.066 H 
ATOM     24  H   LIG d   1       4.344  -6.597  -6.564  0.00  0.00     0.066 H 
ENDBRANCH  20  21
ENDBRANCH  10  20
ENDBRANCH   2   6
BRANCH   1  25
ATOM     25  C   LIG d   1       8.057   0.511  -5.831  0.00  0.00     0.062 A 
ATOM     26  C   LIG d   1       7.560   0.401  -7.133  0.00  0.00    -0.044 A 
ATOM     27  C   LIG d   1       8.429   0.253  -8.190  0.00  0.00    -0.019 A 
ATOM     28  H   LIG d   1       6.495   0.431  -7.308  0.00  0.00     0.063 H 
ATOM     29  C   LIG d   1       9.802   0.214  -7.968  0.00  0.00     0.124 A 
ATOM     30  H   LIG d   1       8.044   0.168  -9.195  0.00  0.00     0.065 H 
ATOM     31  C   LIG d   1      10.305   0.318  -6.680  0.00  0.00     0.022 A 
ATOM     32  C   LIG d   1       9.442   0.471  -5.609  0.00  0.00     0.131 A 
ATOM     33  H   LIG d   1      11.371   0.282  -6.513  0.00  0.00     0.069 H 
BRANCH  29  34
ATOM     34  O   LIG d   1      10.652   0.068  -9.017  0.00  0.00    -0.495 OA
BRANCH  34  35
ATOM     35  C   LIG d   1      10.556   1.030 -10.070  0.00  0.00     0.079 C 
ATOM     36  H   LIG d   1       9.806   1.778  -9.811  0.00  0.00     0.066 H 
ATOM     37  H   LIG d   1      11.522   1.516 -10.207  0.00  0.00     0.066 H 
ATOM     38  H   LIG d   1      10.267   0.530 -10.994  0.00  0.00     0.066 H 
ENDBRANCH  34  35
ENDBRANCH  29  34
BRANCH  32  39
ATOM     39  O   LIG d   1       9.933   0.578  -4.348  0.00  0.00    -0.506 OA
ATOM     40  H   LIG d   1      10.110  -0.271  -3.922  0.00  0.00     0.292 HD
ENDBRANCH  32  39
ENDBRANCH   1  25
BRANCH   3  41
ATOM     41  C   LIG d   1       4.618  -0.440  -2.193  0.00  0.00     0.438 C 
ATOM     42  F   LIG d   1       3.394  -0.551  -2.861  0.00  0.00    -0.164 F 
ATOM     43  F   LIG d   1       5.098  -1.717  -1.883  0.00  0.00    -0.164 F 
ATOM     44  F   LIG d   1       4.442   0.292  -1.016  0.00  0.00    -0.164 F 
ENDBRANCH   3  41
TORSDOF 10
ENDMDL
MODEL 9
REMARK VINA RESULT:      -5.6      2.955      5.565
REMARK  10 active torsions:
REMARK  status: ('A' for Active; 'I' for Inactive)
REMARK    1  A    between atoms: C_1  and  O_2 
REMARK    2  A    between atoms: O_2  and  C_3 
REMARK    3  A    between atoms: C_6  and  C_10 
REMARK    4  A    between atoms: C_7  and  O_9 
REMARK    5  A    between atoms: C_11  and  C_19 
REMARK    6  A    between atoms: C_12  and  C_15 
REMARK    7  A    between atoms: C_22  and  O_27 
REMARK    8  A    between atoms: C_23  and  O_25 
REMARK    9  A    between atoms: O_25  and  C_26 
REMARK   10  A    between atoms: O_27  and  C_28 
ROOT
ATOM      1  C   LIG d   1       6.908  -0.831  -4.187  0.00  0.00     0.179 A 
ATOM      2  C   LIG d   1       5.589  -1.238  -4.297  0.00  0.00     0.061 A 
ATOM      3  C   LIG d   1       4.839  -0.501  -3.354  0.00  0.00     0.194 A 
ATOM      4  N   LIG d   1       5.650   0.295  -2.719  0.00  0.00    -0.073 NA
ATOM      5  O   LIG d   1       6.959   0.104  -3.219  0.00  0.00    -0.353 OA
ENDROOT
BRANCH   2   6
ATOM      6  C   LIG d   1       5.060  -2.257  -5.233  0.00  0.00    -0.009 A 
ATOM      7  C   LIG d   1       4.865  -3.569  -4.800  0.00  0.00    -0.008 A 
ATOM      8  C   LIG d   1       4.366  -4.516  -5.676  0.00  0.00     0.162 A 
ATOM      9  H   LIG d   1       5.098  -3.842  -3.782  0.00  0.00     0.066 H 
ATOM     10  C   LIG d   1       4.072  -4.162  -6.990  0.00  0.00     0.162 A 
ATOM     11  C   LIG d   1       4.272  -2.861  -7.421  0.00  0.00    -0.016 A 
ATOM     12  C   LIG d   1       4.765  -1.910  -6.551  0.00  0.00    -0.050 A 
ATOM     13  H   LIG d   1       4.042  -2.590  -8.441  0.00  0.00     0.066 H 
ATOM     14  H   LIG d   1       4.919  -0.896  -6.888  0.00  0.00     0.062 H 
BRANCH   8  15
ATOM     15  O   LIG d   1       4.169  -5.795  -5.255  0.00  0.00    -0.491 OA
BRANCH  15  16
ATOM     16  C   LIG d   1       5.229  -6.725  -5.487  0.00  0.00     0.079 C 
ATOM     17  H   LIG d   1       6.185  -6.205  -5.439  0.00  0.00     0.066 H 
ATOM     18  H   LIG d   1       5.201  -7.506  -4.726  0.00  0.00     0.066 H 
ATOM     19  H   LIG d   1       5.108  -7.174  -6.473  0.00  0.00     0.066 H 
ENDBRANCH  15  16
ENDBRANCH   8  15
BRANCH  10  20
ATOM     20  O   LIG d   1       3.586  -5.097  -7.852  0.00  0.00    -0.491 OA
BRANCH  20  21
ATOM     21  C   LIG d   1       3.196  -4.642  -9.149  0.00  0.00     0.079 C 
ATOM     22  H   LIG d   1       2.388  -3.915  -9.051  0.00  0.00     0.066 H 
ATOM     23  H   LIG d   1       4.047  -4.173  -9.641  0.00  0.00     0.066 H 
ATOM     24  H   LIG d   1       2.853  -5.489  -9.743  0.00  0.00     0.066 H 
ENDBRANCH  20  21
ENDBRANCH  10  20
ENDBRANCH   2   6
BRANCH   1  25
ATOM     25  C   LIG d   1       8.045  -1.333  -4.978  0.00  0.00     0.062 A 
ATOM     26  C   LIG d   1       8.376  -0.728  -6.194  0.00  0.00    -0.044 A 
ATOM     27  C   LIG d   1       9.440  -1.200  -6.929  0.00  0.00    -0.019 A 
ATOM     28  H   LIG d   1       7.797   0.108  -6.556  0.00  0.00     0.063 H 
ATOM     29  C   LIG d   1      10.188  -2.277  -6.466  0.00  0.00     0.124 A 
ATOM     30  H   LIG d   1       9.694  -0.731  -7.868  0.00  0.00     0.065 H 
ATOM     31  C   LIG d   1       9.865  -2.888  -5.263  0.00  0.00     0.022 A 
ATOM     32  C   LIG d   1       8.800  -2.419  -4.512  0.00  0.00     0.131 A 
ATOM     33  H   LIG d   1      10.446  -3.726  -4.911  0.00  0.00     0.069 H 
BRANCH  29  34
ATOM     34  O   LIG d   1      11.236  -2.736  -7.198  0.00  0.00    -0.495 OA
BRANCH  34  35
ATOM     35  C   LIG d   1      11.489  -4.142  -7.158  0.00  0.00     0.079 C 
ATOM     36  H   LIG d   1      10.548  -4.684  -7.250  0.00  0.00     0.066 H 
ATOM     37  H   LIG d   1      12.149  -4.416  -7.981  0.00  0.00     0.066 H 
ATOM     38  H   LIG d   1      11.965  -4.398  -6.211  0.00  0.00     0.066 H 
ENDBRANCH  34  35
ENDBRANCH  29  34
BRANCH  32  39
ATOM     39  O   LIG d   1       8.486  -3.012  -3.332  0.00  0.00    -0.506 OA
ATOM     40  H   LIG d   1       7.664  -3.521  -3.354  0.00  0.00     0.292 HD
ENDBRANCH  32  39
ENDBRANCH   1  25
BRANCH   3  41
ATOM     41  C   LIG d   1       3.353  -0.616  -3.122  0.00  0.00     0.438 C 
ATOM     42  F   LIG d   1       2.938   0.395  -2.250  0.00  0.00    -0.164 F 
ATOM     43  F   LIG d   1       2.681  -0.486  -4.342  0.00  0.00    -0.164 F 
ATOM     44  F   LIG d   1       3.065  -1.864  -2.561  0.00  0.00    -0.164 F 
ENDBRANCH   3  41
TORSDOF 10
ENDMDL
MODEL 10
REMARK VINA RESULT:      -5.5      3.741      5.700
REMARK  10 active torsions:
REMARK  status: ('A' for Active; 'I' for Inactive)
REMARK    1  A    between atoms: C_1  and  O_2 
REMARK    2  A    between atoms: O_2  and  C_3 
REMARK    3  A    between atoms: C_6  and  C_10 
REMARK    4  A    between atoms: C_7  and  O_9 
REMARK    5  A    between atoms: C_11  and  C_19 
REMARK    6  A    between atoms: C_12  and  C_15 
REMARK    7  A    between atoms: C_22  and  O_27 
REMARK    8  A    between atoms: C_23  and  O_25 
REMARK    9  A    between atoms: O_25  and  C_26 
REMARK   10  A    between atoms: O_27  and  C_28 
ROOT
ATOM      1  C   LIG d   1       9.337  -1.657  -5.748  0.00  0.00     0.179 A 
ATOM      2  C   LIG d   1       8.763  -2.392  -4.726  0.00  0.00     0.061 A 
ATOM      3  C   LIG d   1       9.774  -3.207  -4.171  0.00  0.00     0.194 A 
ATOM      4  N   LIG d   1      10.882  -2.979  -4.815  0.00  0.00    -0.073 NA
ATOM      5  O   LIG d   1      10.635  -2.012  -5.817  0.00  0.00    -0.353 OA
ENDROOT
BRANCH   2   6
ATOM      6  C   LIG d   1       7.348  -2.334  -4.292  0.00  0.00    -0.009 A 
ATOM      7  C   LIG d   1       6.429  -3.266  -4.775  0.00  0.00    -0.008 A 
ATOM      8  C   LIG d   1       5.110  -3.211  -4.363  0.00  0.00     0.162 A 
ATOM      9  H   LIG d   1       6.750  -4.031  -5.467  0.00  0.00     0.066 H 
ATOM     10  C   LIG d   1       4.699  -2.220  -3.476  0.00  0.00     0.162 A 
ATOM     11  C   LIG d   1       5.610  -1.291  -3.000  0.00  0.00    -0.016 A 
ATOM     12  C   LIG d   1       6.929  -1.343  -3.404  0.00  0.00    -0.050 A 
ATOM     13  H   LIG d   1       5.288  -0.523  -2.312  0.00  0.00     0.066 H 
ATOM     14  H   LIG d   1       7.637  -0.619  -3.032  0.00  0.00     0.062 H 
BRANCH   8  15
ATOM     15  O   LIG d   1       4.214  -4.122  -4.829  0.00  0.00    -0.491 OA
BRANCH  15  16
ATOM     16  C   LIG d   1       4.697  -5.089  -5.763  0.00  0.00     0.079 C 
ATOM     17  H   LIG d   1       4.304  -6.072  -5.506  0.00  0.00     0.066 H 
ATOM     18  H   LIG d   1       4.371  -4.819  -6.768  0.00  0.00     0.066 H 
ATOM     19  H   LIG d   1       5.787  -5.113  -5.730  0.00  0.00     0.066 H 
ENDBRANCH  15  16
ENDBRANCH   8  15
BRANCH  10  20
ATOM     20  O   LIG d   1       3.400  -2.165  -3.076  0.00  0.00    -0.491 OA
BRANCH  20  21
ATOM     21  C   LIG d   1       2.782  -0.876  -3.054  0.00  0.00     0.079 C 
ATOM     22  H   LIG d   1       1.892  -0.910  -2.425  0.00  0.00     0.066 H 
ATOM     23  H   LIG d   1       3.482  -0.144  -2.653  0.00  0.00     0.066 H 
ATOM     24  H   LIG d   1       2.500  -0.592  -4.068  0.00  0.00     0.066 H 
ENDBRANCH  20  21
ENDBRANCH  10  20
ENDBRANCH   2   6
BRANCH   1  25
ATOM     25  C   LIG d   1       8.655  -0.673  -6.607  0.00  0.00     0.062 A 
ATOM     26  C   LIG d   1       8.054  -1.081  -7.801  0.00  0.00    -0.044 A 
ATOM     27  C   LIG d   1       7.417  -0.159  -8.600  0.00  0.00    -0.019 A 
ATOM     28  H   LIG d   1       8.092  -2.119  -8.097  0.00  0.00     0.063 H 
ATOM     29  C   LIG d   1       7.366   1.178  -8.223  0.00  0.00     0.124 A 
ATOM     30  H   LIG d   1       6.953  -0.476  -9.523  0.00  0.00     0.065 H 
ATOM     31  C   LIG d   1       7.963   1.595  -7.041  0.00  0.00     0.022 A 
ATOM     32  C   LIG d   1       8.603   0.676  -6.227  0.00  0.00     0.131 A 
ATOM     33  H   LIG d   1       7.925   2.635  -6.756  0.00  0.00     0.069 H 
BRANCH  29  34
ATOM     34  O   LIG d   1       6.735   2.082  -9.017  0.00  0.00    -0.495 OA
BRANCH  34  35
ATOM     35  C   LIG d   1       5.318   1.952  -9.148  0.00  0.00     0.079 C 
ATOM     36  H   LIG d   1       5.081   0.985  -9.589  0.00  0.00     0.066 H 
ATOM     37  H   LIG d   1       4.855   2.027  -8.164  0.00  0.00     0.066 H 
ATOM     38  H   LIG d   1       4.938   2.748  -9.789  0.00  0.00     0.066 H 
ENDBRANCH  34  35
ENDBRANCH  29  34
BRANCH  32  39
ATOM     39  O   LIG d   1       9.183   1.081  -5.068  0.00  0.00    -0.506 OA
ATOM     40  H   LIG d   1       9.986   1.605  -5.192  0.00  0.00     0.292 HD
ENDBRANCH  32  39
ENDBRANCH   1  25
BRANCH   3  41
ATOM     41  C   LIG d   1       9.600  -4.175  -3.028  0.00  0.00     0.438 C 
ATOM     42  F   LIG d   1       9.011  -3.515  -1.945  0.00  0.00    -0.164 F 
ATOM     43  F   LIG d   1       8.778  -5.232  -3.434  0.00  0.00    -0.164 F 
ATOM     44  F   LIG d   1      10.849  -4.675  -2.647  0.00  0.00    -0.164 F 
ENDBRANCH   3  41
TORSDOF 10
ENDMDL
