MODEL 1
REMARK VINA RESULT:      -5.9      0.000      0.000
REMARK  15 active torsions:
REMARK  status: ('A' for Active; 'I' for Inactive)
REMARK    1  A    between atoms: C_1  and  C_2 
REMARK    2  A    between atoms: C_2  and  C_4 
REMARK    3  A    between atoms: C_2  and  C_12 
REMARK    4  A    between atoms: C_5  and  C_6 
REMARK    5  A    between atoms: C_6  and  C_8 
REMARK    6  A    between atoms: C_6  and  C_9 
REMARK    7  A    between atoms: C_9  and  C_10 
REMARK    8  A    between atoms: C_9  and  C_11 
REMARK    9  A    between atoms: C_18  and  C_40 
REMARK   10  A    between atoms: C_27  and  C_39 
REMARK   11  A    between atoms: C_30  and  O_35 
REMARK   12  A    between atoms: C_32  and  C_33 
REMARK   13  A    between atoms: C_32  and  C_34 
REMARK   14  A    between atoms: O_35  and  C_36 
REMARK   15  A    between atoms: C_36  and  C_38 
ROOT
ATOM      1  C   LIG d   1       7.836  -1.111  -5.388  0.00  0.00    -0.029 C 
ATOM      2  H   LIG d   1       6.918  -1.232  -5.959  0.00  0.00     0.031 H 
ATOM      3  C   LIG d   1       9.032  -1.743  -6.150  0.00  0.00    -0.049 C 
ATOM      4  C   LIG d   1      10.157  -0.671  -6.169  0.00  0.00    -0.046 C 
ATOM      5  C   LIG d   1       9.731   0.290  -5.045  0.00  0.00    -0.014 C 
ATOM      6  H   LIG d   1       9.953  -0.158  -4.067  0.00  0.00     0.035 H 
ATOM      7  C   LIG d   1       8.205   0.373  -5.288  0.00  0.00    -0.022 C 
ATOM      8  C   LIG d   1       7.509   1.213  -4.262  0.00  0.00    -0.046 C 
ATOM      9  C   LIG d   1       8.452   2.236  -3.614  0.00  0.00    -0.045 C 
ATOM     10  C   LIG d   1       9.432   2.788  -4.641  0.00  0.00    -0.010 C 
ATOM     11  H   LIG d   1       8.829   3.111  -5.507  0.00  0.00     0.035 H 
ATOM     12  C   LIG d   1      10.315   1.663  -5.122  0.00  0.00    -0.062 C 
ATOM     13  C   LIG d   1      11.515   1.913  -5.595  0.00  0.00    -0.062 C 
ATOM     14  C   LIG d   1      12.104   3.255  -5.500  0.00  0.00    -0.061 C 
ATOM     15  C   LIG d   1      11.535   4.210  -4.776  0.00  0.00    -0.054 C 
ATOM     16  C   LIG d   1      10.158   4.023  -4.214  0.00  0.00    -0.004 C 
ATOM     17  C   LIG d   1      10.152   4.342  -2.734  0.00  0.00    -0.040 C 
ATOM     18  C   LIG d   1      10.673   5.765  -2.525  0.00  0.00    -0.014 C 
ATOM     19  C   LIG d   1      12.065   5.970  -3.088  0.00  0.00     0.112 C 
ATOM     20  H   LIG d   1      12.779   5.421  -2.456  0.00  0.00     0.074 H 
ATOM     21  C   LIG d   1      12.264   5.512  -4.538  0.00  0.00     0.024 C 
ATOM     22  H   LIG d   1       9.376  -2.634  -5.625  0.00  0.00     0.027 H 
ATOM     23  H   LIG d   1       8.735  -1.994  -7.166  0.00  0.00     0.027 H 
ATOM     24  H   LIG d   1      11.117  -1.134  -5.918  0.00  0.00     0.027 H 
ATOM     25  H   LIG d   1      10.225  -0.176  -7.129  0.00  0.00     0.027 H 
ATOM     26  H   LIG d   1       6.699   1.770  -4.759  0.00  0.00     0.027 H 
ATOM     27  H   LIG d   1       7.052   0.611  -3.482  0.00  0.00     0.027 H 
ATOM     28  H   LIG d   1       7.856   3.048  -3.196  0.00  0.00     0.027 H 
ATOM     29  H   LIG d   1       9.003   1.749  -2.807  0.00  0.00     0.027 H 
ATOM     30  H   LIG d   1      12.078   1.116  -6.063  0.00  0.00     0.062 H 
ATOM     31  H   LIG d   1      12.992   3.449  -6.086  0.00  0.00     0.062 H 
ATOM     32  H   LIG d   1       9.138   4.261  -2.339  0.00  0.00     0.028 H 
ATOM     33  H   LIG d   1      10.795   3.633  -2.205  0.00  0.00     0.028 H 
ATOM     34  H   LIG d   1       9.986   6.510  -2.909  0.00  0.00     0.030 H 
ATOM     35  H   LIG d   1      10.726   5.938  -1.433  0.00  0.00     0.030 H 
ENDROOT
BRANCH   1  36
ATOM     36  C   LIG d   1       7.706  -1.757  -4.010  0.00  0.00    -0.022 C 
ATOM     37  H   LIG d   1       8.214  -1.139  -3.270  0.00  0.00     0.034 H 
BRANCH  36  38
ATOM     38  C   LIG d   1       8.342  -3.148  -4.037  0.00  0.00    -0.059 C 
ATOM     39  H   LIG d   1       7.568  -3.898  -4.201  0.00  0.00     0.024 H 
ATOM     40  H   LIG d   1       9.072  -3.197  -4.845  0.00  0.00     0.024 H 
ATOM     41  H   LIG d   1       8.838  -3.340  -3.086  0.00  0.00     0.024 H 
ENDBRANCH  36  38
BRANCH  36  42
ATOM     42  C   LIG d   1       6.248  -1.878  -3.648  0.00  0.00    -0.085 C 
ATOM     43  C   LIG d   1       5.794  -1.307  -2.559  0.00  0.00    -0.085 C 
ATOM     44  H   LIG d   1       6.465  -0.751  -1.921  0.00  0.00     0.057 H 
ATOM     45  H   LIG d   1       5.577  -2.434  -4.286  0.00  0.00     0.057 H 
BRANCH  43  46
ATOM     46  C   LIG d   1       4.336  -1.428  -2.196  0.00  0.00    -0.023 C 
ATOM     47  H   LIG d   1       4.245  -1.854  -1.197  0.00  0.00     0.034 H 
BRANCH  46  48
ATOM     48  C   LIG d   1       3.633  -2.337  -3.206  0.00  0.00    -0.059 C 
ATOM     49  H   LIG d   1       4.003  -3.356  -3.095  0.00  0.00     0.024 H 
ATOM     50  H   LIG d   1       2.558  -2.319  -3.024  0.00  0.00     0.024 H 
ATOM     51  H   LIG d   1       3.837  -1.984  -4.217  0.00  0.00     0.024 H 
ENDBRANCH  46  48
BRANCH  46  52
ATOM     52  C   LIG d   1       3.689  -0.042  -2.220  0.00  0.00    -0.041 C 
ATOM     53  H   LIG d   1       2.824  -0.033  -1.556  0.00  0.00     0.030 H 
BRANCH  52  54
ATOM     54  C   LIG d   1       4.704   1.003  -1.749  0.00  0.00    -0.062 C 
ATOM     55  H   LIG d   1       5.340   0.569  -0.978  0.00  0.00     0.023 H 
ATOM     56  H   LIG d   1       5.317   1.318  -2.594  0.00  0.00     0.023 H 
ATOM     57  H   LIG d   1       4.175   1.865  -1.343  0.00  0.00     0.023 H 
ENDBRANCH  52  54
BRANCH  52  58
ATOM     58  C   LIG d   1       3.241   0.288  -3.644  0.00  0.00    -0.062 C 
ATOM     59  H   LIG d   1       3.726  -0.392  -4.345  0.00  0.00     0.023 H 
ATOM     60  H   LIG d   1       2.159   0.177  -3.721  0.00  0.00     0.023 H 
ATOM     61  H   LIG d   1       3.519   1.315  -3.884  0.00  0.00     0.023 H 
ENDBRANCH  52  58
ENDBRANCH  46  52
ENDBRANCH  43  46
ENDBRANCH  36  42
ENDBRANCH   1  36
BRANCH   7  62
ATOM     62  C   LIG d   1       7.935   0.979  -6.676  0.00  0.00    -0.059 C 
ATOM     63  H   LIG d   1       6.925   1.389  -6.704  0.00  0.00     0.024 H 
ATOM     64  H   LIG d   1       8.655   1.774  -6.871  0.00  0.00     0.024 H 
ATOM     65  H   LIG d   1       8.035   0.204  -7.436  0.00  0.00     0.024 H 
ENDBRANCH   7  62
BRANCH  16  66
ATOM     66  C   LIG d   1       9.282   5.110  -4.854  0.00  0.00    -0.055 C 
ATOM     67  H   LIG d   1       8.860   4.734  -5.786  0.00  0.00     0.024 H 
ATOM     68  H   LIG d   1       8.475   5.374  -4.171  0.00  0.00     0.024 H 
ATOM     69  H   LIG d   1       9.889   5.991  -5.059  0.00  0.00     0.024 H 
ENDBRANCH  16  66
BRANCH  21  70
ATOM     70  C   LIG d   1      11.867   6.611  -5.524  0.00  0.00    -0.053 C 
ATOM     71  H   LIG d   1      11.767   6.185  -6.522  0.00  0.00     0.024 H 
ATOM     72  H   LIG d   1      10.916   7.047  -5.219  0.00  0.00     0.024 H 
ATOM     73  H   LIG d   1      12.635   7.385  -5.534  0.00  0.00     0.024 H 
ENDBRANCH  21  70
BRANCH  21  74
ATOM     74  C   LIG d   1      13.789   5.282  -4.708  0.00  0.00    -0.053 C 
ATOM     75  H   LIG d   1      14.325   5.801  -3.913  0.00  0.00     0.024 H 
ATOM     76  H   LIG d   1      14.004   4.216  -4.657  0.00  0.00     0.024 H 
ATOM     77  H   LIG d   1      14.108   5.671  -5.676  0.00  0.00     0.024 H 
ENDBRANCH  21  74
BRANCH  19  78
ATOM     78  O   LIG d   1      12.403   7.362  -2.997  0.00  0.00    -0.461 OA
BRANCH  78  79
ATOM     79  C   LIG d   1      12.832   7.808  -1.806  0.00  0.00     0.304 C 
ATOM     80  O   LIG d   1      12.383   8.831  -1.346  0.00  0.00    -0.251 OA
BRANCH  79  81
ATOM     81  C   LIG d   1      13.873   7.032  -1.041  0.00  0.00     0.033 C 
ATOM     82  H   LIG d   1      14.557   7.726  -0.551  0.00  0.00     0.034 H 
ATOM     83  H   LIG d   1      13.385   6.412  -0.289  0.00  0.00     0.034 H 
ATOM     84  H   LIG d   1      14.431   6.396  -1.728  0.00  0.00     0.034 H 
ENDBRANCH  79  81
ENDBRANCH  78  79
ENDBRANCH  19  78
TORSDOF 15
ENDMDL
MODEL 2
REMARK VINA RESULT:      -5.6      7.375     11.528
REMARK  15 active torsions:
REMARK  status: ('A' for Active; 'I' for Inactive)
REMARK    1  A    between atoms: C_1  and  C_2 
REMARK    2  A    between atoms: C_2  and  C_4 
REMARK    3  A    between atoms: C_2  and  C_12 
REMARK    4  A    between atoms: C_5  and  C_6 
REMARK    5  A    between atoms: C_6  and  C_8 
REMARK    6  A    between atoms: C_6  and  C_9 
REMARK    7  A    between atoms: C_9  and  C_10 
REMARK    8  A    between atoms: C_9  and  C_11 
REMARK    9  A    between atoms: C_18  and  C_40 
REMARK   10  A    between atoms: C_27  and  C_39 
REMARK   11  A    between atoms: C_30  and  O_35 
REMARK   12  A    between atoms: C_32  and  C_33 
REMARK   13  A    between atoms: C_32  and  C_34 
REMARK   14  A    between atoms: O_35  and  C_36 
REMARK   15  A    between atoms: C_36  and  C_38 
ROOT
ATOM      1  C   LIG d   1       5.003  -0.938  -6.951  0.00  0.00    -0.029 C 
ATOM      2  H   LIG d   1       5.656  -0.168  -6.549  0.00  0.00     0.031 H 
ATOM      3  C   LIG d   1       5.009  -0.893  -8.504  0.00  0.00    -0.049 C 
ATOM      4  C   LIG d   1       5.260  -2.350  -8.984  0.00  0.00    -0.046 C 
ATOM      5  C   LIG d   1       4.916  -3.184  -7.738  0.00  0.00    -0.014 C 
ATOM      6  H   LIG d   1       3.826  -3.241  -7.617  0.00  0.00     0.035 H 
ATOM      7  C   LIG d   1       5.558  -2.327  -6.620  0.00  0.00    -0.022 C 
ATOM      8  C   LIG d   1       5.305  -2.889  -5.255  0.00  0.00    -0.046 C 
ATOM      9  C   LIG d   1       5.027  -4.398  -5.292  0.00  0.00    -0.045 C 
ATOM     10  C   LIG d   1       5.895  -5.078  -6.343  0.00  0.00    -0.010 C 
ATOM     11  H   LIG d   1       6.930  -4.743  -6.158  0.00  0.00     0.035 H 
ATOM     12  C   LIG d   1       5.506  -4.557  -7.704  0.00  0.00    -0.062 C 
ATOM     13  C   LIG d   1       5.707  -5.283  -8.779  0.00  0.00    -0.062 C 
ATOM     14  C   LIG d   1       6.138  -6.684  -8.678  0.00  0.00    -0.061 C 
ATOM     15  C   LIG d   1       6.160  -7.319  -7.514  0.00  0.00    -0.054 C 
ATOM     16  C   LIG d   1       5.961  -6.567  -6.232  0.00  0.00    -0.004 C 
ATOM     17  C   LIG d   1       4.895  -7.239  -5.395  0.00  0.00    -0.040 C 
ATOM     18  C   LIG d   1       5.289  -8.698  -5.154  0.00  0.00    -0.014 C 
ATOM     19  C   LIG d   1       5.493  -9.471  -6.441  0.00  0.00     0.112 C 
ATOM     20  H   LIG d   1       4.510  -9.624  -6.913  0.00  0.00     0.074 H 
ATOM     21  C   LIG d   1       6.416  -8.807  -7.470  0.00  0.00     0.024 C 
ATOM     22  H   LIG d   1       4.043  -0.544  -8.868  0.00  0.00     0.027 H 
ATOM     23  H   LIG d   1       5.805  -0.239  -8.854  0.00  0.00     0.027 H 
ATOM     24  H   LIG d   1       4.572  -2.597  -9.799  0.00  0.00     0.027 H 
ATOM     25  H   LIG d   1       6.283  -2.496  -9.307  0.00  0.00     0.027 H 
ATOM     26  H   LIG d   1       6.205  -2.727  -4.640  0.00  0.00     0.027 H 
ATOM     27  H   LIG d   1       4.480  -2.391  -4.754  0.00  0.00     0.027 H 
ATOM     28  H   LIG d   1       5.239  -4.818  -4.308  0.00  0.00     0.027 H 
ATOM     29  H   LIG d   1       3.973  -4.559  -5.527  0.00  0.00     0.027 H 
ATOM     30  H   LIG d   1       5.554  -4.843  -9.755  0.00  0.00     0.062 H 
ATOM     31  H   LIG d   1       6.488  -7.161  -9.584  0.00  0.00     0.062 H 
ATOM     32  H   LIG d   1       4.793  -6.724  -4.437  0.00  0.00     0.028 H 
ATOM     33  H   LIG d   1       3.937  -7.199  -5.921  0.00  0.00     0.028 H 
ATOM     34  H   LIG d   1       6.155  -8.783  -4.509  0.00  0.00     0.030 H 
ATOM     35  H   LIG d   1       4.455  -9.176  -4.605  0.00  0.00     0.030 H 
ENDROOT
BRANCH   1  36
ATOM     36  C   LIG d   1       3.575  -0.760  -6.438  0.00  0.00    -0.022 C 
ATOM     37  H   LIG d   1       3.141  -1.737  -6.227  0.00  0.00     0.034 H 
BRANCH  36  38
ATOM     38  C   LIG d   1       2.736  -0.048  -7.501  0.00  0.00    -0.059 C 
ATOM     39  H   LIG d   1       1.780  -0.558  -7.610  0.00  0.00     0.024 H 
ATOM     40  H   LIG d   1       2.565   0.985  -7.196  0.00  0.00     0.024 H 
ATOM     41  H   LIG d   1       3.267  -0.062  -8.452  0.00  0.00     0.024 H 
ENDBRANCH  36  38
BRANCH  36  42
ATOM     42  C   LIG d   1       3.595   0.066  -5.177  0.00  0.00    -0.085 C 
ATOM     43  C   LIG d   1       3.139  -0.439  -4.057  0.00  0.00    -0.085 C 
ATOM     44  H   LIG d   1       2.749  -1.446  -4.038  0.00  0.00     0.057 H 
ATOM     45  H   LIG d   1       3.984   1.072  -5.196  0.00  0.00     0.057 H 
BRANCH  43  46
ATOM     46  C   LIG d   1       3.157   0.385  -2.796  0.00  0.00    -0.023 C 
ATOM     47  H   LIG d   1       2.215   0.255  -2.262  0.00  0.00     0.034 H 
BRANCH  46  48
ATOM     48  C   LIG d   1       3.340   1.861  -3.154  0.00  0.00    -0.059 C 
ATOM     49  H   LIG d   1       4.016   1.947  -4.005  0.00  0.00     0.024 H 
ATOM     50  H   LIG d   1       2.374   2.295  -3.413  0.00  0.00     0.024 H 
ATOM     51  H   LIG d   1       3.761   2.393  -2.301  0.00  0.00     0.024 H 
ENDBRANCH  46  48
BRANCH  46  52
ATOM     52  C   LIG d   1       4.315  -0.071  -1.905  0.00  0.00    -0.041 C 
ATOM     53  H   LIG d   1       4.153   0.284  -0.888  0.00  0.00     0.030 H 
BRANCH  52  54
ATOM     54  C   LIG d   1       4.386  -1.600  -1.907  0.00  0.00    -0.062 C 
ATOM     55  H   LIG d   1       4.126  -1.975  -2.896  0.00  0.00     0.023 H 
ATOM     56  H   LIG d   1       5.398  -1.916  -1.651  0.00  0.00     0.023 H 
ATOM     57  H   LIG d   1       3.685  -1.996  -1.172  0.00  0.00     0.023 H 
ENDBRANCH  52  54
BRANCH  52  58
ATOM     58  C   LIG d   1       5.628   0.501  -2.442  0.00  0.00    -0.062 C 
ATOM     59  H   LIG d   1       6.334  -0.311  -2.618  0.00  0.00     0.023 H 
ATOM     60  H   LIG d   1       5.439   1.027  -3.378  0.00  0.00     0.023 H 
ATOM     61  H   LIG d   1       6.047   1.195  -1.713  0.00  0.00     0.023 H 
ENDBRANCH  52  58
ENDBRANCH  46  52
ENDBRANCH  43  46
ENDBRANCH  36  42
ENDBRANCH   1  36
BRANCH   7  62
ATOM     62  C   LIG d   1       7.078  -2.248  -6.839  0.00  0.00    -0.059 C 
ATOM     63  H   LIG d   1       7.284  -1.781  -7.802  0.00  0.00     0.024 H 
ATOM     64  H   LIG d   1       7.530  -1.655  -6.043  0.00  0.00     0.024 H 
ATOM     65  H   LIG d   1       7.499  -3.254  -6.826  0.00  0.00     0.024 H 
ENDBRANCH   7  62
BRANCH  16  66
ATOM     66  C   LIG d   1       7.259  -6.740  -5.428  0.00  0.00    -0.055 C 
ATOM     67  H   LIG d   1       8.053  -7.084  -6.091  0.00  0.00     0.024 H 
ATOM     68  H   LIG d   1       7.542  -5.785  -4.986  0.00  0.00     0.024 H 
ATOM     69  H   LIG d   1       7.102  -7.475  -4.638  0.00  0.00     0.024 H 
ENDBRANCH  16  66
BRANCH  21  70
ATOM     70  C   LIG d   1       7.881  -9.157  -7.205  0.00  0.00    -0.053 C 
ATOM     71  H   LIG d   1       8.036  -9.285  -6.134  0.00  0.00     0.024 H 
ATOM     72  H   LIG d   1       8.133 -10.082  -7.722  0.00  0.00     0.024 H 
ATOM     73  H   LIG d   1       8.518  -8.351  -7.572  0.00  0.00     0.024 H 
ENDBRANCH  21  70
BRANCH  21  74
ATOM     74  C   LIG d   1       6.044  -9.430  -8.842  0.00  0.00    -0.053 C 
ATOM     75  H   LIG d   1       6.772  -9.118  -9.591  0.00  0.00     0.024 H 
ATOM     76  H   LIG d   1       6.047 -10.516  -8.761  0.00  0.00     0.024 H 
ATOM     77  H   LIG d   1       5.051  -9.090  -9.137  0.00  0.00     0.024 H 
ENDBRANCH  21  74
BRANCH  19  78
ATOM     78  O   LIG d   1       6.017 -10.769  -6.125  0.00  0.00    -0.461 OA
BRANCH  78  79
ATOM     79  C   LIG d   1       5.188 -11.629  -5.514  0.00  0.00     0.304 C 
ATOM     80  O   LIG d   1       5.522 -12.161  -4.483  0.00  0.00    -0.251 OA
BRANCH  79  81
ATOM     81  C   LIG d   1       3.838 -11.930  -6.113  0.00  0.00     0.033 C 
ATOM     82  H   LIG d   1       3.954 -12.644  -6.929  0.00  0.00     0.034 H 
ATOM     83  H   LIG d   1       3.188 -12.355  -5.349  0.00  0.00     0.034 H 
ATOM     84  H   LIG d   1       3.396 -11.010  -6.495  0.00  0.00     0.034 H 
ENDBRANCH  79  81
ENDBRANCH  78  79
ENDBRANCH  19  78
TORSDOF 15
ENDMDL
MODEL 3
REMARK VINA RESULT:      -5.5      8.166     10.992
REMARK  15 active torsions:
REMARK  status: ('A' for Active; 'I' for Inactive)
REMARK    1  A    between atoms: C_1  and  C_2 
REMARK    2  A    between atoms: C_2  and  C_4 
REMARK    3  A    between atoms: C_2  and  C_12 
REMARK    4  A    between atoms: C_5  and  C_6 
REMARK    5  A    between atoms: C_6  and  C_8 
REMARK    6  A    between atoms: C_6  and  C_9 
REMARK    7  A    between atoms: C_9  and  C_10 
REMARK    8  A    between atoms: C_9  and  C_11 
REMARK    9  A    between atoms: C_18  and  C_40 
REMARK   10  A    between atoms: C_27  and  C_39 
REMARK   11  A    between atoms: C_30  and  O_35 
REMARK   12  A    between atoms: C_32  and  C_33 
REMARK   13  A    between atoms: C_32  and  C_34 
REMARK   14  A    between atoms: O_35  and  C_36 
REMARK   15  A    between atoms: C_36  and  C_38 
ROOT
ATOM      1  C   LIG d   1       1.122  -2.912 -12.825  0.00  0.00    -0.029 C 
ATOM      2  H   LIG d   1       1.351  -2.535 -13.819  0.00  0.00     0.031 H 
ATOM      3  C   LIG d   1       1.628  -4.372 -12.673  0.00  0.00    -0.049 C 
ATOM      4  C   LIG d   1       2.437  -4.421 -11.347  0.00  0.00    -0.046 C 
ATOM      5  C   LIG d   1       1.959  -3.158 -10.609  0.00  0.00    -0.014 C 
ATOM      6  H   LIG d   1       0.957  -3.326 -10.192  0.00  0.00     0.035 H 
ATOM      7  C   LIG d   1       1.916  -2.135 -11.770  0.00  0.00    -0.022 C 
ATOM      8  C   LIG d   1       1.400  -0.798 -11.333  0.00  0.00    -0.046 C 
ATOM      9  C   LIG d   1       1.603  -0.562  -9.830  0.00  0.00    -0.045 C 
ATOM     10  C   LIG d   1       2.928  -1.155  -9.367  0.00  0.00    -0.010 C 
ATOM     11  H   LIG d   1       3.698  -0.779 -10.062  0.00  0.00     0.035 H 
ATOM     12  C   LIG d   1       2.877  -2.652  -9.544  0.00  0.00    -0.062 C 
ATOM     13  C   LIG d   1       3.625  -3.437  -8.803  0.00  0.00    -0.062 C 
ATOM     14  C   LIG d   1       4.387  -2.906  -7.665  0.00  0.00    -0.061 C 
ATOM     15  C   LIG d   1       4.206  -1.666  -7.229  0.00  0.00    -0.054 C 
ATOM     16  C   LIG d   1       3.385  -0.692  -8.021  0.00  0.00    -0.004 C 
ATOM     17  C   LIG d   1       2.346  -0.044  -7.132  0.00  0.00    -0.040 C 
ATOM     18  C   LIG d   1       3.046   0.621  -5.945  0.00  0.00    -0.014 C 
ATOM     19  C   LIG d   1       3.879  -0.351  -5.135  0.00  0.00     0.112 C 
ATOM     20  H   LIG d   1       3.199  -1.023  -4.590  0.00  0.00     0.074 H 
ATOM     21  C   LIG d   1       4.855  -1.215  -5.942  0.00  0.00     0.024 C 
ATOM     22  H   LIG d   1       0.780  -5.054 -12.615  0.00  0.00     0.027 H 
ATOM     23  H   LIG d   1       2.268  -4.634 -13.513  0.00  0.00     0.027 H 
ATOM     24  H   LIG d   1       2.161  -5.312 -10.774  0.00  0.00     0.027 H 
ATOM     25  H   LIG d   1       3.505  -4.413 -11.526  0.00  0.00     0.027 H 
ATOM     26  H   LIG d   1       1.958  -0.016 -11.874  0.00  0.00     0.027 H 
ATOM     27  H   LIG d   1       0.349  -0.666 -11.572  0.00  0.00     0.027 H 
ATOM     28  H   LIG d   1       1.590   0.511  -9.637  0.00  0.00     0.027 H 
ATOM     29  H   LIG d   1       0.782  -1.030  -9.283  0.00  0.00     0.027 H 
ATOM     30  H   LIG d   1       3.682  -4.492  -9.036  0.00  0.00     0.062 H 
ATOM     31  H   LIG d   1       5.140  -3.549  -7.229  0.00  0.00     0.062 H 
ATOM     32  H   LIG d   1       1.788   0.706  -7.696  0.00  0.00     0.028 H 
ATOM     33  H   LIG d   1       1.649  -0.804  -6.769  0.00  0.00     0.028 H 
ATOM     34  H   LIG d   1       3.635   1.478  -6.249  0.00  0.00     0.030 H 
ATOM     35  H   LIG d   1       2.255   1.018  -5.279  0.00  0.00     0.030 H 
ENDROOT
BRANCH   1  36
ATOM     36  C   LIG d   1      -0.381  -2.859 -12.559  0.00  0.00    -0.022 C 
ATOM     37  H   LIG d   1      -0.559  -2.453 -11.563  0.00  0.00     0.034 H 
BRANCH  36  38
ATOM     38  C   LIG d   1      -0.965  -4.270 -12.647  0.00  0.00    -0.059 C 
ATOM     39  H   LIG d   1      -1.178  -4.510 -13.688  0.00  0.00     0.024 H 
ATOM     40  H   LIG d   1      -0.245  -4.986 -12.249  0.00  0.00     0.024 H 
ATOM     41  H   LIG d   1      -1.885  -4.320 -12.066  0.00  0.00     0.024 H 
ENDBRANCH  36  38
BRANCH  36  42
ATOM     42  C   LIG d   1      -1.042  -1.976 -13.586  0.00  0.00    -0.085 C 
ATOM     43  C   LIG d   1      -2.246  -1.507 -13.369  0.00  0.00    -0.085 C 
ATOM     44  H   LIG d   1      -2.764  -1.753 -12.454  0.00  0.00     0.057 H 
ATOM     45  H   LIG d   1      -0.523  -1.730 -14.501  0.00  0.00     0.057 H 
BRANCH  43  46
ATOM     46  C   LIG d   1      -2.908  -0.625 -14.397  0.00  0.00    -0.023 C 
ATOM     47  H   LIG d   1      -3.928  -0.969 -14.568  0.00  0.00     0.034 H 
BRANCH  46  48
ATOM     48  C   LIG d   1      -2.121  -0.689 -15.707  0.00  0.00    -0.059 C 
ATOM     49  H   LIG d   1      -1.474  -1.566 -15.699  0.00  0.00     0.024 H 
ATOM     50  H   LIG d   1      -2.815  -0.757 -16.545  0.00  0.00     0.024 H 
ATOM     51  H   LIG d   1      -1.513   0.210 -15.810  0.00  0.00     0.024 H 
ENDBRANCH  46  48
BRANCH  46  52
ATOM     52  C   LIG d   1      -2.936   0.818 -13.887  0.00  0.00    -0.041 C 
ATOM     53  H   LIG d   1      -2.100   0.980 -13.207  0.00  0.00     0.030 H 
BRANCH  52  54
ATOM     54  C   LIG d   1      -2.822   1.779 -15.073  0.00  0.00    -0.062 C 
ATOM     55  H   LIG d   1      -3.188   1.288 -15.975  0.00  0.00     0.023 H 
ATOM     56  H   LIG d   1      -3.418   2.670 -14.876  0.00  0.00     0.023 H 
ATOM     57  H   LIG d   1      -1.778   2.062 -15.211  0.00  0.00     0.023 H 
ENDBRANCH  52  54
BRANCH  52  58
ATOM     58  C   LIG d   1      -4.251   1.072 -13.150  0.00  0.00    -0.062 C 
ATOM     59  H   LIG d   1      -5.084   0.707 -13.752  0.00  0.00     0.023 H 
ATOM     60  H   LIG d   1      -4.239   0.550 -12.193  0.00  0.00     0.023 H 
ATOM     61  H   LIG d   1      -4.370   2.143 -12.978  0.00  0.00     0.023 H 
ENDBRANCH  52  58
ENDBRANCH  46  52
ENDBRANCH  43  46
ENDBRANCH  36  42
ENDBRANCH   1  36
BRANCH   7  62
ATOM     62  C   LIG d   1       3.329  -1.946 -12.345  0.00  0.00    -0.059 C 
ATOM     63  H   LIG d   1       3.292  -1.251 -13.184  0.00  0.00     0.024 H 
ATOM     64  H   LIG d   1       3.986  -1.547 -11.572  0.00  0.00     0.024 H 
ATOM     65  H   LIG d   1       3.714  -2.907 -12.687  0.00  0.00     0.024 H 
ENDBRANCH   7  62
BRANCH  16  66
ATOM     66  C   LIG d   1       4.334   0.450  -8.414  0.00  0.00    -0.055 C 
ATOM     67  H   LIG d   1       4.362   1.190  -7.614  0.00  0.00     0.024 H 
ATOM     68  H   LIG d   1       5.335   0.051  -8.576  0.00  0.00     0.024 H 
ATOM     69  H   LIG d   1       3.977   0.920  -9.331  0.00  0.00     0.024 H 
ENDBRANCH  16  66
BRANCH  21  70
ATOM     70  C   LIG d   1       6.184  -0.491  -6.161  0.00  0.00    -0.053 C 
ATOM     71  H   LIG d   1       6.582  -0.752  -7.142  0.00  0.00     0.024 H 
ATOM     72  H   LIG d   1       6.025   0.585  -6.108  0.00  0.00     0.024 H 
ATOM     73  H   LIG d   1       6.893  -0.792  -5.389  0.00  0.00     0.024 H 
ENDBRANCH  21  70
BRANCH  21  74
ATOM     74  C   LIG d   1       5.156  -2.456  -5.061  0.00  0.00    -0.053 C 
ATOM     75  H   LIG d   1       4.461  -3.257  -5.312  0.00  0.00     0.024 H 
ATOM     76  H   LIG d   1       6.177  -2.790  -5.241  0.00  0.00     0.024 H 
ATOM     77  H   LIG d   1       5.042  -2.190  -4.009  0.00  0.00     0.024 H 
ENDBRANCH  21  74
BRANCH  19  78
ATOM     78  O   LIG d   1       4.624   0.384  -4.151  0.00  0.00    -0.461 OA
BRANCH  78  79
ATOM     79  C   LIG d   1       4.113   0.432  -2.911  0.00  0.00     0.304 C 
ATOM     80  O   LIG d   1       3.522   1.417  -2.540  0.00  0.00    -0.251 OA
BRANCH  79  81
ATOM     81  C   LIG d   1       4.276  -0.744  -1.982  0.00  0.00     0.033 C 
ATOM     82  H   LIG d   1       5.247  -0.686  -1.490  0.00  0.00     0.034 H 
ATOM     83  H   LIG d   1       3.487  -0.725  -1.231  0.00  0.00     0.034 H 
ATOM     84  H   LIG d   1       4.212  -1.670  -2.553  0.00  0.00     0.034 H 
ENDBRANCH  79  81
ENDBRANCH  78  79
ENDBRANCH  19  78
TORSDOF 15
ENDMDL
MODEL 4
REMARK VINA RESULT:      -5.5      9.007     13.098
REMARK  15 active torsions:
REMARK  status: ('A' for Active; 'I' for Inactive)
REMARK    1  A    between atoms: C_1  and  C_2 
REMARK    2  A    between atoms: C_2  and  C_4 
REMARK    3  A    between atoms: C_2  and  C_12 
REMARK    4  A    between atoms: C_5  and  C_6 
REMARK    5  A    between atoms: C_6  and  C_8 
REMARK    6  A    between atoms: C_6  and  C_9 
REMARK    7  A    between atoms: C_9  and  C_10 
REMARK    8  A    between atoms: C_9  and  C_11 
REMARK    9  A    between atoms: C_18  and  C_40 
REMARK   10  A    between atoms: C_27  and  C_39 
REMARK   11  A    between atoms: C_30  and  O_35 
REMARK   12  A    between atoms: C_32  and  C_33 
REMARK   13  A    between atoms: C_32  and  C_34 
REMARK   14  A    between atoms: O_35  and  C_36 
REMARK   15  A    between atoms: C_36  and  C_38 
ROOT
ATOM      1  C   LIG d   1       3.784   0.260  -7.681  0.00  0.00    -0.029 C 
ATOM      2  H   LIG d   1       4.826   0.502  -7.481  0.00  0.00     0.031 H 
ATOM      3  C   LIG d   1       3.058   1.484  -8.303  0.00  0.00    -0.049 C 
ATOM      4  C   LIG d   1       2.317   0.960  -9.565  0.00  0.00    -0.046 C 
ATOM      5  C   LIG d   1       2.271  -0.560  -9.328  0.00  0.00    -0.014 C 
ATOM      6  H   LIG d   1       1.503  -0.797  -8.580  0.00  0.00     0.035 H 
ATOM      7  C   LIG d   1       3.692  -0.815  -8.768  0.00  0.00    -0.022 C 
ATOM      8  C   LIG d   1       3.901  -2.246  -8.375  0.00  0.00    -0.046 C 
ATOM      9  C   LIG d   1       2.962  -3.197  -9.129  0.00  0.00    -0.045 C 
ATOM     10  C   LIG d   1       2.766  -2.731 -10.567  0.00  0.00    -0.010 C 
ATOM     11  H   LIG d   1       3.775  -2.559 -10.980  0.00  0.00     0.035 H 
ATOM     12  C   LIG d   1       2.068  -1.393 -10.551  0.00  0.00    -0.062 C 
ATOM     13  C   LIG d   1       1.350  -1.004 -11.579  0.00  0.00    -0.062 C 
ATOM     14  C   LIG d   1       1.049  -1.922 -12.686  0.00  0.00    -0.061 C 
ATOM     15  C   LIG d   1       1.327  -3.217 -12.606  0.00  0.00    -0.054 C 
ATOM     16  C   LIG d   1       2.161  -3.749 -11.478  0.00  0.00    -0.004 C 
ATOM     17  C   LIG d   1       1.464  -4.923 -10.826  0.00  0.00    -0.040 C 
ATOM     18  C   LIG d   1       1.177  -5.989 -11.886  0.00  0.00    -0.014 C 
ATOM     19  C   LIG d   1       0.334  -5.466 -13.032  0.00  0.00     0.112 C 
ATOM     20  H   LIG d   1      -0.688  -5.297 -12.662  0.00  0.00     0.074 H 
ATOM     21  C   LIG d   1       0.829  -4.164 -13.672  0.00  0.00     0.024 C 
ATOM     22  H   LIG d   1       2.338   1.888  -7.592  0.00  0.00     0.027 H 
ATOM     23  H   LIG d   1       3.783   2.245  -8.582  0.00  0.00     0.027 H 
ATOM     24  H   LIG d   1       1.299   1.362  -9.593  0.00  0.00     0.027 H 
ATOM     25  H   LIG d   1       2.842   1.218 -10.476  0.00  0.00     0.027 H 
ATOM     26  H   LIG d   1       4.937  -2.528  -8.625  0.00  0.00     0.027 H 
ATOM     27  H   LIG d   1       3.775  -2.399  -7.308  0.00  0.00     0.027 H 
ATOM     28  H   LIG d   1       3.394  -4.198  -9.121  0.00  0.00     0.027 H 
ATOM     29  H   LIG d   1       1.997  -3.223  -8.618  0.00  0.00     0.027 H 
ATOM     30  H   LIG d   1       0.974   0.010 -11.612  0.00  0.00     0.062 H 
ATOM     31  H   LIG d   1       0.640  -1.491 -13.590  0.00  0.00     0.062 H 
ATOM     32  H   LIG d   1       2.098  -5.345 -10.044  0.00  0.00     0.028 H 
ATOM     33  H   LIG d   1       0.525  -4.588 -10.377  0.00  0.00     0.028 H 
ATOM     34  H   LIG d   1       2.085  -6.453 -12.251  0.00  0.00     0.030 H 
ATOM     35  H   LIG d   1       0.603  -6.796 -11.391  0.00  0.00     0.030 H 
ENDROOT
BRANCH   1  36
ATOM     36  C   LIG d   1       3.070  -0.165  -6.400  0.00  0.00    -0.022 C 
ATOM     37  H   LIG d   1       2.425  -1.017  -6.610  0.00  0.00     0.034 H 
BRANCH  36  38
ATOM     38  C   LIG d   1       2.225   0.998  -5.878  0.00  0.00    -0.059 C 
ATOM     39  H   LIG d   1       2.608   1.935  -6.281  0.00  0.00     0.024 H 
ATOM     40  H   LIG d   1       1.189   0.864  -6.191  0.00  0.00     0.024 H 
ATOM     41  H   LIG d   1       2.274   1.024  -4.789  0.00  0.00     0.024 H 
ENDBRANCH  36  38
BRANCH  36  42
ATOM     42  C   LIG d   1       4.091  -0.551  -5.361  0.00  0.00    -0.085 C 
ATOM     43  C   LIG d   1       3.772  -0.529  -4.090  0.00  0.00    -0.085 C 
ATOM     44  H   LIG d   1       2.778  -0.235  -3.788  0.00  0.00     0.057 H 
ATOM     45  H   LIG d   1       5.085  -0.845  -5.663  0.00  0.00     0.057 H 
BRANCH  43  46
ATOM     46  C   LIG d   1       4.792  -0.914  -3.050  0.00  0.00    -0.023 C 
ATOM     47  H   LIG d   1       5.647  -1.384  -3.537  0.00  0.00     0.034 H 
BRANCH  46  48
ATOM     48  C   LIG d   1       4.165  -1.896  -2.059  0.00  0.00    -0.059 C 
ATOM     49  H   LIG d   1       4.437  -2.915  -2.337  0.00  0.00     0.024 H 
ATOM     50  H   LIG d   1       4.532  -1.684  -1.054  0.00  0.00     0.024 H 
ATOM     51  H   LIG d   1       3.080  -1.791  -2.079  0.00  0.00     0.024 H 
ENDBRANCH  46  48
BRANCH  46  52
ATOM     52  C   LIG d   1       5.257   0.338  -2.303  0.00  0.00    -0.041 C 
ATOM     53  H   LIG d   1       5.723   0.048  -1.362  0.00  0.00     0.030 H 
BRANCH  52  54
ATOM     54  C   LIG d   1       6.271   1.097  -3.162  0.00  0.00    -0.062 C 
ATOM     55  H   LIG d   1       6.220   2.160  -2.930  0.00  0.00     0.023 H 
ATOM     56  H   LIG d   1       7.274   0.725  -2.953  0.00  0.00     0.023 H 
ATOM     57  H   LIG d   1       6.039   0.943  -4.217  0.00  0.00     0.023 H 
ENDBRANCH  52  54
BRANCH  52  58
ATOM     58  C   LIG d   1       4.053   1.238  -2.020  0.00  0.00    -0.062 C 
ATOM     59  H   LIG d   1       3.150   0.631  -1.957  0.00  0.00     0.023 H 
ATOM     60  H   LIG d   1       4.205   1.762  -1.076  0.00  0.00     0.023 H 
ATOM     61  H   LIG d   1       3.946   1.965  -2.826  0.00  0.00     0.023 H 
ENDBRANCH  52  58
ENDBRANCH  46  52
ENDBRANCH  43  46
ENDBRANCH  36  42
ENDBRANCH   1  36
BRANCH   7  62
ATOM     62  C   LIG d   1       4.739  -0.446  -9.832  0.00  0.00    -0.059 C 
ATOM     63  H   LIG d   1       5.716  -0.335  -9.359  0.00  0.00     0.024 H 
ATOM     64  H   LIG d   1       4.788  -1.234 -10.584  0.00  0.00     0.024 H 
ATOM     65  H   LIG d   1       4.458   0.493 -10.308  0.00  0.00     0.024 H 
ENDBRANCH   7  62
BRANCH  16  66
ATOM     66  C   LIG d   1       3.421  -4.347 -12.122  0.00  0.00    -0.055 C 
ATOM     67  H   LIG d   1       4.075  -4.738 -11.342  0.00  0.00     0.024 H 
ATOM     68  H   LIG d   1       3.136  -5.154 -12.796  0.00  0.00     0.024 H 
ATOM     69  H   LIG d   1       3.945  -3.573 -12.681  0.00  0.00     0.024 H 
ENDBRANCH  16  66
BRANCH  21  70
ATOM     70  C   LIG d   1       1.867  -4.442 -14.760  0.00  0.00    -0.053 C 
ATOM     71  H   LIG d   1       1.409  -5.026 -15.558  0.00  0.00     0.024 H 
ATOM     72  H   LIG d   1       2.231  -3.498 -15.165  0.00  0.00     0.024 H 
ATOM     73  H   LIG d   1       2.700  -4.999 -14.333  0.00  0.00     0.024 H 
ENDBRANCH  21  70
BRANCH  21  74
ATOM     74  C   LIG d   1      -0.405  -3.538 -14.374  0.00  0.00    -0.053 C 
ATOM     75  H   LIG d   1      -1.280  -4.163 -14.197  0.00  0.00     0.024 H 
ATOM     76  H   LIG d   1      -0.583  -2.540 -13.975  0.00  0.00     0.024 H 
ATOM     77  H   LIG d   1      -0.216  -3.471 -15.447  0.00  0.00     0.024 H 
ENDBRANCH  21  74
BRANCH  19  78
ATOM     78  O   LIG d   1       0.256  -6.476 -14.048  0.00  0.00    -0.461 OA
BRANCH  78  79
ATOM     79  C   LIG d   1      -0.761  -7.348 -13.964  0.00  0.00     0.304 C 
ATOM     80  O   LIG d   1      -0.570  -8.521 -14.177  0.00  0.00    -0.251 OA
BRANCH  79  81
ATOM     81  C   LIG d   1      -2.141  -6.863 -13.601  0.00  0.00     0.033 C 
ATOM     82  H   LIG d   1      -2.333  -5.910 -14.095  0.00  0.00     0.034 H 
ATOM     83  H   LIG d   1      -2.880  -7.595 -13.925  0.00  0.00     0.034 H 
ATOM     84  H   LIG d   1      -2.209  -6.733 -12.521  0.00  0.00     0.034 H 
ENDBRANCH  79  81
ENDBRANCH  78  79
ENDBRANCH  19  78
TORSDOF 15
ENDMDL
MODEL 5
REMARK VINA RESULT:      -5.5      5.548      9.003
REMARK  15 active torsions:
REMARK  status: ('A' for Active; 'I' for Inactive)
REMARK    1  A    between atoms: C_1  and  C_2 
REMARK    2  A    between atoms: C_2  and  C_4 
REMARK    3  A    between atoms: C_2  and  C_12 
REMARK    4  A    between atoms: C_5  and  C_6 
REMARK    5  A    between atoms: C_6  and  C_8 
REMARK    6  A    between atoms: C_6  and  C_9 
REMARK    7  A    between atoms: C_9  and  C_10 
REMARK    8  A    between atoms: C_9  and  C_11 
REMARK    9  A    between atoms: C_18  and  C_40 
REMARK   10  A    between atoms: C_27  and  C_39 
REMARK   11  A    between atoms: C_30  and  O_35 
REMARK   12  A    between atoms: C_32  and  C_33 
REMARK   13  A    between atoms: C_32  and  C_34 
REMARK   14  A    between atoms: O_35  and  C_36 
REMARK   15  A    between atoms: C_36  and  C_38 
ROOT
ATOM      1  C   LIG d   1       8.739  -8.342  -5.310  0.00  0.00    -0.029 C 
ATOM      2  H   LIG d   1       8.791  -8.952  -6.208  0.00  0.00     0.031 H 
ATOM      3  C   LIG d   1      10.163  -7.902  -4.875  0.00  0.00    -0.049 C 
ATOM      4  C   LIG d   1      10.096  -6.367  -4.641  0.00  0.00    -0.046 C 
ATOM      5  C   LIG d   1       8.586  -6.110  -4.494  0.00  0.00    -0.014 C 
ATOM      6  H   LIG d   1       8.246  -6.438  -3.503  0.00  0.00     0.035 H 
ATOM      7  C   LIG d   1       8.020  -7.022  -5.609  0.00  0.00    -0.022 C 
ATOM      8  C   LIG d   1       6.523  -7.018  -5.644  0.00  0.00    -0.046 C 
ATOM      9  C   LIG d   1       5.933  -5.739  -5.035  0.00  0.00    -0.045 C 
ATOM     10  C   LIG d   1       6.794  -4.531  -5.383  0.00  0.00    -0.010 C 
ATOM     11  H   LIG d   1       6.951  -4.564  -6.475  0.00  0.00     0.035 H 
ATOM     12  C   LIG d   1       8.149  -4.702  -4.743  0.00  0.00    -0.062 C 
ATOM     13  C   LIG d   1       8.888  -3.655  -4.454  0.00  0.00    -0.062 C 
ATOM     14  C   LIG d   1       8.350  -2.293  -4.569  0.00  0.00    -0.061 C 
ATOM     15  C   LIG d   1       7.059  -2.074  -4.784  0.00  0.00    -0.054 C 
ATOM     16  C   LIG d   1       6.144  -3.207  -5.142  0.00  0.00    -0.004 C 
ATOM     17  C   LIG d   1       4.927  -3.196  -4.241  0.00  0.00    -0.040 C 
ATOM     18  C   LIG d   1       4.234  -1.837  -4.350  0.00  0.00    -0.014 C 
ATOM     19  C   LIG d   1       5.147  -0.682  -3.990  0.00  0.00     0.112 C 
ATOM     20  H   LIG d   1       5.328  -0.707  -2.905  0.00  0.00     0.074 H 
ATOM     21  C   LIG d   1       6.506  -0.671  -4.699  0.00  0.00     0.024 C 
ATOM     22  H   LIG d   1      10.440  -8.407  -3.949  0.00  0.00     0.027 H 
ATOM     23  H   LIG d   1      10.880  -8.131  -5.660  0.00  0.00     0.027 H 
ATOM     24  H   LIG d   1      10.609  -6.110  -3.708  0.00  0.00     0.027 H 
ATOM     25  H   LIG d   1      10.529  -5.814  -5.465  0.00  0.00     0.027 H 
ATOM     26  H   LIG d   1       6.199  -7.070  -6.696  0.00  0.00     0.027 H 
ATOM     27  H   LIG d   1       6.099  -7.879  -5.135  0.00  0.00     0.027 H 
ATOM     28  H   LIG d   1       4.923  -5.597  -5.423  0.00  0.00     0.027 H 
ATOM     29  H   LIG d   1       5.883  -5.852  -3.950  0.00  0.00     0.027 H 
ATOM     30  H   LIG d   1       9.909  -3.798  -4.128  0.00  0.00     0.062 H 
ATOM     31  H   LIG d   1       9.057  -1.475  -4.523  0.00  0.00     0.062 H 
ATOM     32  H   LIG d   1       4.235  -3.987  -4.541  0.00  0.00     0.028 H 
ATOM     33  H   LIG d   1       5.236  -3.371  -3.207  0.00  0.00     0.028 H 
ATOM     34  H   LIG d   1       3.783  -1.687  -5.323  0.00  0.00     0.030 H 
ATOM     35  H   LIG d   1       3.396  -1.838  -3.626  0.00  0.00     0.030 H 
ENDROOT
BRANCH   1  36
ATOM     36  C   LIG d   1       8.068  -9.108  -4.172  0.00  0.00    -0.022 C 
ATOM     37  H   LIG d   1       7.425  -8.432  -3.609  0.00  0.00     0.034 H 
BRANCH  36  38
ATOM     38  C   LIG d   1       9.139  -9.685  -3.244  0.00  0.00    -0.059 C 
ATOM     39  H   LIG d   1       9.437 -10.669  -3.602  0.00  0.00     0.024 H 
ATOM     40  H   LIG d   1      10.005  -9.023  -3.235  0.00  0.00     0.024 H 
ATOM     41  H   LIG d   1       8.738  -9.771  -2.234  0.00  0.00     0.024 H 
ENDBRANCH  36  38
BRANCH  36  42
ATOM     42  C   LIG d   1       7.240 -10.231  -4.742  0.00  0.00    -0.085 C 
ATOM     43  C   LIG d   1       6.190 -10.667  -4.090  0.00  0.00    -0.085 C 
ATOM     44  H   LIG d   1       5.918 -10.222  -3.145  0.00  0.00     0.057 H 
ATOM     45  H   LIG d   1       7.512 -10.676  -5.688  0.00  0.00     0.057 H 
BRANCH  43  46
ATOM     46  C   LIG d   1       5.362 -11.790  -4.660  0.00  0.00    -0.023 C 
ATOM     47  H   LIG d   1       5.305 -12.603  -3.935  0.00  0.00     0.034 H 
BRANCH  46  48
ATOM     48  C   LIG d   1       6.011 -12.299  -5.948  0.00  0.00    -0.059 C 
ATOM     49  H   LIG d   1       6.781 -11.597  -6.269  0.00  0.00     0.024 H 
ATOM     50  H   LIG d   1       6.462 -13.276  -5.767  0.00  0.00     0.024 H 
ATOM     51  H   LIG d   1       5.253 -12.388  -6.727  0.00  0.00     0.024 H 
ENDBRANCH  46  48
BRANCH  46  52
ATOM     52  C   LIG d   1       3.952 -11.280  -4.965  0.00  0.00    -0.041 C 
ATOM     53  H   LIG d   1       4.016 -10.342  -5.517  0.00  0.00     0.030 H 
BRANCH  52  54
ATOM     54  C   LIG d   1       3.206 -12.317  -5.808  0.00  0.00    -0.062 C 
ATOM     55  H   LIG d   1       2.311 -11.864  -6.233  0.00  0.00     0.023 H 
ATOM     56  H   LIG d   1       3.855 -12.666  -6.611  0.00  0.00     0.023 H 
ATOM     57  H   LIG d   1       2.923 -13.160  -5.177  0.00  0.00     0.023 H 
ENDBRANCH  52  54
BRANCH  52  58
ATOM     58  C   LIG d   1       3.198 -11.050  -3.655  0.00  0.00    -0.062 C 
ATOM     59  H   LIG d   1       2.149 -11.319  -3.786  0.00  0.00     0.023 H 
ATOM     60  H   LIG d   1       3.636 -11.667  -2.870  0.00  0.00     0.023 H 
ATOM     61  H   LIG d   1       3.271  -9.999  -3.373  0.00  0.00     0.023 H 
ENDBRANCH  52  58
ENDBRANCH  46  52
ENDBRANCH  43  46
ENDBRANCH  36  42
ENDBRANCH   1  36
BRANCH   7  62
ATOM     62  C   LIG d   1       8.539  -6.548  -6.977  0.00  0.00    -0.059 C 
ATOM     63  H   LIG d   1       7.977  -5.669  -7.295  0.00  0.00     0.024 H 
ATOM     64  H   LIG d   1       9.596  -6.294  -6.897  0.00  0.00     0.024 H 
ATOM     65  H   LIG d   1       8.412  -7.345  -7.710  0.00  0.00     0.024 H 
ENDBRANCH   7  62
BRANCH  16  66
ATOM     66  C   LIG d   1       5.599  -2.893  -6.543  0.00  0.00    -0.055 C 
ATOM     67  H   LIG d   1       6.336  -3.180  -7.292  0.00  0.00     0.024 H 
ATOM     68  H   LIG d   1       4.677  -3.450  -6.707  0.00  0.00     0.024 H 
ATOM     69  H   LIG d   1       5.398  -1.824  -6.623  0.00  0.00     0.024 H 
ENDBRANCH  16  66
BRANCH  21  70
ATOM     70  C   LIG d   1       6.415   0.021  -6.060  0.00  0.00    -0.053 C 
ATOM     71  H   LIG d   1       6.126  -0.706  -6.819  0.00  0.00     0.024 H 
ATOM     72  H   LIG d   1       5.670   0.814  -6.015  0.00  0.00     0.024 H 
ATOM     73  H   LIG d   1       7.385   0.448  -6.316  0.00  0.00     0.024 H 
ENDBRANCH  21  70
BRANCH  21  74
ATOM     74  C   LIG d   1       7.442   0.194  -3.815  0.00  0.00    -0.053 C 
ATOM     75  H   LIG d   1       6.928   0.456  -2.890  0.00  0.00     0.024 H 
ATOM     76  H   LIG d   1       8.345  -0.369  -3.582  0.00  0.00     0.024 H 
ATOM     77  H   LIG d   1       7.710   1.104  -4.353  0.00  0.00     0.024 H 
ENDBRANCH  21  74
BRANCH  19  78
ATOM     78  O   LIG d   1       4.470   0.551  -4.277  0.00  0.00    -0.461 OA
BRANCH  78  79
ATOM     79  C   LIG d   1       4.050   1.274  -3.228  0.00  0.00     0.304 C 
ATOM     80  O   LIG d   1       3.404   2.278  -3.406  0.00  0.00    -0.251 OA
BRANCH  79  81
ATOM     81  C   LIG d   1       4.383   0.832  -1.826  0.00  0.00     0.033 C 
ATOM     82  H   LIG d   1       3.897  -0.123  -1.621  0.00  0.00     0.034 H 
ATOM     83  H   LIG d   1       5.463   0.718  -1.728  0.00  0.00     0.034 H 
ATOM     84  H   LIG d   1       4.031   1.579  -1.115  0.00  0.00     0.034 H 
ENDBRANCH  79  81
ENDBRANCH  78  79
ENDBRANCH  19  78
TORSDOF 15
ENDMDL
MODEL 6
REMARK VINA RESULT:      -5.3      6.204      9.588
REMARK  15 active torsions:
REMARK  status: ('A' for Active; 'I' for Inactive)
REMARK    1  A    between atoms: C_1  and  C_2 
REMARK    2  A    between atoms: C_2  and  C_4 
REMARK    3  A    between atoms: C_2  and  C_12 
REMARK    4  A    between atoms: C_5  and  C_6 
REMARK    5  A    between atoms: C_6  and  C_8 
REMARK    6  A    between atoms: C_6  and  C_9 
REMARK    7  A    between atoms: C_9  and  C_10 
REMARK    8  A    between atoms: C_9  and  C_11 
REMARK    9  A    between atoms: C_18  and  C_40 
REMARK   10  A    between atoms: C_27  and  C_39 
REMARK   11  A    between atoms: C_30  and  O_35 
REMARK   12  A    between atoms: C_32  and  C_33 
REMARK   13  A    between atoms: C_32  and  C_34 
REMARK   14  A    between atoms: O_35  and  C_36 
REMARK   15  A    between atoms: C_36  and  C_38 
ROOT
ATOM      1  C   LIG d   1       6.716  -8.848  -6.132  0.00  0.00    -0.029 C 
ATOM      2  H   LIG d   1       6.500  -9.386  -7.052  0.00  0.00     0.031 H 
ATOM      3  C   LIG d   1       8.249  -8.784  -5.893  0.00  0.00    -0.049 C 
ATOM      4  C   LIG d   1       8.585  -7.297  -5.590  0.00  0.00    -0.046 C 
ATOM      5  C   LIG d   1       7.214  -6.709  -5.213  0.00  0.00    -0.014 C 
ATOM      6  H   LIG d   1       6.940  -7.022  -4.197  0.00  0.00     0.035 H 
ATOM      7  C   LIG d   1       6.302  -7.379  -6.269  0.00  0.00    -0.022 C 
ATOM      8  C   LIG d   1       4.859  -7.025  -6.083  0.00  0.00    -0.046 C 
ATOM      9  C   LIG d   1       4.679  -5.693  -5.343  0.00  0.00    -0.045 C 
ATOM     10  C   LIG d   1       5.751  -4.696  -5.765  0.00  0.00    -0.010 C 
ATOM     11  H   LIG d   1       5.750  -4.683  -6.868  0.00  0.00     0.035 H 
ATOM     12  C   LIG d   1       7.099  -5.223  -5.338  0.00  0.00    -0.062 C 
ATOM     13  C   LIG d   1       8.099  -4.401  -5.118  0.00  0.00    -0.062 C 
ATOM     14  C   LIG d   1       7.893  -2.947  -5.097  0.00  0.00    -0.061 C 
ATOM     15  C   LIG d   1       6.676  -2.419  -5.111  0.00  0.00    -0.054 C 
ATOM     16  C   LIG d   1       5.476  -3.279  -5.377  0.00  0.00    -0.004 C 
ATOM     17  C   LIG d   1       4.429  -3.053  -4.308  0.00  0.00    -0.040 C 
ATOM     18  C   LIG d   1       4.074  -1.566  -4.258  0.00  0.00    -0.014 C 
ATOM     19  C   LIG d   1       5.277  -0.684  -3.990  0.00  0.00     0.112 C 
ATOM     20  H   LIG d   1       5.590  -0.831  -2.945  0.00  0.00     0.074 H 
ATOM     21  C   LIG d   1       6.493  -0.936  -4.890  0.00  0.00     0.024 C 
ATOM     22  H   LIG d   1       8.517  -9.407  -5.040  0.00  0.00     0.027 H 
ATOM     23  H   LIG d   1       8.779  -9.115  -6.784  0.00  0.00     0.027 H 
ATOM     24  H   LIG d   1       9.263  -7.236  -4.733  0.00  0.00     0.027 H 
ATOM     25  H   LIG d   1       9.024  -6.801  -6.446  0.00  0.00     0.027 H 
ATOM     26  H   LIG d   1       4.395  -6.922  -7.078  0.00  0.00     0.027 H 
ATOM     27  H   LIG d   1       4.312  -7.800  -5.553  0.00  0.00     0.027 H 
ATOM     28  H   LIG d   1       3.691  -5.293  -5.572  0.00  0.00     0.027 H 
ATOM     29  H   LIG d   1       4.748  -5.872  -4.268  0.00  0.00     0.027 H 
ATOM     30  H   LIG d   1       9.090  -4.801  -4.951  0.00  0.00     0.062 H 
ATOM     31  H   LIG d   1       8.776  -2.321  -5.123  0.00  0.00     0.062 H 
ATOM     32  H   LIG d   1       3.534  -3.636  -4.534  0.00  0.00     0.028 H 
ATOM     33  H   LIG d   1       4.821  -3.371  -3.338  0.00  0.00     0.028 H 
ATOM     34  H   LIG d   1       3.547  -1.244  -5.148  0.00  0.00     0.030 H 
ATOM     35  H   LIG d   1       3.365  -1.426  -3.420  0.00  0.00     0.030 H 
ENDROOT
BRANCH   1  36
ATOM     36  C   LIG d   1       6.038  -9.520  -4.940  0.00  0.00    -0.022 C 
ATOM     37  H   LIG d   1       5.475  -8.777  -4.376  0.00  0.00     0.034 H 
BRANCH  36  38
ATOM     38  C   LIG d   1       7.100 -10.149  -4.037  0.00  0.00    -0.059 C 
ATOM     39  H   LIG d   1       6.656 -10.401  -3.074  0.00  0.00     0.024 H 
ATOM     40  H   LIG d   1       7.487 -11.054  -4.507  0.00  0.00     0.024 H 
ATOM     41  H   LIG d   1       7.916  -9.441  -3.887  0.00  0.00     0.024 H 
ENDBRANCH  36  38
BRANCH  36  42
ATOM     42  C   LIG d   1       5.100 -10.592  -5.434  0.00  0.00    -0.085 C 
ATOM     43  C   LIG d   1       4.893 -10.738  -6.720  0.00  0.00    -0.085 C 
ATOM     44  H   LIG d   1       5.393 -10.090  -7.425  0.00  0.00     0.057 H 
ATOM     45  H   LIG d   1       4.600 -11.239  -4.730  0.00  0.00     0.057 H 
BRANCH  43  46
ATOM     46  C   LIG d   1       3.955 -11.809  -7.215  0.00  0.00    -0.023 C 
ATOM     47  H   LIG d   1       3.200 -11.360  -7.861  0.00  0.00     0.034 H 
BRANCH  46  48
ATOM     48  C   LIG d   1       3.273 -12.481  -6.022  0.00  0.00    -0.059 C 
ATOM     49  H   LIG d   1       2.234 -12.158  -5.969  0.00  0.00     0.024 H 
ATOM     50  H   LIG d   1       3.311 -13.564  -6.145  0.00  0.00     0.024 H 
ATOM     51  H   LIG d   1       3.789 -12.201  -5.104  0.00  0.00     0.024 H 
ENDBRANCH  46  48
BRANCH  46  52
ATOM     52  C   LIG d   1       4.746 -12.852  -8.007  0.00  0.00    -0.041 C 
ATOM     53  H   LIG d   1       4.137 -13.221  -8.832  0.00  0.00     0.030 H 
BRANCH  52  54
ATOM     54  C   LIG d   1       6.021 -12.213  -8.560  0.00  0.00    -0.062 C 
ATOM     55  H   LIG d   1       6.618 -11.821  -7.737  0.00  0.00     0.023 H 
ATOM     56  H   LIG d   1       6.597 -12.963  -9.103  0.00  0.00     0.023 H 
ATOM     57  H   LIG d   1       5.755 -11.400  -9.237  0.00  0.00     0.023 H 
ENDBRANCH  52  54
BRANCH  52  58
ATOM     58  C   LIG d   1       5.117 -14.016  -7.086  0.00  0.00    -0.062 C 
ATOM     59  H   LIG d   1       4.473 -14.005  -6.206  0.00  0.00     0.023 H 
ATOM     60  H   LIG d   1       4.986 -14.958  -7.620  0.00  0.00     0.023 H 
ATOM     61  H   LIG d   1       6.158 -13.916  -6.776  0.00  0.00     0.023 H 
ENDBRANCH  52  58
ENDBRANCH  46  52
ENDBRANCH  43  46
ENDBRANCH  36  42
ENDBRANCH   1  36
BRANCH   7  62
ATOM     62  C   LIG d   1       6.733  -6.938  -7.678  0.00  0.00    -0.059 C 
ATOM     63  H   LIG d   1       7.821  -6.873  -7.722  0.00  0.00     0.024 H 
ATOM     64  H   LIG d   1       6.383  -7.666  -8.410  0.00  0.00     0.024 H 
ATOM     65  H   LIG d   1       6.302  -5.962  -7.900  0.00  0.00     0.024 H 
ENDBRANCH   7  62
BRANCH  16  66
ATOM     66  C   LIG d   1       4.842  -2.743  -6.669  0.00  0.00    -0.055 C 
ATOM     67  H   LIG d   1       5.382  -3.138  -7.529  0.00  0.00     0.024 H 
ATOM     68  H   LIG d   1       3.800  -3.057  -6.719  0.00  0.00     0.024 H 
ATOM     69  H   LIG d   1       4.894  -1.655  -6.675  0.00  0.00     0.024 H 
ENDBRANCH  16  66
BRANCH  21  70
ATOM     70  C   LIG d   1       6.390  -0.143  -6.193  0.00  0.00    -0.053 C 
ATOM     71  H   LIG d   1       6.454   0.923  -5.975  0.00  0.00     0.024 H 
ATOM     72  H   LIG d   1       7.205  -0.427  -6.857  0.00  0.00     0.024 H 
ATOM     73  H   LIG d   1       5.437  -0.359  -6.676  0.00  0.00     0.024 H 
ENDBRANCH  21  70
BRANCH  21  74
ATOM     74  C   LIG d   1       7.718  -0.380  -4.118  0.00  0.00    -0.053 C 
ATOM     75  H   LIG d   1       7.536  -0.455  -3.046  0.00  0.00     0.024 H 
ATOM     76  H   LIG d   1       8.604  -0.957  -4.379  0.00  0.00     0.024 H 
ATOM     77  H   LIG d   1       7.873   0.665  -4.389  0.00  0.00     0.024 H 
ENDBRANCH  21  74
BRANCH  19  78
ATOM     78  O   LIG d   1       4.885   0.690  -4.124  0.00  0.00    -0.461 OA
BRANCH  78  79
ATOM     79  C   LIG d   1       4.329   1.273  -3.051  0.00  0.00     0.304 C 
ATOM     80  O   LIG d   1       3.560   2.194  -3.193  0.00  0.00    -0.251 OA
BRANCH  79  81
ATOM     81  C   LIG d   1       4.662   0.777  -1.667  0.00  0.00     0.033 C 
ATOM     82  H   LIG d   1       3.740   0.621  -1.106  0.00  0.00     0.034 H 
ATOM     83  H   LIG d   1       5.207  -0.164  -1.739  0.00  0.00     0.034 H 
ATOM     84  H   LIG d   1       5.278   1.516  -1.155  0.00  0.00     0.034 H 
ENDBRANCH  79  81
ENDBRANCH  78  79
ENDBRANCH  19  78
TORSDOF 15
ENDMDL
MODEL 7
REMARK VINA RESULT:      -5.0      6.844     10.336
REMARK  15 active torsions:
REMARK  status: ('A' for Active; 'I' for Inactive)
REMARK    1  A    between atoms: C_1  and  C_2 
REMARK    2  A    between atoms: C_2  and  C_4 
REMARK    3  A    between atoms: C_2  and  C_12 
REMARK    4  A    between atoms: C_5  and  C_6 
REMARK    5  A    between atoms: C_6  and  C_8 
REMARK    6  A    between atoms: C_6  and  C_9 
REMARK    7  A    between atoms: C_9  and  C_10 
REMARK    8  A    between atoms: C_9  and  C_11 
REMARK    9  A    between atoms: C_18  and  C_40 
REMARK   10  A    between atoms: C_27  and  C_39 
REMARK   11  A    between atoms: C_30  and  O_35 
REMARK   12  A    between atoms: C_32  and  C_33 
REMARK   13  A    between atoms: C_32  and  C_34 
REMARK   14  A    between atoms: O_35  and  C_36 
REMARK   15  A    between atoms: C_36  and  C_38 
ROOT
ATOM      1  C   LIG d   1       5.459  -4.300  -5.610  0.00  0.00    -0.029 C 
ATOM      2  H   LIG d   1       4.722  -4.744  -4.945  0.00  0.00     0.031 H 
ATOM      3  C   LIG d   1       6.566  -5.333  -5.954  0.00  0.00    -0.049 C 
ATOM      4  C   LIG d   1       6.722  -5.312  -7.500  0.00  0.00    -0.046 C 
ATOM      5  C   LIG d   1       6.063  -3.978  -7.890  0.00  0.00    -0.014 C 
ATOM      6  H   LIG d   1       6.737  -3.144  -7.650  0.00  0.00     0.035 H 
ATOM      7  C   LIG d   1       4.822  -3.977  -6.965  0.00  0.00    -0.022 C 
ATOM      8  C   LIG d   1       4.017  -2.721  -7.092  0.00  0.00    -0.046 C 
ATOM      9  C   LIG d   1       4.223  -2.035  -8.450  0.00  0.00    -0.045 C 
ATOM     10  C   LIG d   1       4.363  -3.070  -9.559  0.00  0.00    -0.010 C 
ATOM     11  H   LIG d   1       3.512  -3.763  -9.449  0.00  0.00     0.035 H 
ATOM     12  C   LIG d   1       5.614  -3.877  -9.313  0.00  0.00    -0.062 C 
ATOM     13  C   LIG d   1       6.237  -4.463 -10.309  0.00  0.00    -0.062 C 
ATOM     14  C   LIG d   1       5.851  -4.203 -11.702  0.00  0.00    -0.061 C 
ATOM     15  C   LIG d   1       4.997  -3.237 -12.015  0.00  0.00    -0.054 C 
ATOM     16  C   LIG d   1       4.224  -2.527 -10.944  0.00  0.00    -0.004 C 
ATOM     17  C   LIG d   1       4.364  -1.029 -11.109  0.00  0.00    -0.040 C 
ATOM     18  C   LIG d   1       3.903  -0.633 -12.513  0.00  0.00    -0.014 C 
ATOM     19  C   LIG d   1       4.676  -1.342 -13.606  0.00  0.00     0.112 C 
ATOM     20  H   LIG d   1       5.698  -0.936 -13.630  0.00  0.00     0.074 H 
ATOM     21  C   LIG d   1       4.774  -2.865 -13.462  0.00  0.00     0.024 C 
ATOM     22  H   LIG d   1       7.505  -5.041  -5.482  0.00  0.00     0.027 H 
ATOM     23  H   LIG d   1       6.267  -6.324  -5.619  0.00  0.00     0.027 H 
ATOM     24  H   LIG d   1       7.784  -5.294  -7.767  0.00  0.00     0.027 H 
ATOM     25  H   LIG d   1       6.237  -6.161  -7.965  0.00  0.00     0.027 H 
ATOM     26  H   LIG d   1       2.949  -2.981  -7.006  0.00  0.00     0.027 H 
ATOM     27  H   LIG d   1       4.238  -2.010  -6.301  0.00  0.00     0.027 H 
ATOM     28  H   LIG d   1       3.368  -1.390  -8.652  0.00  0.00     0.027 H 
ATOM     29  H   LIG d   1       5.126  -1.422  -8.404  0.00  0.00     0.027 H 
ATOM     30  H   LIG d   1       7.046  -5.150 -10.101  0.00  0.00     0.062 H 
ATOM     31  H   LIG d   1       6.251  -4.865 -12.460  0.00  0.00     0.062 H 
ATOM     32  H   LIG d   1       3.755  -0.514 -10.363  0.00  0.00     0.028 H 
ATOM     33  H   LIG d   1       5.410  -0.741 -10.970  0.00  0.00     0.028 H 
ATOM     34  H   LIG d   1       2.836  -0.765 -12.643  0.00  0.00     0.030 H 
ATOM     35  H   LIG d   1       4.088   0.453 -12.624  0.00  0.00     0.030 H 
ENDROOT
BRANCH   1  36
ATOM     36  C   LIG d   1       6.090  -3.065  -4.970  0.00  0.00    -0.022 C 
ATOM     37  H   LIG d   1       6.299  -2.323  -5.741  0.00  0.00     0.034 H 
BRANCH  36  38
ATOM     38  C   LIG d   1       7.395  -3.460  -4.276  0.00  0.00    -0.059 C 
ATOM     39  H   LIG d   1       8.002  -2.570  -4.110  0.00  0.00     0.024 H 
ATOM     40  H   LIG d   1       7.169  -3.930  -3.318  0.00  0.00     0.024 H 
ATOM     41  H   LIG d   1       7.943  -4.162  -4.904  0.00  0.00     0.024 H 
ENDBRANCH  36  38
BRANCH  36  42
ATOM     42  C   LIG d   1       5.138  -2.483  -3.956  0.00  0.00    -0.085 C 
ATOM     43  C   LIG d   1       5.505  -1.458  -3.227  0.00  0.00    -0.085 C 
ATOM     44  H   LIG d   1       6.488  -1.031  -3.352  0.00  0.00     0.057 H 
ATOM     45  H   LIG d   1       4.154  -2.910  -3.831  0.00  0.00     0.057 H 
BRANCH  43  46
ATOM     46  C   LIG d   1       4.554  -0.876  -2.213  0.00  0.00    -0.023 C 
ATOM     47  H   LIG d   1       4.696  -1.375  -1.254  0.00  0.00     0.034 H 
BRANCH  46  48
ATOM     48  C   LIG d   1       3.114  -1.082  -2.687  0.00  0.00    -0.059 C 
ATOM     49  H   LIG d   1       2.438  -0.506  -2.055  0.00  0.00     0.024 H 
ATOM     50  H   LIG d   1       3.020  -0.747  -3.721  0.00  0.00     0.024 H 
ATOM     51  H   LIG d   1       2.858  -2.140  -2.624  0.00  0.00     0.024 H 
ENDBRANCH  46  48
BRANCH  46  52
ATOM     52  C   LIG d   1       4.830   0.621  -2.055  0.00  0.00    -0.041 C 
ATOM     53  H   LIG d   1       5.182   0.821  -1.043  0.00  0.00     0.030 H 
BRANCH  52  54
ATOM     54  C   LIG d   1       5.899   1.050  -3.062  0.00  0.00    -0.062 C 
ATOM     55  H   LIG d   1       5.638   2.024  -3.476  0.00  0.00     0.023 H 
ATOM     56  H   LIG d   1       6.865   1.115  -2.560  0.00  0.00     0.023 H 
ATOM     57  H   LIG d   1       5.956   0.316  -3.866  0.00  0.00     0.023 H 
ENDBRANCH  52  54
BRANCH  52  58
ATOM     58  C   LIG d   1       3.543   1.406  -2.312  0.00  0.00    -0.062 C 
ATOM     59  H   LIG d   1       3.565   2.337  -1.744  0.00  0.00     0.023 H 
ATOM     60  H   LIG d   1       3.461   1.632  -3.375  0.00  0.00     0.023 H 
ATOM     61  H   LIG d   1       2.685   0.810  -1.999  0.00  0.00     0.023 H 
ENDBRANCH  52  58
ENDBRANCH  46  52
ENDBRANCH  43  46
ENDBRANCH  36  42
ENDBRANCH   1  36
BRANCH   7  62
ATOM     62  C   LIG d   1       3.918  -5.171  -7.313  0.00  0.00    -0.059 C 
ATOM     63  H   LIG d   1       4.340  -6.083  -6.891  0.00  0.00     0.024 H 
ATOM     64  H   LIG d   1       2.923  -5.006  -6.900  0.00  0.00     0.024 H 
ATOM     65  H   LIG d   1       3.850  -5.270  -8.397  0.00  0.00     0.024 H 
ENDBRANCH   7  62
BRANCH  16  66
ATOM     66  C   LIG d   1       2.742  -2.816 -11.221  0.00  0.00    -0.055 C 
ATOM     67  H   LIG d   1       2.489  -3.808 -10.844  0.00  0.00     0.024 H 
ATOM     68  H   LIG d   1       2.126  -2.069 -10.721  0.00  0.00     0.024 H 
ATOM     69  H   LIG d   1       2.559  -2.779 -12.295  0.00  0.00     0.024 H 
ENDBRANCH  16  66
BRANCH  21  70
ATOM     70  C   LIG d   1       3.558  -3.559 -14.079  0.00  0.00    -0.053 C 
ATOM     71  H   LIG d   1       2.991  -4.062 -13.296  0.00  0.00     0.024 H 
ATOM     72  H   LIG d   1       2.926  -2.818 -14.566  0.00  0.00     0.024 H 
ATOM     73  H   LIG d   1       3.892  -4.291 -14.814  0.00  0.00     0.024 H 
ENDBRANCH  21  70
BRANCH  21  74
ATOM     74  C   LIG d   1       6.009  -3.295 -14.296  0.00  0.00    -0.053 C 
ATOM     75  H   LIG d   1       6.789  -2.539 -14.206  0.00  0.00     0.024 H 
ATOM     76  H   LIG d   1       6.383  -4.250 -13.927  0.00  0.00     0.024 H 
ATOM     77  H   LIG d   1       5.722  -3.398 -15.343  0.00  0.00     0.024 H 
ENDBRANCH  21  74
BRANCH  19  78
ATOM     78  O   LIG d   1       4.071  -1.040 -14.873  0.00  0.00    -0.461 OA
BRANCH  78  79
ATOM     79  C   LIG d   1       4.708  -0.154 -15.655  0.00  0.00     0.304 C 
ATOM     80  O   LIG d   1       5.913  -0.085 -15.633  0.00  0.00    -0.251 OA
BRANCH  79  81
ATOM     81  C   LIG d   1       3.918   0.754 -16.562  0.00  0.00     0.033 C 
ATOM     82  H   LIG d   1       2.865   0.723 -16.280  0.00  0.00     0.034 H 
ATOM     83  H   LIG d   1       4.289   1.775 -16.467  0.00  0.00     0.034 H 
ATOM     84  H   LIG d   1       4.028   0.423 -17.594  0.00  0.00     0.034 H 
ENDBRANCH  79  81
ENDBRANCH  78  79
ENDBRANCH  19  78
TORSDOF 15
ENDMDL
MODEL 8
REMARK VINA RESULT:      -5.0      3.425      4.095
REMARK  15 active torsions:
REMARK  status: ('A' for Active; 'I' for Inactive)
REMARK    1  A    between atoms: C_1  and  C_2 
REMARK    2  A    between atoms: C_2  and  C_4 
REMARK    3  A    between atoms: C_2  and  C_12 
REMARK    4  A    between atoms: C_5  and  C_6 
REMARK    5  A    between atoms: C_6  and  C_8 
REMARK    6  A    between atoms: C_6  and  C_9 
REMARK    7  A    between atoms: C_9  and  C_10 
REMARK    8  A    between atoms: C_9  and  C_11 
REMARK    9  A    between atoms: C_18  and  C_40 
REMARK   10  A    between atoms: C_27  and  C_39 
REMARK   11  A    between atoms: C_30  and  O_35 
REMARK   12  A    between atoms: C_32  and  C_33 
REMARK   13  A    between atoms: C_32  and  C_34 
REMARK   14  A    between atoms: O_35  and  C_36 
REMARK   15  A    between atoms: C_36  and  C_38 
ROOT
ATOM      1  C   LIG d   1       7.221  -2.294  -5.608  0.00  0.00    -0.029 C 
ATOM      2  H   LIG d   1       6.218  -2.677  -5.780  0.00  0.00     0.031 H 
ATOM      3  C   LIG d   1       8.279  -3.294  -6.148  0.00  0.00    -0.049 C 
ATOM      4  C   LIG d   1       9.260  -2.466  -7.023  0.00  0.00    -0.046 C 
ATOM      5  C   LIG d   1       8.996  -1.023  -6.559  0.00  0.00    -0.014 C 
ATOM      6  H   LIG d   1       9.469  -0.852  -5.583  0.00  0.00     0.035 H 
ATOM      7  C   LIG d   1       7.453  -1.028  -6.439  0.00  0.00    -0.022 C 
ATOM      8  C   LIG d   1       6.917   0.272  -5.921  0.00  0.00    -0.046 C 
ATOM      9  C   LIG d   1       7.872   1.442  -6.195  0.00  0.00    -0.045 C 
ATOM     10  C   LIG d   1       8.544   1.280  -7.552  0.00  0.00    -0.010 C 
ATOM     11  H   LIG d   1       7.738   1.085  -8.279  0.00  0.00     0.035 H 
ATOM     12  C   LIG d   1       9.409   0.045  -7.520  0.00  0.00    -0.062 C 
ATOM     13  C   LIG d   1      10.446  -0.065  -8.319  0.00  0.00    -0.062 C 
ATOM     14  C   LIG d   1      10.905   1.073  -9.127  0.00  0.00    -0.061 C 
ATOM     15  C   LIG d   1      10.415   2.293  -8.945  0.00  0.00    -0.054 C 
ATOM     16  C   LIG d   1       9.219   2.511  -8.067  0.00  0.00    -0.004 C 
ATOM     17  C   LIG d   1       9.504   3.606  -7.063  0.00  0.00    -0.040 C 
ATOM     18  C   LIG d   1       9.913   4.878  -7.808  0.00  0.00    -0.014 C 
ATOM     19  C   LIG d   1      11.122   4.673  -8.700  0.00  0.00     0.112 C 
ATOM     20  H   LIG d   1      12.008   4.545  -8.060  0.00  0.00     0.074 H 
ATOM     21  C   LIG d   1      11.044   3.472  -9.649  0.00  0.00     0.024 C 
ATOM     22  H   LIG d   1       8.817  -3.749  -5.316  0.00  0.00     0.027 H 
ATOM     23  H   LIG d   1       7.794  -4.060  -6.749  0.00  0.00     0.027 H 
ATOM     24  H   LIG d   1      10.293  -2.747  -6.792  0.00  0.00     0.027 H 
ATOM     25  H   LIG d   1       9.068  -2.599  -8.080  0.00  0.00     0.027 H 
ATOM     26  H   LIG d   1       5.966   0.486  -6.436  0.00  0.00     0.027 H 
ATOM     27  H   LIG d   1       6.704   0.232  -4.857  0.00  0.00     0.027 H 
ATOM     28  H   LIG d   1       7.304   2.373  -6.172  0.00  0.00     0.027 H 
ATOM     29  H   LIG d   1       8.631   1.471  -5.411  0.00  0.00     0.027 H 
ATOM     30  H   LIG d   1      10.970  -1.009  -8.383  0.00  0.00     0.062 H 
ATOM     31  H   LIG d   1      11.620   0.867  -9.912  0.00  0.00     0.062 H 
ATOM     32  H   LIG d   1       8.613   3.803  -6.463  0.00  0.00     0.028 H 
ATOM     33  H   LIG d   1      10.314   3.292  -6.399  0.00  0.00     0.028 H 
ATOM     34  H   LIG d   1       9.088   5.305  -8.365  0.00  0.00     0.030 H 
ATOM     35  H   LIG d   1      10.186   5.632  -7.045  0.00  0.00     0.030 H 
ENDROOT
BRANCH   1  36
ATOM     36  C   LIG d   1       7.460  -2.048  -4.119  0.00  0.00    -0.022 C 
ATOM     37  H   LIG d   1       7.946  -1.082  -3.985  0.00  0.00     0.034 H 
BRANCH  36  38
ATOM     38  C   LIG d   1       8.355  -3.153  -3.557  0.00  0.00    -0.059 C 
ATOM     39  H   LIG d   1       7.756  -4.044  -3.366  0.00  0.00     0.024 H 
ATOM     40  H   LIG d   1       9.137  -3.389  -4.278  0.00  0.00     0.024 H 
ATOM     41  H   LIG d   1       8.810  -2.815  -2.626  0.00  0.00     0.024 H 
ENDBRANCH  36  38
BRANCH  36  42
ATOM     42  C   LIG d   1       6.139  -2.051  -3.392  0.00  0.00    -0.085 C 
ATOM     43  C   LIG d   1       5.791  -1.020  -2.662  0.00  0.00    -0.085 C 
ATOM     44  H   LIG d   1       6.450  -0.168  -2.582  0.00  0.00     0.057 H 
ATOM     45  H   LIG d   1       5.481  -2.903  -3.473  0.00  0.00     0.057 H 
BRANCH  43  46
ATOM     46  C   LIG d   1       4.471  -1.023  -1.935  0.00  0.00    -0.023 C 
ATOM     47  H   LIG d   1       4.650  -1.034  -0.859  0.00  0.00     0.034 H 
BRANCH  46  48
ATOM     48  C   LIG d   1       3.673  -2.266  -2.332  0.00  0.00    -0.059 C 
ATOM     49  H   LIG d   1       2.707  -1.963  -2.736  0.00  0.00     0.024 H 
ATOM     50  H   LIG d   1       4.224  -2.826  -3.089  0.00  0.00     0.024 H 
ATOM     51  H   LIG d   1       3.519  -2.895  -1.455  0.00  0.00     0.024 H 
ENDBRANCH  46  48
BRANCH  46  52
ATOM     52  C   LIG d   1       3.680   0.232  -2.308  0.00  0.00    -0.041 C 
ATOM     53  H   LIG d   1       3.041   0.521  -1.474  0.00  0.00     0.030 H 
BRANCH  52  54
ATOM     54  C   LIG d   1       4.653   1.372  -2.623  0.00  0.00    -0.062 C 
ATOM     55  H   LIG d   1       5.572   1.232  -2.055  0.00  0.00     0.023 H 
ATOM     56  H   LIG d   1       4.879   1.371  -3.689  0.00  0.00     0.023 H 
ATOM     57  H   LIG d   1       4.196   2.324  -2.349  0.00  0.00     0.023 H 
ENDBRANCH  52  54
BRANCH  52  58
ATOM     58  C   LIG d   1       2.817  -0.056  -3.537  0.00  0.00    -0.062 C 
ATOM     59  H   LIG d   1       2.739   0.845  -4.147  0.00  0.00     0.023 H 
ATOM     60  H   LIG d   1       3.274  -0.853  -4.124  0.00  0.00     0.023 H 
ATOM     61  H   LIG d   1       1.821  -0.365  -3.218  0.00  0.00     0.023 H 
ENDBRANCH  52  58
ENDBRANCH  46  52
ENDBRANCH  43  46
ENDBRANCH  36  42
ENDBRANCH   1  36
BRANCH   7  62
ATOM     62  C   LIG d   1       6.828  -1.296  -7.818  0.00  0.00    -0.059 C 
ATOM     63  H   LIG d   1       7.540  -1.839  -8.441  0.00  0.00     0.024 H 
ATOM     64  H   LIG d   1       5.923  -1.890  -7.698  0.00  0.00     0.024 H 
ATOM     65  H   LIG d   1       6.580  -0.347  -8.295  0.00  0.00     0.024 H 
ENDBRANCH   7  62
BRANCH  16  66
ATOM     66  C   LIG d   1       8.120   3.085  -8.974  0.00  0.00    -0.055 C 
ATOM     67  H   LIG d   1       7.145   2.752  -8.618  0.00  0.00     0.024 H 
ATOM     68  H   LIG d   1       8.163   4.173  -8.951  0.00  0.00     0.024 H 
ATOM     69  H   LIG d   1       8.272   2.736  -9.995  0.00  0.00     0.024 H 
ENDBRANCH  16  66
BRANCH  21  70
ATOM     70  C   LIG d   1      10.334   3.841 -10.952  0.00  0.00    -0.053 C 
ATOM     71  H   LIG d   1       9.687   3.020 -11.259  0.00  0.00     0.024 H 
ATOM     72  H   LIG d   1       9.735   4.738 -10.798  0.00  0.00     0.024 H 
ATOM     73  H   LIG d   1      11.076   4.030 -11.729  0.00  0.00     0.024 H 
ENDBRANCH  21  70
BRANCH  21  74
ATOM     74  C   LIG d   1      12.510   3.123 -10.018  0.00  0.00    -0.053 C 
ATOM     75  H   LIG d   1      12.586   2.961 -11.093  0.00  0.00     0.024 H 
ATOM     76  H   LIG d   1      13.164   3.945  -9.727  0.00  0.00     0.024 H 
ATOM     77  H   LIG d   1      12.811   2.217  -9.491  0.00  0.00     0.024 H 
ENDBRANCH  21  74
BRANCH  19  78
ATOM     78  O   LIG d   1      11.331   5.860  -9.479  0.00  0.00    -0.461 OA
BRANCH  78  79
ATOM     79  C   LIG d   1      11.224   7.035  -8.839  0.00  0.00     0.304 C 
ATOM     80  O   LIG d   1      12.021   7.330  -7.981  0.00  0.00    -0.251 OA
BRANCH  79  81
ATOM     81  C   LIG d   1      10.110   7.988  -9.192  0.00  0.00     0.033 C 
ATOM     82  H   LIG d   1       9.175   7.434  -9.286  0.00  0.00     0.034 H 
ATOM     83  H   LIG d   1      10.011   8.737  -8.407  0.00  0.00     0.034 H 
ATOM     84  H   LIG d   1      10.338   8.480 -10.137  0.00  0.00     0.034 H 
ENDBRANCH  79  81
ENDBRANCH  78  79
ENDBRANCH  19  78
TORSDOF 15
ENDMDL
MODEL 9
REMARK VINA RESULT:      -4.9      3.720      8.710
REMARK  15 active torsions:
REMARK  status: ('A' for Active; 'I' for Inactive)
REMARK    1  A    between atoms: C_1  and  C_2 
REMARK    2  A    between atoms: C_2  and  C_4 
REMARK    3  A    between atoms: C_2  and  C_12 
REMARK    4  A    between atoms: C_5  and  C_6 
REMARK    5  A    between atoms: C_6  and  C_8 
REMARK    6  A    between atoms: C_6  and  C_9 
REMARK    7  A    between atoms: C_9  and  C_10 
REMARK    8  A    between atoms: C_9  and  C_11 
REMARK    9  A    between atoms: C_18  and  C_40 
REMARK   10  A    between atoms: C_27  and  C_39 
REMARK   11  A    between atoms: C_30  and  O_35 
REMARK   12  A    between atoms: C_32  and  C_33 
REMARK   13  A    between atoms: C_32  and  C_34 
REMARK   14  A    between atoms: O_35  and  C_36 
REMARK   15  A    between atoms: C_36  and  C_38 
ROOT
ATOM      1  C   LIG d   1      10.422   5.742  -7.733  0.00  0.00    -0.029 C 
ATOM      2  H   LIG d   1      11.478   6.000  -7.708  0.00  0.00     0.031 H 
ATOM      3  C   LIG d   1       9.969   5.471  -9.194  0.00  0.00    -0.049 C 
ATOM      4  C   LIG d   1       9.209   4.115  -9.174  0.00  0.00    -0.046 C 
ATOM      5  C   LIG d   1       8.870   3.937  -7.684  0.00  0.00    -0.014 C 
ATOM      6  H   LIG d   1       8.033   4.593  -7.411  0.00  0.00     0.035 H 
ATOM      7  C   LIG d   1      10.187   4.406  -7.021  0.00  0.00    -0.022 C 
ATOM      8  C   LIG d   1      10.106   4.401  -5.525  0.00  0.00    -0.046 C 
ATOM      9  C   LIG d   1       9.047   3.419  -5.006  0.00  0.00    -0.045 C 
ATOM     10  C   LIG d   1       9.016   2.160  -5.863  0.00  0.00    -0.010 C 
ATOM     11  H   LIG d   1      10.058   1.808  -5.940  0.00  0.00     0.035 H 
ATOM     12  C   LIG d   1       8.579   2.534  -7.258  0.00  0.00    -0.062 C 
ATOM     13  C   LIG d   1       7.999   1.648  -8.035  0.00  0.00    -0.062 C 
ATOM     14  C   LIG d   1       7.590   0.336  -7.517  0.00  0.00    -0.061 C 
ATOM     15  C   LIG d   1       7.618   0.066  -6.218  0.00  0.00    -0.054 C 
ATOM     16  C   LIG d   1       8.279   1.008  -5.258  0.00  0.00    -0.004 C 
ATOM     17  C   LIG d   1       7.343   1.322  -4.110  0.00  0.00    -0.040 C 
ATOM     18  C   LIG d   1       6.918   0.015  -3.437  0.00  0.00    -0.014 C 
ATOM     19  C   LIG d   1       6.248  -0.948  -4.396  0.00  0.00     0.112 C 
ATOM     20  H   LIG d   1       5.257  -0.546  -4.656  0.00  0.00     0.074 H 
ATOM     21  C   LIG d   1       7.008  -1.216  -5.700  0.00  0.00     0.024 C 
ATOM     22  H   LIG d   1       9.301   6.266  -9.527  0.00  0.00     0.027 H 
ATOM     23  H   LIG d   1      10.836   5.407  -9.847  0.00  0.00     0.027 H 
ATOM     24  H   LIG d   1       8.287   4.197  -9.758  0.00  0.00     0.027 H 
ATOM     25  H   LIG d   1       9.819   3.307  -9.557  0.00  0.00     0.027 H 
ATOM     26  H   LIG d   1      11.083   4.084  -5.125  0.00  0.00     0.027 H 
ATOM     27  H   LIG d   1       9.899   5.388  -5.123  0.00  0.00     0.027 H 
ATOM     28  H   LIG d   1       9.284   3.159  -3.974  0.00  0.00     0.027 H 
ATOM     29  H   LIG d   1       8.069   3.905  -5.033  0.00  0.00     0.027 H 
ATOM     30  H   LIG d   1       7.820   1.889  -9.074  0.00  0.00     0.062 H 
ATOM     31  H   LIG d   1       7.315  -0.419  -8.241  0.00  0.00     0.062 H 
ATOM     32  H   LIG d   1       7.847   1.962  -3.383  0.00  0.00     0.028 H 
ATOM     33  H   LIG d   1       6.461   1.845  -4.489  0.00  0.00     0.028 H 
ATOM     34  H   LIG d   1       7.742  -0.462  -2.920  0.00  0.00     0.030 H 
ATOM     35  H   LIG d   1       6.180   0.275  -2.655  0.00  0.00     0.030 H 
ENDROOT
BRANCH   1  36
ATOM     36  C   LIG d   1       9.576   6.862  -7.132  0.00  0.00    -0.022 C 
ATOM     37  H   LIG d   1       8.683   6.437  -6.675  0.00  0.00     0.034 H 
BRANCH  36  38
ATOM     38  C   LIG d   1       9.168   7.841  -8.235  0.00  0.00    -0.059 C 
ATOM     39  H   LIG d   1       8.149   8.184  -8.057  0.00  0.00     0.024 H 
ATOM     40  H   LIG d   1       9.846   8.695  -8.231  0.00  0.00     0.024 H 
ATOM     41  H   LIG d   1       9.220   7.342  -9.202  0.00  0.00     0.024 H 
ENDBRANCH  36  38
BRANCH  36  42
ATOM     42  C   LIG d   1      10.379   7.591  -6.085  0.00  0.00    -0.085 C 
ATOM     43  C   LIG d   1       9.857   7.826  -4.906  0.00  0.00    -0.085 C 
ATOM     44  H   LIG d   1       8.853   7.498  -4.685  0.00  0.00     0.057 H 
ATOM     45  H   LIG d   1      11.384   7.919  -6.306  0.00  0.00     0.057 H 
BRANCH  43  46
ATOM     46  C   LIG d   1      10.660   8.555  -3.859  0.00  0.00    -0.023 C 
ATOM     47  H   LIG d   1      10.304   9.582  -3.779  0.00  0.00     0.034 H 
BRANCH  46  48
ATOM     48  C   LIG d   1      12.136   8.556  -4.257  0.00  0.00    -0.059 C 
ATOM     49  H   LIG d   1      12.734   8.154  -3.439  0.00  0.00     0.024 H 
ATOM     50  H   LIG d   1      12.274   7.938  -5.145  0.00  0.00     0.024 H 
ATOM     51  H   LIG d   1      12.454   9.577  -4.472  0.00  0.00     0.024 H 
ENDBRANCH  46  48
BRANCH  46  52
ATOM     52  C   LIG d   1      10.495   7.852  -2.510  0.00  0.00    -0.041 C 
ATOM     53  H   LIG d   1      11.466   7.496  -2.164  0.00  0.00     0.030 H 
BRANCH  52  54
ATOM     54  C   LIG d   1       9.919   8.836  -1.489  0.00  0.00    -0.062 C 
ATOM     55  H   LIG d   1      10.536   9.734  -1.463  0.00  0.00     0.023 H 
ATOM     56  H   LIG d   1       8.902   9.102  -1.776  0.00  0.00     0.023 H 
ATOM     57  H   LIG d   1       9.910   8.372  -0.503  0.00  0.00     0.023 H 
ENDBRANCH  52  54
BRANCH  52  58
ATOM     58  C   LIG d   1       9.543   6.665  -2.666  0.00  0.00    -0.062 C 
ATOM     59  H   LIG d   1       9.563   6.060  -1.759  0.00  0.00     0.023 H 
ATOM     60  H   LIG d   1       8.531   7.031  -2.837  0.00  0.00     0.023 H 
ATOM     61  H   LIG d   1       9.858   6.057  -3.515  0.00  0.00     0.023 H 
ENDBRANCH  52  58
ENDBRANCH  46  52
ENDBRANCH  43  46
ENDBRANCH  36  42
ENDBRANCH   1  36
BRANCH   7  62
ATOM     62  C   LIG d   1      11.338   3.480  -7.448  0.00  0.00    -0.059 C 
ATOM     63  H   LIG d   1      11.711   3.790  -8.425  0.00  0.00     0.024 H 
ATOM     64  H   LIG d   1      12.144   3.540  -6.716  0.00  0.00     0.024 H 
ATOM     65  H   LIG d   1      10.976   2.453  -7.506  0.00  0.00     0.024 H 
ENDBRANCH   7  62
BRANCH  16  66
ATOM     66  C   LIG d   1       9.437   0.228  -4.619  0.00  0.00    -0.055 C 
ATOM     67  H   LIG d   1      10.123  -0.106  -5.397  0.00  0.00     0.024 H 
ATOM     68  H   LIG d   1       9.968   0.873  -3.920  0.00  0.00     0.024 H 
ATOM     69  H   LIG d   1       9.042  -0.638  -4.087  0.00  0.00     0.024 H 
ENDBRANCH  16  66
BRANCH  21  70
ATOM     70  C   LIG d   1       8.031  -2.339  -5.524  0.00  0.00    -0.053 C 
ATOM     71  H   LIG d   1       7.845  -2.855  -4.582  0.00  0.00     0.024 H 
ATOM     72  H   LIG d   1       7.941  -3.045  -6.349  0.00  0.00     0.024 H 
ATOM     73  H   LIG d   1       9.036  -1.916  -5.515  0.00  0.00     0.024 H 
ENDBRANCH  21  70
BRANCH  21  74
ATOM     74  C   LIG d   1       5.950  -1.724  -6.715  0.00  0.00    -0.053 C 
ATOM     75  H   LIG d   1       6.022  -2.808  -6.802  0.00  0.00     0.024 H 
ATOM     76  H   LIG d   1       4.954  -1.451  -6.369  0.00  0.00     0.024 H 
ATOM     77  H   LIG d   1       6.134  -1.268  -7.689  0.00  0.00     0.024 H 
ENDBRANCH  21  74
BRANCH  19  78
ATOM     78  O   LIG d   1       6.035  -2.199  -3.725  0.00  0.00    -0.461 OA
BRANCH  78  79
ATOM     79  C   LIG d   1       4.762  -2.583  -3.542  0.00  0.00     0.304 C 
ATOM     80  O   LIG d   1       4.293  -3.462  -4.225  0.00  0.00    -0.251 OA
BRANCH  79  81
ATOM     81  C   LIG d   1       3.919  -1.919  -2.484  0.00  0.00     0.033 C 
ATOM     82  H   LIG d   1       3.880  -0.845  -2.672  0.00  0.00     0.034 H 
ATOM     83  H   LIG d   1       2.910  -2.329  -2.513  0.00  0.00     0.034 H 
ATOM     84  H   LIG d   1       4.357  -2.100  -1.503  0.00  0.00     0.034 H 
ENDBRANCH  79  81
ENDBRANCH  78  79
ENDBRANCH  19  78
TORSDOF 15
ENDMDL
