MODEL 1
REMARK VINA RESULT:      -7.0      0.000      0.000
REMARK  6 active torsions:
REMARK  status: ('A' for Active; 'I' for Inactive)
REMARK    1  A    between atoms: C_1  and  C_2 
REMARK       I    between atoms: C_2  and  N_4 
REMARK       I    between atoms: N_7  and  C_32 
REMARK    2  A    between atoms: C_8  and  C_22 
REMARK    3  A    between atoms: C_10  and  C_12 
REMARK    4  A    between atoms: N_14  and  C_21 
REMARK    5  A    between atoms: N_24  and  C_31 
REMARK    6  A    between atoms: C_32  and  C_34 
ROOT
ATOM      1  C   LIG d   1       6.163  -0.070  -9.220  0.00  0.00     0.217 C 
ATOM      2  O   LIG d   1       5.332   0.810  -9.300  0.00  0.00    -0.276 OA
ATOM      3  N   LIG d   1       6.089  -0.978  -8.226  0.00  0.00    -0.267 N 
ATOM      4  C   LIG d   1       7.045  -1.995  -8.121  0.00  0.00     0.014 C 
ATOM      5  C   LIG d   1       6.817  -3.062  -7.372  0.00  0.00     0.014 C 
ATOM      6  N   LIG d   1       5.618  -3.195  -6.664  0.00  0.00    -0.267 N 
ATOM      7  C   LIG d   1       4.475  -2.343  -7.029  0.00  0.00     0.080 C 
ATOM      8  H   LIG d   1       3.738  -2.351  -6.225  0.00  0.00     0.058 H 
ATOM      9  C   LIG d   1       5.007  -0.910  -7.233  0.00  0.00     0.080 C 
ATOM     10  H   LIG d   1       4.206  -0.269  -7.602  0.00  0.00     0.058 H 
ATOM     11  C   LIG d   1       5.511  -4.090  -5.662  0.00  0.00     0.217 C 
ATOM     12  O   LIG d   1       4.468  -4.198  -5.053  0.00  0.00    -0.276 OA
ATOM     13  H   LIG d   1       7.978  -1.908  -8.657  0.00  0.00     0.080 H 
ATOM     14  H   LIG d   1       7.564  -3.838  -7.308  0.00  0.00     0.080 H 
ENDROOT
BRANCH   7  15
ATOM     15  C   LIG d   1       3.849  -2.848  -8.302  0.00  0.00     0.001 A 
ATOM     16  C   LIG d   1       2.899  -2.125  -9.152  0.00  0.00     0.005 A 
ATOM     17  C   LIG d   1       2.599  -2.989 -10.221  0.00  0.00     0.049 A 
ATOM     18  C   LIG d   1       2.310  -0.861  -9.091  0.00  0.00    -0.052 A 
ATOM     19  N   LIG d   1       3.311  -4.150 -10.018  0.00  0.00    -0.349 N 
ATOM     20  C   LIG d   1       1.714  -2.570 -11.209  0.00  0.00    -0.038 A 
ATOM     21  C   LIG d   1       4.049  -4.048  -8.870  0.00  0.00     0.010 A 
ATOM     22  H   LIG d   1       4.698  -4.817  -8.479  0.00  0.00     0.081 H 
ATOM     23  C   LIG d   1       1.136  -1.321 -11.124  0.00  0.00    -0.060 A 
ATOM     24  H   LIG d   1       1.471  -3.224 -12.033  0.00  0.00     0.064 H 
ATOM     25  C   LIG d   1       1.439  -0.471 -10.070  0.00  0.00    -0.061 A 
ATOM     26  H   LIG d   1       0.446  -0.999 -11.889  0.00  0.00     0.062 H 
ATOM     27  H   LIG d   1       0.984   0.507 -10.022  0.00  0.00     0.062 H 
ATOM     28  H   LIG d   1       2.540  -0.195  -8.273  0.00  0.00     0.062 H 
BRANCH  19  29
ATOM     29  C   LIG d   1       3.282  -5.321 -10.897  0.00  0.00     0.012 C 
ATOM     30  H   LIG d   1       3.882  -6.119 -10.461  0.00  0.00     0.046 H 
ATOM     31  H   LIG d   1       2.253  -5.661 -11.013  0.00  0.00     0.046 H 
ATOM     32  H   LIG d   1       3.688  -5.053 -11.873  0.00  0.00     0.046 H 
ENDBRANCH  19  29
ENDBRANCH   7  15
BRANCH   9  33
ATOM     33  C   LIG d   1       5.539  -0.367  -5.933  0.00  0.00     0.001 A 
ATOM     34  C   LIG d   1       4.833  -0.327  -4.650  0.00  0.00     0.005 A 
ATOM     35  C   LIG d   1       5.725   0.259  -3.733  0.00  0.00     0.049 A 
ATOM     36  C   LIG d   1       3.565  -0.730  -4.228  0.00  0.00    -0.052 A 
ATOM     37  N   LIG d   1       6.879   0.557  -4.422  0.00  0.00    -0.349 N 
ATOM     38  C   LIG d   1       5.329   0.429  -2.411  0.00  0.00    -0.038 A 
ATOM     39  C   LIG d   1       6.750   0.176  -5.731  0.00  0.00     0.010 A 
ATOM     40  H   LIG d   1       7.510   0.295  -6.489  0.00  0.00     0.081 H 
ATOM     41  C   LIG d   1       4.069   0.032  -2.017  0.00  0.00    -0.060 A 
ATOM     42  H   LIG d   1       6.001   0.881  -1.698  0.00  0.00     0.064 H 
ATOM     43  C   LIG d   1       3.195  -0.550  -2.925  0.00  0.00    -0.061 A 
ATOM     44  H   LIG d   1       3.761   0.168  -0.991  0.00  0.00     0.062 H 
ATOM     45  H   LIG d   1       2.214  -0.862  -2.599  0.00  0.00     0.062 H 
ATOM     46  H   LIG d   1       2.879  -1.183  -4.929  0.00  0.00     0.062 H 
BRANCH  37  47
ATOM     47  C   LIG d   1       8.067   1.187  -3.842  0.00  0.00     0.012 C 
ATOM     48  H   LIG d   1       8.264   0.756  -2.860  0.00  0.00     0.046 H 
ATOM     49  H   LIG d   1       8.923   1.015  -4.493  0.00  0.00     0.046 H 
ATOM     50  H   LIG d   1       7.897   2.259  -3.741  0.00  0.00     0.046 H 
ENDBRANCH  37  47
ENDBRANCH   9  33
BRANCH  11  51
ATOM     51  C   LIG d   1       6.688  -4.957  -5.297  0.00  0.00     0.013 C 
ATOM     52  H   LIG d   1       7.598  -4.356  -5.305  0.00  0.00     0.032 H 
ATOM     53  H   LIG d   1       6.537  -5.376  -4.303  0.00  0.00     0.032 H 
ATOM     54  H   LIG d   1       6.781  -5.766  -6.022  0.00  0.00     0.032 H 
ENDBRANCH  11  51
BRANCH   1  55
ATOM     55  C   LIG d   1       7.277  -0.149 -10.232  0.00  0.00     0.013 C 
ATOM     56  H   LIG d   1       8.237  -0.071  -9.722  0.00  0.00     0.032 H 
ATOM     57  H   LIG d   1       7.222  -1.101 -10.759  0.00  0.00     0.032 H 
ATOM     58  H   LIG d   1       7.176   0.669 -10.946  0.00  0.00     0.032 H 
ENDBRANCH   1  55
TORSDOF 6
ENDMDL
MODEL 2
REMARK VINA RESULT:      -6.9      0.074      6.732
REMARK  6 active torsions:
REMARK  status: ('A' for Active; 'I' for Inactive)
REMARK    1  A    between atoms: C_1  and  C_2 
REMARK       I    between atoms: C_2  and  N_4 
REMARK       I    between atoms: N_7  and  C_32 
REMARK    2  A    between atoms: C_8  and  C_22 
REMARK    3  A    between atoms: C_10  and  C_12 
REMARK    4  A    between atoms: N_14  and  C_21 
REMARK    5  A    between atoms: N_24  and  C_31 
REMARK    6  A    between atoms: C_32  and  C_34 
ROOT
ATOM      1  C   LIG d   1       5.539  -4.096  -5.589  0.00  0.00     0.217 C 
ATOM      2  O   LIG d   1       4.499  -4.203  -4.973  0.00  0.00    -0.276 OA
ATOM      3  N   LIG d   1       5.633  -3.214  -6.604  0.00  0.00    -0.267 N 
ATOM      4  C   LIG d   1       6.826  -3.086  -7.325  0.00  0.00     0.014 C 
ATOM      5  C   LIG d   1       7.045  -2.027  -8.088  0.00  0.00     0.014 C 
ATOM      6  N   LIG d   1       6.085  -1.015  -8.197  0.00  0.00    -0.267 N 
ATOM      7  C   LIG d   1       5.007  -0.943  -7.199  0.00  0.00     0.080 C 
ATOM      8  H   LIG d   1       4.200  -0.311  -7.572  0.00  0.00     0.058 H 
ATOM      9  C   LIG d   1       4.483  -2.375  -6.973  0.00  0.00     0.080 C 
ATOM     10  H   LIG d   1       3.750  -2.377  -6.166  0.00  0.00     0.058 H 
ATOM     11  C   LIG d   1       6.149  -0.118  -9.201  0.00  0.00     0.217 C 
ATOM     12  O   LIG d   1       5.312   0.756  -9.288  0.00  0.00    -0.276 OA
ATOM     13  H   LIG d   1       7.576  -3.859  -7.256  0.00  0.00     0.080 H 
ATOM     14  H   LIG d   1       7.973  -1.944  -8.632  0.00  0.00     0.080 H 
ENDROOT
BRANCH   7  15
ATOM     15  C   LIG d   1       5.542  -0.380  -5.909  0.00  0.00     0.001 A 
ATOM     16  C   LIG d   1       4.832  -0.303  -4.630  0.00  0.00     0.005 A 
ATOM     17  C   LIG d   1       5.728   0.290  -3.722  0.00  0.00     0.049 A 
ATOM     18  C   LIG d   1       3.557  -0.682  -4.204  0.00  0.00    -0.052 A 
ATOM     19  N   LIG d   1       6.888   0.558  -4.413  0.00  0.00    -0.349 N 
ATOM     20  C   LIG d   1       5.330   0.493  -2.405  0.00  0.00    -0.038 A 
ATOM     21  C   LIG d   1       6.759   0.153  -5.714  0.00  0.00     0.010 A 
ATOM     22  H   LIG d   1       7.523   0.247  -6.471  0.00  0.00     0.081 H 
ATOM     23  C   LIG d   1       4.064   0.120  -2.008  0.00  0.00    -0.060 A 
ATOM     24  H   LIG d   1       6.006   0.951  -1.699  0.00  0.00     0.064 H 
ATOM     25  C   LIG d   1       3.185  -0.469  -2.906  0.00  0.00    -0.061 A 
ATOM     26  H   LIG d   1       3.754   0.281  -0.987  0.00  0.00     0.062 H 
ATOM     27  H   LIG d   1       2.199  -0.763  -2.577  0.00  0.00     0.062 H 
ATOM     28  H   LIG d   1       2.868  -1.139  -4.898  0.00  0.00     0.062 H 
BRANCH  19  29
ATOM     29  C   LIG d   1       8.083   1.186  -3.842  0.00  0.00     0.012 C 
ATOM     30  H   LIG d   1       7.793   1.833  -3.015  0.00  0.00     0.046 H 
ATOM     31  H   LIG d   1       8.760   0.412  -3.479  0.00  0.00     0.046 H 
ATOM     32  H   LIG d   1       8.584   1.777  -4.609  0.00  0.00     0.046 H 
ENDBRANCH  19  29
ENDBRANCH   7  15
BRANCH   9  33
ATOM     33  C   LIG d   1       3.854  -2.900  -8.237  0.00  0.00     0.001 A 
ATOM     34  C   LIG d   1       2.912  -2.187  -9.103  0.00  0.00     0.005 A 
ATOM     35  C   LIG d   1       2.605  -3.069 -10.155  0.00  0.00     0.049 A 
ATOM     36  C   LIG d   1       2.331  -0.917  -9.067  0.00  0.00    -0.052 A 
ATOM     37  N   LIG d   1       3.308  -4.231  -9.929  0.00  0.00    -0.349 N 
ATOM     38  C   LIG d   1       1.725  -2.662 -11.152  0.00  0.00    -0.038 A 
ATOM     39  C   LIG d   1       4.047  -4.112  -8.782  0.00  0.00     0.010 A 
ATOM     40  H   LIG d   1       4.689  -4.879  -8.375  0.00  0.00     0.081 H 
ATOM     41  C   LIG d   1       1.156  -1.408 -11.092  0.00  0.00    -0.060 A 
ATOM     42  H   LIG d   1       1.478  -3.331 -11.962  0.00  0.00     0.064 H 
ATOM     43  C   LIG d   1       1.465  -0.540 -10.055  0.00  0.00    -0.061 A 
ATOM     44  H   LIG d   1       0.469  -1.095 -11.864  0.00  0.00     0.062 H 
ATOM     45  H   LIG d   1       1.016   0.442 -10.026  0.00  0.00     0.062 H 
ATOM     46  H   LIG d   1       2.566  -0.237  -8.262  0.00  0.00     0.062 H 
BRANCH  37  47
ATOM     47  C   LIG d   1       3.271  -5.418 -10.786  0.00  0.00     0.012 C 
ATOM     48  H   LIG d   1       2.618  -6.168 -10.340  0.00  0.00     0.046 H 
ATOM     49  H   LIG d   1       2.891  -5.144 -11.769  0.00  0.00     0.046 H 
ATOM     50  H   LIG d   1       4.277  -5.825 -10.885  0.00  0.00     0.046 H 
ENDBRANCH  37  47
ENDBRANCH   9  33
BRANCH  11  51
ATOM     51  C   LIG d   1       7.258  -0.201 -10.217  0.00  0.00     0.013 C 
ATOM     52  H   LIG d   1       7.977  -0.961  -9.909  0.00  0.00     0.032 H 
ATOM     53  H   LIG d   1       6.842  -0.468 -11.189  0.00  0.00     0.032 H 
ATOM     54  H   LIG d   1       7.758   0.765 -10.289  0.00  0.00     0.032 H 
ENDBRANCH  11  51
BRANCH   1  55
ATOM     55  C   LIG d   1       6.724  -4.950  -5.220  0.00  0.00     0.013 C 
ATOM     56  H   LIG d   1       7.042  -4.711  -4.206  0.00  0.00     0.032 H 
ATOM     57  H   LIG d   1       6.445  -6.002  -5.275  0.00  0.00     0.032 H 
ATOM     58  H   LIG d   1       7.542  -4.755  -5.914  0.00  0.00     0.032 H 
ENDBRANCH   1  55
TORSDOF 6
ENDMDL
MODEL 3
REMARK VINA RESULT:      -6.4      2.813      6.041
REMARK  6 active torsions:
REMARK  status: ('A' for Active; 'I' for Inactive)
REMARK    1  A    between atoms: C_1  and  C_2 
REMARK       I    between atoms: C_2  and  N_4 
REMARK       I    between atoms: N_7  and  C_32 
REMARK    2  A    between atoms: C_8  and  C_22 
REMARK    3  A    between atoms: C_10  and  C_12 
REMARK    4  A    between atoms: N_14  and  C_21 
REMARK    5  A    between atoms: N_24  and  C_31 
REMARK    6  A    between atoms: C_32  and  C_34 
ROOT
ATOM      1  C   LIG d   1       8.224  -1.490  -5.856  0.00  0.00     0.217 C 
ATOM      2  O   LIG d   1       8.553  -1.211  -4.722  0.00  0.00    -0.276 OA
ATOM      3  N   LIG d   1       7.353  -2.495  -6.077  0.00  0.00    -0.267 N 
ATOM      4  C   LIG d   1       6.970  -2.829  -7.381  0.00  0.00     0.014 C 
ATOM      5  C   LIG d   1       5.897  -3.571  -7.601  0.00  0.00     0.014 C 
ATOM      6  N   LIG d   1       5.124  -4.044  -6.535  0.00  0.00    -0.267 N 
ATOM      7  C   LIG d   1       5.284  -3.428  -5.209  0.00  0.00     0.080 C 
ATOM      8  H   LIG d   1       4.851  -4.075  -4.446  0.00  0.00     0.058 H 
ATOM      9  C   LIG d   1       6.795  -3.259  -4.951  0.00  0.00     0.080 C 
ATOM     10  H   LIG d   1       6.951  -2.714  -4.020  0.00  0.00     0.058 H 
ATOM     11  C   LIG d   1       4.246  -5.050  -6.721  0.00  0.00     0.217 C 
ATOM     12  O   LIG d   1       3.581  -5.453  -5.790  0.00  0.00    -0.276 OA
ATOM     13  H   LIG d   1       7.557  -2.476  -8.216  0.00  0.00     0.080 H 
ATOM     14  H   LIG d   1       5.615  -3.814  -8.614  0.00  0.00     0.080 H 
ENDROOT
BRANCH   7  15
ATOM     15  C   LIG d   1       4.603  -2.085  -5.185  0.00  0.00     0.001 A 
ATOM     16  C   LIG d   1       4.408  -1.227  -4.014  0.00  0.00     0.005 A 
ATOM     17  C   LIG d   1       3.732  -0.083  -4.478  0.00  0.00     0.049 A 
ATOM     18  C   LIG d   1       4.745  -1.338  -2.664  0.00  0.00    -0.052 A 
ATOM     19  N   LIG d   1       3.530  -0.251  -5.829  0.00  0.00    -0.349 N 
ATOM     20  C   LIG d   1       3.408   0.928  -3.579  0.00  0.00    -0.038 A 
ATOM     21  C   LIG d   1       4.054  -1.449  -6.233  0.00  0.00     0.010 A 
ATOM     22  H   LIG d   1       4.032  -1.826  -7.244  0.00  0.00     0.081 H 
ATOM     23  C   LIG d   1       3.743   0.794  -2.248  0.00  0.00    -0.060 A 
ATOM     24  H   LIG d   1       2.886   1.809  -3.920  0.00  0.00     0.064 H 
ATOM     25  C   LIG d   1       4.412  -0.334  -1.797  0.00  0.00    -0.061 A 
ATOM     26  H   LIG d   1       3.486   1.578  -1.552  0.00  0.00     0.062 H 
ATOM     27  H   LIG d   1       4.674  -0.420  -0.753  0.00  0.00     0.062 H 
ATOM     28  H   LIG d   1       5.265  -2.213  -2.305  0.00  0.00     0.062 H 
BRANCH  19  29
ATOM     29  C   LIG d   1       2.852   0.708  -6.704  0.00  0.00     0.012 C 
ATOM     30  H   LIG d   1       2.731   1.656  -6.181  0.00  0.00     0.046 H 
ATOM     31  H   LIG d   1       3.449   0.862  -7.604  0.00  0.00     0.046 H 
ATOM     32  H   LIG d   1       1.872   0.319  -6.981  0.00  0.00     0.046 H 
ENDBRANCH  19  29
ENDBRANCH   7  15
BRANCH   9  33
ATOM     33  C   LIG d   1       7.459  -4.609  -4.872  0.00  0.00     0.001 A 
ATOM     34  C   LIG d   1       8.663  -4.944  -4.108  0.00  0.00     0.005 A 
ATOM     35  C   LIG d   1       8.899  -6.313  -4.335  0.00  0.00     0.049 A 
ATOM     36  C   LIG d   1       9.522  -4.217  -3.281  0.00  0.00    -0.052 A 
ATOM     37  N   LIG d   1       7.910  -6.761  -5.182  0.00  0.00    -0.349 N 
ATOM     38  C   LIG d   1       9.989  -6.926  -3.728  0.00  0.00    -0.038 A 
ATOM     39  C   LIG d   1       7.061  -5.732  -5.491  0.00  0.00     0.010 A 
ATOM     40  H   LIG d   1       6.200  -5.812  -6.137  0.00  0.00     0.081 H 
ATOM     41  C   LIG d   1      10.830  -6.188  -2.922  0.00  0.00    -0.060 A 
ATOM     42  H   LIG d   1      10.185  -7.974  -3.897  0.00  0.00     0.064 H 
ATOM     43  C   LIG d   1      10.590  -4.839  -2.698  0.00  0.00    -0.061 A 
ATOM     44  H   LIG d   1      11.678  -6.664  -2.455  0.00  0.00     0.062 H 
ATOM     45  H   LIG d   1      11.253  -4.276  -2.058  0.00  0.00     0.062 H 
ATOM     46  H   LIG d   1       9.341  -3.167  -3.102  0.00  0.00     0.062 H 
BRANCH  37  47
ATOM     47  C   LIG d   1       7.786  -8.132  -5.680  0.00  0.00     0.012 C 
ATOM     48  H   LIG d   1       7.175  -8.137  -6.582  0.00  0.00     0.046 H 
ATOM     49  H   LIG d   1       8.775  -8.527  -5.908  0.00  0.00     0.046 H 
ATOM     50  H   LIG d   1       7.314  -8.753  -4.918  0.00  0.00     0.046 H 
ENDBRANCH  37  47
ENDBRANCH   9  33
BRANCH  11  51
ATOM     51  C   LIG d   1       4.091  -5.673  -8.083  0.00  0.00     0.013 C 
ATOM     52  H   LIG d   1       4.290  -4.924  -8.850  0.00  0.00     0.032 H 
ATOM     53  H   LIG d   1       4.796  -6.497  -8.189  0.00  0.00     0.032 H 
ATOM     54  H   LIG d   1       3.074  -6.049  -8.197  0.00  0.00     0.032 H 
ENDBRANCH  11  51
BRANCH   1  55
ATOM     55  C   LIG d   1       8.790  -0.714  -7.017  0.00  0.00     0.013 C 
ATOM     56  H   LIG d   1       9.877  -0.700  -6.949  0.00  0.00     0.032 H 
ATOM     57  H   LIG d   1       8.490  -1.188  -7.951  0.00  0.00     0.032 H 
ATOM     58  H   LIG d   1       8.410   0.308  -6.989  0.00  0.00     0.032 H 
ENDBRANCH   1  55
TORSDOF 6
ENDMDL
MODEL 4
REMARK VINA RESULT:      -6.3      2.794      6.136
REMARK  6 active torsions:
REMARK  status: ('A' for Active; 'I' for Inactive)
REMARK    1  A    between atoms: C_1  and  C_2 
REMARK       I    between atoms: C_2  and  N_4 
REMARK       I    between atoms: N_7  and  C_32 
REMARK    2  A    between atoms: C_8  and  C_22 
REMARK    3  A    between atoms: C_10  and  C_12 
REMARK    4  A    between atoms: N_14  and  C_21 
REMARK    5  A    between atoms: N_24  and  C_31 
REMARK    6  A    between atoms: C_32  and  C_34 
ROOT
ATOM      1  C   LIG d   1       4.221  -5.005  -6.775  0.00  0.00     0.217 C 
ATOM      2  O   LIG d   1       3.544  -5.417  -5.857  0.00  0.00    -0.276 OA
ATOM      3  N   LIG d   1       5.099  -4.003  -6.569  0.00  0.00    -0.267 N 
ATOM      4  C   LIG d   1       5.882  -3.517  -7.622  0.00  0.00     0.014 C 
ATOM      5  C   LIG d   1       6.955  -2.780  -7.383  0.00  0.00     0.014 C 
ATOM      6  N   LIG d   1       7.328  -2.465  -6.072  0.00  0.00    -0.267 N 
ATOM      7  C   LIG d   1       6.753  -3.240  -4.961  0.00  0.00     0.080 C 
ATOM      8  H   LIG d   1       6.901  -2.706  -4.023  0.00  0.00     0.058 H 
ATOM      9  C   LIG d   1       5.244  -3.402  -5.235  0.00  0.00     0.080 C 
ATOM     10  H   LIG d   1       4.801  -4.056  -4.485  0.00  0.00     0.058 H 
ATOM     11  C   LIG d   1       8.201  -1.468  -5.830  0.00  0.00     0.217 C 
ATOM     12  O   LIG d   1       8.518  -1.202  -4.690  0.00  0.00    -0.276 OA
ATOM     13  H   LIG d   1       5.607  -3.746  -8.641  0.00  0.00     0.080 H 
ATOM     14  H   LIG d   1       7.549  -2.419  -8.208  0.00  0.00     0.080 H 
ENDROOT
BRANCH   7  15
ATOM     15  C   LIG d   1       7.412  -4.593  -4.888  0.00  0.00     0.001 A 
ATOM     16  C   LIG d   1       8.632  -4.929  -4.150  0.00  0.00     0.005 A 
ATOM     17  C   LIG d   1       8.855  -6.300  -4.373  0.00  0.00     0.049 A 
ATOM     18  C   LIG d   1       9.512  -4.200  -3.348  0.00  0.00    -0.052 A 
ATOM     19  N   LIG d   1       7.845  -6.748  -5.194  0.00  0.00    -0.349 N 
ATOM     20  C   LIG d   1       9.957  -6.915  -3.787  0.00  0.00    -0.038 A 
ATOM     21  C   LIG d   1       6.996  -5.718  -5.491  0.00  0.00     0.010 A 
ATOM     22  H   LIG d   1       6.119  -5.797  -6.116  0.00  0.00     0.081 H 
ATOM     23  C   LIG d   1      10.818  -6.175  -3.005  0.00  0.00    -0.060 A 
ATOM     24  H   LIG d   1      10.143  -7.966  -3.953  0.00  0.00     0.064 H 
ATOM     25  C   LIG d   1      10.591  -4.824  -2.785  0.00  0.00    -0.061 A 
ATOM     26  H   LIG d   1      11.675  -6.653  -2.555  0.00  0.00     0.062 H 
ATOM     27  H   LIG d   1      11.271  -4.260  -2.164  0.00  0.00     0.062 H 
ATOM     28  H   LIG d   1       9.342  -3.149  -3.173  0.00  0.00     0.062 H 
BRANCH  19  29
ATOM     29  C   LIG d   1       7.703  -8.123  -5.680  0.00  0.00     0.012 C 
ATOM     30  H   LIG d   1       7.037  -8.675  -5.017  0.00  0.00     0.046 H 
ATOM     31  H   LIG d   1       7.285  -8.110  -6.687  0.00  0.00     0.046 H 
ATOM     32  H   LIG d   1       8.680  -8.605  -5.698  0.00  0.00     0.046 H 
ENDBRANCH  19  29
ENDBRANCH   7  15
BRANCH   9  33
ATOM     33  C   LIG d   1       4.568  -2.056  -5.205  0.00  0.00     0.001 A 
ATOM     34  C   LIG d   1       4.384  -1.199  -4.032  0.00  0.00     0.005 A 
ATOM     35  C   LIG d   1       3.709  -0.052  -4.489  0.00  0.00     0.049 A 
ATOM     36  C   LIG d   1       4.729  -1.312  -2.683  0.00  0.00    -0.052 A 
ATOM     37  N   LIG d   1       3.496  -0.218  -5.840  0.00  0.00    -0.349 N 
ATOM     38  C   LIG d   1       3.394   0.959  -3.588  0.00  0.00    -0.038 A 
ATOM     39  C   LIG d   1       4.015  -1.417  -6.249  0.00  0.00     0.010 A 
ATOM     40  H   LIG d   1       3.984  -1.793  -7.260  0.00  0.00     0.081 H 
ATOM     41  C   LIG d   1       3.736   0.823  -2.260  0.00  0.00    -0.060 A 
ATOM     42  H   LIG d   1       2.872   1.842  -3.925  0.00  0.00     0.064 H 
ATOM     43  C   LIG d   1       4.406  -0.308  -1.814  0.00  0.00    -0.061 A 
ATOM     44  H   LIG d   1       3.487   1.607  -1.560  0.00  0.00     0.062 H 
ATOM     45  H   LIG d   1       4.674  -0.396  -0.772  0.00  0.00     0.062 H 
ATOM     46  H   LIG d   1       5.250  -2.189  -2.330  0.00  0.00     0.062 H 
BRANCH  37  47
ATOM     47  C   LIG d   1       2.816   0.745  -6.709  0.00  0.00     0.012 C 
ATOM     48  H   LIG d   1       2.230   1.434  -6.100  0.00  0.00     0.046 H 
ATOM     49  H   LIG d   1       3.556   1.304  -7.280  0.00  0.00     0.046 H 
ATOM     50  H   LIG d   1       2.155   0.213  -7.393  0.00  0.00     0.046 H 
ENDBRANCH  37  47
ENDBRANCH   9  33
BRANCH  11  51
ATOM     51  C   LIG d   1       8.783  -0.681  -6.975  0.00  0.00     0.013 C 
ATOM     52  H   LIG d   1       9.826  -0.446  -6.762  0.00  0.00     0.032 H 
ATOM     53  H   LIG d   1       8.723  -1.271  -7.889  0.00  0.00     0.032 H 
ATOM     54  H   LIG d   1       8.220   0.244  -7.103  0.00  0.00     0.032 H 
ENDBRANCH  11  51
BRANCH   1  55
ATOM     55  C   LIG d   1       4.080  -5.613  -8.147  0.00  0.00     0.013 C 
ATOM     56  H   LIG d   1       3.534  -4.928  -8.794  0.00  0.00     0.032 H 
ATOM     57  H   LIG d   1       5.069  -5.798  -8.566  0.00  0.00     0.032 H 
ATOM     58  H   LIG d   1       3.535  -6.555  -8.071  0.00  0.00     0.032 H 
ENDBRANCH   1  55
TORSDOF 6
ENDMDL
MODEL 5
REMARK VINA RESULT:      -6.2      3.153      6.699
REMARK  6 active torsions:
REMARK  status: ('A' for Active; 'I' for Inactive)
REMARK    1  A    between atoms: C_1  and  C_2 
REMARK       I    between atoms: C_2  and  N_4 
REMARK       I    between atoms: N_7  and  C_32 
REMARK    2  A    between atoms: C_8  and  C_22 
REMARK    3  A    between atoms: C_10  and  C_12 
REMARK    4  A    between atoms: N_14  and  C_21 
REMARK    5  A    between atoms: N_24  and  C_31 
REMARK    6  A    between atoms: C_32  and  C_34 
ROOT
ATOM      1  C   LIG d   1       7.034  -3.953  -6.860  0.00  0.00     0.217 C 
ATOM      2  O   LIG d   1       6.679  -4.662  -5.942  0.00  0.00    -0.276 OA
ATOM      3  N   LIG d   1       7.241  -2.637  -6.654  0.00  0.00    -0.267 N 
ATOM      4  C   LIG d   1       7.646  -1.809  -7.707  0.00  0.00     0.014 C 
ATOM      5  C   LIG d   1       8.160  -0.614  -7.468  0.00  0.00     0.014 C 
ATOM      6  N   LIG d   1       8.305  -0.147  -6.157  0.00  0.00    -0.267 N 
ATOM      7  C   LIG d   1       8.230  -1.109  -5.046  0.00  0.00     0.080 C 
ATOM      8  H   LIG d   1       8.068  -0.577  -4.108  0.00  0.00     0.058 H 
ATOM      9  C   LIG d   1       7.041  -2.050  -5.321  0.00  0.00     0.080 C 
ATOM     10  H   LIG d   1       7.013  -2.839  -4.570  0.00  0.00     0.058 H 
ATOM     11  C   LIG d   1       8.511   1.162  -5.916  0.00  0.00     0.217 C 
ATOM     12  O   LIG d   1       8.635   1.557  -4.776  0.00  0.00    -0.276 OA
ATOM     13  H   LIG d   1       7.538  -2.150  -8.726  0.00  0.00     0.080 H 
ATOM     14  H   LIG d   1       8.471   0.008  -8.293  0.00  0.00     0.080 H 
ENDROOT
BRANCH   7  15
ATOM     15  C   LIG d   1       9.509  -1.901  -4.969  0.00  0.00     0.001 A 
ATOM     16  C   LIG d   1       9.752  -3.086  -4.143  0.00  0.00     0.005 A 
ATOM     17  C   LIG d   1      11.077  -3.478  -4.406  0.00  0.00     0.049 A 
ATOM     18  C   LIG d   1       8.974  -3.816  -3.242  0.00  0.00    -0.052 A 
ATOM     19  N   LIG d   1      11.592  -2.584  -5.317  0.00  0.00    -0.349 N 
ATOM     20  C   LIG d   1      11.598  -4.595  -3.760  0.00  0.00    -0.038 A 
ATOM     21  C   LIG d   1      10.645  -1.651  -5.640  0.00  0.00     0.010 A 
ATOM     22  H   LIG d   1      10.788  -0.836  -6.333  0.00  0.00     0.081 H 
ATOM     23  C   LIG d   1      10.817  -5.296  -2.867  0.00  0.00    -0.060 A 
ATOM     24  H   LIG d   1      12.615  -4.904  -3.949  0.00  0.00     0.064 H 
ATOM     25  C   LIG d   1       9.509  -4.907  -2.615  0.00  0.00    -0.061 A 
ATOM     26  H   LIG d   1      11.224  -6.159  -2.363  0.00  0.00     0.062 H 
ATOM     27  H   LIG d   1       8.907  -5.472  -1.917  0.00  0.00     0.062 H 
ATOM     28  H   LIG d   1       7.956  -3.519  -3.040  0.00  0.00     0.062 H 
BRANCH  19  29
ATOM     29  C   LIG d   1      12.953  -2.623  -5.858  0.00  0.00     0.012 C 
ATOM     30  H   LIG d   1      12.912  -2.789  -6.934  0.00  0.00     0.046 H 
ATOM     31  H   LIG d   1      13.451  -1.674  -5.655  0.00  0.00     0.046 H 
ATOM     32  H   LIG d   1      13.509  -3.433  -5.386  0.00  0.00     0.046 H 
ENDBRANCH  19  29
ENDBRANCH   7  15
BRANCH   9  33
ATOM     33  C   LIG d   1       5.751  -1.273  -5.295  0.00  0.00     0.001 A 
ATOM     34  C   LIG d   1       5.168  -0.591  -4.137  0.00  0.00     0.005 A 
ATOM     35  C   LIG d   1       3.972  -0.005  -4.591  0.00  0.00     0.049 A 
ATOM     36  C   LIG d   1       5.555  -0.438  -2.804  0.00  0.00    -0.052 A 
ATOM     37  N   LIG d   1       3.846  -0.322  -5.925  0.00  0.00    -0.349 N 
ATOM     38  C   LIG d   1       3.189   0.725  -3.703  0.00  0.00    -0.038 A 
ATOM     39  C   LIG d   1       4.915  -1.078  -6.327  0.00  0.00     0.010 A 
ATOM     40  H   LIG d   1       5.063  -1.460  -7.326  0.00  0.00     0.081 H 
ATOM     41  C   LIG d   1       3.586   0.855  -2.389  0.00  0.00    -0.060 A 
ATOM     42  H   LIG d   1       2.268   1.176  -4.038  0.00  0.00     0.064 H 
ATOM     43  C   LIG d   1       4.768   0.279  -1.947  0.00  0.00    -0.061 A 
ATOM     44  H   LIG d   1       2.975   1.418  -1.700  0.00  0.00     0.062 H 
ATOM     45  H   LIG d   1       5.069   0.397  -0.916  0.00  0.00     0.062 H 
ATOM     46  H   LIG d   1       6.474  -0.884  -2.453  0.00  0.00     0.062 H 
BRANCH  37  47
ATOM     47  C   LIG d   1       2.734   0.086  -6.786  0.00  0.00     0.012 C 
ATOM     48  H   LIG d   1       3.061   0.088  -7.826  0.00  0.00     0.046 H 
ATOM     49  H   LIG d   1       1.907  -0.613  -6.667  0.00  0.00     0.046 H 
ATOM     50  H   LIG d   1       2.407   1.088  -6.506  0.00  0.00     0.046 H 
ENDBRANCH  37  47
ENDBRANCH   9  33
BRANCH  11  51
ATOM     51  C   LIG d   1       8.585   2.137  -7.062  0.00  0.00     0.013 C 
ATOM     52  H   LIG d   1       9.621   2.445  -7.210  0.00  0.00     0.032 H 
ATOM     53  H   LIG d   1       8.215   1.662  -7.969  0.00  0.00     0.032 H 
ATOM     54  H   LIG d   1       7.975   3.012  -6.835  0.00  0.00     0.032 H 
ENDBRANCH  11  51
BRANCH   1  55
ATOM     55  C   LIG d   1       7.242  -4.544  -8.231  0.00  0.00     0.013 C 
ATOM     56  H   LIG d   1       6.287  -4.883  -8.629  0.00  0.00     0.032 H 
ATOM     57  H   LIG d   1       7.664  -3.788  -8.892  0.00  0.00     0.032 H 
ATOM     58  H   LIG d   1       7.928  -5.389  -8.161  0.00  0.00     0.032 H 
ENDBRANCH   1  55
TORSDOF 6
ENDMDL
MODEL 6
REMARK VINA RESULT:      -6.2      3.163      5.676
REMARK  6 active torsions:
REMARK  status: ('A' for Active; 'I' for Inactive)
REMARK    1  A    between atoms: C_1  and  C_2 
REMARK       I    between atoms: C_2  and  N_4 
REMARK       I    between atoms: N_7  and  C_32 
REMARK    2  A    between atoms: C_8  and  C_22 
REMARK    3  A    between atoms: C_10  and  C_12 
REMARK    4  A    between atoms: N_14  and  C_21 
REMARK    5  A    between atoms: N_24  and  C_31 
REMARK    6  A    between atoms: C_32  and  C_34 
ROOT
ATOM      1  C   LIG d   1       8.542   1.119  -5.775  0.00  0.00     0.217 C 
ATOM      2  O   LIG d   1       8.638   1.477  -4.619  0.00  0.00    -0.276 OA
ATOM      3  N   LIG d   1       8.338  -0.182  -6.064  0.00  0.00    -0.267 N 
ATOM      4  C   LIG d   1       8.231  -0.605  -7.393  0.00  0.00     0.014 C 
ATOM      5  C   LIG d   1       7.718  -1.789  -7.686  0.00  0.00     0.014 C 
ATOM      6  N   LIG d   1       7.277  -2.648  -6.672  0.00  0.00    -0.267 N 
ATOM      7  C   LIG d   1       7.047  -2.102  -5.326  0.00  0.00     0.080 C 
ATOM      8  H   LIG d   1       6.996  -2.915  -4.602  0.00  0.00     0.058 H 
ATOM      9  C   LIG d   1       8.232  -1.177  -4.987  0.00  0.00     0.080 C 
ATOM     10  H   LIG d   1       8.048  -0.675  -4.037  0.00  0.00     0.058 H 
ATOM     11  C   LIG d   1       7.067  -3.954  -6.926  0.00  0.00     0.217 C 
ATOM     12  O   LIG d   1       6.686  -4.691  -6.041  0.00  0.00    -0.276 OA
ATOM     13  H   LIG d   1       8.569   0.042  -8.188  0.00  0.00     0.080 H 
ATOM     14  H   LIG d   1       7.638  -2.096  -8.717  0.00  0.00     0.080 H 
ENDROOT
BRANCH   7  15
ATOM     15  C   LIG d   1       5.759  -1.320  -5.306  0.00  0.00     0.001 A 
ATOM     16  C   LIG d   1       5.147  -0.678  -4.139  0.00  0.00     0.005 A 
ATOM     17  C   LIG d   1       3.968  -0.070  -4.605  0.00  0.00     0.049 A 
ATOM     18  C   LIG d   1       5.500  -0.576  -2.793  0.00  0.00    -0.052 A 
ATOM     19  N   LIG d   1       3.876  -0.338  -5.953  0.00  0.00    -0.349 N 
ATOM     20  C   LIG d   1       3.164   0.631  -3.712  0.00  0.00    -0.038 A 
ATOM     21  C   LIG d   1       4.951  -1.084  -6.352  0.00  0.00     0.010 A 
ATOM     22  H   LIG d   1       5.126  -1.431  -7.359  0.00  0.00     0.081 H 
ATOM     23  C   LIG d   1       3.525   0.713  -2.384  0.00  0.00    -0.060 A 
ATOM     24  H   LIG d   1       2.253   1.099  -4.055  0.00  0.00     0.064 H 
ATOM     25  C   LIG d   1       4.692   0.114  -1.932  0.00  0.00    -0.061 A 
ATOM     26  H   LIG d   1       2.899   1.253  -1.692  0.00  0.00     0.062 H 
ATOM     27  H   LIG d   1       4.966   0.194  -0.889  0.00  0.00     0.062 H 
ATOM     28  H   LIG d   1       6.406  -1.039  -2.432  0.00  0.00     0.062 H 
BRANCH  19  29
ATOM     29  C   LIG d   1       2.789   0.107  -6.828  0.00  0.00     0.012 C 
ATOM     30  H   LIG d   1       3.000  -0.197  -7.853  0.00  0.00     0.046 H 
ATOM     31  H   LIG d   1       1.852  -0.344  -6.500  0.00  0.00     0.046 H 
ATOM     32  H   LIG d   1       2.706   1.193  -6.781  0.00  0.00     0.046 H 
ENDBRANCH  19  29
ENDBRANCH   7  15
BRANCH   9  33
ATOM     33  C   LIG d   1       9.505  -1.978  -4.904  0.00  0.00     0.001 A 
ATOM     34  C   LIG d   1       9.737  -3.163  -4.075  0.00  0.00     0.005 A 
ATOM     35  C   LIG d   1      11.060  -3.566  -4.333  0.00  0.00     0.049 A 
ATOM     36  C   LIG d   1       8.953  -3.885  -3.173  0.00  0.00    -0.052 A 
ATOM     37  N   LIG d   1      11.585  -2.677  -5.245  0.00  0.00    -0.349 N 
ATOM     38  C   LIG d   1      11.572  -4.683  -3.683  0.00  0.00    -0.038 A 
ATOM     39  C   LIG d   1      10.643  -1.739  -5.574  0.00  0.00     0.010 A 
ATOM     40  H   LIG d   1      10.795  -0.927  -6.269  0.00  0.00     0.081 H 
ATOM     41  C   LIG d   1      10.783  -5.376  -2.789  0.00  0.00    -0.060 A 
ATOM     42  H   LIG d   1      12.587  -5.000  -3.868  0.00  0.00     0.064 H 
ATOM     43  C   LIG d   1       9.477  -4.978  -2.542  0.00  0.00    -0.061 A 
ATOM     44  H   LIG d   1      11.183  -6.241  -2.282  0.00  0.00     0.062 H 
ATOM     45  H   LIG d   1       8.870  -5.536  -1.844  0.00  0.00     0.062 H 
ATOM     46  H   LIG d   1       7.936  -3.580  -2.975  0.00  0.00     0.062 H 
BRANCH  37  47
ATOM     47  C   LIG d   1      12.946  -2.728  -5.782  0.00  0.00     0.012 C 
ATOM     48  H   LIG d   1      13.659  -2.790  -4.960  0.00  0.00     0.046 H 
ATOM     49  H   LIG d   1      13.051  -3.604  -6.421  0.00  0.00     0.046 H 
ATOM     50  H   LIG d   1      13.140  -1.828  -6.365  0.00  0.00     0.046 H 
ENDBRANCH  37  47
ENDBRANCH   9  33
BRANCH  11  51
ATOM     51  C   LIG d   1       7.307  -4.502  -8.309  0.00  0.00     0.013 C 
ATOM     52  H   LIG d   1       6.350  -4.689  -8.797  0.00  0.00     0.032 H 
ATOM     53  H   LIG d   1       7.877  -3.780  -8.892  0.00  0.00     0.032 H 
ATOM     54  H   LIG d   1       7.867  -5.434  -8.238  0.00  0.00     0.032 H 
ENDBRANCH  11  51
BRANCH   1  55
ATOM     55  C   LIG d   1       8.649   2.131  -6.887  0.00  0.00     0.013 C 
ATOM     56  H   LIG d   1       7.945   2.943  -6.709  0.00  0.00     0.032 H 
ATOM     57  H   LIG d   1       9.663   2.529  -6.919  0.00  0.00     0.032 H 
ATOM     58  H   LIG d   1       8.418   1.650  -7.838  0.00  0.00     0.032 H 
ENDBRANCH   1  55
TORSDOF 6
ENDMDL
MODEL 7
REMARK VINA RESULT:      -6.1      2.794      6.186
REMARK  6 active torsions:
REMARK  status: ('A' for Active; 'I' for Inactive)
REMARK    1  A    between atoms: C_1  and  C_2 
REMARK       I    between atoms: C_2  and  N_4 
REMARK       I    between atoms: N_7  and  C_32 
REMARK    2  A    between atoms: C_8  and  C_22 
REMARK    3  A    between atoms: C_10  and  C_12 
REMARK    4  A    between atoms: N_14  and  C_21 
REMARK    5  A    between atoms: N_24  and  C_31 
REMARK    6  A    between atoms: C_32  and  C_34 
ROOT
ATOM      1  C   LIG d   1       8.183  -2.183  -4.741  0.00  0.00     0.217 C 
ATOM      2  O   LIG d   1       7.946  -2.407  -3.572  0.00  0.00    -0.276 OA
ATOM      3  N   LIG d   1       7.570  -2.900  -5.703  0.00  0.00    -0.267 N 
ATOM      4  C   LIG d   1       7.840  -2.653  -7.054  0.00  0.00     0.014 C 
ATOM      5  C   LIG d   1       7.031  -3.104  -7.999  0.00  0.00     0.014 C 
ATOM      6  N   LIG d   1       5.891  -3.845  -7.669  0.00  0.00    -0.267 N 
ATOM      7  C   LIG d   1       5.396  -3.814  -6.284  0.00  0.00     0.080 C 
ATOM      8  H   LIG d   1       4.706  -4.642  -6.121  0.00  0.00     0.058 H 
ATOM      9  C   LIG d   1       6.613  -3.958  -5.349  0.00  0.00     0.080 C 
ATOM     10  H   LIG d   1       6.297  -3.839  -4.313  0.00  0.00     0.058 H 
ATOM     11  C   LIG d   1       5.256  -4.576  -8.607  0.00  0.00     0.217 C 
ATOM     12  O   LIG d   1       4.268  -5.215  -8.311  0.00  0.00    -0.276 OA
ATOM     13  H   LIG d   1       8.718  -2.087  -7.328  0.00  0.00     0.080 H 
ATOM     14  H   LIG d   1       7.253  -2.899  -9.035  0.00  0.00     0.080 H 
ENDROOT
BRANCH   7  15
ATOM     15  C   LIG d   1       4.695  -2.506  -6.022  0.00  0.00     0.001 A 
ATOM     16  C   LIG d   1       4.299  -1.976  -4.715  0.00  0.00     0.005 A 
ATOM     17  C   LIG d   1       3.686  -0.736  -4.969  0.00  0.00     0.049 A 
ATOM     18  C   LIG d   1       4.417  -2.441  -3.404  0.00  0.00    -0.052 A 
ATOM     19  N   LIG d   1       3.706  -0.543  -6.332  0.00  0.00    -0.349 N 
ATOM     20  C   LIG d   1       3.204   0.017  -3.902  0.00  0.00    -0.038 A 
ATOM     21  C   LIG d   1       4.310  -1.608  -6.943  0.00  0.00     0.010 A 
ATOM     22  H   LIG d   1       4.457  -1.710  -8.008  0.00  0.00     0.081 H 
ATOM     23  C   LIG d   1       3.323  -0.465  -2.616  0.00  0.00    -0.060 A 
ATOM     24  H   LIG d   1       2.727   0.969  -4.082  0.00  0.00     0.064 H 
ATOM     25  C   LIG d   1       3.932  -1.687  -2.372  0.00  0.00    -0.061 A 
ATOM     26  H   LIG d   1       2.944   0.118  -1.790  0.00  0.00     0.062 H 
ATOM     27  H   LIG d   1       4.024  -2.047  -1.357  0.00  0.00     0.062 H 
ATOM     28  H   LIG d   1       4.889  -3.391  -3.206  0.00  0.00     0.062 H 
BRANCH  19  29
ATOM     29  C   LIG d   1       3.160   0.626  -7.025  0.00  0.00     0.012 C 
ATOM     30  H   LIG d   1       3.225   0.473  -8.102  0.00  0.00     0.046 H 
ATOM     31  H   LIG d   1       2.117   0.763  -6.738  0.00  0.00     0.046 H 
ATOM     32  H   LIG d   1       3.732   1.512  -6.749  0.00  0.00     0.046 H 
ENDBRANCH  19  29
ENDBRANCH   7  15
BRANCH   9  33
ATOM     33  C   LIG d   1       7.251  -5.309  -5.538  0.00  0.00     0.001 A 
ATOM     34  C   LIG d   1       6.566  -6.604  -5.547  0.00  0.00     0.005 A 
ATOM     35  C   LIG d   1       7.565  -7.572  -5.758  0.00  0.00     0.049 A 
ATOM     36  C   LIG d   1       5.234  -6.998  -5.399  0.00  0.00    -0.052 A 
ATOM     37  N   LIG d   1       8.764  -6.903  -5.860  0.00  0.00    -0.349 N 
ATOM     38  C   LIG d   1       7.211  -8.915  -5.819  0.00  0.00    -0.038 A 
ATOM     39  C   LIG d   1       8.557  -5.556  -5.727  0.00  0.00     0.010 A 
ATOM     40  H   LIG d   1       9.331  -4.803  -5.767  0.00  0.00     0.081 H 
ATOM     41  C   LIG d   1       5.892  -9.283  -5.662  0.00  0.00    -0.060 A 
ATOM     42  H   LIG d   1       7.968  -9.668  -5.977  0.00  0.00     0.064 H 
ATOM     43  C   LIG d   1       4.909  -8.324  -5.458  0.00  0.00    -0.061 A 
ATOM     44  H   LIG d   1       5.618 -10.327  -5.705  0.00  0.00     0.062 H 
ATOM     45  H   LIG d   1       3.879  -8.628  -5.344  0.00  0.00     0.062 H 
ATOM     46  H   LIG d   1       4.465  -6.257  -5.239  0.00  0.00     0.062 H 
BRANCH  37  47
ATOM     47  C   LIG d   1      10.066  -7.536  -6.077  0.00  0.00     0.012 C 
ATOM     48  H   LIG d   1      10.384  -7.370  -7.106  0.00  0.00     0.046 H 
ATOM     49  H   LIG d   1      10.798  -7.104  -5.396  0.00  0.00     0.046 H 
ATOM     50  H   LIG d   1       9.984  -8.607  -5.891  0.00  0.00     0.046 H 
ENDBRANCH  37  47
ENDBRANCH   9  33
BRANCH  11  51
ATOM     51  C   LIG d   1       5.773  -4.600 -10.022  0.00  0.00     0.013 C 
ATOM     52  H   LIG d   1       5.214  -5.337 -10.600  0.00  0.00     0.032 H 
ATOM     53  H   LIG d   1       5.649  -3.616 -10.471  0.00  0.00     0.032 H 
ATOM     54  H   LIG d   1       6.830  -4.867 -10.017  0.00  0.00     0.032 H 
ENDBRANCH  11  51
BRANCH   1  55
ATOM     55  C   LIG d   1       9.164  -1.101  -5.116  0.00  0.00     0.013 C 
ATOM     56  H   LIG d   1       9.155  -0.323  -4.354  0.00  0.00     0.032 H 
ATOM     57  H   LIG d   1      10.164  -1.527  -5.189  0.00  0.00     0.032 H 
ATOM     58  H   LIG d   1       8.880  -0.672  -6.077  0.00  0.00     0.032 H 
ENDBRANCH   1  55
TORSDOF 6
ENDMDL
MODEL 8
REMARK VINA RESULT:      -6.0      3.925      7.613
REMARK  6 active torsions:
REMARK  status: ('A' for Active; 'I' for Inactive)
REMARK    1  A    between atoms: C_1  and  C_2 
REMARK       I    between atoms: C_2  and  N_4 
REMARK       I    between atoms: N_7  and  C_32 
REMARK    2  A    between atoms: C_8  and  C_22 
REMARK    3  A    between atoms: C_10  and  C_12 
REMARK    4  A    between atoms: N_14  and  C_21 
REMARK    5  A    between atoms: N_24  and  C_31 
REMARK    6  A    between atoms: C_32  and  C_34 
ROOT
ATOM      1  C   LIG d   1      11.385   0.935  -4.602  0.00  0.00     0.217 C 
ATOM      2  O   LIG d   1      11.268   1.479  -3.523  0.00  0.00    -0.276 OA
ATOM      3  N   LIG d   1      10.307   0.769  -5.394  0.00  0.00    -0.267 N 
ATOM      4  C   LIG d   1      10.430   0.139  -6.637  0.00  0.00     0.014 C 
ATOM      5  C   LIG d   1       9.479   0.254  -7.550  0.00  0.00     0.014 C 
ATOM      6  N   LIG d   1       8.326   1.002  -7.290  0.00  0.00    -0.267 N 
ATOM      7  C   LIG d   1       8.328   1.949  -6.164  0.00  0.00     0.080 C 
ATOM      8  H   LIG d   1       7.304   2.227  -5.914  0.00  0.00     0.058 H 
ATOM      9  C   LIG d   1       8.984   1.243  -4.961  0.00  0.00     0.080 C 
ATOM     10  H   LIG d   1       9.094   1.946  -4.136  0.00  0.00     0.058 H 
ATOM     11  C   LIG d   1       7.229   0.858  -8.061  0.00  0.00     0.217 C 
ATOM     12  O   LIG d   1       6.234   1.511  -7.827  0.00  0.00    -0.276 OA
ATOM     13  H   LIG d   1      11.311  -0.446  -6.854  0.00  0.00     0.080 H 
ATOM     14  H   LIG d   1       9.594  -0.235  -8.506  0.00  0.00     0.080 H 
ENDROOT
BRANCH   7  15
ATOM     15  C   LIG d   1       9.116   3.179  -6.533  0.00  0.00     0.001 A 
ATOM     16  C   LIG d   1       9.568   4.231  -5.619  0.00  0.00     0.005 A 
ATOM     17  C   LIG d   1      10.262   5.162  -6.412  0.00  0.00     0.049 A 
ATOM     18  C   LIG d   1       9.444   4.440  -4.245  0.00  0.00    -0.052 A 
ATOM     19  N   LIG d   1      10.219   4.704  -7.710  0.00  0.00    -0.349 N 
ATOM     20  C   LIG d   1      10.820   6.287  -5.812  0.00  0.00    -0.038 A 
ATOM     21  C   LIG d   1       9.531   3.522  -7.763  0.00  0.00     0.010 A 
ATOM     22  H   LIG d   1       9.351   2.949  -8.660  0.00  0.00     0.081 H 
ATOM     23  C   LIG d   1      10.678   6.479  -4.455  0.00  0.00    -0.060 A 
ATOM     24  H   LIG d   1      11.351   7.013  -6.409  0.00  0.00     0.064 H 
ATOM     25  C   LIG d   1       9.996   5.555  -3.677  0.00  0.00    -0.061 A 
ATOM     26  H   LIG d   1      11.107   7.354  -3.991  0.00  0.00     0.062 H 
ATOM     27  H   LIG d   1       9.900   5.716  -2.613  0.00  0.00     0.062 H 
ATOM     28  H   LIG d   1       8.914   3.726  -3.633  0.00  0.00     0.062 H 
BRANCH  19  29
ATOM     29  C   LIG d   1      10.817   5.382  -8.863  0.00  0.00     0.012 C 
ATOM     30  H   LIG d   1      10.215   5.189  -9.750  0.00  0.00     0.046 H 
ATOM     31  H   LIG d   1      10.854   6.455  -8.673  0.00  0.00     0.046 H 
ATOM     32  H   LIG d   1      11.828   5.006  -9.021  0.00  0.00     0.046 H 
ENDBRANCH  19  29
ENDBRANCH   7  15
BRANCH   9  33
ATOM     33  C   LIG d   1       8.140   0.073  -4.527  0.00  0.00     0.001 A 
ATOM     34  C   LIG d   1       6.923   0.130  -3.713  0.00  0.00     0.005 A 
ATOM     35  C   LIG d   1       6.487  -1.200  -3.571  0.00  0.00     0.049 A 
ATOM     36  C   LIG d   1       6.199   1.167  -3.121  0.00  0.00    -0.052 A 
ATOM     37  N   LIG d   1       7.385  -1.997  -4.246  0.00  0.00    -0.349 N 
ATOM     38  C   LIG d   1       5.334  -1.465  -2.841  0.00  0.00    -0.038 A 
ATOM     39  C   LIG d   1       8.363  -1.221  -4.809  0.00  0.00     0.010 A 
ATOM     40  H   LIG d   1       9.191  -1.594  -5.393  0.00  0.00     0.081 H 
ATOM     41  C   LIG d   1       4.640  -0.427  -2.256  0.00  0.00    -0.060 A 
ATOM     42  H   LIG d   1       4.990  -2.481  -2.721  0.00  0.00     0.064 H 
ATOM     43  C   LIG d   1       5.072   0.883  -2.403  0.00  0.00    -0.061 A 
ATOM     44  H   LIG d   1       3.747  -0.635  -1.686  0.00  0.00     0.062 H 
ATOM     45  H   LIG d   1       4.513   1.686  -1.946  0.00  0.00     0.062 H 
ATOM     46  H   LIG d   1       6.531   2.189  -3.230  0.00  0.00     0.062 H 
BRANCH  37  47
ATOM     47  C   LIG d   1       7.308  -3.455  -4.345  0.00  0.00     0.012 C 
ATOM     48  H   LIG d   1       7.847  -3.788  -5.232  0.00  0.00     0.046 H 
ATOM     49  H   LIG d   1       7.754  -3.904  -3.458  0.00  0.00     0.046 H 
ATOM     50  H   LIG d   1       6.264  -3.759  -4.419  0.00  0.00     0.046 H 
ENDBRANCH  37  47
ENDBRANCH   9  33
BRANCH  11  51
ATOM     51  C   LIG d   1       7.239  -0.114  -9.211  0.00  0.00     0.013 C 
ATOM     52  H   LIG d   1       7.042  -1.120  -8.838  0.00  0.00     0.032 H 
ATOM     53  H   LIG d   1       6.468   0.164  -9.929  0.00  0.00     0.032 H 
ATOM     54  H   LIG d   1       8.214  -0.091  -9.698  0.00  0.00     0.032 H 
ENDBRANCH  11  51
BRANCH   1  55
ATOM     55  C   LIG d   1      12.736   0.446  -5.055  0.00  0.00     0.013 C 
ATOM     56  H   LIG d   1      12.688  -0.624  -5.252  0.00  0.00     0.032 H 
ATOM     57  H   LIG d   1      13.026   0.970  -5.966  0.00  0.00     0.032 H 
ATOM     58  H   LIG d   1      13.473   0.639  -4.275  0.00  0.00     0.032 H 
ENDBRANCH   1  55
TORSDOF 6
ENDMDL
MODEL 9
REMARK VINA RESULT:      -5.8      0.803      2.141
REMARK  6 active torsions:
REMARK  status: ('A' for Active; 'I' for Inactive)
REMARK    1  A    between atoms: C_1  and  C_2 
REMARK       I    between atoms: C_2  and  N_4 
REMARK       I    between atoms: N_7  and  C_32 
REMARK    2  A    between atoms: C_8  and  C_22 
REMARK    3  A    between atoms: C_10  and  C_12 
REMARK    4  A    between atoms: N_14  and  C_21 
REMARK    5  A    between atoms: N_24  and  C_31 
REMARK    6  A    between atoms: C_32  and  C_34 
ROOT
ATOM      1  C   LIG d   1       5.847  -0.157  -9.240  0.00  0.00     0.217 C 
ATOM      2  O   LIG d   1       4.975   0.685  -9.282  0.00  0.00    -0.276 OA
ATOM      3  N   LIG d   1       5.875  -1.048  -8.229  0.00  0.00    -0.267 N 
ATOM      4  C   LIG d   1       6.880  -2.021  -8.168  0.00  0.00     0.014 C 
ATOM      5  C   LIG d   1       6.746  -3.083  -7.391  0.00  0.00     0.014 C 
ATOM      6  N   LIG d   1       5.600  -3.255  -6.607  0.00  0.00    -0.267 N 
ATOM      7  C   LIG d   1       4.400  -2.460  -6.913  0.00  0.00     0.080 C 
ATOM      8  H   LIG d   1       3.715  -2.485  -6.065  0.00  0.00     0.058 H 
ATOM      9  C   LIG d   1       4.854  -1.010  -7.173  0.00  0.00     0.080 C 
ATOM     10  H   LIG d   1       4.005  -0.410  -7.501  0.00  0.00     0.058 H 
ATOM     11  C   LIG d   1       5.595  -4.135  -5.587  0.00  0.00     0.217 C 
ATOM     12  O   LIG d   1       4.596  -4.277  -4.912  0.00  0.00    -0.276 OA
ATOM     13  H   LIG d   1       7.773  -1.903  -8.763  0.00  0.00     0.080 H 
ATOM     14  H   LIG d   1       7.529  -3.825  -7.361  0.00  0.00     0.080 H 
ENDROOT
BRANCH   7  15
ATOM     15  C   LIG d   1       3.719  -3.014  -8.137  0.00  0.00     0.001 A 
ATOM     16  C   LIG d   1       3.631  -4.426  -8.521  0.00  0.00     0.005 A 
ATOM     17  C   LIG d   1       2.904  -4.455  -9.725  0.00  0.00     0.049 A 
ATOM     18  C   LIG d   1       4.091  -5.616  -7.954  0.00  0.00    -0.052 A 
ATOM     19  N   LIG d   1       2.589  -3.153 -10.042  0.00  0.00    -0.349 N 
ATOM     20  C   LIG d   1       2.651  -5.678 -10.338  0.00  0.00    -0.038 A 
ATOM     21  C   LIG d   1       3.084  -2.309  -9.086  0.00  0.00     0.010 A 
ATOM     22  H   LIG d   1       2.977  -1.235  -9.092  0.00  0.00     0.081 H 
ATOM     23  C   LIG d   1       3.123  -6.841  -9.767  0.00  0.00    -0.060 A 
ATOM     24  H   LIG d   1       2.099  -5.716 -11.265  0.00  0.00     0.064 H 
ATOM     25  C   LIG d   1       3.836  -6.806  -8.577  0.00  0.00    -0.061 A 
ATOM     26  H   LIG d   1       2.930  -7.789 -10.246  0.00  0.00     0.062 H 
ATOM     27  H   LIG d   1       4.192  -7.726  -8.138  0.00  0.00     0.062 H 
ATOM     28  H   LIG d   1       4.647  -5.596  -7.029  0.00  0.00     0.062 H 
BRANCH  19  29
ATOM     29  C   LIG d   1       1.839  -2.734 -11.229  0.00  0.00     0.012 C 
ATOM     30  H   LIG d   1       2.320  -3.131 -12.122  0.00  0.00     0.046 H 
ATOM     31  H   LIG d   1       0.819  -3.113 -11.165  0.00  0.00     0.046 H 
ATOM     32  H   LIG d   1       1.820  -1.645 -11.280  0.00  0.00     0.046 H 
ENDBRANCH  19  29
ENDBRANCH   7  15
BRANCH   9  33
ATOM     33  C   LIG d   1       5.441  -0.420  -5.917  0.00  0.00     0.001 A 
ATOM     34  C   LIG d   1       4.775  -0.297  -4.618  0.00  0.00     0.005 A 
ATOM     35  C   LIG d   1       5.711   0.307  -3.756  0.00  0.00     0.049 A 
ATOM     36  C   LIG d   1       3.509  -0.640  -4.139  0.00  0.00    -0.052 A 
ATOM     37  N   LIG d   1       6.852   0.535  -4.492  0.00  0.00    -0.349 N 
ATOM     38  C   LIG d   1       5.360   0.552  -2.434  0.00  0.00    -0.038 A 
ATOM     39  C   LIG d   1       6.673   0.095  -5.777  0.00  0.00     0.010 A 
ATOM     40  H   LIG d   1       7.413   0.155  -6.561  0.00  0.00     0.081 H 
ATOM     41  C   LIG d   1       4.101   0.213  -1.985  0.00  0.00    -0.060 A 
ATOM     42  H   LIG d   1       6.066   1.018  -1.764  0.00  0.00     0.064 H 
ATOM     43  C   LIG d   1       3.184  -0.385  -2.837  0.00  0.00    -0.061 A 
ATOM     44  H   LIG d   1       3.829   0.409  -0.959  0.00  0.00     0.062 H 
ATOM     45  H   LIG d   1       2.205  -0.652  -2.468  0.00  0.00     0.062 H 
ATOM     46  H   LIG d   1       2.790  -1.105  -4.797  0.00  0.00     0.062 H 
BRANCH  37  47
ATOM     47  C   LIG d   1       8.074   1.156  -3.979  0.00  0.00     0.012 C 
ATOM     48  H   LIG d   1       7.857   1.663  -3.039  0.00  0.00     0.046 H 
ATOM     49  H   LIG d   1       8.829   0.389  -3.811  0.00  0.00     0.046 H 
ATOM     50  H   LIG d   1       8.446   1.880  -4.704  0.00  0.00     0.046 H 
ENDBRANCH  37  47
ENDBRANCH   9  33
BRANCH  11  51
ATOM     51  C   LIG d   1       6.829  -4.944  -5.282  0.00  0.00     0.013 C 
ATOM     52  H   LIG d   1       6.992  -5.671  -6.078  0.00  0.00     0.032 H 
ATOM     53  H   LIG d   1       7.691  -4.281  -5.214  0.00  0.00     0.032 H 
ATOM     54  H   LIG d   1       6.696  -5.465  -4.334  0.00  0.00     0.032 H 
ENDBRANCH  11  51
BRANCH   1  55
ATOM     55  C   LIG d   1       6.900  -0.206 -10.318  0.00  0.00     0.013 C 
ATOM     56  H   LIG d   1       7.398   0.761 -10.384  0.00  0.00     0.032 H 
ATOM     57  H   LIG d   1       7.632  -0.976 -10.077  0.00  0.00     0.032 H 
ATOM     58  H   LIG d   1       6.429  -0.438 -11.274  0.00  0.00     0.032 H 
ENDBRANCH   1  55
TORSDOF 6
ENDMDL
MODEL 10
REMARK VINA RESULT:      -5.7      1.168      6.858
REMARK  6 active torsions:
REMARK  status: ('A' for Active; 'I' for Inactive)
REMARK    1  A    between atoms: C_1  and  C_2 
REMARK       I    between atoms: C_2  and  N_4 
REMARK       I    between atoms: N_7  and  C_32 
REMARK    2  A    between atoms: C_8  and  C_22 
REMARK    3  A    between atoms: C_10  and  C_12 
REMARK    4  A    between atoms: N_14  and  C_21 
REMARK    5  A    between atoms: N_24  and  C_31 
REMARK    6  A    between atoms: C_32  and  C_34 
ROOT
ATOM      1  C   LIG d   1       4.676  -5.127  -6.319  0.00  0.00     0.217 C 
ATOM      2  O   LIG d   1       3.543  -5.291  -5.919  0.00  0.00    -0.276 OA
ATOM      3  N   LIG d   1       4.967  -4.072  -7.107  0.00  0.00    -0.267 N 
ATOM      4  C   LIG d   1       6.270  -3.876  -7.579  0.00  0.00     0.014 C 
ATOM      5  C   LIG d   1       6.642  -2.704  -8.068  0.00  0.00     0.014 C 
ATOM      6  N   LIG d   1       5.740  -1.637  -8.131  0.00  0.00    -0.267 N 
ATOM      7  C   LIG d   1       4.505  -1.698  -7.333  0.00  0.00     0.080 C 
ATOM      8  H   LIG d   1       3.791  -0.961  -7.701  0.00  0.00     0.058 H 
ATOM      9  C   LIG d   1       3.918  -3.115  -7.488  0.00  0.00     0.080 C 
ATOM     10  H   LIG d   1       3.056  -3.231  -6.831  0.00  0.00     0.058 H 
ATOM     11  C   LIG d   1       5.997  -0.569  -8.911  0.00  0.00     0.217 C 
ATOM     12  O   LIG d   1       5.209   0.352  -8.960  0.00  0.00    -0.276 OA
ATOM     13  H   LIG d   1       6.979  -4.689  -7.542  0.00  0.00     0.080 H 
ATOM     14  H   LIG d   1       7.653  -2.570  -8.422  0.00  0.00     0.080 H 
ENDROOT
BRANCH   7  15
ATOM     15  C   LIG d   1       4.820  -1.425  -5.886  0.00  0.00     0.001 A 
ATOM     16  C   LIG d   1       5.861  -0.531  -5.373  0.00  0.00     0.005 A 
ATOM     17  C   LIG d   1       5.774  -0.596  -3.971  0.00  0.00     0.049 A 
ATOM     18  C   LIG d   1       6.817   0.290  -5.975  0.00  0.00    -0.052 A 
ATOM     19  N   LIG d   1       4.760  -1.476  -3.667  0.00  0.00    -0.349 N 
ATOM     20  C   LIG d   1       6.647   0.162  -3.198  0.00  0.00    -0.038 A 
ATOM     21  C   LIG d   1       4.203  -1.960  -4.819  0.00  0.00     0.010 A 
ATOM     22  H   LIG d   1       3.388  -2.666  -4.865  0.00  0.00     0.081 H 
ATOM     23  C   LIG d   1       7.590   0.959  -3.812  0.00  0.00    -0.060 A 
ATOM     24  H   LIG d   1       6.595   0.118  -2.120  0.00  0.00     0.064 H 
ATOM     25  C   LIG d   1       7.668   1.023  -5.196  0.00  0.00    -0.061 A 
ATOM     26  H   LIG d   1       8.270   1.543  -3.211  0.00  0.00     0.062 H 
ATOM     27  H   LIG d   1       8.407   1.658  -5.662  0.00  0.00     0.062 H 
ATOM     28  H   LIG d   1       6.885   0.344  -7.051  0.00  0.00     0.062 H 
BRANCH  19  29
ATOM     29  C   LIG d   1       4.339  -1.841  -2.312  0.00  0.00     0.012 C 
ATOM     30  H   LIG d   1       3.273  -1.650  -2.198  0.00  0.00     0.046 H 
ATOM     31  H   LIG d   1       4.540  -2.899  -2.144  0.00  0.00     0.046 H 
ATOM     32  H   LIG d   1       4.894  -1.246  -1.587  0.00  0.00     0.046 H 
ENDBRANCH  19  29
ENDBRANCH   7  15
BRANCH   9  33
ATOM     33  C   LIG d   1       3.507  -3.350  -8.918  0.00  0.00     0.001 A 
ATOM     34  C   LIG d   1       2.676  -2.469  -9.742  0.00  0.00     0.005 A 
ATOM     35  C   LIG d   1       2.568  -3.097 -10.997  0.00  0.00     0.049 A 
ATOM     36  C   LIG d   1       2.043  -1.244  -9.520  0.00  0.00    -0.052 A 
ATOM     37  N   LIG d   1       3.277  -4.275 -10.924  0.00  0.00    -0.349 N 
ATOM     38  C   LIG d   1       1.830  -2.485 -12.004  0.00  0.00    -0.038 A 
ATOM     39  C   LIG d   1       3.831  -4.408  -9.678  0.00  0.00     0.010 A 
ATOM     40  H   LIG d   1       4.437  -5.241  -9.355  0.00  0.00     0.081 H 
ATOM     41  C   LIG d   1       1.205  -1.281 -11.760  0.00  0.00    -0.060 A 
ATOM     42  H   LIG d   1       1.735  -2.958 -12.970  0.00  0.00     0.064 H 
ATOM     43  C   LIG d   1       1.319  -0.663 -10.523  0.00  0.00    -0.061 A 
ATOM     44  H   LIG d   1       0.629  -0.809 -12.542  0.00  0.00     0.062 H 
ATOM     45  H   LIG d   1       0.830   0.284 -10.350  0.00  0.00     0.062 H 
ATOM     46  H   LIG d   1       2.126  -0.758  -8.559  0.00  0.00     0.062 H 
BRANCH  37  47
ATOM     47  C   LIG d   1       3.419  -5.241 -12.015  0.00  0.00     0.012 C 
ATOM     48  H   LIG d   1       2.438  -5.459 -12.437  0.00  0.00     0.046 H 
ATOM     49  H   LIG d   1       4.063  -4.823 -12.788  0.00  0.00     0.046 H 
ATOM     50  H   LIG d   1       3.862  -6.160 -11.631  0.00  0.00     0.046 H 
ENDBRANCH  37  47
ENDBRANCH   9  33
BRANCH  11  51
ATOM     51  C   LIG d   1       7.265  -0.517  -9.724  0.00  0.00     0.013 C 
ATOM     52  H   LIG d   1       7.289  -1.362 -10.413  0.00  0.00     0.032 H 
ATOM     53  H   LIG d   1       7.297   0.413 -10.289  0.00  0.00     0.032 H 
ATOM     54  H   LIG d   1       8.126  -0.568  -9.057  0.00  0.00     0.032 H 
ENDBRANCH  11  51
BRANCH   1  55
ATOM     55  C   LIG d   1       5.759  -6.102  -5.936  0.00  0.00     0.013 C 
ATOM     56  H   LIG d   1       6.024  -6.710  -6.800  0.00  0.00     0.032 H 
ATOM     57  H   LIG d   1       6.637  -5.554  -5.594  0.00  0.00     0.032 H 
ATOM     58  H   LIG d   1       5.399  -6.747  -5.134  0.00  0.00     0.032 H 
ENDBRANCH   1  55
TORSDOF 6
ENDMDL
