MODEL 1
REMARK VINA RESULT:      -4.3      0.000      0.000
REMARK  5 active torsions:
REMARK  status: ('A' for Active; 'I' for Inactive)
REMARK    1  A    between atoms: C_2  and  N_26 
REMARK    2  A    between atoms: C_4  and  O_13 
REMARK    3  A    between atoms: C_6  and  O_12 
REMARK    4  A    between atoms: C_7  and  O_11 
REMARK    5  A    between atoms: C_9  and  N_24 
ROOT
ATOM      1  C   LIG d   1       6.095  -1.792  -3.869  0.00  0.00     0.038 C 
ATOM      2  C   LIG d   1       4.594  -2.005  -4.073  0.00  0.00     0.010 C 
ATOM      3  H   LIG d   1       4.305  -1.644  -5.060  0.00  0.00     0.088 H 
ATOM      4  C   LIG d   1       3.819  -1.233  -3.002  0.00  0.00     0.126 C 
ATOM      5  H   LIG d   1       2.750  -1.385  -3.147  0.00  0.00     0.068 H 
ATOM      6  C   LIG d   1       4.142   0.258  -3.114  0.00  0.00     0.117 C 
ATOM      7  C   LIG d   1       5.644   0.471  -2.911  0.00  0.00     0.126 C 
ATOM      8  H   LIG d   1       5.931   0.111  -1.923  0.00  0.00     0.068 H 
ATOM      9  C   LIG d   1       6.418  -0.300  -3.981  0.00  0.00     0.010 C 
ATOM     10  H   LIG d   1       6.131   0.060  -4.968  0.00  0.00     0.088 H 
ATOM     11  H   LIG d   1       6.383  -2.153  -2.882  0.00  0.00     0.038 H 
ATOM     12  H   LIG d   1       6.647  -2.341  -4.632  0.00  0.00     0.038 H 
ATOM     13  H   LIG d   1       3.854   0.619  -4.101  0.00  0.00     0.065 H 
ENDROOT
BRANCH   2  14
ATOM     14  N   LIG d   1       4.258  -3.436  -3.970  0.00  0.00     0.223 N 
ATOM     15  H   LIG d   1       4.896  -3.986  -4.542  0.00  0.00     0.200 HD
ATOM     16  H   LIG d   1       4.323  -3.741  -3.000  0.00  0.00     0.200 HD
ATOM     17  H   LIG d   1       3.299  -3.583  -4.303  0.00  0.00     0.200 HD
ENDBRANCH   2  14
BRANCH   4  18
ATOM     18  O   LIG d   1       4.196  -1.706  -1.707  0.00  0.00    -0.384 OA
ATOM     19  H   LIG d   1       3.694  -2.476  -1.408  0.00  0.00     0.210 HD
ENDBRANCH   4  18
BRANCH   9  20
ATOM     20  N   LIG d   1       7.862  -0.106  -3.763  0.00  0.00     0.223 N 
ATOM     21  H   LIG d   1       8.041   0.114  -2.785  0.00  0.00     0.200 HD
ATOM     22  H   LIG d   1       8.371  -0.949  -4.020  0.00  0.00     0.200 HD
ATOM     23  H   LIG d   1       8.190   0.674  -4.346  0.00  0.00     0.200 HD
ENDBRANCH   9  20
BRANCH   6  24
ATOM     24  O   LIG d   1       3.419   0.979  -2.114  0.00  0.00    -0.386 OA
ATOM     25  H   LIG d   1       2.648   1.453  -2.451  0.00  0.00     0.210 HD
ENDBRANCH   6  24
BRANCH   7  26
ATOM     26  O   LIG d   1       5.946   1.864  -3.016  0.00  0.00    -0.384 OA
ATOM     27  H   LIG d   1       5.292   2.441  -2.597  0.00  0.00     0.210 HD
ENDBRANCH   7  26
TORSDOF 5
ENDMDL
MODEL 2
REMARK VINA RESULT:      -4.3      1.496      3.153
REMARK  5 active torsions:
REMARK  status: ('A' for Active; 'I' for Inactive)
REMARK    1  A    between atoms: C_2  and  N_26 
REMARK    2  A    between atoms: C_4  and  O_13 
REMARK    3  A    between atoms: C_6  and  O_12 
REMARK    4  A    between atoms: C_7  and  O_11 
REMARK    5  A    between atoms: C_9  and  N_24 
ROOT
ATOM      1  C   LIG d   1       5.775  -0.790  -4.968  0.00  0.00     0.038 C 
ATOM      2  C   LIG d   1       6.304  -0.699  -3.535  0.00  0.00     0.010 C 
ATOM      3  H   LIG d   1       6.174  -1.660  -3.037  0.00  0.00     0.088 H 
ATOM      4  C   LIG d   1       5.529   0.378  -2.773  0.00  0.00     0.126 C 
ATOM      5  H   LIG d   1       5.906   0.443  -1.752  0.00  0.00     0.068 H 
ATOM      6  C   LIG d   1       4.043   0.015  -2.745  0.00  0.00     0.117 C 
ATOM      7  C   LIG d   1       3.515  -0.076  -4.178  0.00  0.00     0.126 C 
ATOM      8  H   LIG d   1       3.645   0.885  -4.675  0.00  0.00     0.068 H 
ATOM      9  C   LIG d   1       4.289  -1.154  -4.940  0.00  0.00     0.010 C 
ATOM     10  H   LIG d   1       4.159  -2.115  -4.443  0.00  0.00     0.088 H 
ATOM     11  H   LIG d   1       5.905   0.171  -5.465  0.00  0.00     0.038 H 
ATOM     12  H   LIG d   1       6.327  -1.558  -5.510  0.00  0.00     0.038 H 
ATOM     13  H   LIG d   1       3.913  -0.945  -2.248  0.00  0.00     0.065 H 
ENDROOT
BRANCH   2  14
ATOM     14  N   LIG d   1       7.736  -0.351  -3.535  0.00  0.00     0.223 N 
ATOM     15  H   LIG d   1       7.971   0.157  -4.386  0.00  0.00     0.200 HD
ATOM     16  H   LIG d   1       7.955   0.226  -2.725  0.00  0.00     0.200 HD
ATOM     17  H   LIG d   1       8.293  -1.212  -3.494  0.00  0.00     0.200 HD
ENDBRANCH   2  14
BRANCH   4  18
ATOM     18  O   LIG d   1       5.700   1.639  -3.424  0.00  0.00    -0.384 OA
ATOM     19  H   LIG d   1       4.930   1.927  -3.932  0.00  0.00     0.210 HD
ENDBRANCH   4  18
BRANCH   9  20
ATOM     20  N   LIG d   1       3.787  -1.218  -6.323  0.00  0.00     0.223 N 
ATOM     21  H   LIG d   1       4.222  -0.490  -6.887  0.00  0.00     0.200 HD
ATOM     22  H   LIG d   1       3.993  -2.129  -6.728  0.00  0.00     0.200 HD
ATOM     23  H   LIG d   1       2.770  -1.076  -6.321  0.00  0.00     0.200 HD
ENDBRANCH   9  20
BRANCH   6  24
ATOM     24  O   LIG d   1       3.320   1.021  -2.034  0.00  0.00    -0.386 OA
ATOM     25  H   LIG d   1       2.471   1.253  -2.434  0.00  0.00     0.210 HD
ENDBRANCH   6  24
BRANCH   7  26
ATOM     26  O   LIG d   1       2.127  -0.416  -4.153  0.00  0.00    -0.384 OA
ATOM     27  H   LIG d   1       1.591   0.161  -3.591  0.00  0.00     0.210 HD
ENDBRANCH   7  26
TORSDOF 5
ENDMDL
MODEL 3
REMARK VINA RESULT:      -4.2      2.355      2.683
REMARK  5 active torsions:
REMARK  status: ('A' for Active; 'I' for Inactive)
REMARK    1  A    between atoms: C_2  and  N_26 
REMARK    2  A    between atoms: C_4  and  O_13 
REMARK    3  A    between atoms: C_6  and  O_12 
REMARK    4  A    between atoms: C_7  and  O_11 
REMARK    5  A    between atoms: C_9  and  N_24 
ROOT
ATOM      1  C   LIG d   1       5.557  -1.044  -2.896  0.00  0.00     0.038 C 
ATOM      2  C   LIG d   1       5.905  -1.584  -4.285  0.00  0.00     0.010 C 
ATOM      3  H   LIG d   1       6.621  -0.918  -4.766  0.00  0.00     0.088 H 
ATOM      4  C   LIG d   1       4.634  -1.664  -5.133  0.00  0.00     0.126 C 
ATOM      5  H   LIG d   1       4.880  -2.049  -6.122  0.00  0.00     0.068 H 
ATOM      6  C   LIG d   1       4.021  -0.268  -5.267  0.00  0.00     0.117 C 
ATOM      7  C   LIG d   1       3.675   0.272  -3.878  0.00  0.00     0.126 C 
ATOM      8  H   LIG d   1       2.958  -0.394  -3.398  0.00  0.00     0.068 H 
ATOM      9  C   LIG d   1       4.945   0.353  -3.031  0.00  0.00     0.010 C 
ATOM     10  H   LIG d   1       5.661   1.018  -3.511  0.00  0.00     0.088 H 
ATOM     11  H   LIG d   1       4.842  -1.710  -2.415  0.00  0.00     0.038 H 
ATOM     12  H   LIG d   1       6.463  -0.986  -2.292  0.00  0.00     0.038 H 
ATOM     13  H   LIG d   1       4.736   0.398  -5.748  0.00  0.00     0.065 H 
ENDROOT
BRANCH   2  14
ATOM     14  N   LIG d   1       6.498  -2.928  -4.181  0.00  0.00     0.223 N 
ATOM     15  H   LIG d   1       5.781  -3.638  -4.322  0.00  0.00     0.200 HD
ATOM     16  H   LIG d   1       7.230  -3.042  -4.879  0.00  0.00     0.200 HD
ATOM     17  H   LIG d   1       6.906  -3.046  -3.247  0.00  0.00     0.200 HD
ENDBRANCH   2  14
BRANCH   4  18
ATOM     18  O   LIG d   1       3.695  -2.538  -4.503  0.00  0.00    -0.384 OA
ATOM     19  H   LIG d   1       2.910  -2.722  -5.036  0.00  0.00     0.210 HD
ENDBRANCH   4  18
BRANCH   9  20
ATOM     20  N   LIG d   1       4.597   0.853  -1.690  0.00  0.00     0.223 N 
ATOM     21  H   LIG d   1       5.297   0.556  -1.013  0.00  0.00     0.200 HD
ATOM     22  H   LIG d   1       4.545   1.870  -1.699  0.00  0.00     0.200 HD
ATOM     23  H   LIG d   1       3.683   0.474  -1.414  0.00  0.00     0.200 HD
ENDBRANCH   9  20
BRANCH   6  24
ATOM     24  O   LIG d   1       2.833  -0.343  -6.059  0.00  0.00    -0.386 OA
ATOM     25  H   LIG d   1       2.892  -0.961  -6.800  0.00  0.00     0.210 HD
ENDBRANCH   6  24
BRANCH   7  26
ATOM     26  O   LIG d   1       3.102   1.576  -4.004  0.00  0.00    -0.384 OA
ATOM     27  H   LIG d   1       3.683   2.290  -3.706  0.00  0.00     0.210 HD
ENDBRANCH   7  26
TORSDOF 5
ENDMDL
MODEL 4
REMARK VINA RESULT:      -4.1      8.781      9.904
REMARK  5 active torsions:
REMARK  status: ('A' for Active; 'I' for Inactive)
REMARK    1  A    between atoms: C_2  and  N_26 
REMARK    2  A    between atoms: C_4  and  O_13 
REMARK    3  A    between atoms: C_6  and  O_12 
REMARK    4  A    between atoms: C_7  and  O_11 
REMARK    5  A    between atoms: C_9  and  N_24 
ROOT
ATOM      1  C   LIG d   1      10.171   5.799  -1.903  0.00  0.00     0.038 C 
ATOM      2  C   LIG d   1      10.035   7.124  -2.656  0.00  0.00     0.010 C 
ATOM      3  H   LIG d   1      10.991   7.385  -3.111  0.00  0.00     0.088 H 
ATOM      4  C   LIG d   1       9.620   8.226  -1.679  0.00  0.00     0.126 C 
ATOM      5  H   LIG d   1       9.522   9.170  -2.215  0.00  0.00     0.068 H 
ATOM      6  C   LIG d   1      10.682   8.367  -0.587  0.00  0.00     0.117 C 
ATOM      7  C   LIG d   1      10.819   7.042   0.165  0.00  0.00     0.126 C 
ATOM      8  H   LIG d   1       9.863   6.783   0.621  0.00  0.00     0.068 H 
ATOM      9  C   LIG d   1      11.235   5.940  -0.812  0.00  0.00     0.010 C 
ATOM     10  H   LIG d   1      12.190   6.199  -1.267  0.00  0.00     0.088 H 
ATOM     11  H   LIG d   1       9.216   5.540  -1.449  0.00  0.00     0.038 H 
ATOM     12  H   LIG d   1      10.468   5.015  -2.600  0.00  0.00     0.038 H 
ATOM     13  H   LIG d   1      11.638   8.627  -1.041  0.00  0.00     0.065 H 
ENDROOT
BRANCH   2  14
ATOM     14  N   LIG d   1       9.016   7.013  -3.715  0.00  0.00     0.223 N 
ATOM     15  H   LIG d   1       8.127   7.382  -3.383  0.00  0.00     0.200 HD
ATOM     16  H   LIG d   1       9.312   7.532  -4.540  0.00  0.00     0.200 HD
ATOM     17  H   LIG d   1       8.897   6.025  -3.966  0.00  0.00     0.200 HD
ENDBRANCH   2  14
BRANCH   4  18
ATOM     18  O   LIG d   1       8.366   7.886  -1.082  0.00  0.00    -0.384 OA
ATOM     19  H   LIG d   1       8.430   7.624  -0.154  0.00  0.00     0.210 HD
ENDBRANCH   4  18
BRANCH   9  20
ATOM     20  N   LIG d   1      11.342   4.666  -0.081  0.00  0.00     0.223 N 
ATOM     21  H   LIG d   1      10.420   4.246   0.026  0.00  0.00     0.200 HD
ATOM     22  H   LIG d   1      11.950   4.024  -0.586  0.00  0.00     0.200 HD
ATOM     23  H   LIG d   1      11.739   4.842   0.849  0.00  0.00     0.200 HD
ENDBRANCH   9  20
BRANCH   6  24
ATOM     24  O   LIG d   1      10.295   9.395   0.327  0.00  0.00    -0.386 OA
ATOM     25  H   LIG d   1       9.567   9.947   0.011  0.00  0.00     0.210 HD
ENDBRANCH   6  24
BRANCH   7  26
ATOM     26  O   LIG d   1      11.812   7.173   1.185  0.00  0.00    -0.384 OA
ATOM     27  H   LIG d   1      12.721   7.116   0.859  0.00  0.00     0.210 HD
ENDBRANCH   7  26
TORSDOF 5
ENDMDL
MODEL 5
REMARK VINA RESULT:      -4.1      1.418      3.320
REMARK  5 active torsions:
REMARK  status: ('A' for Active; 'I' for Inactive)
REMARK    1  A    between atoms: C_2  and  N_26 
REMARK    2  A    between atoms: C_4  and  O_13 
REMARK    3  A    between atoms: C_6  and  O_12 
REMARK    4  A    between atoms: C_7  and  O_11 
REMARK    5  A    between atoms: C_9  and  N_24 
ROOT
ATOM      1  C   LIG d   1       6.125  -2.135  -4.482  0.00  0.00     0.038 C 
ATOM      2  C   LIG d   1       6.805  -1.079  -3.609  0.00  0.00     0.010 C 
ATOM      3  H   LIG d   1       6.747  -1.378  -2.563  0.00  0.00     0.088 H 
ATOM      4  C   LIG d   1       6.098   0.266  -3.793  0.00  0.00     0.126 C 
ATOM      5  H   LIG d   1       6.582   1.019  -3.172  0.00  0.00     0.068 H 
ATOM      6  C   LIG d   1       4.630   0.132  -3.382  0.00  0.00     0.117 C 
ATOM      7  C   LIG d   1       3.951  -0.926  -4.254  0.00  0.00     0.126 C 
ATOM      8  H   LIG d   1       4.008  -0.625  -5.300  0.00  0.00     0.068 H 
ATOM      9  C   LIG d   1       4.657  -2.270  -4.070  0.00  0.00     0.010 C 
ATOM     10  H   LIG d   1       4.600  -2.571  -3.024  0.00  0.00     0.088 H 
ATOM     11  H   LIG d   1       6.183  -1.835  -5.528  0.00  0.00     0.038 H 
ATOM     12  H   LIG d   1       6.628  -3.094  -4.350  0.00  0.00     0.038 H 
ATOM     13  H   LIG d   1       4.572  -0.168  -2.336  0.00  0.00     0.065 H 
ENDROOT
BRANCH   2  14
ATOM     14  N   LIG d   1       8.221  -0.932  -3.987  0.00  0.00     0.223 N 
ATOM     15  H   LIG d   1       8.800  -1.545  -3.416  0.00  0.00     0.200 HD
ATOM     16  H   LIG d   1       8.346  -1.166  -4.970  0.00  0.00     0.200 HD
ATOM     17  H   LIG d   1       8.512   0.041  -3.836  0.00  0.00     0.200 HD
ENDBRANCH   2  14
BRANCH   4  18
ATOM     18  O   LIG d   1       6.174   0.661  -5.165  0.00  0.00    -0.384 OA
ATOM     19  H   LIG d   1       6.742   1.426  -5.323  0.00  0.00     0.210 HD
ENDBRANCH   4  18
BRANCH   9  20
ATOM     20  N   LIG d   1       4.009  -3.275  -4.930  0.00  0.00     0.223 N 
ATOM     21  H   LIG d   1       3.350  -3.828  -4.386  0.00  0.00     0.200 HD
ATOM     22  H   LIG d   1       3.516  -2.816  -5.694  0.00  0.00     0.200 HD
ATOM     23  H   LIG d   1       4.726  -3.898  -5.322  0.00  0.00     0.200 HD
ENDBRANCH   9  20
BRANCH   6  24
ATOM     24  O   LIG d   1       3.970   1.387  -3.554  0.00  0.00    -0.386 OA
ATOM     25  H   LIG d   1       4.564   2.149  -3.543  0.00  0.00     0.210 HD
ENDBRANCH   6  24
BRANCH   7  26
ATOM     26  O   LIG d   1       2.580  -1.052  -3.870  0.00  0.00    -0.384 OA
ATOM     27  H   LIG d   1       2.402  -1.804  -3.287  0.00  0.00     0.210 HD
ENDBRANCH   7  26
TORSDOF 5
ENDMDL
MODEL 6
REMARK VINA RESULT:      -4.0      8.051      9.390
REMARK  5 active torsions:
REMARK  status: ('A' for Active; 'I' for Inactive)
REMARK    1  A    between atoms: C_2  and  N_26 
REMARK    2  A    between atoms: C_4  and  O_13 
REMARK    3  A    between atoms: C_6  and  O_12 
REMARK    4  A    between atoms: C_7  and  O_11 
REMARK    5  A    between atoms: C_9  and  N_24 
ROOT
ATOM      1  C   LIG d   1       9.929   7.005  -3.675  0.00  0.00     0.038 C 
ATOM      2  C   LIG d   1      10.337   8.096  -2.683  0.00  0.00     0.010 C 
ATOM      3  H   LIG d   1      11.414   8.253  -2.737  0.00  0.00     0.088 H 
ATOM      4  C   LIG d   1       9.957   7.664  -1.265  0.00  0.00     0.126 C 
ATOM      5  H   LIG d   1      10.247   8.441  -0.558  0.00  0.00     0.068 H 
ATOM      6  C   LIG d   1      10.681   6.361  -0.917  0.00  0.00     0.117 C 
ATOM      7  C   LIG d   1      10.273   5.271  -1.910  0.00  0.00     0.126 C 
ATOM      8  H   LIG d   1       9.196   5.113  -1.854  0.00  0.00     0.068 H 
ATOM      9  C   LIG d   1      10.654   5.702  -3.327  0.00  0.00     0.010 C 
ATOM     10  H   LIG d   1      11.730   5.860  -3.383  0.00  0.00     0.088 H 
ATOM     11  H   LIG d   1       8.852   6.848  -3.620  0.00  0.00     0.038 H 
ATOM     12  H   LIG d   1      10.201   7.312  -4.685  0.00  0.00     0.038 H 
ATOM     13  H   LIG d   1      11.757   6.518  -0.972  0.00  0.00     0.065 H 
ENDROOT
BRANCH   2  14
ATOM     14  N   LIG d   1       9.652   9.361  -2.999  0.00  0.00     0.223 N 
ATOM     15  H   LIG d   1       8.954   9.209  -3.725  0.00  0.00     0.200 HD
ATOM     16  H   LIG d   1       9.199   9.730  -2.165  0.00  0.00     0.200 HD
ATOM     17  H   LIG d   1      10.341  10.044  -3.334  0.00  0.00     0.200 HD
ENDBRANCH   2  14
BRANCH   4  18
ATOM     18  O   LIG d   1       8.544   7.458  -1.192  0.00  0.00    -0.384 OA
ATOM     19  H   LIG d   1       8.035   8.000  -1.810  0.00  0.00     0.210 HD
ENDBRANCH   4  18
BRANCH   9  20
ATOM     20  N   LIG d   1      10.237   4.655  -4.276  0.00  0.00     0.223 N 
ATOM     21  H   LIG d   1      10.978   3.965  -4.381  0.00  0.00     0.200 HD
ATOM     22  H   LIG d   1       9.391   4.197  -3.942  0.00  0.00     0.200 HD
ATOM     23  H   LIG d   1      10.047   5.084  -5.190  0.00  0.00     0.200 HD
ENDBRANCH   9  20
BRANCH   6  24
ATOM     24  O   LIG d   1      10.325   5.957   0.407  0.00  0.00    -0.386 OA
ATOM     25  H   LIG d   1      11.078   5.870   1.007  0.00  0.00     0.210 HD
ENDBRANCH   6  24
BRANCH   7  26
ATOM     26  O   LIG d   1      10.949   4.054  -1.585  0.00  0.00    -0.384 OA
ATOM     27  H   LIG d   1      10.359   3.335  -1.319  0.00  0.00     0.210 HD
ENDBRANCH   7  26
TORSDOF 5
ENDMDL
MODEL 7
REMARK VINA RESULT:      -4.0      2.243      3.162
REMARK  5 active torsions:
REMARK  status: ('A' for Active; 'I' for Inactive)
REMARK    1  A    between atoms: C_2  and  N_26 
REMARK    2  A    between atoms: C_4  and  O_13 
REMARK    3  A    between atoms: C_6  and  O_12 
REMARK    4  A    between atoms: C_7  and  O_11 
REMARK    5  A    between atoms: C_9  and  N_24 
ROOT
ATOM      1  C   LIG d   1       5.747   0.599  -3.068  0.00  0.00     0.038 C 
ATOM      2  C   LIG d   1       4.404   0.221  -2.440  0.00  0.00     0.010 C 
ATOM      3  H   LIG d   1       4.570  -0.204  -1.451  0.00  0.00     0.088 H 
ATOM      4  C   LIG d   1       3.700  -0.810  -3.326  0.00  0.00     0.126 C 
ATOM      5  H   LIG d   1       2.742  -1.079  -2.879  0.00  0.00     0.068 H 
ATOM      6  C   LIG d   1       4.574  -2.060  -3.447  0.00  0.00     0.117 C 
ATOM      7  C   LIG d   1       5.919  -1.682  -4.074  0.00  0.00     0.126 C 
ATOM      8  H   LIG d   1       5.751  -1.258  -5.064  0.00  0.00     0.068 H 
ATOM      9  C   LIG d   1       6.622  -0.651  -3.189  0.00  0.00     0.010 C 
ATOM     10  H   LIG d   1       6.789  -1.075  -2.199  0.00  0.00     0.088 H 
ATOM     11  H   LIG d   1       5.580   1.023  -4.057  0.00  0.00     0.038 H 
ATOM     12  H   LIG d   1       6.249   1.333  -2.437  0.00  0.00     0.038 H 
ATOM     13  H   LIG d   1       4.742  -2.484  -2.458  0.00  0.00     0.065 H 
ENDROOT
BRANCH   2  14
ATOM     14  N   LIG d   1       3.543   1.410  -2.312  0.00  0.00     0.223 N 
ATOM     15  H   LIG d   1       4.063   2.173  -1.882  0.00  0.00     0.200 HD
ATOM     16  H   LIG d   1       3.211   1.701  -3.230  0.00  0.00     0.200 HD
ATOM     17  H   LIG d   1       2.735   1.180  -1.722  0.00  0.00     0.200 HD
ENDBRANCH   2  14
BRANCH   4  18
ATOM     18  O   LIG d   1       3.480  -0.254  -4.623  0.00  0.00    -0.384 OA
ATOM     19  H   LIG d   1       2.736  -0.646  -5.099  0.00  0.00     0.210 HD
ENDBRANCH   4  18
BRANCH   9  20
ATOM     20  N   LIG d   1       7.904  -0.279  -3.812  0.00  0.00     0.223 N 
ATOM     21  H   LIG d   1       7.864  -0.440  -4.817  0.00  0.00     0.200 HD
ATOM     22  H   LIG d   1       8.106   0.704  -3.635  0.00  0.00     0.200 HD
ATOM     23  H   LIG d   1       8.655  -0.853  -3.410  0.00  0.00     0.200 HD
ENDBRANCH   9  20
BRANCH   6  24
ATOM     24  O   LIG d   1       3.918  -3.023  -4.274  0.00  0.00    -0.386 OA
ATOM     25  H   LIG d   1       4.521  -3.588  -4.774  0.00  0.00     0.210 HD
ENDBRANCH   6  24
BRANCH   7  26
ATOM     26  O   LIG d   1       6.736  -2.849  -4.188  0.00  0.00    -0.384 OA
ATOM     27  H   LIG d   1       7.634  -2.671  -4.502  0.00  0.00     0.210 HD
ENDBRANCH   7  26
TORSDOF 5
ENDMDL
MODEL 8
REMARK VINA RESULT:      -3.8      1.820      2.447
REMARK  5 active torsions:
REMARK  status: ('A' for Active; 'I' for Inactive)
REMARK    1  A    between atoms: C_2  and  N_26 
REMARK    2  A    between atoms: C_4  and  O_13 
REMARK    3  A    between atoms: C_6  and  O_12 
REMARK    4  A    between atoms: C_7  and  O_11 
REMARK    5  A    between atoms: C_9  and  N_24 
ROOT
ATOM      1  C   LIG d   1       3.996  -1.618  -4.575  0.00  0.00     0.038 C 
ATOM      2  C   LIG d   1       3.441  -0.200  -4.723  0.00  0.00     0.010 C 
ATOM      3  H   LIG d   1       3.847   0.258  -5.625  0.00  0.00     0.088 H 
ATOM      4  C   LIG d   1       3.843   0.634  -3.505  0.00  0.00     0.126 C 
ATOM      5  H   LIG d   1       3.448   1.645  -3.610  0.00  0.00     0.068 H 
ATOM      6  C   LIG d   1       5.368   0.691  -3.405  0.00  0.00     0.117 C 
ATOM      7  C   LIG d   1       5.922  -0.728  -3.258  0.00  0.00     0.126 C 
ATOM      8  H   LIG d   1       5.516  -1.184  -2.355  0.00  0.00     0.068 H 
ATOM      9  C   LIG d   1       5.522  -1.561  -4.476  0.00  0.00     0.010 C 
ATOM     10  H   LIG d   1       5.927  -1.105  -5.378  0.00  0.00     0.088 H 
ATOM     11  H   LIG d   1       3.589  -2.075  -3.673  0.00  0.00     0.038 H 
ATOM     12  H   LIG d   1       3.710  -2.212  -5.444  0.00  0.00     0.038 H 
ATOM     13  H   LIG d   1       5.775   1.148  -4.307  0.00  0.00     0.065 H 
ENDROOT
BRANCH   2  14
ATOM     14  N   LIG d   1       1.972  -0.229  -4.822  0.00  0.00     0.223 N 
ATOM     15  H   LIG d   1       1.563  -0.374  -3.901  0.00  0.00     0.200 HD
ATOM     16  H   LIG d   1       1.630   0.649  -5.210  0.00  0.00     0.200 HD
ATOM     17  H   LIG d   1       1.690  -0.999  -5.439  0.00  0.00     0.200 HD
ENDBRANCH   2  14
BRANCH   4  18
ATOM     18  O   LIG d   1       3.310   0.036  -2.321  0.00  0.00    -0.384 OA
ATOM     19  H   LIG d   1       3.950  -0.054  -1.603  0.00  0.00     0.210 HD
ENDBRANCH   4  18
BRANCH   9  20
ATOM     20  N   LIG d   1       6.042  -2.930  -4.313  0.00  0.00     0.223 N 
ATOM     21  H   LIG d   1       6.165  -3.368  -5.225  0.00  0.00     0.200 HD
ATOM     22  H   LIG d   1       6.934  -2.909  -3.824  0.00  0.00     0.200 HD
ATOM     23  H   LIG d   1       5.372  -3.483  -3.765  0.00  0.00     0.200 HD
ENDBRANCH   9  20
BRANCH   6  24
ATOM     24  O   LIG d   1       5.743   1.469  -2.267  0.00  0.00    -0.386 OA
ATOM     25  H   LIG d   1       6.684   1.690  -2.233  0.00  0.00     0.210 HD
ENDBRANCH   6  24
BRANCH   7  26
ATOM     26  O   LIG d   1       7.348  -0.675  -3.165  0.00  0.00    -0.384 OA
ATOM     27  H   LIG d   1       7.789  -0.464  -4.000  0.00  0.00     0.210 HD
ENDBRANCH   7  26
TORSDOF 5
ENDMDL
MODEL 9
REMARK VINA RESULT:      -3.8     10.377     11.692
REMARK  5 active torsions:
REMARK  status: ('A' for Active; 'I' for Inactive)
REMARK    1  A    between atoms: C_2  and  N_26 
REMARK    2  A    between atoms: C_4  and  O_13 
REMARK    3  A    between atoms: C_6  and  O_12 
REMARK    4  A    between atoms: C_7  and  O_11 
REMARK    5  A    between atoms: C_9  and  N_24 
ROOT
ATOM      1  C   LIG d   1      10.939  10.610  -1.932  0.00  0.00     0.038 C 
ATOM      2  C   LIG d   1      10.199  10.761  -0.602  0.00  0.00     0.010 C 
ATOM      3  H   LIG d   1      10.813  10.361   0.205  0.00  0.00     0.088 H 
ATOM      4  C   LIG d   1       8.877   9.992  -0.664  0.00  0.00     0.126 C 
ATOM      5  H   LIG d   1       8.349  10.099   0.283  0.00  0.00     0.068 H 
ATOM      6  C   LIG d   1       9.160   8.511  -0.925  0.00  0.00     0.117 C 
ATOM      7  C   LIG d   1       9.902   8.361  -2.255  0.00  0.00     0.126 C 
ATOM      8  H   LIG d   1       9.286   8.760  -3.061  0.00  0.00     0.068 H 
ATOM      9  C   LIG d   1      11.223   9.129  -2.192  0.00  0.00     0.010 C 
ATOM     10  H   LIG d   1      11.838   8.730  -1.387  0.00  0.00     0.088 H 
ATOM     11  H   LIG d   1      10.325  11.010  -2.738  0.00  0.00     0.038 H 
ATOM     12  H   LIG d   1      11.881  11.158  -1.887  0.00  0.00     0.038 H 
ATOM     13  H   LIG d   1       9.775   8.111  -0.120  0.00  0.00     0.065 H 
ENDROOT
BRANCH   2  14
ATOM     14  N   LIG d   1       9.915  12.181  -0.328  0.00  0.00     0.223 N 
ATOM     15  H   LIG d   1       9.729  12.315   0.664  0.00  0.00     0.200 HD
ATOM     16  H   LIG d   1      10.709  12.755  -0.605  0.00  0.00     0.200 HD
ATOM     17  H   LIG d   1       9.090  12.470  -0.866  0.00  0.00     0.200 HD
ENDBRANCH   2  14
BRANCH   4  18
ATOM     18  O   LIG d   1       8.070  10.516  -1.721  0.00  0.00    -0.384 OA
ATOM     19  H   LIG d   1       7.382   9.911  -2.028  0.00  0.00     0.210 HD
ENDBRANCH   4  18
BRANCH   9  20
ATOM     20  N   LIG d   1      11.918   8.995  -3.484  0.00  0.00     0.223 N 
ATOM     21  H   LIG d   1      12.923   8.919  -3.335  0.00  0.00     0.200 HD
ATOM     22  H   LIG d   1      11.585   8.169  -3.977  0.00  0.00     0.200 HD
ATOM     23  H   LIG d   1      11.728   9.826  -4.058  0.00  0.00     0.200 HD
ENDBRANCH   9  20
BRANCH   6  24
ATOM     24  O   LIG d   1       7.926   7.792  -0.984  0.00  0.00    -0.386 OA
ATOM     25  H   LIG d   1       7.295   8.146  -1.625  0.00  0.00     0.210 HD
ENDBRANCH   6  24
BRANCH   7  26
ATOM     26  O   LIG d   1      10.167   6.977  -2.499  0.00  0.00    -0.384 OA
ATOM     27  H   LIG d   1       9.729   6.626  -3.287  0.00  0.00     0.210 HD
ENDBRANCH   7  26
TORSDOF 5
ENDMDL
