MODEL 1
REMARK VINA RESULT:      -4.5      0.000      0.000
REMARK  4 active torsions:
REMARK  status: ('A' for Active; 'I' for Inactive)
REMARK    1  A    between atoms: C_2  and  N_23 
REMARK    2  A    between atoms: C_4  and  C_9 
REMARK    3  A    between atoms: C_9  and  C_10 
REMARK    4  A    between atoms: C_10  and  N_21 
ROOT
ATOM      1  C   LIG d   1       4.358  -1.012  -1.941  0.00  0.00     0.091 C 
ATOM      2  C   LIG d   1       3.625  -1.515  -3.205  0.00  0.00     0.024 C 
ATOM      3  H   LIG d   1       2.546  -1.520  -3.049  0.00  0.00     0.089 H 
ATOM      4  C   LIG d   1       4.016  -0.473  -4.274  0.00  0.00     0.150 C 
ATOM      5  H   LIG d   1       4.534  -0.961  -5.099  0.00  0.00     0.079 H 
ATOM      6  O   LIG d   1       4.902   0.476  -3.617  0.00  0.00    -0.455 OA
ATOM      7  C   LIG d   1       4.715   0.424  -2.285  0.00  0.00     0.313 C 
ATOM      8  O   LIG d   1       4.813   1.344  -1.510  0.00  0.00    -0.251 OA
ATOM      9  H   LIG d   1       3.695  -1.045  -1.076  0.00  0.00     0.043 H 
ATOM     10  H   LIG d   1       5.257  -1.598  -1.760  0.00  0.00     0.043 H 
ENDROOT
BRANCH   4  11
ATOM     11  C   LIG d   1       2.767   0.244  -4.789  0.00  0.00     0.030 C 
ATOM     12  H   LIG d   1       2.734   1.255  -4.382  0.00  0.00     0.035 H 
ATOM     13  H   LIG d   1       1.879  -0.303  -4.475  0.00  0.00     0.035 H 
BRANCH  11  14
ATOM     14  C   LIG d   1       2.811   0.312  -6.317  0.00  0.00    -0.032 C 
ATOM     15  H   LIG d   1       2.327   1.229  -6.654  0.00  0.00     0.081 H 
ATOM     16  H   LIG d   1       2.288  -0.549  -6.735  0.00  0.00     0.081 H 
BRANCH  14  17
ATOM     17  N   LIG d   1       4.217   0.323  -6.757  0.00  0.00     0.219 N 
ATOM     18  H   LIG d   1       4.675  -0.545  -6.484  0.00  0.00     0.199 HD
ATOM     19  H   LIG d   1       4.265   0.428  -7.769  0.00  0.00     0.199 HD
ATOM     20  H   LIG d   1       4.703   1.111  -6.314  0.00  0.00     0.199 HD
ENDBRANCH  14  17
ENDBRANCH  11  14
ENDBRANCH   4  11
BRANCH   2  21
ATOM     21  N   LIG d   1       4.124  -2.848  -3.586  0.00  0.00     0.224 N 
ATOM     22  H   LIG d   1       3.800  -3.546  -2.919  0.00  0.00     0.200 HD
ATOM     23  H   LIG d   1       3.794  -3.091  -4.518  0.00  0.00     0.200 HD
ATOM     24  H   LIG d   1       5.150  -2.837  -3.587  0.00  0.00     0.200 HD
ENDBRANCH   2  21
TORSDOF 4
ENDMDL
MODEL 2
REMARK VINA RESULT:      -4.3      1.746      2.679
REMARK  4 active torsions:
REMARK  status: ('A' for Active; 'I' for Inactive)
REMARK    1  A    between atoms: C_2  and  N_23 
REMARK    2  A    between atoms: C_4  and  C_9 
REMARK    3  A    between atoms: C_9  and  C_10 
REMARK    4  A    between atoms: C_10  and  N_21 
ROOT
ATOM      1  C   LIG d   1       3.496   1.022  -3.479  0.00  0.00     0.091 C 
ATOM      2  C   LIG d   1       3.119  -0.337  -4.110  0.00  0.00     0.024 C 
ATOM      3  H   LIG d   1       3.759  -0.556  -4.964  0.00  0.00     0.089 H 
ATOM      4  C   LIG d   1       3.377  -1.339  -2.964  0.00  0.00     0.150 C 
ATOM      5  H   LIG d   1       2.458  -1.867  -2.715  0.00  0.00     0.079 H 
ATOM      6  O   LIG d   1       3.827  -0.551  -1.825  0.00  0.00    -0.455 OA
ATOM      7  C   LIG d   1       4.303   0.633  -2.252  0.00  0.00     0.313 C 
ATOM      8  O   LIG d   1       5.202   1.267  -1.755  0.00  0.00    -0.251 OA
ATOM      9  H   LIG d   1       4.104   1.608  -4.168  0.00  0.00     0.043 H 
ATOM     10  H   LIG d   1       2.602   1.573  -3.190  0.00  0.00     0.043 H 
ENDROOT
BRANCH   4  11
ATOM     11  C   LIG d   1       4.462  -2.336  -3.374  0.00  0.00     0.030 C 
ATOM     12  H   LIG d   1       4.167  -3.340  -3.071  0.00  0.00     0.035 H 
ATOM     13  H   LIG d   1       5.401  -2.071  -2.888  0.00  0.00     0.035 H 
BRANCH  11  14
ATOM     14  C   LIG d   1       4.645  -2.295  -4.893  0.00  0.00    -0.032 C 
ATOM     15  H   LIG d   1       5.705  -2.199  -5.129  0.00  0.00     0.081 H 
ATOM     16  H   LIG d   1       4.103  -1.442  -5.302  0.00  0.00     0.081 H 
BRANCH  14  17
ATOM     17  N   LIG d   1       4.138  -3.552  -5.472  0.00  0.00     0.219 N 
ATOM     18  H   LIG d   1       4.552  -3.705  -6.390  0.00  0.00     0.199 HD
ATOM     19  H   LIG d   1       4.369  -4.335  -4.862  0.00  0.00     0.199 HD
ATOM     20  H   LIG d   1       3.119  -3.491  -5.569  0.00  0.00     0.199 HD
ENDBRANCH  14  17
ENDBRANCH  11  14
ENDBRANCH   4  11
BRANCH   2  21
ATOM     21  N   LIG d   1       1.693  -0.347  -4.482  0.00  0.00     0.224 N 
ATOM     22  H   LIG d   1       1.121  -0.095  -3.679  0.00  0.00     0.200 HD
ATOM     23  H   LIG d   1       1.525   0.314  -5.239  0.00  0.00     0.200 HD
ATOM     24  H   LIG d   1       1.433  -1.289  -4.797  0.00  0.00     0.200 HD
ENDBRANCH   2  21
TORSDOF 4
ENDMDL
MODEL 3
REMARK VINA RESULT:      -4.2      2.302      3.490
REMARK  4 active torsions:
REMARK  status: ('A' for Active; 'I' for Inactive)
REMARK    1  A    between atoms: C_2  and  N_23 
REMARK    2  A    between atoms: C_4  and  C_9 
REMARK    3  A    between atoms: C_9  and  C_10 
REMARK    4  A    between atoms: C_10  and  N_21 
ROOT
ATOM      1  C   LIG d   1       2.542  -0.672  -3.273  0.00  0.00     0.091 C 
ATOM      2  C   LIG d   1       3.303   0.624  -3.635  0.00  0.00     0.024 C 
ATOM      3  H   LIG d   1       3.366   1.288  -2.774  0.00  0.00     0.089 H 
ATOM      4  C   LIG d   1       4.704   0.107  -4.027  0.00  0.00     0.150 C 
ATOM      5  H   LIG d   1       4.931   0.388  -5.055  0.00  0.00     0.079 H 
ATOM      6  O   LIG d   1       4.656  -1.343  -3.901  0.00  0.00    -0.455 OA
ATOM      7  C   LIG d   1       3.649  -1.693  -3.082  0.00  0.00     0.313 C 
ATOM      8  O   LIG d   1       3.628  -2.642  -2.335  0.00  0.00    -0.251 OA
ATOM      9  H   LIG d   1       1.979  -0.538  -2.348  0.00  0.00     0.043 H 
ATOM     10  H   LIG d   1       1.881  -0.969  -4.086  0.00  0.00     0.043 H 
ENDROOT
BRANCH   4  11
ATOM     11  C   LIG d   1       5.759   0.682  -3.081  0.00  0.00     0.030 C 
ATOM     12  H   LIG d   1       5.659   0.218  -2.100  0.00  0.00     0.035 H 
ATOM     13  H   LIG d   1       5.616   1.758  -2.989  0.00  0.00     0.035 H 
BRANCH  11  14
ATOM     14  C   LIG d   1       7.154   0.398  -3.640  0.00  0.00    -0.032 C 
ATOM     15  H   LIG d   1       7.875   1.072  -3.176  0.00  0.00     0.081 H 
ATOM     16  H   LIG d   1       7.153   0.555  -4.719  0.00  0.00     0.081 H 
BRANCH  14  17
ATOM     17  N   LIG d   1       7.526  -0.992  -3.322  0.00  0.00     0.219 N 
ATOM     18  H   LIG d   1       7.477  -1.145  -2.316  0.00  0.00     0.199 HD
ATOM     19  H   LIG d   1       6.895  -1.638  -3.794  0.00  0.00     0.199 HD
ATOM     20  H   LIG d   1       8.485  -1.166  -3.642  0.00  0.00     0.199 HD
ENDBRANCH  14  17
ENDBRANCH  11  14
ENDBRANCH   4  11
BRANCH   2  21
ATOM     21  N   LIG d   1       2.664   1.285  -4.786  0.00  0.00     0.224 N 
ATOM     22  H   LIG d   1       2.539   2.277  -4.593  0.00  0.00     0.200 HD
ATOM     23  H   LIG d   1       3.240   1.171  -5.618  0.00  0.00     0.200 HD
ATOM     24  H   LIG d   1       1.745   0.859  -4.953  0.00  0.00     0.200 HD
ENDBRANCH   2  21
TORSDOF 4
ENDMDL
MODEL 4
REMARK VINA RESULT:      -4.1      2.209      2.626
REMARK  4 active torsions:
REMARK  status: ('A' for Active; 'I' for Inactive)
REMARK    1  A    between atoms: C_2  and  N_23 
REMARK    2  A    between atoms: C_4  and  C_9 
REMARK    3  A    between atoms: C_9  and  C_10 
REMARK    4  A    between atoms: C_10  and  N_21 
ROOT
ATOM      1  C   LIG d   1       4.324  -0.395  -2.083  0.00  0.00     0.091 C 
ATOM      2  C   LIG d   1       4.699   0.470  -3.307  0.00  0.00     0.024 C 
ATOM      3  H   LIG d   1       5.756   0.362  -3.546  0.00  0.00     0.089 H 
ATOM      4  C   LIG d   1       3.823  -0.119  -4.434  0.00  0.00     0.150 C 
ATOM      5  H   LIG d   1       3.164   0.649  -4.835  0.00  0.00     0.079 H 
ATOM      6  O   LIG d   1       3.040  -1.187  -3.828  0.00  0.00    -0.455 OA
ATOM      7  C   LIG d   1       3.640  -1.604  -2.698  0.00  0.00     0.313 C 
ATOM      8  O   LIG d   1       3.636  -2.728  -2.256  0.00  0.00    -0.251 OA
ATOM      9  H   LIG d   1       5.219  -0.696  -1.539  0.00  0.00     0.043 H 
ATOM     10  H   LIG d   1       3.638   0.142  -1.429  0.00  0.00     0.043 H 
ENDROOT
BRANCH   4  11
ATOM     11  C   LIG d   1       4.709  -0.684  -5.546  0.00  0.00     0.030 C 
ATOM     12  H   LIG d   1       4.797  -1.764  -5.428  0.00  0.00     0.035 H 
ATOM     13  H   LIG d   1       5.698  -0.232  -5.487  0.00  0.00     0.035 H 
BRANCH  11  14
ATOM     14  C   LIG d   1       4.083  -0.369  -6.906  0.00  0.00    -0.032 C 
ATOM     15  H   LIG d   1       4.244  -1.208  -7.583  0.00  0.00     0.081 H 
ATOM     16  H   LIG d   1       4.547   0.526  -7.321  0.00  0.00     0.081 H 
BRANCH  14  17
ATOM     17  N   LIG d   1       2.634  -0.164  -6.732  0.00  0.00     0.219 N 
ATOM     18  H   LIG d   1       2.161  -0.247  -7.631  0.00  0.00     0.199 HD
ATOM     19  H   LIG d   1       2.259  -0.857  -6.087  0.00  0.00     0.199 HD
ATOM     20  H   LIG d   1       2.470   0.774  -6.352  0.00  0.00     0.199 HD
ENDBRANCH  14  17
ENDBRANCH  11  14
ENDBRANCH   4  11
BRANCH   2  21
ATOM     21  N   LIG d   1       4.337   1.878  -3.066  0.00  0.00     0.224 N 
ATOM     22  H   LIG d   1       4.737   2.195  -2.184  0.00  0.00     0.200 HD
ATOM     23  H   LIG d   1       4.685   2.463  -3.824  0.00  0.00     0.200 HD
ATOM     24  H   LIG d   1       3.316   1.961  -3.020  0.00  0.00     0.200 HD
ENDBRANCH   2  21
TORSDOF 4
ENDMDL
MODEL 5
REMARK VINA RESULT:      -4.1      1.996      3.209
REMARK  4 active torsions:
REMARK  status: ('A' for Active; 'I' for Inactive)
REMARK    1  A    between atoms: C_2  and  N_23 
REMARK    2  A    between atoms: C_4  and  C_9 
REMARK    3  A    between atoms: C_9  and  C_10 
REMARK    4  A    between atoms: C_10  and  N_21 
ROOT
ATOM      1  C   LIG d   1       3.599  -0.544  -5.573  0.00  0.00     0.091 C 
ATOM      2  C   LIG d   1       4.243  -1.411  -4.468  0.00  0.00     0.024 C 
ATOM      3  H   LIG d   1       5.276  -1.112  -4.296  0.00  0.00     0.089 H 
ATOM      4  C   LIG d   1       3.373  -1.104  -3.230  0.00  0.00     0.150 C 
ATOM      5  H   LIG d   1       2.914  -2.019  -2.859  0.00  0.00     0.079 H 
ATOM      6  O   LIG d   1       2.347  -0.170  -3.673  0.00  0.00    -0.455 OA
ATOM      7  C   LIG d   1       2.751   0.448  -4.797  0.00  0.00     0.313 C 
ATOM      8  O   LIG d   1       2.489   1.580  -5.127  0.00  0.00    -0.251 OA
ATOM      9  H   LIG d   1       4.366  -0.026  -6.148  0.00  0.00     0.043 H 
ATOM     10  H   LIG d   1       2.975  -1.154  -6.225  0.00  0.00     0.043 H 
ENDROOT
BRANCH   4  11
ATOM     11  C   LIG d   1       4.228  -0.463  -2.135  0.00  0.00     0.030 C 
ATOM     12  H   LIG d   1       4.373  -1.176  -1.323  0.00  0.00     0.035 H 
ATOM     13  H   LIG d   1       3.724   0.424  -1.753  0.00  0.00     0.035 H 
BRANCH  11  14
ATOM     14  C   LIG d   1       5.587  -0.068  -2.715  0.00  0.00    -0.032 C 
ATOM     15  H   LIG d   1       5.747  -0.592  -3.657  0.00  0.00     0.081 H 
ATOM     16  H   LIG d   1       6.375  -0.338  -2.011  0.00  0.00     0.081 H 
BRANCH  14  17
ATOM     17  N   LIG d   1       5.598   1.384  -2.967  0.00  0.00     0.219 N 
ATOM     18  H   LIG d   1       6.531   1.760  -2.801  0.00  0.00     0.199 HD
ATOM     19  H   LIG d   1       5.324   1.573  -3.930  0.00  0.00     0.199 HD
ATOM     20  H   LIG d   1       4.934   1.842  -2.333  0.00  0.00     0.199 HD
ENDBRANCH  14  17
ENDBRANCH  11  14
ENDBRANCH   4  11
BRANCH   2  21
ATOM     21  N   LIG d   1       4.142  -2.839  -4.818  0.00  0.00     0.224 N 
ATOM     22  H   LIG d   1       4.805  -3.381  -4.266  0.00  0.00     0.200 HD
ATOM     23  H   LIG d   1       3.197  -3.177  -4.640  0.00  0.00     0.200 HD
ATOM     24  H   LIG d   1       4.358  -2.959  -5.814  0.00  0.00     0.200 HD
ENDBRANCH   2  21
TORSDOF 4
ENDMDL
MODEL 6
REMARK VINA RESULT:      -4.0      2.114      2.744
REMARK  4 active torsions:
REMARK  status: ('A' for Active; 'I' for Inactive)
REMARK    1  A    between atoms: C_2  and  N_23 
REMARK    2  A    between atoms: C_4  and  C_9 
REMARK    3  A    between atoms: C_9  and  C_10 
REMARK    4  A    between atoms: C_10  and  N_21 
ROOT
ATOM      1  C   LIG d   1       2.983  -0.156  -3.054  0.00  0.00     0.091 C 
ATOM      2  C   LIG d   1       3.998  -1.295  -3.299  0.00  0.00     0.024 C 
ATOM      3  H   LIG d   1       4.017  -1.575  -4.351  0.00  0.00     0.089 H 
ATOM      4  C   LIG d   1       5.342  -0.663  -2.879  0.00  0.00     0.150 C 
ATOM      5  H   LIG d   1       5.788  -1.237  -2.068  0.00  0.00     0.079 H 
ATOM      6  O   LIG d   1       5.037   0.688  -2.429  0.00  0.00    -0.455 OA
ATOM      7  C   LIG d   1       3.858   1.081  -2.944  0.00  0.00     0.313 C 
ATOM      8  O   LIG d   1       3.552   2.206  -3.260  0.00  0.00    -0.251 OA
ATOM      9  H   LIG d   1       2.297  -0.067  -3.897  0.00  0.00     0.043 H 
ATOM     10  H   LIG d   1       2.435  -0.322  -2.128  0.00  0.00     0.043 H 
ENDROOT
BRANCH   4  11
ATOM     11  C   LIG d   1       6.295  -0.615  -4.075  0.00  0.00     0.030 C 
ATOM     12  H   LIG d   1       5.752  -0.283  -4.960  0.00  0.00     0.035 H 
ATOM     13  H   LIG d   1       6.705  -1.609  -4.252  0.00  0.00     0.035 H 
BRANCH  11  14
ATOM     14  C   LIG d   1       7.434   0.362  -3.780  0.00  0.00    -0.032 C 
ATOM     15  H   LIG d   1       8.359  -0.016  -4.215  0.00  0.00     0.081 H 
ATOM     16  H   LIG d   1       7.557   0.464  -2.701  0.00  0.00     0.081 H 
BRANCH  14  17
ATOM     17  N   LIG d   1       7.118   1.667  -4.387  0.00  0.00     0.219 N 
ATOM     18  H   LIG d   1       6.995   2.370  -3.659  0.00  0.00     0.199 HD
ATOM     19  H   LIG d   1       7.871   1.953  -5.011  0.00  0.00     0.199 HD
ATOM     20  H   LIG d   1       6.248   1.586  -4.925  0.00  0.00     0.199 HD
ENDBRANCH  14  17
ENDBRANCH  11  14
ENDBRANCH   4  11
BRANCH   2  21
ATOM     21  N   LIG d   1       3.687  -2.448  -2.435  0.00  0.00     0.224 N 
ATOM     22  H   LIG d   1       4.463  -2.629  -1.802  0.00  0.00     0.200 HD
ATOM     23  H   LIG d   1       2.844  -2.262  -1.894  0.00  0.00     0.200 HD
ATOM     24  H   LIG d   1       3.532  -3.276  -3.021  0.00  0.00     0.200 HD
ENDBRANCH   2  21
TORSDOF 4
ENDMDL
MODEL 7
REMARK VINA RESULT:      -3.8      2.640      3.435
REMARK  4 active torsions:
REMARK  status: ('A' for Active; 'I' for Inactive)
REMARK    1  A    between atoms: C_2  and  N_23 
REMARK    2  A    between atoms: C_4  and  C_9 
REMARK    3  A    between atoms: C_9  and  C_10 
REMARK    4  A    between atoms: C_10  and  N_21 
ROOT
ATOM      1  C   LIG d   1       5.709  -2.126  -4.602  0.00  0.00     0.091 C 
ATOM      2  C   LIG d   1       5.230  -0.924  -3.757  0.00  0.00     0.024 C 
ATOM      3  H   LIG d   1       4.753  -0.175  -4.388  0.00  0.00     0.089 H 
ATOM      4  C   LIG d   1       4.203  -1.559  -2.796  0.00  0.00     0.150 C 
ATOM      5  H   LIG d   1       4.513  -1.406  -1.763  0.00  0.00     0.079 H 
ATOM      6  O   LIG d   1       4.177  -2.982  -3.106  0.00  0.00    -0.455 OA
ATOM      7  C   LIG d   1       4.649  -3.183  -4.349  0.00  0.00     0.313 C 
ATOM      8  O   LIG d   1       4.295  -4.043  -5.121  0.00  0.00    -0.251 OA
ATOM      9  H   LIG d   1       5.743  -1.861  -5.659  0.00  0.00     0.043 H 
ATOM     10  H   LIG d   1       6.684  -2.471  -4.260  0.00  0.00     0.043 H 
ENDROOT
BRANCH   4  11
ATOM     11  C   LIG d   1       2.820  -0.947  -3.026  0.00  0.00     0.030 C 
ATOM     12  H   LIG d   1       2.417  -0.593  -2.077  0.00  0.00     0.035 H 
ATOM     13  H   LIG d   1       2.154  -1.701  -3.444  0.00  0.00     0.035 H 
BRANCH  11  14
ATOM     14  C   LIG d   1       2.938   0.227  -4.000  0.00  0.00    -0.032 C 
ATOM     15  H   LIG d   1       3.965   0.301  -4.358  0.00  0.00     0.081 H 
ATOM     16  H   LIG d   1       2.664   1.152  -3.490  0.00  0.00     0.081 H 
BRANCH  14  17
ATOM     17  N   LIG d   1       2.046  -0.010  -5.149  0.00  0.00     0.219 N 
ATOM     18  H   LIG d   1       2.462  -0.697  -5.776  0.00  0.00     0.199 HD
ATOM     19  H   LIG d   1       1.143  -0.351  -4.825  0.00  0.00     0.199 HD
ATOM     20  H   LIG d   1       1.911   0.870  -5.658  0.00  0.00     0.199 HD
ENDBRANCH  14  17
ENDBRANCH  11  14
ENDBRANCH   4  11
BRANCH   2  21
ATOM     21  N   LIG d   1       6.355  -0.355  -2.995  0.00  0.00     0.224 N 
ATOM     22  H   LIG d   1       6.660  -1.012  -2.279  0.00  0.00     0.200 HD
ATOM     23  H   LIG d   1       7.134  -0.152  -3.621  0.00  0.00     0.200 HD
ATOM     24  H   LIG d   1       6.053   0.516  -2.544  0.00  0.00     0.200 HD
ENDBRANCH   2  21
TORSDOF 4
ENDMDL
MODEL 8
REMARK VINA RESULT:      -3.7      9.272     10.510
REMARK  4 active torsions:
REMARK  status: ('A' for Active; 'I' for Inactive)
REMARK    1  A    between atoms: C_2  and  N_23 
REMARK    2  A    between atoms: C_4  and  C_9 
REMARK    3  A    between atoms: C_9  and  C_10 
REMARK    4  A    between atoms: C_10  and  N_21 
ROOT
ATOM      1  C   LIG d   1      10.622   8.808   0.070  0.00  0.00     0.091 C 
ATOM      2  C   LIG d   1       9.914   8.547  -1.278  0.00  0.00     0.024 C 
ATOM      3  H   LIG d   1      10.559   8.820  -2.113  0.00  0.00     0.089 H 
ATOM      4  C   LIG d   1       9.670   7.023  -1.255  0.00  0.00     0.150 C 
ATOM      5  H   LIG d   1       8.604   6.813  -1.327  0.00  0.00     0.079 H 
ATOM      6  O   LIG d   1      10.190   6.544   0.018  0.00  0.00    -0.455 OA
ATOM      7  C   LIG d   1      11.080   7.427   0.505  0.00  0.00     0.313 C 
ATOM      8  O   LIG d   1      12.059   7.171   1.164  0.00  0.00    -0.251 OA
ATOM      9  H   LIG d   1      11.478   9.470  -0.070  0.00  0.00     0.043 H 
ATOM     10  H   LIG d   1       9.926   9.228   0.794  0.00  0.00     0.043 H 
ENDROOT
BRANCH   4  11
ATOM     11  C   LIG d   1      10.416   6.354  -2.411  0.00  0.00     0.030 C 
ATOM     12  H   LIG d   1      11.486   6.539  -2.309  0.00  0.00     0.035 H 
ATOM     13  H   LIG d   1      10.065   6.767  -3.357  0.00  0.00     0.035 H 
BRANCH  11  14
ATOM     14  C   LIG d   1      10.154   4.847  -2.384  0.00  0.00    -0.032 C 
ATOM     15  H   LIG d   1      10.291   4.437  -3.385  0.00  0.00     0.081 H 
ATOM     16  H   LIG d   1       9.132   4.662  -2.053  0.00  0.00     0.081 H 
BRANCH  14  17
ATOM     17  N   LIG d   1      11.116   4.208  -1.469  0.00  0.00     0.219 N 
ATOM     18  H   LIG d   1      12.041   4.184  -1.897  0.00  0.00     0.199 HD
ATOM     19  H   LIG d   1      11.161   4.727  -0.593  0.00  0.00     0.199 HD
ATOM     20  H   LIG d   1      10.811   3.248  -1.276  0.00  0.00     0.199 HD
ENDBRANCH  14  17
ENDBRANCH  11  14
ENDBRANCH   4  11
BRANCH   2  21
ATOM     21  N   LIG d   1       8.629   9.266  -1.326  0.00  0.00     0.224 N 
ATOM     22  H   LIG d   1       7.950   8.733  -1.866  0.00  0.00     0.200 HD
ATOM     23  H   LIG d   1       8.273   9.410  -0.382  0.00  0.00     0.200 HD
ATOM     24  H   LIG d   1       8.770  10.179  -1.773  0.00  0.00     0.200 HD
ENDBRANCH   2  21
TORSDOF 4
ENDMDL
MODEL 9
REMARK VINA RESULT:      -3.6      9.669     10.996
REMARK  4 active torsions:
REMARK  status: ('A' for Active; 'I' for Inactive)
REMARK    1  A    between atoms: C_2  and  N_23 
REMARK    2  A    between atoms: C_4  and  C_9 
REMARK    3  A    between atoms: C_9  and  C_10 
REMARK    4  A    between atoms: C_10  and  N_21 
ROOT
ATOM      1  C   LIG d   1       4.575  -9.373  -4.524  0.00  0.00     0.091 C 
ATOM      2  C   LIG d   1       6.033  -9.600  -4.064  0.00  0.00     0.024 C 
ATOM      3  H   LIG d   1       6.443  -8.694  -3.621  0.00  0.00     0.089 H 
ATOM      4  C   LIG d   1       5.895 -10.712  -3.002  0.00  0.00     0.150 C 
ATOM      5  H   LIG d   1       6.475 -11.585  -3.298  0.00  0.00     0.079 H 
ATOM      6  O   LIG d   1       4.479 -11.047  -2.941  0.00  0.00    -0.455 OA
ATOM      7  C   LIG d   1       3.751 -10.026  -3.429  0.00  0.00     0.313 C 
ATOM      8  O   LIG d   1       2.648  -9.693  -3.064  0.00  0.00    -0.251 OA
ATOM      9  H   LIG d   1       4.355  -8.306  -4.585  0.00  0.00     0.043 H 
ATOM     10  H   LIG d   1       4.394  -9.858  -5.482  0.00  0.00     0.043 H 
ENDROOT
BRANCH   4  11
ATOM     11  C   LIG d   1       6.372 -10.200  -1.642  0.00  0.00     0.030 C 
ATOM     12  H   LIG d   1       5.550  -9.695  -1.134  0.00  0.00     0.035 H 
ATOM     13  H   LIG d   1       7.195  -9.500  -1.786  0.00  0.00     0.035 H 
BRANCH  11  14
ATOM     14  C   LIG d   1       6.849 -11.379  -0.792  0.00  0.00    -0.032 C 
ATOM     15  H   LIG d   1       7.346 -11.004   0.103  0.00  0.00     0.081 H 
ATOM     16  H   LIG d   1       7.549 -11.984  -1.369  0.00  0.00     0.081 H 
BRANCH  14  17
ATOM     17  N   LIG d   1       5.682 -12.184  -0.390  0.00  0.00     0.219 N 
ATOM     18  H   LIG d   1       5.937 -13.170  -0.348  0.00  0.00     0.199 HD
ATOM     19  H   LIG d   1       5.347 -11.881   0.523  0.00  0.00     0.199 HD
ATOM     20  H   LIG d   1       4.933 -12.061  -1.081  0.00  0.00     0.199 HD
ENDBRANCH  14  17
ENDBRANCH  11  14
ENDBRANCH   4  11
BRANCH   2  21
ATOM     21  N   LIG d   1       6.854 -10.073  -5.192  0.00  0.00     0.224 N 
ATOM     22  H   LIG d   1       7.254 -10.984  -4.975  0.00  0.00     0.200 HD
ATOM     23  H   LIG d   1       6.284 -10.146  -6.033  0.00  0.00     0.200 HD
ATOM     24  H   LIG d   1       7.615  -9.405  -5.359  0.00  0.00     0.200 HD
ENDBRANCH   2  21
TORSDOF 4
ENDMDL
