MODEL 1
REMARK VINA RESULT:      -7.6      0.000      0.000
REMARK  10 active torsions:
REMARK  status: ('A' for Active; 'I' for Inactive)
REMARK    1  A    between atoms: C_1  and  C_2 
REMARK    2  A    between atoms: C_2  and  O_3 
REMARK    3  A    between atoms: O_3  and  C_4 
REMARK    4  A    between atoms: C_9  and  C_10 
REMARK    5  A    between atoms: N_29  and  C_32 
REMARK    6  A    between atoms: C_32  and  C_33 
REMARK    7  A    between atoms: C_33  and  C_34 
REMARK    8  A    between atoms: C_34  and  N_66 
REMARK    9  A    between atoms: C_35  and  N_66 
REMARK   10  A    between atoms: C_36  and  N_66 
ROOT
ATOM      1  C   LIG d   1       6.169  -1.517  -5.523  0.00  0.00     0.096 C 
ATOM      2  H   LIG d   1       7.241  -1.318  -5.512  0.00  0.00     0.062 H 
ATOM      3  C   LIG d   1       5.531  -0.843  -6.717  0.00  0.00     0.046 A 
ATOM      4  C   LIG d   1       4.687  -1.470  -7.563  0.00  0.00    -0.015 A 
ATOM      5  C   LIG d   1       4.292  -0.501  -8.564  0.00  0.00     0.003 A 
ATOM      6  C   LIG d   1       3.444  -0.576  -9.674  0.00  0.00    -0.052 A 
ATOM      7  C   LIG d   1       3.301   0.566 -10.423  0.00  0.00    -0.061 A 
ATOM      8  C   LIG d   1       3.960   1.743 -10.105  0.00  0.00    -0.060 A 
ATOM      9  C   LIG d   1       4.803   1.845  -9.012  0.00  0.00    -0.038 A 
ATOM     10  C   LIG d   1       4.968   0.702  -8.233  0.00  0.00     0.047 A 
ATOM     11  N   LIG d   1       5.707   0.457  -7.111  0.00  0.00    -0.356 N 
ATOM     12  H   LIG d   1       6.270   1.105  -6.661  0.00  0.00     0.166 HD
ATOM     13  C   LIG d   1       4.265  -2.913  -7.443  0.00  0.00     0.002 C 
ATOM     14  C   LIG d   1       4.583  -3.407  -6.024  0.00  0.00     0.107 A 
ATOM     15  H   LIG d   1       3.864  -2.958  -5.338  0.00  0.00     0.060 H 
ATOM     16  N   LIG d   1       5.927  -2.968  -5.654  0.00  0.00    -0.276 N 
ATOM     17  C   LIG d   1       6.935  -3.815  -5.434  0.00  0.00     0.234 A 
ATOM     18  O   LIG d   1       8.028  -3.345  -5.196  0.00  0.00    -0.274 OA
ATOM     19  C   LIG d   1       6.809  -5.304  -5.460  0.00  0.00     0.091 A 
ATOM     20  N   LIG d   1       5.444  -5.732  -5.719  0.00  0.00    -0.291 N 
ATOM     21  C   LIG d   1       4.441  -4.893  -5.968  0.00  0.00     0.237 A 
ATOM     22  O   LIG d   1       3.341  -5.367  -6.162  0.00  0.00    -0.274 OA
ATOM     23  H   LIG d   1       2.927  -1.489  -9.930  0.00  0.00     0.062 H 
ATOM     24  H   LIG d   1       2.654   0.546 -11.287  0.00  0.00     0.062 H 
ATOM     25  H   LIG d   1       3.810   2.610 -10.731  0.00  0.00     0.062 H 
ATOM     26  H   LIG d   1       5.310   2.768  -8.775  0.00  0.00     0.064 H 
ATOM     27  H   LIG d   1       4.813  -3.514  -8.170  0.00  0.00     0.034 H 
ATOM     28  H   LIG d   1       3.195  -2.999  -7.629  0.00  0.00     0.034 H 
ATOM     29  H   LIG d   1       7.130  -5.703  -4.499  0.00  0.00     0.056 H 
ATOM     30  H   LIG d   1       7.459  -5.701  -6.241  0.00  0.00     0.056 H 
ENDROOT
BRANCH   1  31
ATOM     31  C   LIG d   1       5.542  -1.005  -4.251  0.00  0.00     0.021 A 
ATOM     32  C   LIG d   1       5.845   0.268  -3.790  0.00  0.00     0.126 A 
ATOM     33  C   LIG d   1       5.267   0.735  -2.619  0.00  0.00    -0.020 A 
ATOM     34  C   LIG d   1       4.389  -0.067  -1.916  0.00  0.00    -0.058 A 
ATOM     35  H   LIG d   1       5.502   1.725  -2.258  0.00  0.00     0.065 H 
ATOM     36  C   LIG d   1       4.088  -1.335  -2.377  0.00  0.00    -0.061 A 
ATOM     37  H   LIG d   1       3.938   0.297  -1.004  0.00  0.00     0.062 H 
ATOM     38  C   LIG d   1       4.660  -1.801  -3.546  0.00  0.00    -0.053 A 
ATOM     39  H   LIG d   1       3.402  -1.961  -1.826  0.00  0.00     0.062 H 
ATOM     40  H   LIG d   1       4.419  -2.791  -3.907  0.00  0.00     0.062 H 
BRANCH  32  41
ATOM     41  O   LIG d   1       6.709   1.054  -4.485  0.00  0.00    -0.492 OA
BRANCH  41  42
ATOM     42  C   LIG d   1       7.891   1.479  -3.802  0.00  0.00     0.087 C 
ATOM     43  H   LIG d   1       7.639   1.759  -2.779  0.00  0.00     0.069 H 
ATOM     44  H   LIG d   1       8.615   0.665  -3.788  0.00  0.00     0.069 H 
BRANCH  42  45
ATOM     45  C   LIG d   1       8.492   2.685  -4.527  0.00  0.00    -0.031 C 
ATOM     46  H   LIG d   1       7.864   3.560  -4.358  0.00  0.00     0.026 H 
ATOM     47  H   LIG d   1       9.493   2.877  -4.142  0.00  0.00     0.026 H 
ATOM     48  H   LIG d   1       8.546   2.477  -5.595  0.00  0.00     0.026 H 
ENDBRANCH  42  45
ENDBRANCH  41  42
ENDBRANCH  32  41
ENDBRANCH   1  31
BRANCH  20  49
ATOM     49  C   LIG d   1       5.157  -7.168  -5.705  0.00  0.00     0.020 C 
ATOM     50  H   LIG d   1       4.356  -7.372  -4.994  0.00  0.00     0.047 H 
ATOM     51  H   LIG d   1       4.849  -7.488  -6.699  0.00  0.00     0.047 H 
BRANCH  49  52
ATOM     52  C   LIG d   1       6.414  -7.935  -5.288  0.00  0.00     0.003 C 
ATOM     53  H   LIG d   1       6.924  -8.305  -6.177  0.00  0.00     0.033 H 
ATOM     54  H   LIG d   1       7.079  -7.271  -4.737  0.00  0.00     0.033 H 
BRANCH  52  55
ATOM     55  C   LIG d   1       6.019  -9.115  -4.398  0.00  0.00    -0.031 C 
ATOM     56  H   LIG d   1       6.726  -9.932  -4.544  0.00  0.00     0.082 H 
ATOM     57  H   LIG d   1       6.035  -8.804  -3.353  0.00  0.00     0.082 H 
BRANCH  55  58
ATOM     58  N   LIG d   1       4.650  -9.544  -4.753  0.00  0.00     0.231 N 
ATOM     59  H   LIG d   1       4.171  -8.770  -5.229  0.00  0.00     0.203 HD
BRANCH  58  60
ATOM     60  C   LIG d   1       4.706 -10.706  -5.665  0.00  0.00    -0.043 C 
ATOM     61  H   LIG d   1       4.072 -11.513  -5.295  0.00  0.00     0.078 H 
ATOM     62  H   LIG d   1       4.365 -10.398  -6.653  0.00  0.00     0.078 H 
ATOM     63  H   LIG d   1       5.737 -11.055  -5.730  0.00  0.00     0.078 H 
ENDBRANCH  58  60
BRANCH  58  64
ATOM     64  C   LIG d   1       3.897  -9.896  -3.531  0.00  0.00    -0.043 C 
ATOM     65  H   LIG d   1       3.536 -10.920  -3.622  0.00  0.00     0.078 H 
ATOM     66  H   LIG d   1       4.562  -9.821  -2.671  0.00  0.00     0.078 H 
ATOM     67  H   LIG d   1       3.051  -9.222  -3.396  0.00  0.00     0.078 H 
ENDBRANCH  58  64
ENDBRANCH  55  58
ENDBRANCH  52  55
ENDBRANCH  49  52
ENDBRANCH  20  49
TORSDOF 10
ENDMDL
MODEL 2
REMARK VINA RESULT:      -7.3      1.459      2.141
REMARK  10 active torsions:
REMARK  status: ('A' for Active; 'I' for Inactive)
REMARK    1  A    between atoms: C_1  and  C_2 
REMARK    2  A    between atoms: C_2  and  O_3 
REMARK    3  A    between atoms: O_3  and  C_4 
REMARK    4  A    between atoms: C_9  and  C_10 
REMARK    5  A    between atoms: N_29  and  C_32 
REMARK    6  A    between atoms: C_32  and  C_33 
REMARK    7  A    between atoms: C_33  and  C_34 
REMARK    8  A    between atoms: C_34  and  N_66 
REMARK    9  A    between atoms: C_35  and  N_66 
REMARK   10  A    between atoms: C_36  and  N_66 
ROOT
ATOM      1  C   LIG d   1       5.968  -1.446  -5.421  0.00  0.00     0.096 C 
ATOM      2  H   LIG d   1       6.958  -1.014  -5.571  0.00  0.00     0.062 H 
ATOM      3  C   LIG d   1       5.026  -0.967  -6.503  0.00  0.00     0.046 A 
ATOM      4  C   LIG d   1       4.228  -1.792  -7.213  0.00  0.00    -0.015 A 
ATOM      5  C   LIG d   1       3.483  -0.966  -8.141  0.00  0.00     0.003 A 
ATOM      6  C   LIG d   1       2.518  -1.262  -9.110  0.00  0.00    -0.052 A 
ATOM      7  C   LIG d   1       2.014  -0.204  -9.825  0.00  0.00    -0.061 A 
ATOM      8  C   LIG d   1       2.432   1.099  -9.607  0.00  0.00    -0.060 A 
ATOM      9  C   LIG d   1       3.383   1.420  -8.653  0.00  0.00    -0.038 A 
ATOM     10  C   LIG d   1       3.913   0.366  -7.911  0.00  0.00     0.047 A 
ATOM     11  N   LIG d   1       4.846   0.326  -6.915  0.00  0.00    -0.356 N 
ATOM     12  H   LIG d   1       5.310   1.097  -6.553  0.00  0.00     0.166 HD
ATOM     13  C   LIG d   1       4.163  -3.288  -7.035  0.00  0.00     0.002 C 
ATOM     14  C   LIG d   1       4.789  -3.655  -5.682  0.00  0.00     0.107 A 
ATOM     15  H   LIG d   1       4.098  -3.356  -4.894  0.00  0.00     0.060 H 
ATOM     16  N   LIG d   1       6.041  -2.918  -5.518  0.00  0.00    -0.276 N 
ATOM     17  C   LIG d   1       7.234  -3.513  -5.456  0.00  0.00     0.234 A 
ATOM     18  O   LIG d   1       8.216  -2.805  -5.385  0.00  0.00    -0.274 OA
ATOM     19  C   LIG d   1       7.442  -4.993  -5.467  0.00  0.00     0.091 A 
ATOM     20  N   LIG d   1       6.185  -5.721  -5.518  0.00  0.00    -0.291 N 
ATOM     21  C   LIG d   1       4.993  -5.133  -5.610  0.00  0.00     0.237 A 
ATOM     22  O   LIG d   1       4.011  -5.845  -5.637  0.00  0.00    -0.274 OA
ATOM     23  H   LIG d   1       2.187  -2.274  -9.287  0.00  0.00     0.062 H 
ATOM     24  H   LIG d   1       1.267  -0.393 -10.582  0.00  0.00     0.062 H 
ATOM     25  H   LIG d   1       2.001   1.892 -10.200  0.00  0.00     0.062 H 
ATOM     26  H   LIG d   1       3.700   2.440  -8.492  0.00  0.00     0.064 H 
ATOM     27  H   LIG d   1       4.717  -3.775  -7.838  0.00  0.00     0.034 H 
ATOM     28  H   LIG d   1       3.124  -3.615  -7.058  0.00  0.00     0.034 H 
ATOM     29  H   LIG d   1       7.982  -5.281  -4.566  0.00  0.00     0.056 H 
ATOM     30  H   LIG d   1       8.041  -5.260  -6.339  0.00  0.00     0.056 H 
ENDROOT
BRANCH   1  31
ATOM     31  C   LIG d   1       5.438  -1.047  -4.067  0.00  0.00     0.021 A 
ATOM     32  C   LIG d   1       5.692   0.222  -3.568  0.00  0.00     0.126 A 
ATOM     33  C   LIG d   1       5.203   0.586  -2.322  0.00  0.00    -0.020 A 
ATOM     34  C   LIG d   1       4.463  -0.316  -1.582  0.00  0.00    -0.058 A 
ATOM     35  H   LIG d   1       5.399   1.573  -1.932  0.00  0.00     0.065 H 
ATOM     36  C   LIG d   1       4.211  -1.580  -2.081  0.00  0.00    -0.061 A 
ATOM     37  H   LIG d   1       4.081  -0.032  -0.612  0.00  0.00     0.062 H 
ATOM     38  C   LIG d   1       4.693  -1.943  -3.325  0.00  0.00    -0.053 A 
ATOM     39  H   LIG d   1       3.632  -2.284  -1.501  0.00  0.00     0.062 H 
ATOM     40  H   LIG d   1       4.490  -2.930  -3.715  0.00  0.00     0.062 H 
BRANCH  32  41
ATOM     41  O   LIG d   1       6.419   1.107  -4.299  0.00  0.00    -0.492 OA
BRANCH  41  42
ATOM     42  C   LIG d   1       7.705   1.468  -3.788  0.00  0.00     0.087 C 
ATOM     43  H   LIG d   1       7.600   1.833  -2.766  0.00  0.00     0.069 H 
ATOM     44  H   LIG d   1       8.357   0.595  -3.795  0.00  0.00     0.069 H 
BRANCH  42  45
ATOM     45  C   LIG d   1       8.311   2.568  -4.662  0.00  0.00    -0.031 C 
ATOM     46  H   LIG d   1       7.938   3.538  -4.335  0.00  0.00     0.026 H 
ATOM     47  H   LIG d   1       9.397   2.546  -4.572  0.00  0.00     0.026 H 
ATOM     48  H   LIG d   1       8.029   2.402  -5.702  0.00  0.00     0.026 H 
ENDBRANCH  42  45
ENDBRANCH  41  42
ENDBRANCH  32  41
ENDBRANCH   1  31
BRANCH  20  49
ATOM     49  C   LIG d   1       6.231  -7.184  -5.464  0.00  0.00     0.020 C 
ATOM     50  H   LIG d   1       6.661  -7.499  -4.514  0.00  0.00     0.047 H 
ATOM     51  H   LIG d   1       5.223  -7.584  -5.558  0.00  0.00     0.047 H 
BRANCH  49  52
ATOM     52  C   LIG d   1       7.097  -7.708  -6.612  0.00  0.00     0.003 C 
ATOM     53  H   LIG d   1       7.892  -6.992  -6.823  0.00  0.00     0.033 H 
ATOM     54  H   LIG d   1       7.536  -8.664  -6.330  0.00  0.00     0.033 H 
BRANCH  52  55
ATOM     55  C   LIG d   1       6.232  -7.892  -7.860  0.00  0.00    -0.031 C 
ATOM     56  H   LIG d   1       6.202  -8.948  -8.128  0.00  0.00     0.082 H 
ATOM     57  H   LIG d   1       5.221  -7.540  -7.657  0.00  0.00     0.082 H 
BRANCH  55  58
ATOM     58  N   LIG d   1       6.809  -7.094  -8.962  0.00  0.00     0.231 N 
ATOM     59  H   LIG d   1       6.759  -7.639  -9.831  0.00  0.00     0.203 HD
BRANCH  58  60
ATOM     60  C   LIG d   1       6.039  -5.843  -9.136  0.00  0.00    -0.043 C 
ATOM     61  H   LIG d   1       5.459  -5.877 -10.058  0.00  0.00     0.078 H 
ATOM     62  H   LIG d   1       5.368  -5.720  -8.287  0.00  0.00     0.078 H 
ATOM     63  H   LIG d   1       6.733  -5.004  -9.175  0.00  0.00     0.078 H 
ENDBRANCH  58  60
BRANCH  58  64
ATOM     64  C   LIG d   1       8.224  -6.779  -8.672  0.00  0.00    -0.043 C 
ATOM     65  H   LIG d   1       8.784  -6.777  -9.607  0.00  0.00     0.078 H 
ATOM     66  H   LIG d   1       8.281  -5.793  -8.213  0.00  0.00     0.078 H 
ATOM     67  H   LIG d   1       8.649  -7.520  -7.995  0.00  0.00     0.078 H 
ENDBRANCH  58  64
ENDBRANCH  55  58
ENDBRANCH  52  55
ENDBRANCH  49  52
ENDBRANCH  20  49
TORSDOF 10
ENDMDL
MODEL 3
REMARK VINA RESULT:      -7.3      2.252      2.790
REMARK  10 active torsions:
REMARK  status: ('A' for Active; 'I' for Inactive)
REMARK    1  A    between atoms: C_1  and  C_2 
REMARK    2  A    between atoms: C_2  and  O_3 
REMARK    3  A    between atoms: O_3  and  C_4 
REMARK    4  A    between atoms: C_9  and  C_10 
REMARK    5  A    between atoms: N_29  and  C_32 
REMARK    6  A    between atoms: C_32  and  C_33 
REMARK    7  A    between atoms: C_33  and  C_34 
REMARK    8  A    between atoms: C_34  and  N_66 
REMARK    9  A    between atoms: C_35  and  N_66 
REMARK   10  A    between atoms: C_36  and  N_66 
ROOT
ATOM      1  C   LIG d   1       6.194  -0.963  -5.341  0.00  0.00     0.096 C 
ATOM      2  H   LIG d   1       6.994  -0.244  -5.519  0.00  0.00     0.062 H 
ATOM      3  C   LIG d   1       5.156  -0.862  -6.437  0.00  0.00     0.046 A 
ATOM      4  C   LIG d   1       4.670  -1.931  -7.103  0.00  0.00    -0.015 A 
ATOM      5  C   LIG d   1       3.706  -1.430  -8.061  0.00  0.00     0.003 A 
ATOM      6  C   LIG d   1       2.894  -2.063  -9.009  0.00  0.00    -0.052 A 
ATOM      7  C   LIG d   1       2.082  -1.257  -9.767  0.00  0.00    -0.061 A 
ATOM      8  C   LIG d   1       2.059   0.120  -9.611  0.00  0.00    -0.060 A 
ATOM      9  C   LIG d   1       2.849   0.772  -8.679  0.00  0.00    -0.038 A 
ATOM     10  C   LIG d   1       3.684  -0.021  -7.895  0.00  0.00     0.047 A 
ATOM     11  N   LIG d   1       4.573   0.285  -6.905  0.00  0.00    -0.356 N 
ATOM     12  H   LIG d   1       4.762   1.180  -6.582  0.00  0.00     0.166 HD
ATOM     13  C   LIG d   1       5.087  -3.359  -6.858  0.00  0.00     0.002 C 
ATOM     14  C   LIG d   1       5.788  -3.444  -5.494  0.00  0.00     0.107 A 
ATOM     15  H   LIG d   1       5.032  -3.347  -4.715  0.00  0.00     0.060 H 
ATOM     16  N   LIG d   1       6.736  -2.337  -5.373  0.00  0.00    -0.276 N 
ATOM     17  C   LIG d   1       8.057  -2.514  -5.293  0.00  0.00     0.234 A 
ATOM     18  O   LIG d   1       8.759  -1.526  -5.261  0.00  0.00    -0.274 OA
ATOM     19  C   LIG d   1       8.729  -3.848  -5.239  0.00  0.00     0.091 A 
ATOM     20  N   LIG d   1       7.772  -4.942  -5.248  0.00  0.00    -0.291 N 
ATOM     21  C   LIG d   1       6.456  -4.774  -5.357  0.00  0.00     0.237 A 
ATOM     22  O   LIG d   1       5.755  -5.763  -5.345  0.00  0.00    -0.274 OA
ATOM     23  H   LIG d   1       2.907  -3.135  -9.138  0.00  0.00     0.062 H 
ATOM     24  H   LIG d   1       1.441  -1.709 -10.509  0.00  0.00     0.062 H 
ATOM     25  H   LIG d   1       1.400   0.705 -10.236  0.00  0.00     0.062 H 
ATOM     26  H   LIG d   1       2.821   1.845  -8.568  0.00  0.00     0.064 H 
ATOM     27  H   LIG d   1       5.775  -3.678  -7.642  0.00  0.00     0.034 H 
ATOM     28  H   LIG d   1       4.209  -4.003  -6.857  0.00  0.00     0.034 H 
ATOM     29  H   LIG d   1       9.327  -3.907  -4.330  0.00  0.00     0.056 H 
ATOM     30  H   LIG d   1       9.388  -3.948  -6.102  0.00  0.00     0.056 H 
ENDROOT
BRANCH   1  31
ATOM     31  C   LIG d   1       5.553  -0.695  -4.003  0.00  0.00     0.021 A 
ATOM     32  C   LIG d   1       5.678   0.553  -3.412  0.00  0.00     0.126 A 
ATOM     33  C   LIG d   1       5.088   0.796  -2.180  0.00  0.00    -0.020 A 
ATOM     34  C   LIG d   1       4.377  -0.205  -1.546  0.00  0.00    -0.058 A 
ATOM     35  H   LIG d   1       5.183   1.767  -1.717  0.00  0.00     0.065 H 
ATOM     36  C   LIG d   1       4.255  -1.448  -2.138  0.00  0.00    -0.061 A 
ATOM     37  H   LIG d   1       3.917  -0.015  -0.587  0.00  0.00     0.062 H 
ATOM     38  C   LIG d   1       4.838  -1.692  -3.367  0.00  0.00    -0.053 A 
ATOM     39  H   LIG d   1       3.699  -2.230  -1.641  0.00  0.00     0.062 H 
ATOM     40  H   LIG d   1       4.736  -2.663  -3.829  0.00  0.00     0.062 H 
BRANCH  32  41
ATOM     41  O   LIG d   1       6.377   1.536  -4.038  0.00  0.00    -0.492 OA
BRANCH  41  42
ATOM     42  C   LIG d   1       7.769   1.637  -3.730  0.00  0.00     0.087 C 
ATOM     43  H   LIG d   1       7.909   2.334  -2.903  0.00  0.00     0.069 H 
ATOM     44  H   LIG d   1       8.152   0.657  -3.447  0.00  0.00     0.069 H 
BRANCH  42  45
ATOM     45  C   LIG d   1       8.527   2.146  -4.958  0.00  0.00    -0.031 C 
ATOM     46  H   LIG d   1       9.291   1.421  -5.239  0.00  0.00     0.026 H 
ATOM     47  H   LIG d   1       7.831   2.278  -5.785  0.00  0.00     0.026 H 
ATOM     48  H   LIG d   1       9.000   3.099  -4.723  0.00  0.00     0.026 H 
ENDBRANCH  42  45
ENDBRANCH  41  42
ENDBRANCH  32  41
ENDBRANCH   1  31
BRANCH  20  49
ATOM     49  C   LIG d   1       8.286  -6.309  -5.129  0.00  0.00     0.020 C 
ATOM     50  H   LIG d   1       7.496  -6.963  -4.758  0.00  0.00     0.047 H 
ATOM     51  H   LIG d   1       8.619  -6.659  -6.105  0.00  0.00     0.047 H 
BRANCH  49  52
ATOM     52  C   LIG d   1       9.463  -6.328  -4.151  0.00  0.00     0.003 C 
ATOM     53  H   LIG d   1      10.381  -6.556  -4.692  0.00  0.00     0.033 H 
ATOM     54  H   LIG d   1       9.555  -5.353  -3.674  0.00  0.00     0.033 H 
BRANCH  52  55
ATOM     55  C   LIG d   1       9.221  -7.397  -3.083  0.00  0.00    -0.031 C 
ATOM     56  H   LIG d   1       8.191  -7.746  -3.146  0.00  0.00     0.082 H 
ATOM     57  H   LIG d   1       9.900  -8.234  -3.248  0.00  0.00     0.082 H 
BRANCH  55  58
ATOM     58  N   LIG d   1       9.490  -6.812  -1.753  0.00  0.00     0.231 N 
ATOM     59  H   LIG d   1       8.665  -6.944  -1.157  0.00  0.00     0.203 HD
BRANCH  58  60
ATOM     60  C   LIG d   1      10.646  -7.489  -1.128  0.00  0.00    -0.043 C 
ATOM     61  H   LIG d   1      11.003  -6.922  -0.268  0.00  0.00     0.078 H 
ATOM     62  H   LIG d   1      10.342  -8.485  -0.806  0.00  0.00     0.078 H 
ATOM     63  H   LIG d   1      11.446  -7.574  -1.864  0.00  0.00     0.078 H 
ENDBRANCH  58  60
BRANCH  58  64
ATOM     64  C   LIG d   1       9.763  -5.365  -1.882  0.00  0.00    -0.043 C 
ATOM     65  H   LIG d   1       9.643  -5.075  -2.926  0.00  0.00     0.078 H 
ATOM     66  H   LIG d   1       9.051  -4.814  -1.268  0.00  0.00     0.078 H 
ATOM     67  H   LIG d   1      10.778  -5.136  -1.556  0.00  0.00     0.078 H 
ENDBRANCH  58  64
ENDBRANCH  55  58
ENDBRANCH  52  55
ENDBRANCH  49  52
ENDBRANCH  20  49
TORSDOF 10
ENDMDL
MODEL 4
REMARK VINA RESULT:      -6.8      2.086      4.817
REMARK  10 active torsions:
REMARK  status: ('A' for Active; 'I' for Inactive)
REMARK    1  A    between atoms: C_1  and  C_2 
REMARK    2  A    between atoms: C_2  and  O_3 
REMARK    3  A    between atoms: O_3  and  C_4 
REMARK    4  A    between atoms: C_9  and  C_10 
REMARK    5  A    between atoms: N_29  and  C_32 
REMARK    6  A    between atoms: C_32  and  C_33 
REMARK    7  A    between atoms: C_33  and  C_34 
REMARK    8  A    between atoms: C_34  and  N_66 
REMARK    9  A    between atoms: C_35  and  N_66 
REMARK   10  A    between atoms: C_36  and  N_66 
ROOT
ATOM      1  C   LIG d   1       4.405  -1.779  -7.385  0.00  0.00     0.096 C 
ATOM      2  H   LIG d   1       3.449  -1.642  -7.891  0.00  0.00     0.062 H 
ATOM      3  C   LIG d   1       4.333  -1.216  -5.984  0.00  0.00     0.046 A 
ATOM      4  C   LIG d   1       4.743  -1.890  -4.888  0.00  0.00    -0.015 A 
ATOM      5  C   LIG d   1       4.517  -1.024  -3.749  0.00  0.00     0.003 A 
ATOM      6  C   LIG d   1       4.749  -1.181  -2.379  0.00  0.00    -0.052 A 
ATOM      7  C   LIG d   1       4.403  -0.128  -1.567  0.00  0.00    -0.061 A 
ATOM      8  C   LIG d   1       3.850   1.039  -2.070  0.00  0.00    -0.060 A 
ATOM      9  C   LIG d   1       3.613   1.221  -3.422  0.00  0.00    -0.038 A 
ATOM     10  C   LIG d   1       3.954   0.170  -4.270  0.00  0.00     0.047 A 
ATOM     11  N   LIG d   1       3.858   0.017  -5.623  0.00  0.00    -0.356 N 
ATOM     12  H   LIG d   1       3.507   0.681  -6.236  0.00  0.00     0.166 HD
ATOM     13  C   LIG d   1       5.320  -3.283  -4.903  0.00  0.00     0.002 C 
ATOM     14  C   LIG d   1       5.759  -3.623  -6.334  0.00  0.00     0.107 A 
ATOM     15  H   LIG d   1       6.663  -3.058  -6.557  0.00  0.00     0.060 H 
ATOM     16  N   LIG d   1       4.708  -3.221  -7.266  0.00  0.00    -0.276 N 
ATOM     17  C   LIG d   1       4.016  -4.091  -8.005  0.00  0.00     0.234 A 
ATOM     18  O   LIG d   1       3.119  -3.658  -8.698  0.00  0.00    -0.274 OA
ATOM     19  C   LIG d   1       4.270  -5.563  -8.035  0.00  0.00     0.091 A 
ATOM     20  N   LIG d   1       5.391  -5.941  -7.190  0.00  0.00    -0.291 N 
ATOM     21  C   LIG d   1       6.066  -5.083  -6.429  0.00  0.00     0.237 A 
ATOM     22  O   LIG d   1       6.989  -5.513  -5.770  0.00  0.00    -0.274 OA
ATOM     23  H   LIG d   1       5.178  -2.087  -1.978  0.00  0.00     0.062 H 
ATOM     24  H   LIG d   1       4.567  -0.213  -0.503  0.00  0.00     0.062 H 
ATOM     25  H   LIG d   1       3.598   1.834  -1.384  0.00  0.00     0.062 H 
ATOM     26  H   LIG d   1       3.183   2.136  -3.801  0.00  0.00     0.064 H 
ATOM     27  H   LIG d   1       4.562  -3.994  -4.574  0.00  0.00     0.034 H 
ATOM     28  H   LIG d   1       6.180  -3.330  -4.236  0.00  0.00     0.034 H 
ATOM     29  H   LIG d   1       4.482  -5.864  -9.061  0.00  0.00     0.056 H 
ATOM     30  H   LIG d   1       3.376  -6.085  -7.692  0.00  0.00     0.056 H 
ENDROOT
BRANCH   1  31
ATOM     31  C   LIG d   1       5.497  -1.088  -8.160  0.00  0.00     0.021 A 
ATOM     32  C   LIG d   1       5.178  -0.287  -9.246  0.00  0.00     0.126 A 
ATOM     33  C   LIG d   1       6.186   0.348  -9.958  0.00  0.00    -0.020 A 
ATOM     34  C   LIG d   1       7.505   0.181  -9.582  0.00  0.00    -0.058 A 
ATOM     35  H   LIG d   1       5.940   0.972 -10.803  0.00  0.00     0.065 H 
ATOM     36  C   LIG d   1       7.821  -0.618  -8.499  0.00  0.00    -0.061 A 
ATOM     37  H   LIG d   1       8.290   0.676 -10.135  0.00  0.00     0.062 H 
ATOM     38  C   LIG d   1       6.818  -1.248  -7.786  0.00  0.00    -0.053 A 
ATOM     39  H   LIG d   1       8.852  -0.747  -8.206  0.00  0.00     0.062 H 
ATOM     40  H   LIG d   1       7.067  -1.867  -6.937  0.00  0.00     0.062 H 
BRANCH  32  41
ATOM     41  O   LIG d   1       3.880  -0.125  -9.613  0.00  0.00    -0.492 OA
BRANCH  41  42
ATOM     42  C   LIG d   1       3.468   1.196  -9.974  0.00  0.00     0.087 C 
ATOM     43  H   LIG d   1       4.318   1.742 -10.385  0.00  0.00     0.069 H 
ATOM     44  H   LIG d   1       2.678   1.139 -10.722  0.00  0.00     0.069 H 
BRANCH  42  45
ATOM     45  C   LIG d   1       2.947   1.925  -8.733  0.00  0.00    -0.031 C 
ATOM     46  H   LIG d   1       2.400   2.817  -9.040  0.00  0.00     0.026 H 
ATOM     47  H   LIG d   1       2.282   1.265  -8.177  0.00  0.00     0.026 H 
ATOM     48  H   LIG d   1       3.787   2.213  -8.102  0.00  0.00     0.026 H 
ENDBRANCH  42  45
ENDBRANCH  41  42
ENDBRANCH  32  41
ENDBRANCH   1  31
BRANCH  20  49
ATOM     49  C   LIG d   1       5.800  -7.348  -7.175  0.00  0.00     0.020 C 
ATOM     50  H   LIG d   1       5.946  -7.695  -8.198  0.00  0.00     0.047 H 
ATOM     51  H   LIG d   1       6.733  -7.449  -6.621  0.00  0.00     0.047 H 
BRANCH  49  52
ATOM     52  C   LIG d   1       4.712  -8.189  -6.503  0.00  0.00     0.003 C 
ATOM     53  H   LIG d   1       3.804  -7.594  -6.405  0.00  0.00     0.033 H 
ATOM     54  H   LIG d   1       4.506  -9.069  -7.111  0.00  0.00     0.033 H 
BRANCH  52  55
ATOM     55  C   LIG d   1       5.189  -8.625  -5.117  0.00  0.00    -0.031 C 
ATOM     56  H   LIG d   1       6.228  -8.949  -5.176  0.00  0.00     0.082 H 
ATOM     57  H   LIG d   1       5.109  -7.786  -4.425  0.00  0.00     0.082 H 
BRANCH  55  58
ATOM     58  N   LIG d   1       4.327  -9.727  -4.641  0.00  0.00     0.231 N 
ATOM     59  H   LIG d   1       3.353  -9.401  -4.614  0.00  0.00     0.203 HD
BRANCH  58  60
ATOM     60  C   LIG d   1       4.422 -10.877  -5.564  0.00  0.00    -0.043 C 
ATOM     61  H   LIG d   1       5.221 -10.720  -6.289  0.00  0.00     0.078 H 
ATOM     62  H   LIG d   1       4.626 -11.778  -4.987  0.00  0.00     0.078 H 
ATOM     63  H   LIG d   1       3.473 -10.989  -6.088  0.00  0.00     0.078 H 
ENDBRANCH  58  60
BRANCH  58  64
ATOM     64  C   LIG d   1       4.734 -10.136  -3.280  0.00  0.00    -0.043 C 
ATOM     65  H   LIG d   1       4.023 -10.870  -2.904  0.00  0.00     0.078 H 
ATOM     66  H   LIG d   1       5.727 -10.582  -3.327  0.00  0.00     0.078 H 
ATOM     67  H   LIG d   1       4.754  -9.274  -2.612  0.00  0.00     0.078 H 
ENDBRANCH  58  64
ENDBRANCH  55  58
ENDBRANCH  52  55
ENDBRANCH  49  52
ENDBRANCH  20  49
TORSDOF 10
ENDMDL
MODEL 5
REMARK VINA RESULT:      -6.7      3.494      5.085
REMARK  10 active torsions:
REMARK  status: ('A' for Active; 'I' for Inactive)
REMARK    1  A    between atoms: C_1  and  C_2 
REMARK    2  A    between atoms: C_2  and  O_3 
REMARK    3  A    between atoms: O_3  and  C_4 
REMARK    4  A    between atoms: C_9  and  C_10 
REMARK    5  A    between atoms: N_29  and  C_32 
REMARK    6  A    between atoms: C_32  and  C_33 
REMARK    7  A    between atoms: C_33  and  C_34 
REMARK    8  A    between atoms: C_34  and  N_66 
REMARK    9  A    between atoms: C_35  and  N_66 
REMARK   10  A    between atoms: C_36  and  N_66 
ROOT
ATOM      1  C   LIG d   1       5.185  -1.573  -6.407  0.00  0.00     0.096 C 
ATOM      2  H   LIG d   1       5.787  -2.447  -6.156  0.00  0.00     0.062 H 
ATOM      3  C   LIG d   1       6.082  -0.434  -6.837  0.00  0.00     0.046 A 
ATOM      4  C   LIG d   1       5.878   0.293  -7.955  0.00  0.00    -0.015 A 
ATOM      5  C   LIG d   1       6.936   1.280  -8.018  0.00  0.00     0.003 A 
ATOM      6  C   LIG d   1       7.234   2.294  -8.936  0.00  0.00    -0.052 A 
ATOM      7  C   LIG d   1       8.344   3.059  -8.675  0.00  0.00    -0.061 A 
ATOM      8  C   LIG d   1       9.139   2.847  -7.560  0.00  0.00    -0.060 A 
ATOM      9  C   LIG d   1       8.866   1.853  -6.636  0.00  0.00    -0.038 A 
ATOM     10  C   LIG d   1       7.746   1.060  -6.874  0.00  0.00     0.047 A 
ATOM     11  N   LIG d   1       7.199   0.017  -6.184  0.00  0.00    -0.356 N 
ATOM     12  H   LIG d   1       7.548  -0.350  -5.357  0.00  0.00     0.166 HD
ATOM     13  C   LIG d   1       4.744   0.077  -8.926  0.00  0.00     0.002 C 
ATOM     14  C   LIG d   1       3.660  -0.769  -8.242  0.00  0.00     0.107 A 
ATOM     15  H   LIG d   1       3.148  -0.141  -7.512  0.00  0.00     0.060 H 
ATOM     16  N   LIG d   1       4.293  -1.885  -7.543  0.00  0.00    -0.276 N 
ATOM     17  C   LIG d   1       4.104  -3.161  -7.885  0.00  0.00     0.234 A 
ATOM     18  O   LIG d   1       4.728  -4.008  -7.282  0.00  0.00    -0.274 OA
ATOM     19  C   LIG d   1       3.174  -3.618  -8.962  0.00  0.00     0.091 A 
ATOM     20  N   LIG d   1       2.464  -2.508  -9.578  0.00  0.00    -0.291 N 
ATOM     21  C   LIG d   1       2.670  -1.231  -9.261  0.00  0.00     0.237 A 
ATOM     22  O   LIG d   1       2.012  -0.391  -9.837  0.00  0.00    -0.274 OA
ATOM     23  H   LIG d   1       6.620   2.466  -9.807  0.00  0.00     0.062 H 
ATOM     24  H   LIG d   1       8.605   3.851  -9.360  0.00  0.00     0.062 H 
ATOM     25  H   LIG d   1      10.001   3.480  -7.406  0.00  0.00     0.062 H 
ATOM     26  H   LIG d   1       9.494   1.699  -5.771  0.00  0.00     0.064 H 
ATOM     27  H   LIG d   1       5.114  -0.447  -9.807  0.00  0.00     0.034 H 
ATOM     28  H   LIG d   1       4.325   1.039  -9.221  0.00  0.00     0.034 H 
ATOM     29  H   LIG d   1       2.448  -4.309  -8.534  0.00  0.00     0.056 H 
ATOM     30  H   LIG d   1       3.748  -4.139  -9.729  0.00  0.00     0.056 H 
ENDROOT
BRANCH   1  31
ATOM     31  C   LIG d   1       4.366  -1.157  -5.212  0.00  0.00     0.021 A 
ATOM     32  C   LIG d   1       4.612  -1.725  -3.970  0.00  0.00     0.126 A 
ATOM     33  C   LIG d   1       3.856  -1.340  -2.872  0.00  0.00    -0.020 A 
ATOM     34  C   LIG d   1       2.862  -0.391  -3.017  0.00  0.00    -0.058 A 
ATOM     35  H   LIG d   1       4.045  -1.780  -1.905  0.00  0.00     0.065 H 
ATOM     36  C   LIG d   1       2.620   0.174  -4.256  0.00  0.00    -0.061 A 
ATOM     37  H   LIG d   1       2.275  -0.091  -2.162  0.00  0.00     0.062 H 
ATOM     38  C   LIG d   1       3.374  -0.205  -5.351  0.00  0.00    -0.053 A 
ATOM     39  H   LIG d   1       1.843   0.916  -4.368  0.00  0.00     0.062 H 
ATOM     40  H   LIG d   1       3.186   0.242  -6.316  0.00  0.00     0.062 H 
BRANCH  32  41
ATOM     41  O   LIG d   1       5.590  -2.657  -3.831  0.00  0.00    -0.492 OA
BRANCH  41  42
ATOM     42  C   LIG d   1       6.847  -2.206  -3.320  0.00  0.00     0.087 C 
ATOM     43  H   LIG d   1       6.932  -1.129  -3.462  0.00  0.00     0.069 H 
ATOM     44  H   LIG d   1       6.912  -2.438  -2.257  0.00  0.00     0.069 H 
BRANCH  42  45
ATOM     45  C   LIG d   1       7.982  -2.909  -4.067  0.00  0.00    -0.031 C 
ATOM     46  H   LIG d   1       7.956  -2.625  -5.118  0.00  0.00     0.026 H 
ATOM     47  H   LIG d   1       8.938  -2.615  -3.635  0.00  0.00     0.026 H 
ATOM     48  H   LIG d   1       7.860  -3.989  -3.980  0.00  0.00     0.026 H 
ENDBRANCH  42  45
ENDBRANCH  41  42
ENDBRANCH  32  41
ENDBRANCH   1  31
BRANCH  20  49
ATOM     49  C   LIG d   1       1.464  -2.813 -10.604  0.00  0.00     0.020 C 
ATOM     50  H   LIG d   1       0.546  -2.266 -10.391  0.00  0.00     0.047 H 
ATOM     51  H   LIG d   1       1.844  -2.516 -11.581  0.00  0.00     0.047 H 
BRANCH  49  52
ATOM     52  C   LIG d   1       1.175  -4.315 -10.604  0.00  0.00     0.003 C 
ATOM     53  H   LIG d   1       1.603  -4.767 -11.498  0.00  0.00     0.033 H 
ATOM     54  H   LIG d   1       1.617  -4.771  -9.719  0.00  0.00     0.033 H 
BRANCH  52  55
ATOM     55  C   LIG d   1      -0.338  -4.543 -10.593  0.00  0.00    -0.031 C 
ATOM     56  H   LIG d   1      -0.839  -3.633 -10.263  0.00  0.00     0.082 H 
ATOM     57  H   LIG d   1      -0.674  -4.799 -11.597  0.00  0.00     0.082 H 
BRANCH  55  58
ATOM     58  N   LIG d   1      -0.645  -5.664  -9.680  0.00  0.00     0.231 N 
ATOM     59  H   LIG d   1      -0.225  -5.472  -8.763  0.00  0.00     0.203 HD
BRANCH  58  60
ATOM     60  C   LIG d   1      -2.109  -5.798  -9.519  0.00  0.00    -0.043 C 
ATOM     61  H   LIG d   1      -2.629  -5.346 -10.364  0.00  0.00     0.078 H 
ATOM     62  H   LIG d   1      -2.363  -6.856  -9.459  0.00  0.00     0.078 H 
ATOM     63  H   LIG d   1      -2.410  -5.299  -8.598  0.00  0.00     0.078 H 
ENDBRANCH  58  60
BRANCH  58  64
ATOM     64  C   LIG d   1      -0.078  -6.921 -10.214  0.00  0.00    -0.043 C 
ATOM     65  H   LIG d   1       0.300  -6.738 -11.220  0.00  0.00     0.078 H 
ATOM     66  H   LIG d   1       0.740  -7.242  -9.571  0.00  0.00     0.078 H 
ATOM     67  H   LIG d   1      -0.841  -7.699 -10.249  0.00  0.00     0.078 H 
ENDBRANCH  58  64
ENDBRANCH  55  58
ENDBRANCH  52  55
ENDBRANCH  49  52
ENDBRANCH  20  49
TORSDOF 10
ENDMDL
MODEL 6
REMARK VINA RESULT:      -6.6      3.000      4.368
REMARK  10 active torsions:
REMARK  status: ('A' for Active; 'I' for Inactive)
REMARK    1  A    between atoms: C_1  and  C_2 
REMARK    2  A    between atoms: C_2  and  O_3 
REMARK    3  A    between atoms: O_3  and  C_4 
REMARK    4  A    between atoms: C_9  and  C_10 
REMARK    5  A    between atoms: N_29  and  C_32 
REMARK    6  A    between atoms: C_32  and  C_33 
REMARK    7  A    between atoms: C_33  and  C_34 
REMARK    8  A    between atoms: C_34  and  N_66 
REMARK    9  A    between atoms: C_35  and  N_66 
REMARK   10  A    between atoms: C_36  and  N_66 
ROOT
ATOM      1  C   LIG d   1       7.489  -2.566  -5.603  0.00  0.00     0.096 C 
ATOM      2  H   LIG d   1       7.912  -2.001  -6.434  0.00  0.00     0.062 H 
ATOM      3  C   LIG d   1       6.615  -1.666  -4.760  0.00  0.00     0.046 A 
ATOM      4  C   LIG d   1       5.365  -1.995  -4.369  0.00  0.00    -0.015 A 
ATOM      5  C   LIG d   1       4.861  -0.888  -3.583  0.00  0.00     0.003 A 
ATOM      6  C   LIG d   1       3.647  -0.668  -2.925  0.00  0.00    -0.052 A 
ATOM      7  C   LIG d   1       3.509   0.527  -2.262  0.00  0.00    -0.061 A 
ATOM      8  C   LIG d   1       4.518   1.477  -2.238  0.00  0.00    -0.060 A 
ATOM      9  C   LIG d   1       5.730   1.284  -2.878  0.00  0.00    -0.038 A 
ATOM     10  C   LIG d   1       5.898   0.081  -3.560  0.00  0.00     0.047 A 
ATOM     11  N   LIG d   1       6.942  -0.424  -4.281  0.00  0.00    -0.356 N 
ATOM     12  H   LIG d   1       7.787   0.027  -4.432  0.00  0.00     0.166 HD
ATOM     13  C   LIG d   1       4.670  -3.287  -4.715  0.00  0.00     0.002 C 
ATOM     14  C   LIG d   1       5.719  -4.306  -5.184  0.00  0.00     0.107 A 
ATOM     15  H   LIG d   1       6.283  -4.639  -4.313  0.00  0.00     0.060 H 
ATOM     16  N   LIG d   1       6.634  -3.655  -6.119  0.00  0.00    -0.276 N 
ATOM     17  C   LIG d   1       6.728  -3.998  -7.405  0.00  0.00     0.234 A 
ATOM     18  O   LIG d   1       7.472  -3.350  -8.111  0.00  0.00    -0.274 OA
ATOM     19  C   LIG d   1       5.978  -5.126  -8.035  0.00  0.00     0.091 A 
ATOM     20  N   LIG d   1       5.154  -5.839  -7.073  0.00  0.00    -0.291 N 
ATOM     21  C   LIG d   1       5.034  -5.484  -5.796  0.00  0.00     0.237 A 
ATOM     22  O   LIG d   1       4.322  -6.161  -5.084  0.00  0.00    -0.274 OA
ATOM     23  H   LIG d   1       2.855  -1.402  -2.939  0.00  0.00     0.062 H 
ATOM     24  H   LIG d   1       2.585   0.732  -1.742  0.00  0.00     0.062 H 
ATOM     25  H   LIG d   1       4.353   2.399  -1.700  0.00  0.00     0.062 H 
ATOM     26  H   LIG d   1       6.508   2.032  -2.851  0.00  0.00     0.064 H 
ATOM     27  H   LIG d   1       3.950  -3.111  -5.515  0.00  0.00     0.034 H 
ATOM     28  H   LIG d   1       4.153  -3.672  -3.836  0.00  0.00     0.034 H 
ATOM     29  H   LIG d   1       6.690  -5.822  -8.476  0.00  0.00     0.056 H 
ATOM     30  H   LIG d   1       5.338  -4.729  -8.825  0.00  0.00     0.056 H 
ENDROOT
BRANCH   1  31
ATOM     31  C   LIG d   1       8.598  -3.140  -4.759  0.00  0.00     0.021 A 
ATOM     32  C   LIG d   1       9.876  -3.270  -5.285  0.00  0.00     0.126 A 
ATOM     33  C   LIG d   1      10.894  -3.799  -4.506  0.00  0.00    -0.020 A 
ATOM     34  C   LIG d   1      10.634  -4.194  -3.207  0.00  0.00    -0.058 A 
ATOM     35  H   LIG d   1      11.888  -3.901  -4.913  0.00  0.00     0.065 H 
ATOM     36  C   LIG d   1       9.360  -4.064  -2.686  0.00  0.00    -0.061 A 
ATOM     37  H   LIG d   1      11.427  -4.606  -2.600  0.00  0.00     0.062 H 
ATOM     38  C   LIG d   1       8.345  -3.532  -3.459  0.00  0.00    -0.053 A 
ATOM     39  H   LIG d   1       9.159  -4.373  -1.671  0.00  0.00     0.062 H 
ATOM     40  H   LIG d   1       7.352  -3.427  -3.047  0.00  0.00     0.062 H 
BRANCH  32  41
ATOM     41  O   LIG d   1      10.127  -2.879  -6.562  0.00  0.00    -0.492 OA
BRANCH  41  42
ATOM     42  C   LIG d   1      11.138  -1.885  -6.748  0.00  0.00     0.087 C 
ATOM     43  H   LIG d   1      11.971  -2.082  -6.073  0.00  0.00     0.069 H 
ATOM     44  H   LIG d   1      11.491  -1.914  -7.778  0.00  0.00     0.069 H 
BRANCH  42  45
ATOM     45  C   LIG d   1      10.554  -0.503  -6.447  0.00  0.00    -0.031 C 
ATOM     46  H   LIG d   1      10.775  -0.233  -5.415  0.00  0.00     0.026 H 
ATOM     47  H   LIG d   1      10.997   0.232  -7.118  0.00  0.00     0.026 H 
ATOM     48  H   LIG d   1       9.474  -0.525  -6.593  0.00  0.00     0.026 H 
ENDBRANCH  42  45
ENDBRANCH  41  42
ENDBRANCH  32  41
ENDBRANCH   1  31
BRANCH  20  49
ATOM     49  C   LIG d   1       4.413  -7.016  -7.536  0.00  0.00     0.020 C 
ATOM     50  H   LIG d   1       3.571  -7.200  -6.870  0.00  0.00     0.047 H 
ATOM     51  H   LIG d   1       4.046  -6.840  -8.546  0.00  0.00     0.047 H 
BRANCH  49  52
ATOM     52  C   LIG d   1       5.340  -8.234  -7.534  0.00  0.00     0.003 C 
ATOM     53  H   LIG d   1       5.473  -8.590  -8.555  0.00  0.00     0.033 H 
ATOM     54  H   LIG d   1       6.307  -7.954  -7.118  0.00  0.00     0.033 H 
BRANCH  52  55
ATOM     55  C   LIG d   1       4.720  -9.344  -6.683  0.00  0.00    -0.031 C 
ATOM     56  H   LIG d   1       3.651  -9.401  -6.884  0.00  0.00     0.082 H 
ATOM     57  H   LIG d   1       5.188 -10.297  -6.932  0.00  0.00     0.082 H 
BRANCH  55  58
ATOM     58  N   LIG d   1       4.965  -9.044  -5.257  0.00  0.00     0.231 N 
ATOM     59  H   LIG d   1       4.560  -8.127  -5.034  0.00  0.00     0.203 HD
BRANCH  58  60
ATOM     60  C   LIG d   1       4.322 -10.071  -4.408  0.00  0.00    -0.043 C 
ATOM     61  H   LIG d   1       3.557 -10.606  -4.970  0.00  0.00     0.078 H 
ATOM     62  H   LIG d   1       5.082 -10.773  -4.066  0.00  0.00     0.078 H 
ATOM     63  H   LIG d   1       3.866  -9.582  -3.547  0.00  0.00     0.078 H 
ENDBRANCH  58  60
BRANCH  58  64
ATOM     64  C   LIG d   1       6.418  -9.006  -4.990  0.00  0.00    -0.043 C 
ATOM     65  H   LIG d   1       6.578  -8.867  -3.921  0.00  0.00     0.078 H 
ATOM     66  H   LIG d   1       6.861  -9.951  -5.303  0.00  0.00     0.078 H 
ATOM     67  H   LIG d   1       6.886  -8.187  -5.537  0.00  0.00     0.078 H 
ENDBRANCH  58  64
ENDBRANCH  55  58
ENDBRANCH  52  55
ENDBRANCH  49  52
ENDBRANCH  20  49
TORSDOF 10
ENDMDL
MODEL 7
REMARK VINA RESULT:      -6.6      2.506      5.303
REMARK  10 active torsions:
REMARK  status: ('A' for Active; 'I' for Inactive)
REMARK    1  A    between atoms: C_1  and  C_2 
REMARK    2  A    between atoms: C_2  and  O_3 
REMARK    3  A    between atoms: O_3  and  C_4 
REMARK    4  A    between atoms: C_9  and  C_10 
REMARK    5  A    between atoms: N_29  and  C_32 
REMARK    6  A    between atoms: C_32  and  C_33 
REMARK    7  A    between atoms: C_33  and  C_34 
REMARK    8  A    between atoms: C_34  and  N_66 
REMARK    9  A    between atoms: C_35  and  N_66 
REMARK   10  A    between atoms: C_36  and  N_66 
ROOT
ATOM      1  C   LIG d   1       4.935  -3.124  -6.447  0.00  0.00     0.096 C 
ATOM      2  H   LIG d   1       3.996  -3.618  -6.695  0.00  0.00     0.062 H 
ATOM      3  C   LIG d   1       4.703  -2.084  -5.374  0.00  0.00     0.046 A 
ATOM      4  C   LIG d   1       5.460  -1.980  -4.261  0.00  0.00    -0.015 A 
ATOM      5  C   LIG d   1       4.932  -0.874  -3.490  0.00  0.00     0.003 A 
ATOM      6  C   LIG d   1       5.306  -0.306  -2.268  0.00  0.00    -0.052 A 
ATOM      7  C   LIG d   1       4.560   0.758  -1.825  0.00  0.00    -0.061 A 
ATOM      8  C   LIG d   1       3.485   1.255  -2.546  0.00  0.00    -0.060 A 
ATOM      9  C   LIG d   1       3.095   0.713  -3.758  0.00  0.00    -0.038 A 
ATOM     10  C   LIG d   1       3.833  -0.368  -4.233  0.00  0.00     0.047 A 
ATOM     11  N   LIG d   1       3.726  -1.124  -5.365  0.00  0.00    -0.356 N 
ATOM     12  H   LIG d   1       3.059  -1.000  -6.058  0.00  0.00     0.166 HD
ATOM     13  C   LIG d   1       6.628  -2.876  -3.930  0.00  0.00     0.002 C 
ATOM     14  C   LIG d   1       7.073  -3.603  -5.207  0.00  0.00     0.107 A 
ATOM     15  H   LIG d   1       7.582  -2.884  -5.849  0.00  0.00     0.060 H 
ATOM     16  N   LIG d   1       5.894  -4.110  -5.906  0.00  0.00    -0.276 N 
ATOM     17  C   LIG d   1       5.648  -5.411  -6.073  0.00  0.00     0.234 A 
ATOM     18  O   LIG d   1       4.608  -5.726  -6.611  0.00  0.00    -0.274 OA
ATOM     19  C   LIG d   1       6.569  -6.506  -5.643  0.00  0.00     0.091 A 
ATOM     20  N   LIG d   1       7.791  -5.991  -5.048  0.00  0.00    -0.291 N 
ATOM     21  C   LIG d   1       8.029  -4.695  -4.852  0.00  0.00     0.237 A 
ATOM     22  O   LIG d   1       9.090  -4.383  -4.354  0.00  0.00    -0.274 OA
ATOM     23  H   LIG d   1       6.141  -0.687  -1.700  0.00  0.00     0.062 H 
ATOM     24  H   LIG d   1       4.819   1.224  -0.886  0.00  0.00     0.062 H 
ATOM     25  H   LIG d   1       2.934   2.095  -2.148  0.00  0.00     0.062 H 
ATOM     26  H   LIG d   1       2.256   1.110  -4.310  0.00  0.00     0.064 H 
ATOM     27  H   LIG d   1       6.325  -3.607  -3.180  0.00  0.00     0.034 H 
ATOM     28  H   LIG d   1       7.451  -2.276  -3.544  0.00  0.00     0.034 H 
ATOM     29  H   LIG d   1       6.826  -7.114  -6.510  0.00  0.00     0.056 H 
ATOM     30  H   LIG d   1       6.057  -7.133  -4.911  0.00  0.00     0.056 H 
ENDROOT
BRANCH   1  31
ATOM     31  C   LIG d   1       5.510  -2.471  -7.678  0.00  0.00     0.021 A 
ATOM     32  C   LIG d   1       4.667  -1.877  -8.607  0.00  0.00     0.126 A 
ATOM     33  C   LIG d   1       5.200  -1.278  -9.739  0.00  0.00    -0.020 A 
ATOM     34  C   LIG d   1       6.567  -1.272  -9.938  0.00  0.00    -0.058 A 
ATOM     35  H   LIG d   1       4.546  -0.815 -10.463  0.00  0.00     0.065 H 
ATOM     36  C   LIG d   1       7.404  -1.864  -9.010  0.00  0.00    -0.061 A 
ATOM     37  H   LIG d   1       6.981  -0.804 -10.819  0.00  0.00     0.062 H 
ATOM     38  C   LIG d   1       6.877  -2.458  -7.879  0.00  0.00    -0.053 A 
ATOM     39  H   LIG d   1       8.473  -1.858  -9.167  0.00  0.00     0.062 H 
ATOM     40  H   LIG d   1       7.533  -2.916  -7.154  0.00  0.00     0.062 H 
BRANCH  32  41
ATOM     41  O   LIG d   1       3.323  -1.885  -8.407  0.00  0.00    -0.492 OA
BRANCH  41  42
ATOM     42  C   LIG d   1       2.610  -0.697  -8.759  0.00  0.00     0.087 C 
ATOM     43  H   LIG d   1       2.202  -0.237  -7.859  0.00  0.00     0.069 H 
ATOM     44  H   LIG d   1       3.286   0.002  -9.250  0.00  0.00     0.069 H 
BRANCH  42  45
ATOM     45  C   LIG d   1       1.466  -1.053  -9.712  0.00  0.00    -0.031 C 
ATOM     46  H   LIG d   1       0.762  -1.712  -9.202  0.00  0.00     0.026 H 
ATOM     47  H   LIG d   1       0.953  -0.143 -10.020  0.00  0.00     0.026 H 
ATOM     48  H   LIG d   1       1.868  -1.560 -10.588  0.00  0.00     0.026 H 
ENDBRANCH  42  45
ENDBRANCH  41  42
ENDBRANCH  32  41
ENDBRANCH   1  31
BRANCH  20  49
ATOM     49  C   LIG d   1       8.820  -6.951  -4.642  0.00  0.00     0.020 C 
ATOM     50  H   LIG d   1       9.196  -7.475  -5.521  0.00  0.00     0.047 H 
ATOM     51  H   LIG d   1       9.640  -6.423  -4.156  0.00  0.00     0.047 H 
BRANCH  49  52
ATOM     52  C   LIG d   1       8.216  -7.963  -3.667  0.00  0.00     0.003 C 
ATOM     53  H   LIG d   1       7.179  -7.696  -3.463  0.00  0.00     0.033 H 
ATOM     54  H   LIG d   1       8.254  -8.959  -4.106  0.00  0.00     0.033 H 
BRANCH  52  55
ATOM     55  C   LIG d   1       9.011  -7.951  -2.360  0.00  0.00    -0.031 C 
ATOM     56  H   LIG d   1      10.039  -8.255  -2.558  0.00  0.00     0.082 H 
ATOM     57  H   LIG d   1       9.005  -6.944  -1.941  0.00  0.00     0.082 H 
BRANCH  55  58
ATOM     58  N   LIG d   1       8.371  -8.877  -1.403  0.00  0.00     0.231 N 
ATOM     59  H   LIG d   1       8.020  -8.338  -0.602  0.00  0.00     0.203 HD
BRANCH  58  60
ATOM     60  C   LIG d   1       7.237  -9.569  -2.051  0.00  0.00    -0.043 C 
ATOM     61  H   LIG d   1       7.521 -10.580  -2.341  0.00  0.00     0.078 H 
ATOM     62  H   LIG d   1       6.402  -9.611  -1.352  0.00  0.00     0.078 H 
ATOM     63  H   LIG d   1       6.940  -9.006  -2.937  0.00  0.00     0.078 H 
ENDBRANCH  58  60
BRANCH  58  64
ATOM     64  C   LIG d   1       9.357  -9.867  -0.920  0.00  0.00    -0.043 C 
ATOM     65  H   LIG d   1      10.270  -9.345  -0.633  0.00  0.00     0.078 H 
ATOM     66  H   LIG d   1       8.946 -10.384  -0.054  0.00  0.00     0.078 H 
ATOM     67  H   LIG d   1       9.584 -10.592  -1.702  0.00  0.00     0.078 H 
ENDBRANCH  58  64
ENDBRANCH  55  58
ENDBRANCH  52  55
ENDBRANCH  49  52
ENDBRANCH  20  49
TORSDOF 10
ENDMDL
MODEL 8
REMARK VINA RESULT:      -6.4      3.202      5.644
REMARK  10 active torsions:
REMARK  status: ('A' for Active; 'I' for Inactive)
REMARK    1  A    between atoms: C_1  and  C_2 
REMARK    2  A    between atoms: C_2  and  O_3 
REMARK    3  A    between atoms: O_3  and  C_4 
REMARK    4  A    between atoms: C_9  and  C_10 
REMARK    5  A    between atoms: N_29  and  C_32 
REMARK    6  A    between atoms: C_32  and  C_33 
REMARK    7  A    between atoms: C_33  and  C_34 
REMARK    8  A    between atoms: C_34  and  N_66 
REMARK    9  A    between atoms: C_35  and  N_66 
REMARK   10  A    between atoms: C_36  and  N_66 
ROOT
ATOM      1  C   LIG d   1       4.333  -1.081  -7.657  0.00  0.00     0.096 C 
ATOM      2  H   LIG d   1       3.489  -0.541  -8.085  0.00  0.00     0.062 H 
ATOM      3  C   LIG d   1       4.352  -0.902  -6.155  0.00  0.00     0.046 A 
ATOM      4  C   LIG d   1       4.486  -1.925  -5.285  0.00  0.00    -0.015 A 
ATOM      5  C   LIG d   1       4.461  -1.355  -3.954  0.00  0.00     0.003 A 
ATOM      6  C   LIG d   1       4.560  -1.920  -2.678  0.00  0.00    -0.052 A 
ATOM      7  C   LIG d   1       4.492  -1.058  -1.611  0.00  0.00    -0.061 A 
ATOM      8  C   LIG d   1       4.333   0.308  -1.777  0.00  0.00    -0.060 A 
ATOM      9  C   LIG d   1       4.234   0.894  -3.028  0.00  0.00    -0.038 A 
ATOM     10  C   LIG d   1       4.300   0.044  -4.129  0.00  0.00     0.047 A 
ATOM     11  N   LIG d   1       4.238   0.280  -5.473  0.00  0.00    -0.356 N 
ATOM     12  H   LIG d   1       4.131   1.153  -5.882  0.00  0.00     0.166 HD
ATOM     13  C   LIG d   1       4.632  -3.373  -5.677  0.00  0.00     0.002 C 
ATOM     14  C   LIG d   1       5.030  -3.449  -7.158  0.00  0.00     0.107 A 
ATOM     15  H   LIG d   1       6.071  -3.139  -7.247  0.00  0.00     0.060 H 
ATOM     16  N   LIG d   1       4.195  -2.527  -7.927  0.00  0.00    -0.276 N 
ATOM     17  C   LIG d   1       3.321  -2.933  -8.850  0.00  0.00     0.234 A 
ATOM     18  O   LIG d   1       2.630  -2.091  -9.384  0.00  0.00    -0.274 OA
ATOM     19  C   LIG d   1       3.136  -4.355  -9.272  0.00  0.00     0.091 A 
ATOM     20  N   LIG d   1       4.049  -5.252  -8.582  0.00  0.00    -0.291 N 
ATOM     21  C   LIG d   1       4.903  -4.858  -7.639  0.00  0.00     0.237 A 
ATOM     22  O   LIG d   1       5.622  -5.696  -7.139  0.00  0.00    -0.274 OA
ATOM     23  H   LIG d   1       4.683  -2.984  -2.539  0.00  0.00     0.062 H 
ATOM     24  H   LIG d   1       4.565  -1.458  -0.611  0.00  0.00     0.062 H 
ATOM     25  H   LIG d   1       4.286   0.938  -0.901  0.00  0.00     0.062 H 
ATOM     26  H   LIG d   1       4.111   1.961  -3.143  0.00  0.00     0.064 H 
ATOM     27  H   LIG d   1       3.682  -3.889  -5.528  0.00  0.00     0.034 H 
ATOM     28  H   LIG d   1       5.402  -3.843  -5.067  0.00  0.00     0.034 H 
ATOM     29  H   LIG d   1       3.307  -4.431 -10.345  0.00  0.00     0.056 H 
ATOM     30  H   LIG d   1       2.111  -4.658  -9.055  0.00  0.00     0.056 H 
ENDROOT
BRANCH   1  31
ATOM     31  C   LIG d   1       5.621  -0.569  -8.250  0.00  0.00     0.021 A 
ATOM     32  C   LIG d   1       5.593   0.241  -9.376  0.00  0.00     0.126 A 
ATOM     33  C   LIG d   1       6.780   0.710  -9.919  0.00  0.00    -0.020 A 
ATOM     34  C   LIG d   1       7.987   0.370  -9.338  0.00  0.00    -0.058 A 
ATOM     35  H   LIG d   1       6.761   1.341 -10.795  0.00  0.00     0.065 H 
ATOM     36  C   LIG d   1       8.011  -0.437  -8.216  0.00  0.00    -0.061 A 
ATOM     37  H   LIG d   1       8.911   0.736  -9.760  0.00  0.00     0.062 H 
ATOM     38  C   LIG d   1       6.830  -0.902  -7.669  0.00  0.00    -0.053 A 
ATOM     39  H   LIG d   1       8.955  -0.702  -7.762  0.00  0.00     0.062 H 
ATOM     40  H   LIG d   1       6.852  -1.529  -6.790  0.00  0.00     0.062 H 
BRANCH  32  41
ATOM     41  O   LIG d   1       4.405   0.573  -9.945  0.00  0.00    -0.492 OA
BRANCH  41  42
ATOM     42  C   LIG d   1       4.024   1.950  -9.892  0.00  0.00     0.087 C 
ATOM     43  H   LIG d   1       4.901   2.562  -9.678  0.00  0.00     0.069 H 
ATOM     44  H   LIG d   1       3.599   2.247 -10.850  0.00  0.00     0.069 H 
BRANCH  42  45
ATOM     45  C   LIG d   1       2.983   2.149  -8.788  0.00  0.00    -0.031 C 
ATOM     46  H   LIG d   1       2.261   1.333  -8.819  0.00  0.00     0.026 H 
ATOM     47  H   LIG d   1       3.479   2.158  -7.818  0.00  0.00     0.026 H 
ATOM     48  H   LIG d   1       2.467   3.096  -8.943  0.00  0.00     0.026 H 
ENDBRANCH  42  45
ENDBRANCH  41  42
ENDBRANCH  32  41
ENDBRANCH   1  31
BRANCH  20  49
ATOM     49  C   LIG d   1       4.029  -6.671  -8.947  0.00  0.00     0.020 C 
ATOM     50  H   LIG d   1       4.848  -6.881  -9.635  0.00  0.00     0.047 H 
ATOM     51  H   LIG d   1       4.144  -7.278  -8.050  0.00  0.00     0.047 H 
BRANCH  49  52
ATOM     52  C   LIG d   1       2.698  -7.004  -9.623  0.00  0.00     0.003 C 
ATOM     53  H   LIG d   1       1.899  -6.982  -8.882  0.00  0.00     0.033 H 
ATOM     54  H   LIG d   1       2.492  -6.271 -10.402  0.00  0.00     0.033 H 
BRANCH  52  55
ATOM     55  C   LIG d   1       2.777  -8.400 -10.245  0.00  0.00    -0.031 C 
ATOM     56  H   LIG d   1       3.424  -8.370 -11.122  0.00  0.00     0.082 H 
ATOM     57  H   LIG d   1       3.187  -9.099  -9.516  0.00  0.00     0.082 H 
BRANCH  55  58
ATOM     58  N   LIG d   1       1.415  -8.834 -10.619  0.00  0.00     0.231 N 
ATOM     59  H   LIG d   1       1.126  -9.598  -9.996  0.00  0.00     0.203 HD
BRANCH  58  60
ATOM     60  C   LIG d   1       0.468  -7.709 -10.469  0.00  0.00    -0.043 C 
ATOM     61  H   LIG d   1       0.564  -7.015 -11.304  0.00  0.00     0.078 H 
ATOM     62  H   LIG d   1      -0.548  -8.102 -10.438  0.00  0.00     0.078 H 
ATOM     63  H   LIG d   1       0.683  -7.187  -9.537  0.00  0.00     0.078 H 
ENDBRANCH  58  60
BRANCH  58  64
ATOM     64  C   LIG d   1       1.405  -9.321 -12.014  0.00  0.00    -0.043 C 
ATOM     65  H   LIG d   1       0.460  -9.831 -12.203  0.00  0.00     0.078 H 
ATOM     66  H   LIG d   1       1.499  -8.470 -12.688  0.00  0.00     0.078 H 
ATOM     67  H   LIG d   1       2.231 -10.012 -12.184  0.00  0.00     0.078 H 
ENDBRANCH  58  64
ENDBRANCH  55  58
ENDBRANCH  52  55
ENDBRANCH  49  52
ENDBRANCH  20  49
TORSDOF 10
ENDMDL
MODEL 9
REMARK VINA RESULT:      -6.3      4.382      9.504
REMARK  10 active torsions:
REMARK  status: ('A' for Active; 'I' for Inactive)
REMARK    1  A    between atoms: C_1  and  C_2 
REMARK    2  A    between atoms: C_2  and  O_3 
REMARK    3  A    between atoms: O_3  and  C_4 
REMARK    4  A    between atoms: C_9  and  C_10 
REMARK    5  A    between atoms: N_29  and  C_32 
REMARK    6  A    between atoms: C_32  and  C_33 
REMARK    7  A    between atoms: C_33  and  C_34 
REMARK    8  A    between atoms: C_34  and  N_66 
REMARK    9  A    between atoms: C_35  and  N_66 
REMARK   10  A    between atoms: C_36  and  N_66 
ROOT
ATOM      1  C   LIG d   1       9.123  -0.254  -5.287  0.00  0.00     0.096 C 
ATOM      2  H   LIG d   1       9.777  -1.073  -4.985  0.00  0.00     0.062 H 
ATOM      3  C   LIG d   1       7.862  -0.265  -4.453  0.00  0.00     0.046 A 
ATOM      4  C   LIG d   1       7.363   0.832  -3.844  0.00  0.00    -0.015 A 
ATOM      5  C   LIG d   1       6.158   0.421  -3.153  0.00  0.00     0.003 A 
ATOM      6  C   LIG d   1       5.232   1.116  -2.368  0.00  0.00    -0.052 A 
ATOM      7  C   LIG d   1       4.185   0.390  -1.857  0.00  0.00    -0.061 A 
ATOM      8  C   LIG d   1       4.041  -0.967  -2.100  0.00  0.00    -0.060 A 
ATOM      9  C   LIG d   1       4.942  -1.678  -2.874  0.00  0.00    -0.038 A 
ATOM     10  C   LIG d   1       6.015  -0.968  -3.406  0.00  0.00     0.047 A 
ATOM     11  N   LIG d   1       7.063  -1.347  -4.195  0.00  0.00    -0.356 N 
ATOM     12  H   LIG d   1       7.217  -2.246  -4.524  0.00  0.00     0.166 HD
ATOM     13  C   LIG d   1       7.984   2.205  -3.903  0.00  0.00     0.002 C 
ATOM     14  C   LIG d   1       8.978   2.250  -5.073  0.00  0.00     0.107 A 
ATOM     15  H   LIG d   1       8.409   2.275  -6.002  0.00  0.00     0.060 H 
ATOM     16  N   LIG d   1       9.797   1.040  -5.053  0.00  0.00    -0.276 N 
ATOM     17  C   LIG d   1      11.113   1.054  -4.831  0.00  0.00     0.234 A 
ATOM     18  O   LIG d   1      11.688  -0.012  -4.770  0.00  0.00    -0.274 OA
ATOM     19  C   LIG d   1      11.927   2.295  -4.654  0.00  0.00     0.091 A 
ATOM     20  N   LIG d   1      11.123   3.499  -4.787  0.00  0.00    -0.291 N 
ATOM     21  C   LIG d   1       9.805   3.491  -4.978  0.00  0.00     0.237 A 
ATOM     22  O   LIG d   1       9.241   4.560  -5.082  0.00  0.00    -0.274 OA
ATOM     23  H   LIG d   1       5.337   2.173  -2.173  0.00  0.00     0.062 H 
ATOM     24  H   LIG d   1       3.449   0.892  -1.246  0.00  0.00     0.062 H 
ATOM     25  H   LIG d   1       3.197  -1.487  -1.671  0.00  0.00     0.062 H 
ATOM     26  H   LIG d   1       4.818  -2.735  -3.056  0.00  0.00     0.064 H 
ATOM     27  H   LIG d   1       8.509   2.408  -2.970  0.00  0.00     0.034 H 
ATOM     28  H   LIG d   1       7.206   2.952  -4.055  0.00  0.00     0.034 H 
ATOM     29  H   LIG d   1      12.716   2.311  -5.405  0.00  0.00     0.056 H 
ATOM     30  H   LIG d   1      12.383   2.281  -3.663  0.00  0.00     0.056 H 
ENDROOT
BRANCH   1  31
ATOM     31  C   LIG d   1       8.774  -0.393  -6.747  0.00  0.00     0.021 A 
ATOM     32  C   LIG d   1       9.478  -1.279  -7.549  0.00  0.00     0.126 A 
ATOM     33  C   LIG d   1       9.154  -1.404  -8.892  0.00  0.00    -0.020 A 
ATOM     34  C   LIG d   1       8.130  -0.647  -9.427  0.00  0.00    -0.058 A 
ATOM     35  H   LIG d   1       9.701  -2.093  -9.518  0.00  0.00     0.065 H 
ATOM     36  C   LIG d   1       7.429   0.235  -8.626  0.00  0.00    -0.061 A 
ATOM     37  H   LIG d   1       7.877  -0.746 -10.473  0.00  0.00     0.062 H 
ATOM     38  C   LIG d   1       7.747   0.358  -7.286  0.00  0.00    -0.053 A 
ATOM     39  H   LIG d   1       6.628   0.825  -9.046  0.00  0.00     0.062 H 
ATOM     40  H   LIG d   1       7.194   1.044  -6.662  0.00  0.00     0.062 H 
BRANCH  32  41
ATOM     41  O   LIG d   1      10.485  -2.022  -7.019  0.00  0.00    -0.492 OA
BRANCH  41  42
ATOM     42  C   LIG d   1      10.277  -3.434  -6.941  0.00  0.00     0.087 C 
ATOM     43  H   LIG d   1       9.378  -3.700  -7.498  0.00  0.00     0.069 H 
ATOM     44  H   LIG d   1      11.135  -3.953  -7.368  0.00  0.00     0.069 H 
BRANCH  42  45
ATOM     45  C   LIG d   1      10.109  -3.845  -5.476  0.00  0.00    -0.031 C 
ATOM     46  H   LIG d   1       9.048  -3.871  -5.227  0.00  0.00     0.026 H 
ATOM     47  H   LIG d   1      10.542  -4.833  -5.325  0.00  0.00     0.026 H 
ATOM     48  H   LIG d   1      10.615  -3.123  -4.837  0.00  0.00     0.026 H 
ENDBRANCH  42  45
ENDBRANCH  41  42
ENDBRANCH  32  41
ENDBRANCH   1  31
BRANCH  20  49
ATOM     49  C   LIG d   1      11.801   4.795  -4.705  0.00  0.00     0.020 C 
ATOM     50  H   LIG d   1      12.738   4.750  -5.261  0.00  0.00     0.047 H 
ATOM     51  H   LIG d   1      11.163   5.567  -5.132  0.00  0.00     0.047 H 
BRANCH  49  52
ATOM     52  C   LIG d   1      12.094   5.125  -3.240  0.00  0.00     0.003 C 
ATOM     53  H   LIG d   1      11.507   4.471  -2.597  0.00  0.00     0.033 H 
ATOM     54  H   LIG d   1      13.154   4.977  -3.039  0.00  0.00     0.033 H 
BRANCH  52  55
ATOM     55  C   LIG d   1      11.720   6.582  -2.962  0.00  0.00    -0.031 C 
ATOM     56  H   LIG d   1      11.877   6.802  -1.906  0.00  0.00     0.082 H 
ATOM     57  H   LIG d   1      12.345   7.240  -3.567  0.00  0.00     0.082 H 
BRANCH  55  58
ATOM     58  N   LIG d   1      10.304   6.790  -3.330  0.00  0.00     0.231 N 
ATOM     59  H   LIG d   1      10.000   6.018  -3.935  0.00  0.00     0.203 HD
BRANCH  58  60
ATOM     60  C   LIG d   1       9.463   6.806  -2.114  0.00  0.00    -0.043 C 
ATOM     61  H   LIG d   1       8.677   6.054  -2.183  0.00  0.00     0.078 H 
ATOM     62  H   LIG d   1      10.090   6.600  -1.247  0.00  0.00     0.078 H 
ATOM     63  H   LIG d   1       9.013   7.793  -2.009  0.00  0.00     0.078 H 
ENDBRANCH  58  60
BRANCH  58  64
ATOM     64  C   LIG d   1      10.154   8.064  -4.065  0.00  0.00    -0.043 C 
ATOM     65  H   LIG d   1      10.967   8.155  -4.784  0.00  0.00     0.078 H 
ATOM     66  H   LIG d   1       9.201   8.058  -4.593  0.00  0.00     0.078 H 
ATOM     67  H   LIG d   1      10.182   8.908  -3.375  0.00  0.00     0.078 H 
ENDBRANCH  58  64
ENDBRANCH  55  58
ENDBRANCH  52  55
ENDBRANCH  49  52
ENDBRANCH  20  49
TORSDOF 10
ENDMDL
