MODEL 1
REMARK VINA RESULT:      -6.5      0.000      0.000
REMARK  7 active torsions:
REMARK  status: ('A' for Active; 'I' for Inactive)
REMARK    1  A    between atoms: C_1  and  C_2 
REMARK    2  A    between atoms: C_3  and  C_29 
REMARK    3  A    between atoms: C_9  and  C_28 
REMARK    4  A    between atoms: C_10  and  C_17 
REMARK    5  A    between atoms: C_15  and  C_16 
REMARK    6  A    between atoms: C_17  and  C_18 
REMARK       I    between atoms: C_18  and  N_20 
REMARK    7  A    between atoms: C_23  and  C_26 
ROOT
ATOM      1  C   LIG d   1       3.865  -0.592  -3.434  0.00  0.00    -0.002 A 
ATOM      2  C   LIG d   1       4.436   0.603  -3.242  0.00  0.00     0.106 A 
ATOM      3  O   LIG d   1       5.715   0.582  -3.658  0.00  0.00    -0.459 OA
ATOM      4  C   LIG d   1       6.041  -0.631  -4.150  0.00  0.00     0.142 A 
ATOM      5  C   LIG d   1       4.895  -1.445  -4.044  0.00  0.00     0.024 A 
ATOM      6  C   LIG d   1       4.926  -2.763  -4.474  0.00  0.00    -0.040 A 
ATOM      7  C   LIG d   1       6.104  -3.279  -5.014  0.00  0.00     0.022 A 
ATOM      8  C   LIG d   1       6.172  -4.667  -5.480  0.00  0.00    -0.029 A 
ATOM      9  C   LIG d   1       7.345  -5.114  -5.996  0.00  0.00     0.049 A 
ATOM     10  C   LIG d   1       8.454  -4.245  -6.074  0.00  0.00     0.341 A 
ATOM     11  O   LIG d   1       9.500  -4.660  -6.541  0.00  0.00    -0.245 OA
ATOM     12  O   LIG d   1       8.387  -2.975  -5.648  0.00  0.00    -0.422 OA
ATOM     13  C   LIG d   1       7.251  -2.464  -5.122  0.00  0.00     0.146 A 
ATOM     14  C   LIG d   1       7.209  -1.150  -4.689  0.00  0.00     0.035 A 
ATOM     15  H   LIG d   1       4.047  -3.386  -4.391  0.00  0.00     0.063 H 
ENDROOT
BRANCH   9  16
ATOM     16  C   LIG d   1       7.462  -6.534  -6.487  0.00  0.00     0.056 C 
ATOM     17  H   LIG d   1       6.563  -6.802  -7.043  0.00  0.00     0.041 H 
ATOM     18  H   LIG d   1       8.332  -6.623  -7.138  0.00  0.00     0.041 H 
BRANCH  16  19
ATOM     19  C   LIG d   1       7.618  -7.461  -5.309  0.00  0.00     0.220 C 
ATOM     20  O   LIG d   1       8.386  -7.180  -4.414  0.00  0.00    -0.275 OA
ATOM     21  N   LIG d   1       6.905  -8.603  -5.252  0.00  0.00    -0.301 N 
ATOM     22  C   LIG d   1       7.045  -9.517  -4.110  0.00  0.00     0.015 C 
ATOM     23  C   LIG d   1       5.965  -8.954  -6.326  0.00  0.00     0.015 C 
ATOM     24  C   LIG d   1       5.658  -9.790  -3.522  0.00  0.00    -0.029 C 
ATOM     25  H   LIG d   1       7.491 -10.454  -4.446  0.00  0.00     0.046 H 
ATOM     26  H   LIG d   1       7.680  -9.060  -3.352  0.00  0.00     0.046 H 
ATOM     27  C   LIG d   1       4.731 -10.301  -4.627  0.00  0.00     0.001 C 
ATOM     28  H   LIG d   1       5.737 -10.540  -2.735  0.00  0.00     0.029 H 
ATOM     29  H   LIG d   1       5.252  -8.867  -3.104  0.00  0.00     0.029 H 
ATOM     30  C   LIG d   1       4.593  -9.235  -5.715  0.00  0.00    -0.029 C 
ATOM     31  H   LIG d   1       5.150 -11.210  -5.059  0.00  0.00     0.036 H 
ATOM     32  H   LIG d   1       3.915  -9.591  -6.490  0.00  0.00     0.029 H 
ATOM     33  H   LIG d   1       4.198  -8.318  -5.277  0.00  0.00     0.029 H 
ATOM     34  H   LIG d   1       5.887  -8.125  -7.029  0.00  0.00     0.046 H 
ATOM     35  H   LIG d   1       6.320  -9.843  -6.845  0.00  0.00     0.046 H 
BRANCH  27  36
ATOM     36  C   LIG d   1       3.374 -10.603  -4.044  0.00  0.00     0.045 C 
ATOM     37  O   LIG d   1       2.738 -11.546  -4.451  0.00  0.00    -0.549 OA
ATOM     38  O   LIG d   1       2.872  -9.824  -3.073  0.00  0.00    -0.549 OA
ENDBRANCH  27  36
ENDBRANCH  16  19
ENDBRANCH   9  16
BRANCH   8  39
ATOM     39  C   LIG d   1       4.973  -5.574  -5.385  0.00  0.00    -0.038 C 
ATOM     40  H   LIG d   1       4.076  -4.976  -5.229  0.00  0.00     0.028 H 
ATOM     41  H   LIG d   1       4.874  -6.144  -6.309  0.00  0.00     0.028 H 
ATOM     42  H   LIG d   1       5.102  -6.261  -4.547  0.00  0.00     0.028 H 
ENDBRANCH   8  39
BRANCH  14  43
ATOM     43  C   LIG d   1       8.435  -0.281  -4.804  0.00  0.00    -0.033 C 
ATOM     44  H   LIG d   1       8.156   0.762  -4.658  0.00  0.00     0.028 H 
ATOM     45  H   LIG d   1       9.160  -0.573  -4.044  0.00  0.00     0.028 H 
ATOM     46  H   LIG d   1       8.878  -0.404  -5.792  0.00  0.00     0.028 H 
ENDBRANCH  14  43
BRANCH   1  47
ATOM     47  C   LIG d   1       2.449  -0.983  -3.099  0.00  0.00    -0.036 C 
ATOM     48  H   LIG d   1       2.111  -1.756  -3.790  0.00  0.00     0.028 H 
ATOM     49  H   LIG d   1       2.409  -1.365  -2.079  0.00  0.00     0.028 H 
ATOM     50  H   LIG d   1       1.801  -0.110  -3.185  0.00  0.00     0.028 H 
ENDBRANCH   1  47
BRANCH   2  51
ATOM     51  C   LIG d   1       3.747   1.800  -2.639  0.00  0.00    -0.006 C 
ATOM     52  H   LIG d   1       4.149   2.712  -3.080  0.00  0.00     0.031 H 
ATOM     53  H   LIG d   1       3.916   1.812  -1.562  0.00  0.00     0.031 H 
ATOM     54  H   LIG d   1       2.677   1.742  -2.838  0.00  0.00     0.031 H 
ENDBRANCH   2  51
TORSDOF 7
ENDMDL
MODEL 2
REMARK VINA RESULT:      -6.4     12.256     15.065
REMARK  7 active torsions:
REMARK  status: ('A' for Active; 'I' for Inactive)
REMARK    1  A    between atoms: C_1  and  C_2 
REMARK    2  A    between atoms: C_3  and  C_29 
REMARK    3  A    between atoms: C_9  and  C_28 
REMARK    4  A    between atoms: C_10  and  C_17 
REMARK    5  A    between atoms: C_15  and  C_16 
REMARK    6  A    between atoms: C_17  and  C_18 
REMARK       I    between atoms: C_18  and  N_20 
REMARK    7  A    between atoms: C_23  and  C_26 
ROOT
ATOM      1  C   LIG d   1      11.854  10.316   1.634  0.00  0.00    -0.002 A 
ATOM      2  C   LIG d   1      12.091   9.690   2.792  0.00  0.00     0.106 A 
ATOM      3  O   LIG d   1      11.833   8.375   2.674  0.00  0.00    -0.459 OA
ATOM      4  C   LIG d   1      11.418   8.076   1.425  0.00  0.00     0.142 A 
ATOM      5  C   LIG d   1      11.409   9.280   0.691  0.00  0.00     0.024 A 
ATOM      6  C   LIG d   1      11.022   9.289  -0.641  0.00  0.00    -0.040 A 
ATOM      7  C   LIG d   1      10.640   8.093  -1.250  0.00  0.00     0.022 A 
ATOM      8  C   LIG d   1      10.226   8.066  -2.655  0.00  0.00    -0.029 A 
ATOM      9  C   LIG d   1       9.864   6.875  -3.195  0.00  0.00     0.049 A 
ATOM     10  C   LIG d   1       9.897   5.707  -2.403  0.00  0.00     0.341 A 
ATOM     11  O   LIG d   1       9.571   4.644  -2.901  0.00  0.00    -0.245 OA
ATOM     12  O   LIG d   1      10.278   5.736  -1.117  0.00  0.00    -0.422 OA
ATOM     13  C   LIG d   1      10.650   6.889  -0.515  0.00  0.00     0.146 A 
ATOM     14  C   LIG d   1      11.037   6.891   0.813  0.00  0.00     0.035 A 
ATOM     15  H   LIG d   1      11.015  10.213  -1.202  0.00  0.00     0.063 H 
ENDROOT
BRANCH   9  16
ATOM     16  C   LIG d   1       9.431   6.797  -4.636  0.00  0.00     0.056 C 
ATOM     17  H   LIG d   1       8.822   5.905  -4.785  0.00  0.00     0.041 H 
ATOM     18  H   LIG d   1       8.846   7.682  -4.888  0.00  0.00     0.041 H 
BRANCH  16  19
ATOM     19  C   LIG d   1      10.647   6.729  -5.523  0.00  0.00     0.220 C 
ATOM     20  O   LIG d   1      11.559   5.981  -5.245  0.00  0.00    -0.275 OA
ATOM     21  N   LIG d   1      10.720   7.501  -6.626  0.00  0.00    -0.301 N 
ATOM     22  C   LIG d   1      11.899   7.446  -7.501  0.00  0.00     0.015 C 
ATOM     23  C   LIG d   1       9.619   8.408  -6.980  0.00  0.00     0.015 C 
ATOM     24  C   LIG d   1      11.437   7.172  -8.936  0.00  0.00    -0.029 C 
ATOM     25  H   LIG d   1      12.426   8.399  -7.463  0.00  0.00     0.046 H 
ATOM     26  H   LIG d   1      12.562   6.647  -7.171  0.00  0.00     0.046 H 
ATOM     27  C   LIG d   1      10.400   8.220  -9.343  0.00  0.00     0.001 C 
ATOM     28  H   LIG d   1      12.292   7.223  -9.610  0.00  0.00     0.029 H 
ATOM     29  H   LIG d   1      10.991   6.178  -8.990  0.00  0.00     0.029 H 
ATOM     30  C   LIG d   1       9.185   8.126  -8.418  0.00  0.00    -0.029 C 
ATOM     31  H   LIG d   1      10.839   9.214  -9.265  0.00  0.00     0.036 H 
ATOM     32  H   LIG d   1       8.438   8.857  -8.723  0.00  0.00     0.029 H 
ATOM     33  H   LIG d   1       8.760   7.124  -8.477  0.00  0.00     0.029 H 
ATOM     34  H   LIG d   1       8.778   8.242  -6.307  0.00  0.00     0.046 H 
ATOM     35  H   LIG d   1       9.957   9.440  -6.899  0.00  0.00     0.046 H 
BRANCH  27  36
ATOM     36  C   LIG d   1       9.968   7.973 -10.765  0.00  0.00     0.045 C 
ATOM     37  O   LIG d   1       9.598   6.873 -11.103  0.00  0.00    -0.549 OA
ATOM     38  O   LIG d   1       9.994   8.975 -11.659  0.00  0.00    -0.549 OA
ENDBRANCH  27  36
ENDBRANCH  16  19
ENDBRANCH   9  16
BRANCH   8  39
ATOM     39  C   LIG d   1      10.200   9.327  -3.479  0.00  0.00    -0.038 C 
ATOM     40  H   LIG d   1       9.411   9.257  -4.227  0.00  0.00     0.028 H 
ATOM     41  H   LIG d   1      10.009  10.182  -2.830  0.00  0.00     0.028 H 
ATOM     42  H   LIG d   1      11.162   9.457  -3.977  0.00  0.00     0.028 H 
ENDBRANCH   8  39
BRANCH  14  43
ATOM     43  C   LIG d   1      11.047   5.604   1.596  0.00  0.00    -0.033 C 
ATOM     44  H   LIG d   1      11.084   5.827   2.662  0.00  0.00     0.028 H 
ATOM     45  H   LIG d   1      10.142   5.038   1.375  0.00  0.00     0.028 H 
ATOM     46  H   LIG d   1      11.920   5.015   1.318  0.00  0.00     0.028 H 
ENDBRANCH  14  43
BRANCH   1  47
ATOM     47  C   LIG d   1      12.015  11.788   1.351  0.00  0.00    -0.036 C 
ATOM     48  H   LIG d   1      12.639  12.241   2.122  0.00  0.00     0.028 H 
ATOM     49  H   LIG d   1      12.487  11.921   0.378  0.00  0.00     0.028 H 
ATOM     50  H   LIG d   1      11.035  12.266   1.348  0.00  0.00     0.028 H 
ENDBRANCH   1  47
BRANCH   2  51
ATOM     51  C   LIG d   1      12.572  10.362   4.052  0.00  0.00    -0.006 C 
ATOM     52  H   LIG d   1      13.425  11.001   3.821  0.00  0.00     0.031 H 
ATOM     53  H   LIG d   1      12.872   9.605   4.777  0.00  0.00     0.031 H 
ATOM     54  H   LIG d   1      11.768  10.967   4.471  0.00  0.00     0.031 H 
ENDBRANCH   2  51
TORSDOF 7
ENDMDL
MODEL 3
REMARK VINA RESULT:      -6.3      6.063     11.699
REMARK  7 active torsions:
REMARK  status: ('A' for Active; 'I' for Inactive)
REMARK    1  A    between atoms: C_1  and  C_2 
REMARK    2  A    between atoms: C_3  and  C_29 
REMARK    3  A    between atoms: C_9  and  C_28 
REMARK    4  A    between atoms: C_10  and  C_17 
REMARK    5  A    between atoms: C_15  and  C_16 
REMARK    6  A    between atoms: C_17  and  C_18 
REMARK       I    between atoms: C_18  and  N_20 
REMARK    7  A    between atoms: C_23  and  C_26 
ROOT
ATOM      1  C   LIG d   1       5.304  -0.011  -2.670  0.00  0.00    -0.002 A 
ATOM      2  C   LIG d   1       4.934  -1.256  -2.993  0.00  0.00     0.106 A 
ATOM      3  O   LIG d   1       5.717  -1.734  -3.976  0.00  0.00    -0.459 OA
ATOM      4  C   LIG d   1       6.644  -0.824  -4.341  0.00  0.00     0.142 A 
ATOM      5  C   LIG d   1       6.444   0.317  -3.537  0.00  0.00     0.024 A 
ATOM      6  C   LIG d   1       7.255   1.433  -3.685  0.00  0.00    -0.040 A 
ATOM      7  C   LIG d   1       8.274   1.415  -4.638  0.00  0.00     0.022 A 
ATOM      8  C   LIG d   1       9.150   2.576  -4.820  0.00  0.00    -0.029 A 
ATOM      9  C   LIG d   1      10.124   2.504  -5.762  0.00  0.00     0.049 A 
ATOM     10  C   LIG d   1      10.270   1.330  -6.532  0.00  0.00     0.341 A 
ATOM     11  O   LIG d   1      11.149   1.278  -7.373  0.00  0.00    -0.245 OA
ATOM     12  O   LIG d   1       9.466   0.269  -6.361  0.00  0.00    -0.422 OA
ATOM     13  C   LIG d   1       8.475   0.273  -5.441  0.00  0.00     0.146 A 
ATOM     14  C   LIG d   1       7.659  -0.834  -5.286  0.00  0.00     0.035 A 
ATOM     15  H   LIG d   1       7.100   2.306  -3.069  0.00  0.00     0.063 H 
ENDROOT
BRANCH   9  16
ATOM     16  C   LIG d   1      11.049   3.672  -5.986  0.00  0.00     0.056 C 
ATOM     17  H   LIG d   1      11.330   4.102  -5.024  0.00  0.00     0.041 H 
ATOM     18  H   LIG d   1      11.944   3.333  -6.507  0.00  0.00     0.041 H 
BRANCH  16  19
ATOM     19  C   LIG d   1      10.348   4.716  -6.816  0.00  0.00     0.220 C 
ATOM     20  O   LIG d   1       9.530   4.381  -7.646  0.00  0.00    -0.275 OA
ATOM     21  N   LIG d   1      10.631   6.021  -6.637  0.00  0.00    -0.301 N 
ATOM     22  C   LIG d   1       9.955   7.051  -7.439  0.00  0.00     0.015 C 
ATOM     23  C   LIG d   1      11.615   6.443  -5.630  0.00  0.00     0.015 C 
ATOM     24  C   LIG d   1       9.328   8.080  -6.494  0.00  0.00    -0.029 C 
ATOM     25  H   LIG d   1      10.681   7.543  -8.086  0.00  0.00     0.046 H 
ATOM     26  H   LIG d   1       9.177   6.589  -8.045  0.00  0.00     0.046 H 
ATOM     27  C   LIG d   1      10.404   8.622  -5.550  0.00  0.00     0.001 C 
ATOM     28  H   LIG d   1       8.906   8.899  -7.076  0.00  0.00     0.029 H 
ATOM     29  H   LIG d   1       8.538   7.604  -5.911  0.00  0.00     0.029 H 
ATOM     30  C   LIG d   1      10.972   7.478  -4.709  0.00  0.00    -0.029 C 
ATOM     31  H   LIG d   1      11.203   9.076  -6.135  0.00  0.00     0.036 H 
ATOM     32  H   LIG d   1      11.721   7.870  -4.021  0.00  0.00     0.029 H 
ATOM     33  H   LIG d   1      10.168   7.008  -4.143  0.00  0.00     0.029 H 
ATOM     34  H   LIG d   1      11.930   5.580  -5.043  0.00  0.00     0.046 H 
ATOM     35  H   LIG d   1      12.478   6.885  -6.127  0.00  0.00     0.046 H 
BRANCH  27  36
ATOM     36  C   LIG d   1       9.797   9.660  -4.641  0.00  0.00     0.045 C 
ATOM     37  O   LIG d   1       9.167  10.580  -5.109  0.00  0.00    -0.549 OA
ATOM     38  O   LIG d   1       9.955   9.564  -3.311  0.00  0.00    -0.549 OA
ENDBRANCH  27  36
ENDBRANCH  16  19
ENDBRANCH   9  16
BRANCH   8  39
ATOM     39  C   LIG d   1       8.973   3.818  -3.985  0.00  0.00    -0.038 C 
ATOM     40  H   LIG d   1       9.240   3.602  -2.951  0.00  0.00     0.028 H 
ATOM     41  H   LIG d   1       9.618   4.609  -4.369  0.00  0.00     0.028 H 
ATOM     42  H   LIG d   1       7.933   4.142  -4.032  0.00  0.00     0.028 H 
ENDBRANCH   8  39
BRANCH  14  43
ATOM     43  C   LIG d   1       7.875  -2.053  -6.145  0.00  0.00    -0.033 C 
ATOM     44  H   LIG d   1       8.430  -2.802  -5.581  0.00  0.00     0.028 H 
ATOM     45  H   LIG d   1       6.909  -2.464  -6.441  0.00  0.00     0.028 H 
ATOM     46  H   LIG d   1       8.438  -1.777  -7.035  0.00  0.00     0.028 H 
ENDBRANCH  14  43
BRANCH   1  47
ATOM     47  C   LIG d   1       4.680   0.875  -1.622  0.00  0.00    -0.036 C 
ATOM     48  H   LIG d   1       3.653   0.557  -1.442  0.00  0.00     0.028 H 
ATOM     49  H   LIG d   1       5.251   0.801  -0.697  0.00  0.00     0.028 H 
ATOM     50  H   LIG d   1       4.685   1.908  -1.971  0.00  0.00     0.028 H 
ENDBRANCH   1  47
BRANCH   2  51
ATOM     51  C   LIG d   1       3.799  -2.011  -2.352  0.00  0.00    -0.006 C 
ATOM     52  H   LIG d   1       2.849  -1.596  -2.690  0.00  0.00     0.031 H 
ATOM     53  H   LIG d   1       3.869  -1.922  -1.268  0.00  0.00     0.031 H 
ATOM     54  H   LIG d   1       3.856  -3.063  -2.634  0.00  0.00     0.031 H 
ENDBRANCH   2  51
TORSDOF 7
ENDMDL
MODEL 4
REMARK VINA RESULT:      -6.1      6.435     11.835
REMARK  7 active torsions:
REMARK  status: ('A' for Active; 'I' for Inactive)
REMARK    1  A    between atoms: C_1  and  C_2 
REMARK    2  A    between atoms: C_3  and  C_29 
REMARK    3  A    between atoms: C_9  and  C_28 
REMARK    4  A    between atoms: C_10  and  C_17 
REMARK    5  A    between atoms: C_15  and  C_16 
REMARK    6  A    between atoms: C_17  and  C_18 
REMARK       I    between atoms: C_18  and  N_20 
REMARK    7  A    between atoms: C_23  and  C_26 
ROOT
ATOM      1  C   LIG d   1       6.356  -0.906  -4.480  0.00  0.00    -0.002 A 
ATOM      2  C   LIG d   1       5.713  -1.391  -5.548  0.00  0.00     0.106 A 
ATOM      3  O   LIG d   1       6.038  -0.689  -6.648  0.00  0.00    -0.459 OA
ATOM      4  C   LIG d   1       6.918   0.290  -6.352  0.00  0.00     0.142 A 
ATOM      5  C   LIG d   1       7.176   0.211  -4.968  0.00  0.00     0.024 A 
ATOM      6  C   LIG d   1       8.053   1.101  -4.364  0.00  0.00    -0.040 A 
ATOM      7  C   LIG d   1       8.679   2.077  -5.141  0.00  0.00     0.022 A 
ATOM      8  C   LIG d   1       9.611   3.032  -4.537  0.00  0.00    -0.029 A 
ATOM      9  C   LIG d   1      10.191   3.960  -5.340  0.00  0.00     0.049 A 
ATOM     10  C   LIG d   1       9.887   3.982  -6.718  0.00  0.00     0.341 A 
ATOM     11  O   LIG d   1      10.415   4.820  -7.427  0.00  0.00    -0.245 OA
ATOM     12  O   LIG d   1       9.033   3.105  -7.267  0.00  0.00    -0.422 OA
ATOM     13  C   LIG d   1       8.421   2.155  -6.526  0.00  0.00     0.146 A 
ATOM     14  C   LIG d   1       7.544   1.263  -7.117  0.00  0.00     0.035 A 
ATOM     15  H   LIG d   1       8.250   1.039  -3.304  0.00  0.00     0.063 H 
ENDROOT
BRANCH   9  16
ATOM     16  C   LIG d   1      11.156   4.964  -4.763  0.00  0.00     0.056 C 
ATOM     17  H   LIG d   1      11.805   4.469  -4.040  0.00  0.00     0.041 H 
ATOM     18  H   LIG d   1      11.761   5.388  -5.565  0.00  0.00     0.041 H 
BRANCH  16  19
ATOM     19  C   LIG d   1      10.387   6.063  -4.077  0.00  0.00     0.220 C 
ATOM     20  O   LIG d   1       9.333   6.445  -4.538  0.00  0.00    -0.275 OA
ATOM     21  N   LIG d   1      10.872   6.623  -2.951  0.00  0.00    -0.301 N 
ATOM     22  C   LIG d   1      10.134   7.695  -2.270  0.00  0.00     0.015 C 
ATOM     23  C   LIG d   1      12.145   6.167  -2.377  0.00  0.00     0.015 C 
ATOM     24  C   LIG d   1       9.934   7.304  -0.803  0.00  0.00    -0.029 C 
ATOM     25  H   LIG d   1      10.704   8.623  -2.327  0.00  0.00     0.046 H 
ATOM     26  H   LIG d   1       9.164   7.831  -2.748  0.00  0.00     0.046 H 
ATOM     27  C   LIG d   1      11.292   6.978  -0.177  0.00  0.00     0.001 C 
ATOM     28  H   LIG d   1       9.473   8.131  -0.264  0.00  0.00     0.029 H 
ATOM     29  H   LIG d   1       9.287   6.427  -0.746  0.00  0.00     0.029 H 
ATOM     30  C   LIG d   1      11.925   5.795  -0.911  0.00  0.00    -0.029 C 
ATOM     31  H   LIG d   1      11.945   7.847  -0.257  0.00  0.00     0.036 H 
ATOM     32  H   LIG d   1      12.881   5.550  -0.450  0.00  0.00     0.029 H 
ATOM     33  H   LIG d   1      11.260   4.933  -0.853  0.00  0.00     0.029 H 
ATOM     34  H   LIG d   1      12.502   5.294  -2.924  0.00  0.00     0.046 H 
ATOM     35  H   LIG d   1      12.882   6.967  -2.441  0.00  0.00     0.046 H 
BRANCH  27  36
ATOM     36  C   LIG d   1      11.103   6.625   1.276  0.00  0.00     0.045 C 
ATOM     37  O   LIG d   1      10.668   5.540   1.583  0.00  0.00    -0.549 OA
ATOM     38  O   LIG d   1      11.418   7.515   2.230  0.00  0.00    -0.549 OA
ENDBRANCH  27  36
ENDBRANCH  16  19
ENDBRANCH   9  16
BRANCH   8  39
ATOM     39  C   LIG d   1       9.918   2.987  -3.062  0.00  0.00    -0.038 C 
ATOM     40  H   LIG d   1       9.549   2.052  -2.642  0.00  0.00     0.028 H 
ATOM     41  H   LIG d   1      10.996   3.053  -2.912  0.00  0.00     0.028 H 
ATOM     42  H   LIG d   1       9.430   3.826  -2.564  0.00  0.00     0.028 H 
ENDBRANCH   8  39
BRANCH  14  43
ATOM     43  C   LIG d   1       7.269   1.347  -8.596  0.00  0.00    -0.033 C 
ATOM     44  H   LIG d   1       6.461   2.057  -8.776  0.00  0.00     0.028 H 
ATOM     45  H   LIG d   1       8.167   1.682  -9.115  0.00  0.00     0.028 H 
ATOM     46  H   LIG d   1       6.980   0.366  -8.970  0.00  0.00     0.028 H 
ENDBRANCH  14  43
BRANCH   1  47
ATOM     47  C   LIG d   1       6.263  -1.408  -3.062  0.00  0.00    -0.036 C 
ATOM     48  H   LIG d   1       6.084  -2.484  -3.068  0.00  0.00     0.028 H 
ATOM     49  H   LIG d   1       7.197  -1.199  -2.541  0.00  0.00     0.028 H 
ATOM     50  H   LIG d   1       5.442  -0.905  -2.552  0.00  0.00     0.028 H 
ENDBRANCH   1  47
BRANCH   2  51
ATOM     51  C   LIG d   1       4.755  -2.555  -5.522  0.00  0.00    -0.006 C 
ATOM     52  H   LIG d   1       5.314  -3.483  -5.407  0.00  0.00     0.031 H 
ATOM     53  H   LIG d   1       4.192  -2.583  -6.455  0.00  0.00     0.031 H 
ATOM     54  H   LIG d   1       4.066  -2.440  -4.685  0.00  0.00     0.031 H 
ENDBRANCH   2  51
TORSDOF 7
ENDMDL
MODEL 5
REMARK VINA RESULT:      -5.8      2.739      8.885
REMARK  7 active torsions:
REMARK  status: ('A' for Active; 'I' for Inactive)
REMARK    1  A    between atoms: C_1  and  C_2 
REMARK    2  A    between atoms: C_3  and  C_29 
REMARK    3  A    between atoms: C_9  and  C_28 
REMARK    4  A    between atoms: C_10  and  C_17 
REMARK    5  A    between atoms: C_15  and  C_16 
REMARK    6  A    between atoms: C_17  and  C_18 
REMARK       I    between atoms: C_18  and  N_20 
REMARK    7  A    between atoms: C_23  and  C_26 
ROOT
ATOM      1  C   LIG d   1       9.426  -9.144  -4.076  0.00  0.00    -0.002 A 
ATOM      2  C   LIG d   1       8.957 -10.386  -3.905  0.00  0.00     0.106 A 
ATOM      3  O   LIG d   1       7.643 -10.432  -4.185  0.00  0.00    -0.459 OA
ATOM      4  C   LIG d   1       7.187  -9.219  -4.560  0.00  0.00     0.142 A 
ATOM      5  C   LIG d   1       8.283  -8.332  -4.518  0.00  0.00     0.024 A 
ATOM      6  C   LIG d   1       8.121  -6.996  -4.855  0.00  0.00    -0.040 A 
ATOM      7  C   LIG d   1       6.860  -6.536  -5.236  0.00  0.00     0.022 A 
ATOM      8  C   LIG d   1       6.652  -5.132  -5.599  0.00  0.00    -0.029 A 
ATOM      9  C   LIG d   1       5.405  -4.739  -5.962  0.00  0.00     0.049 A 
ATOM     10  C   LIG d   1       4.352  -5.680  -5.982  0.00  0.00     0.341 A 
ATOM     11  O   LIG d   1       3.238  -5.314  -6.311  0.00  0.00    -0.245 OA
ATOM     12  O   LIG d   1       4.547  -6.965  -5.650  0.00  0.00    -0.422 OA
ATOM     13  C   LIG d   1       5.763  -7.423  -5.279  0.00  0.00     0.146 A 
ATOM     14  C   LIG d   1       5.937  -8.754  -4.940  0.00  0.00     0.035 A 
ATOM     15  H   LIG d   1       8.961  -6.319  -4.822  0.00  0.00     0.063 H 
ENDROOT
BRANCH   9  16
ATOM     16  C   LIG d   1       5.143  -3.305  -6.343  0.00  0.00     0.056 C 
ATOM     17  H   LIG d   1       5.995  -2.916  -6.901  0.00  0.00     0.041 H 
ATOM     18  H   LIG d   1       4.247  -3.251  -6.962  0.00  0.00     0.041 H 
BRANCH  16  19
ATOM     19  C   LIG d   1       4.943  -2.483  -5.096  0.00  0.00     0.220 C 
ATOM     20  O   LIG d   1       4.373  -2.962  -4.139  0.00  0.00    -0.275 OA
ATOM     21  N   LIG d   1       5.396  -1.215  -5.045  0.00  0.00    -0.301 N 
ATOM     22  C   LIG d   1       5.209  -0.400  -3.837  0.00  0.00     0.015 C 
ATOM     23  C   LIG d   1       6.094  -0.622  -6.195  0.00  0.00     0.015 C 
ATOM     24  C   LIG d   1       6.569   0.150  -3.396  0.00  0.00    -0.029 C 
ATOM     25  H   LIG d   1       4.534   0.427  -4.056  0.00  0.00     0.046 H 
ATOM     26  H   LIG d   1       4.789  -1.016  -3.043  0.00  0.00     0.046 H 
ATOM     27  C   LIG d   1       7.216   0.897  -4.565  0.00  0.00     0.001 C 
ATOM     28  H   LIG d   1       6.432   0.832  -2.558  0.00  0.00     0.029 H 
ATOM     29  H   LIG d   1       7.213  -0.676  -3.091  0.00  0.00     0.029 H 
ATOM     30  C   LIG d   1       7.440  -0.069  -5.730  0.00  0.00    -0.029 C 
ATOM     31  H   LIG d   1       6.560   1.706  -4.884  0.00  0.00     0.036 H 
ATOM     32  H   LIG d   1       7.921   0.459  -6.552  0.00  0.00     0.029 H 
ATOM     33  H   LIG d   1       8.075  -0.892  -5.403  0.00  0.00     0.029 H 
ATOM     34  H   LIG d   1       6.258  -1.385  -6.956  0.00  0.00     0.046 H 
ATOM     35  H   LIG d   1       5.493   0.186  -6.609  0.00  0.00     0.046 H 
BRANCH  27  36
ATOM     36  C   LIG d   1       8.539   1.468  -4.124  0.00  0.00     0.045 C 
ATOM     37  O   LIG d   1       8.570   2.394  -3.348  0.00  0.00    -0.549 OA
ATOM     38  O   LIG d   1       9.685   0.948  -4.593  0.00  0.00    -0.549 OA
ENDBRANCH  27  36
ENDBRANCH  16  19
ENDBRANCH   9  16
BRANCH   8  39
ATOM     39  C   LIG d   1       7.793  -4.147  -5.568  0.00  0.00    -0.038 C 
ATOM     40  H   LIG d   1       7.632  -3.429  -4.765  0.00  0.00     0.028 H 
ATOM     41  H   LIG d   1       8.729  -4.680  -5.397  0.00  0.00     0.028 H 
ATOM     42  H   LIG d   1       7.844  -3.621  -6.522  0.00  0.00     0.028 H 
ENDBRANCH   8  39
BRANCH  14  43
ATOM     43  C   LIG d   1       4.765  -9.700  -4.986  0.00  0.00    -0.033 C 
ATOM     44  H   LIG d   1       5.117 -10.722  -4.845  0.00  0.00     0.028 H 
ATOM     45  H   LIG d   1       4.062  -9.447  -4.192  0.00  0.00     0.028 H 
ATOM     46  H   LIG d   1       4.266  -9.616  -5.951  0.00  0.00     0.028 H 
ENDBRANCH  14  43
BRANCH   1  47
ATOM     47  C   LIG d   1      10.841  -8.673  -3.863  0.00  0.00    -0.036 C 
ATOM     48  H   LIG d   1      11.384  -9.408  -3.268  0.00  0.00     0.028 H 
ATOM     49  H   LIG d   1      11.333  -8.553  -4.828  0.00  0.00     0.028 H 
ATOM     50  H   LIG d   1      10.831  -7.717  -3.339  0.00  0.00     0.028 H 
ENDBRANCH   1  47
BRANCH   2  51
ATOM     51  C   LIG d   1       9.784 -11.564  -3.457  0.00  0.00    -0.006 C 
ATOM     52  H   LIG d   1       9.486 -12.451  -4.016  0.00  0.00     0.031 H 
ATOM     53  H   LIG d   1       9.624 -11.735  -2.392  0.00  0.00     0.031 H 
ATOM     54  H   LIG d   1      10.838 -11.358  -3.637  0.00  0.00     0.031 H 
ENDBRANCH   2  51
TORSDOF 7
ENDMDL
MODEL 6
REMARK VINA RESULT:      -5.8     11.062     14.435
REMARK  7 active torsions:
REMARK  status: ('A' for Active; 'I' for Inactive)
REMARK    1  A    between atoms: C_1  and  C_2 
REMARK    2  A    between atoms: C_3  and  C_29 
REMARK    3  A    between atoms: C_9  and  C_28 
REMARK    4  A    between atoms: C_10  and  C_17 
REMARK    5  A    between atoms: C_15  and  C_16 
REMARK    6  A    between atoms: C_17  and  C_18 
REMARK       I    between atoms: C_18  and  N_20 
REMARK    7  A    between atoms: C_23  and  C_26 
ROOT
ATOM      1  C   LIG d   1       9.542   7.028 -12.090  0.00  0.00    -0.002 A 
ATOM      2  C   LIG d   1       9.533   5.878 -12.775  0.00  0.00     0.106 A 
ATOM      3  O   LIG d   1       9.533   4.832 -11.930  0.00  0.00    -0.459 OA
ATOM      4  C   LIG d   1       9.536   5.248 -10.647  0.00  0.00     0.142 A 
ATOM      5  C   LIG d   1       9.538   6.658 -10.667  0.00  0.00     0.024 A 
ATOM      6  C   LIG d   1       9.544   7.379  -9.482  0.00  0.00    -0.040 A 
ATOM      7  C   LIG d   1       9.546   6.695  -8.266  0.00  0.00     0.022 A 
ATOM      8  C   LIG d   1       9.550   7.425  -6.995  0.00  0.00    -0.029 A 
ATOM      9  C   LIG d   1       9.553   6.708  -5.843  0.00  0.00     0.049 A 
ATOM     10  C   LIG d   1       9.550   5.298  -5.895  0.00  0.00     0.341 A 
ATOM     11  O   LIG d   1       9.552   4.667  -4.853  0.00  0.00    -0.245 OA
ATOM     12  O   LIG d   1       9.546   4.633  -7.061  0.00  0.00    -0.422 OA
ATOM     13  C   LIG d   1       9.543   5.284  -8.245  0.00  0.00     0.146 A 
ATOM     14  C   LIG d   1       9.539   4.575  -9.433  0.00  0.00     0.035 A 
ATOM     15  H   LIG d   1       9.545   8.459  -9.500  0.00  0.00     0.063 H 
ENDROOT
BRANCH   9  16
ATOM     16  C   LIG d   1       9.558   7.415  -4.512  0.00  0.00     0.056 C 
ATOM     17  H   LIG d   1       9.249   8.451  -4.650  0.00  0.00     0.041 H 
ATOM     18  H   LIG d   1       8.866   6.916  -3.833  0.00  0.00     0.041 H 
BRANCH  16  19
ATOM     19  C   LIG d   1      10.948   7.379  -3.930  0.00  0.00     0.220 C 
ATOM     20  O   LIG d   1      11.899   7.695  -4.612  0.00  0.00    -0.275 OA
ATOM     21  N   LIG d   1      11.133   6.995  -2.652  0.00  0.00    -0.301 N 
ATOM     22  C   LIG d   1      12.481   6.956  -2.069  0.00  0.00     0.015 C 
ATOM     23  C   LIG d   1       9.989   6.615  -1.810  0.00  0.00     0.015 C 
ATOM     24  C   LIG d   1      12.486   7.779  -0.778  0.00  0.00    -0.029 C 
ATOM     25  H   LIG d   1      12.752   5.923  -1.846  0.00  0.00     0.046 H 
ATOM     26  H   LIG d   1      13.196   7.378  -2.775  0.00  0.00     0.046 H 
ATOM     27  C   LIG d   1      11.384   7.268   0.152  0.00  0.00     0.001 C 
ATOM     28  H   LIG d   1      13.454   7.680  -0.286  0.00  0.00     0.029 H 
ATOM     29  H   LIG d   1      12.305   8.828  -1.015  0.00  0.00     0.029 H 
ATOM     30  C   LIG d   1      10.022   7.438  -0.524  0.00  0.00    -0.029 C 
ATOM     31  H   LIG d   1      11.553   6.213   0.369  0.00  0.00     0.036 H 
ATOM     32  H   LIG d   1       9.237   7.095   0.149  0.00  0.00     0.029 H 
ATOM     33  H   LIG d   1       9.864   8.490  -0.763  0.00  0.00     0.029 H 
ATOM     34  H   LIG d   1       9.060   6.814  -2.345  0.00  0.00     0.046 H 
ATOM     35  H   LIG d   1      10.053   5.556  -1.565  0.00  0.00     0.046 H 
BRANCH  27  36
ATOM     36  C   LIG d   1      11.408   8.054   1.438  0.00  0.00     0.045 C 
ATOM     37  O   LIG d   1      11.418   9.262   1.408  0.00  0.00    -0.549 OA
ATOM     38  O   LIG d   1      11.418   7.412   2.618  0.00  0.00    -0.549 OA
ENDBRANCH  27  36
ENDBRANCH  16  19
ENDBRANCH   9  16
BRANCH   8  39
ATOM     39  C   LIG d   1       9.554   8.931  -6.968  0.00  0.00    -0.038 C 
ATOM     40  H   LIG d   1       8.539   9.300  -7.118  0.00  0.00     0.028 H 
ATOM     41  H   LIG d   1       9.927   9.277  -6.003  0.00  0.00     0.028 H 
ATOM     42  H   LIG d   1      10.198   9.308  -7.763  0.00  0.00     0.028 H 
ENDBRANCH   8  39
BRANCH  14  43
ATOM     43  C   LIG d   1       9.536   3.069  -9.410  0.00  0.00    -0.033 C 
ATOM     44  H   LIG d   1      10.107   2.691 -10.258  0.00  0.00     0.028 H 
ATOM     45  H   LIG d   1       9.989   2.719  -8.482  0.00  0.00     0.028 H 
ATOM     46  H   LIG d   1       8.511   2.705  -9.471  0.00  0.00     0.028 H 
ENDBRANCH  14  43
BRANCH   1  47
ATOM     47  C   LIG d   1       9.550   8.422 -12.662  0.00  0.00    -0.036 C 
ATOM     48  H   LIG d   1      10.075   8.421 -13.617  0.00  0.00     0.028 H 
ATOM     49  H   LIG d   1       8.524   8.758 -12.812  0.00  0.00     0.028 H 
ATOM     50  H   LIG d   1      10.055   9.096 -11.969  0.00  0.00     0.028 H 
ENDBRANCH   1  47
BRANCH   2  51
ATOM     51  C   LIG d   1       9.529   5.771 -14.278  0.00  0.00    -0.006 C 
ATOM     52  H   LIG d   1      10.493   6.098 -14.668  0.00  0.00     0.031 H 
ATOM     53  H   LIG d   1       8.740   6.403 -14.685  0.00  0.00     0.031 H 
ATOM     54  H   LIG d   1       9.352   4.736 -14.568  0.00  0.00     0.031 H 
ENDBRANCH   2  51
TORSDOF 7
ENDMDL
MODEL 7
REMARK VINA RESULT:      -5.6      3.032      8.924
REMARK  7 active torsions:
REMARK  status: ('A' for Active; 'I' for Inactive)
REMARK    1  A    between atoms: C_1  and  C_2 
REMARK    2  A    between atoms: C_3  and  C_29 
REMARK    3  A    between atoms: C_9  and  C_28 
REMARK    4  A    between atoms: C_10  and  C_17 
REMARK    5  A    between atoms: C_15  and  C_16 
REMARK    6  A    between atoms: C_17  and  C_18 
REMARK       I    between atoms: C_18  and  N_20 
REMARK    7  A    between atoms: C_23  and  C_26 
ROOT
ATOM      1  C   LIG d   1       8.487 -11.171  -2.750  0.00  0.00    -0.002 A 
ATOM      2  C   LIG d   1       7.639 -12.116  -2.329  0.00  0.00     0.106 A 
ATOM      3  O   LIG d   1       6.380 -11.803  -2.681  0.00  0.00    -0.459 OA
ATOM      4  C   LIG d   1       6.343 -10.636  -3.356  0.00  0.00     0.142 A 
ATOM      5  C   LIG d   1       7.670 -10.167  -3.445  0.00  0.00     0.024 A 
ATOM      6  C   LIG d   1       7.951  -8.972  -4.091  0.00  0.00    -0.040 A 
ATOM      7  C   LIG d   1       6.907  -8.237  -4.654  0.00  0.00     0.022 A 
ATOM      8  C   LIG d   1       7.168  -6.971  -5.345  0.00  0.00    -0.029 A 
ATOM      9  C   LIG d   1       6.115  -6.298  -5.874  0.00  0.00     0.049 A 
ATOM     10  C   LIG d   1       4.812  -6.826  -5.749  0.00  0.00     0.341 A 
ATOM     11  O   LIG d   1       3.876  -6.213  -6.228  0.00  0.00    -0.245 OA
ATOM     12  O   LIG d   1       4.577  -7.986  -5.116  0.00  0.00    -0.422 OA
ATOM     13  C   LIG d   1       5.580  -8.707  -4.566  0.00  0.00     0.146 A 
ATOM     14  C   LIG d   1       5.311  -9.900  -3.918  0.00  0.00     0.035 A 
ATOM     15  H   LIG d   1       8.968  -8.614  -4.159  0.00  0.00     0.063 H 
ENDROOT
BRANCH   9  16
ATOM     16  C   LIG d   1       6.334  -4.993  -6.593  0.00  0.00     0.056 C 
ATOM     17  H   LIG d   1       7.384  -4.905  -6.873  0.00  0.00     0.041 H 
ATOM     18  H   LIG d   1       5.715  -4.962  -7.489  0.00  0.00     0.041 H 
BRANCH  16  19
ATOM     19  C   LIG d   1       5.961  -3.850  -5.684  0.00  0.00     0.220 C 
ATOM     20  O   LIG d   1       6.525  -3.711  -4.621  0.00  0.00    -0.275 OA
ATOM     21  N   LIG d   1       4.997  -2.983  -6.054  0.00  0.00    -0.301 N 
ATOM     22  C   LIG d   1       4.621  -1.864  -5.179  0.00  0.00     0.015 C 
ATOM     23  C   LIG d   1       4.307  -3.134  -7.343  0.00  0.00     0.015 C 
ATOM     24  C   LIG d   1       4.714  -0.560  -5.977  0.00  0.00    -0.029 C 
ATOM     25  H   LIG d   1       3.599  -2.004  -4.826  0.00  0.00     0.046 H 
ATOM     26  H   LIG d   1       5.301  -1.821  -4.328  0.00  0.00     0.046 H 
ATOM     27  C   LIG d   1       3.865  -0.681  -7.245  0.00  0.00     0.001 C 
ATOM     28  H   LIG d   1       4.347   0.266  -5.369  0.00  0.00     0.029 H 
ATOM     29  H   LIG d   1       5.754  -0.375  -6.252  0.00  0.00     0.029 H 
ATOM     30  C   LIG d   1       4.401  -1.819  -8.115  0.00  0.00    -0.029 C 
ATOM     31  H   LIG d   1       2.831  -0.889  -6.970  0.00  0.00     0.036 H 
ATOM     32  H   LIG d   1       3.810  -1.889  -9.027  0.00  0.00     0.029 H 
ATOM     33  H   LIG d   1       5.443  -1.623  -8.369  0.00  0.00     0.029 H 
ATOM     34  H   LIG d   1       4.781  -3.929  -7.920  0.00  0.00     0.046 H 
ATOM     35  H   LIG d   1       3.260  -3.380  -7.170  0.00  0.00     0.046 H 
BRANCH  27  36
ATOM     36  C   LIG d   1       3.927   0.613  -8.016  0.00  0.00     0.045 C 
ATOM     37  O   LIG d   1       4.728   0.744  -8.911  0.00  0.00    -0.549 OA
ATOM     38  O   LIG d   1       3.093   1.619  -7.708  0.00  0.00    -0.549 OA
ENDBRANCH  27  36
ENDBRANCH  16  19
ENDBRANCH   9  16
BRANCH   8  39
ATOM     39  C   LIG d   1       8.569  -6.429  -5.465  0.00  0.00    -0.038 C 
ATOM     40  H   LIG d   1       9.280  -7.255  -5.456  0.00  0.00     0.028 H 
ATOM     41  H   LIG d   1       8.667  -5.876  -6.399  0.00  0.00     0.028 H 
ATOM     42  H   LIG d   1       8.775  -5.764  -4.625  0.00  0.00     0.028 H 
ENDBRANCH   8  39
BRANCH  14  43
ATOM     43  C   LIG d   1       3.893 -10.401  -3.824  0.00  0.00    -0.033 C 
ATOM     44  H   LIG d   1       3.887 -11.396  -3.380  0.00  0.00     0.028 H 
ATOM     45  H   LIG d   1       3.308  -9.723  -3.202  0.00  0.00     0.028 H 
ATOM     46  H   LIG d   1       3.455 -10.446  -4.821  0.00  0.00     0.028 H 
ENDBRANCH  14  43
BRANCH   1  47
ATOM     47  C   LIG d   1       9.982 -11.143  -2.555  0.00  0.00    -0.036 C 
ATOM     48  H   LIG d   1      10.463 -10.813  -3.476  0.00  0.00     0.028 H 
ATOM     49  H   LIG d   1      10.230 -10.453  -1.748  0.00  0.00     0.028 H 
ATOM     50  H   LIG d   1      10.333 -12.143  -2.299  0.00  0.00     0.028 H 
ENDBRANCH   1  47
BRANCH   2  51
ATOM     51  C   LIG d   1       8.038 -13.353  -1.565  0.00  0.00    -0.006 C 
ATOM     52  H   LIG d   1       7.755 -13.240  -0.519  0.00  0.00     0.031 H 
ATOM     53  H   LIG d   1       9.117 -13.492  -1.636  0.00  0.00     0.031 H 
ATOM     54  H   LIG d   1       7.531 -14.220  -1.987  0.00  0.00     0.031 H 
ENDBRANCH   2  51
TORSDOF 7
ENDMDL
MODEL 8
REMARK VINA RESULT:      -5.6     11.309     14.515
REMARK  7 active torsions:
REMARK  status: ('A' for Active; 'I' for Inactive)
REMARK    1  A    between atoms: C_1  and  C_2 
REMARK    2  A    between atoms: C_3  and  C_29 
REMARK    3  A    between atoms: C_9  and  C_28 
REMARK    4  A    between atoms: C_10  and  C_17 
REMARK    5  A    between atoms: C_15  and  C_16 
REMARK    6  A    between atoms: C_17  and  C_18 
REMARK       I    between atoms: C_18  and  N_20 
REMARK    7  A    between atoms: C_23  and  C_26 
ROOT
ATOM      1  C   LIG d   1       9.919   6.569 -10.986  0.00  0.00    -0.002 A 
ATOM      2  C   LIG d   1       9.983   7.787 -11.535  0.00  0.00     0.106 A 
ATOM      3  O   LIG d   1      10.019   8.730 -10.576  0.00  0.00    -0.459 OA
ATOM      4  C   LIG d   1       9.985   8.171  -9.349  0.00  0.00     0.142 A 
ATOM      5  C   LIG d   1       9.924   6.774  -9.530  0.00  0.00     0.024 A 
ATOM      6  C   LIG d   1       9.876   5.924  -8.435  0.00  0.00    -0.040 A 
ATOM      7  C   LIG d   1       9.890   6.465  -7.149  0.00  0.00     0.022 A 
ATOM      8  C   LIG d   1       9.843   5.596  -5.970  0.00  0.00    -0.029 A 
ATOM      9  C   LIG d   1       9.858   6.177  -4.743  0.00  0.00     0.049 A 
ATOM     10  C   LIG d   1       9.921   7.582  -4.634  0.00  0.00     0.341 A 
ATOM     11  O   LIG d   1       9.935   8.090  -3.527  0.00  0.00    -0.245 OA
ATOM     12  O   LIG d   1       9.965   8.374  -5.716  0.00  0.00    -0.422 OA
ATOM     13  C   LIG d   1       9.953   7.862  -6.968  0.00  0.00     0.146 A 
ATOM     14  C   LIG d   1       9.998   8.701  -8.067  0.00  0.00     0.035 A 
ATOM     15  H   LIG d   1       9.829   4.854  -8.576  0.00  0.00     0.063 H 
ENDROOT
BRANCH   9  16
ATOM     16  C   LIG d   1       9.811   5.324  -3.501  0.00  0.00     0.056 C 
ATOM     17  H   LIG d   1       9.094   5.748  -2.797  0.00  0.00     0.041 H 
ATOM     18  H   LIG d   1       9.505   4.312  -3.767  0.00  0.00     0.041 H 
BRANCH  16  19
ATOM     19  C   LIG d   1      11.176   5.287  -2.866  0.00  0.00     0.220 C 
ATOM     20  O   LIG d   1      12.131   4.897  -3.502  0.00  0.00    -0.275 OA
ATOM     21  N   LIG d   1      11.335   5.685  -1.588  0.00  0.00    -0.301 N 
ATOM     22  C   LIG d   1      12.660   5.655  -0.954  0.00  0.00     0.015 C 
ATOM     23  C   LIG d   1      10.188   6.166  -0.805  0.00  0.00     0.015 C 
ATOM     24  C   LIG d   1      12.965   7.041  -0.379  0.00  0.00    -0.029 C 
ATOM     25  H   LIG d   1      12.663   4.917  -0.151  0.00  0.00     0.046 H 
ATOM     26  H   LIG d   1      13.414   5.392  -1.695  0.00  0.00     0.046 H 
ATOM     27  C   LIG d   1      11.829   7.462   0.557  0.00  0.00     0.001 C 
ATOM     28  H   LIG d   1      13.902   7.007   0.177  0.00  0.00     0.029 H 
ATOM     29  H   LIG d   1      13.052   7.761  -1.193  0.00  0.00     0.029 H 
ATOM     30  C   LIG d   1      10.520   7.542  -0.230  0.00  0.00    -0.029 C 
ATOM     31  H   LIG d   1      11.728   6.729   1.356  0.00  0.00     0.036 H 
ATOM     32  H   LIG d   1       9.717   7.864   0.431  0.00  0.00     0.029 H 
ATOM     33  H   LIG d   1      10.630   8.258  -1.046  0.00  0.00     0.029 H 
ATOM     34  H   LIG d   1       9.312   6.242  -1.449  0.00  0.00     0.046 H 
ATOM     35  H   LIG d   1       9.986   5.472   0.010  0.00  0.00     0.046 H 
BRANCH  27  36
ATOM     36  C   LIG d   1      12.142   8.811   1.150  0.00  0.00     0.045 C 
ATOM     37  O   LIG d   1      13.261   9.057   1.537  0.00  0.00    -0.549 OA
ATOM     38  O   LIG d   1      11.179   9.741   1.249  0.00  0.00    -0.549 OA
ENDBRANCH  27  36
ENDBRANCH  16  19
ENDBRANCH   9  16
BRANCH   8  39
ATOM     39  C   LIG d   1       9.776   4.098  -6.114  0.00  0.00    -0.038 C 
ATOM     40  H   LIG d   1      10.660   3.649  -5.663  0.00  0.00     0.028 H 
ATOM     41  H   LIG d   1       8.883   3.723  -5.613  0.00  0.00     0.028 H 
ATOM     42  H   LIG d   1       9.736   3.836  -7.172  0.00  0.00     0.028 H 
ENDBRANCH   8  39
BRANCH  14  43
ATOM     43  C   LIG d   1      10.064  10.194  -7.872  0.00  0.00    -0.033 C 
ATOM     44  H   LIG d   1       9.305  10.675  -8.488  0.00  0.00     0.028 H 
ATOM     45  H   LIG d   1       9.885  10.432  -6.823  0.00  0.00     0.028 H 
ATOM     46  H   LIG d   1      11.050  10.556  -8.162  0.00  0.00     0.028 H 
ENDBRANCH  14  43
BRANCH   1  47
ATOM     47  C   LIG d   1       9.858   5.250 -11.713  0.00  0.00    -0.036 C 
ATOM     48  H   LIG d   1       9.324   5.378 -12.654  0.00  0.00     0.028 H 
ATOM     49  H   LIG d   1      10.871   4.901 -11.915  0.00  0.00     0.028 H 
ATOM     50  H   LIG d   1       9.338   4.518 -11.095  0.00  0.00     0.028 H 
ENDBRANCH   1  47
BRANCH   2  51
ATOM     51  C   LIG d   1      10.006   8.064 -13.016  0.00  0.00    -0.006 C 
ATOM     52  H   LIG d   1       9.115   8.627 -13.294  0.00  0.00     0.031 H 
ATOM     53  H   LIG d   1      10.026   7.121 -13.562  0.00  0.00     0.031 H 
ATOM     54  H   LIG d   1      10.895   8.645 -13.263  0.00  0.00     0.031 H 
ENDBRANCH   2  51
TORSDOF 7
ENDMDL
MODEL 9
REMARK VINA RESULT:      -5.5      5.064      7.591
REMARK  7 active torsions:
REMARK  status: ('A' for Active; 'I' for Inactive)
REMARK    1  A    between atoms: C_1  and  C_2 
REMARK    2  A    between atoms: C_3  and  C_29 
REMARK    3  A    between atoms: C_9  and  C_28 
REMARK    4  A    between atoms: C_10  and  C_17 
REMARK    5  A    between atoms: C_15  and  C_16 
REMARK    6  A    between atoms: C_17  and  C_18 
REMARK       I    between atoms: C_18  and  N_20 
REMARK    7  A    between atoms: C_23  and  C_26 
ROOT
ATOM      1  C   LIG d   1      10.020   6.467  -3.061  0.00  0.00    -0.002 A 
ATOM      2  C   LIG d   1      10.358   7.577  -3.727  0.00  0.00     0.106 A 
ATOM      3  O   LIG d   1      10.345   7.348  -5.052  0.00  0.00    -0.459 OA
ATOM      4  C   LIG d   1       9.990   6.074  -5.318  0.00  0.00     0.142 A 
ATOM      5  C   LIG d   1       9.760   5.440  -4.080  0.00  0.00     0.024 A 
ATOM      6  C   LIG d   1       9.377   4.108  -4.032  0.00  0.00    -0.040 A 
ATOM      7  C   LIG d   1       9.222   3.398  -5.223  0.00  0.00     0.022 A 
ATOM      8  C   LIG d   1       8.818   1.989  -5.209  0.00  0.00    -0.029 A 
ATOM      9  C   LIG d   1       8.683   1.348  -6.398  0.00  0.00     0.049 A 
ATOM     10  C   LIG d   1       8.929   2.043  -7.601  0.00  0.00     0.341 A 
ATOM     11  O   LIG d   1       8.803   1.456  -8.661  0.00  0.00    -0.245 OA
ATOM     12  O   LIG d   1       9.297   3.334  -7.609  0.00  0.00    -0.422 OA
ATOM     13  C   LIG d   1       9.451   4.032  -6.462  0.00  0.00     0.146 A 
ATOM     14  C   LIG d   1       9.833   5.361  -6.498  0.00  0.00     0.035 A 
ATOM     15  H   LIG d   1       9.201   3.624  -3.082  0.00  0.00     0.063 H 
ENDROOT
BRANCH   9  16
ATOM     16  C   LIG d   1       8.270  -0.101  -6.434  0.00  0.00     0.056 C 
ATOM     17  H   LIG d   1       8.580  -0.543  -7.381  0.00  0.00     0.041 H 
ATOM     18  H   LIG d   1       8.744  -0.634  -5.610  0.00  0.00     0.041 H 
BRANCH  16  19
ATOM     19  C   LIG d   1       6.772  -0.199  -6.302  0.00  0.00     0.220 C 
ATOM     20  O   LIG d   1       6.061   0.636  -6.817  0.00  0.00    -0.275 OA
ATOM     21  N   LIG d   1       6.223  -1.216  -5.608  0.00  0.00    -0.301 N 
ATOM     22  C   LIG d   1       4.764  -1.326  -5.470  0.00  0.00     0.015 C 
ATOM     23  C   LIG d   1       7.071  -2.240  -4.982  0.00  0.00     0.015 C 
ATOM     24  C   LIG d   1       4.328  -2.720  -5.933  0.00  0.00    -0.029 C 
ATOM     25  H   LIG d   1       4.485  -1.184  -4.426  0.00  0.00     0.046 H 
ATOM     26  H   LIG d   1       4.281  -0.569  -6.086  0.00  0.00     0.046 H 
ATOM     27  C   LIG d   1       5.115  -3.779  -5.159  0.00  0.00     0.001 C 
ATOM     28  H   LIG d   1       3.262  -2.849  -5.746  0.00  0.00     0.029 H 
ATOM     29  H   LIG d   1       4.525  -2.827  -7.000  0.00  0.00     0.029 H 
ATOM     30  C   LIG d   1       6.609  -3.621  -5.447  0.00  0.00    -0.029 C 
ATOM     31  H   LIG d   1       4.936  -3.656  -4.091  0.00  0.00     0.036 H 
ATOM     32  H   LIG d   1       7.166  -4.390  -4.914  0.00  0.00     0.029 H 
ATOM     33  H   LIG d   1       6.785  -3.719  -6.518  0.00  0.00     0.029 H 
ATOM     34  H   LIG d   1       8.109  -2.086  -5.277  0.00  0.00     0.046 H 
ATOM     35  H   LIG d   1       6.983  -2.174  -3.899  0.00  0.00     0.046 H 
BRANCH  27  36
ATOM     36  C   LIG d   1       4.664  -5.152  -5.588  0.00  0.00     0.045 C 
ATOM     37  O   LIG d   1       3.555  -5.310  -6.042  0.00  0.00    -0.549 OA
ATOM     38  O   LIG d   1       5.494  -6.200  -5.466  0.00  0.00    -0.549 OA
ENDBRANCH  27  36
ENDBRANCH  16  19
ENDBRANCH   9  16
BRANCH   8  39
ATOM     39  C   LIG d   1       8.562   1.270  -3.910  0.00  0.00    -0.038 C 
ATOM     40  H   LIG d   1       8.573   1.986  -3.090  0.00  0.00     0.028 H 
ATOM     41  H   LIG d   1       7.588   0.780  -3.951  0.00  0.00     0.028 H 
ATOM     42  H   LIG d   1       9.339   0.521  -3.750  0.00  0.00     0.028 H 
ENDBRANCH   8  39
BRANCH  14  43
ATOM     43  C   LIG d   1      10.079   6.038  -7.822  0.00  0.00    -0.033 C 
ATOM     44  H   LIG d   1      11.132   6.307  -7.903  0.00  0.00     0.028 H 
ATOM     45  H   LIG d   1       9.815   5.358  -8.632  0.00  0.00     0.028 H 
ATOM     46  H   LIG d   1       9.467   6.937  -7.891  0.00  0.00     0.028 H 
ENDBRANCH  14  43
BRANCH   1  47
ATOM     47  C   LIG d   1       9.921   6.303  -1.566  0.00  0.00    -0.036 C 
ATOM     48  H   LIG d   1       9.204   5.516  -1.333  0.00  0.00     0.028 H 
ATOM     49  H   LIG d   1      10.898   6.035  -1.165  0.00  0.00     0.028 H 
ATOM     50  H   LIG d   1       9.590   7.241  -1.119  0.00  0.00     0.028 H 
ENDBRANCH   1  47
BRANCH   2  51
ATOM     51  C   LIG d   1      10.710   8.894  -3.085  0.00  0.00    -0.006 C 
ATOM     52  H   LIG d   1      11.770   8.903  -2.832  0.00  0.00     0.031 H 
ATOM     53  H   LIG d   1      10.119   9.025  -2.178  0.00  0.00     0.031 H 
ATOM     54  H   LIG d   1      10.495   9.706  -3.779  0.00  0.00     0.031 H 
ENDBRANCH   2  51
TORSDOF 7
ENDMDL
MODEL 10
REMARK VINA RESULT:      -5.5     10.902     13.321
REMARK  7 active torsions:
REMARK  status: ('A' for Active; 'I' for Inactive)
REMARK    1  A    between atoms: C_1  and  C_2 
REMARK    2  A    between atoms: C_3  and  C_29 
REMARK    3  A    between atoms: C_9  and  C_28 
REMARK    4  A    between atoms: C_10  and  C_17 
REMARK    5  A    between atoms: C_15  and  C_16 
REMARK    6  A    between atoms: C_17  and  C_18 
REMARK       I    between atoms: C_18  and  N_20 
REMARK    7  A    between atoms: C_23  and  C_26 
ROOT
ATOM      1  C   LIG d   1      10.750  10.418  -0.598  0.00  0.00    -0.002 A 
ATOM      2  C   LIG d   1      11.113  10.278   0.682  0.00  0.00     0.106 A 
ATOM      3  O   LIG d   1      11.181   8.975   1.008  0.00  0.00    -0.459 OA
ATOM      4  C   LIG d   1      10.872   8.197  -0.049  0.00  0.00     0.142 A 
ATOM      5  C   LIG d   1      10.584   9.057  -1.128  0.00  0.00     0.024 A 
ATOM      6  C   LIG d   1      10.228   8.540  -2.365  0.00  0.00    -0.040 A 
ATOM      7  C   LIG d   1      10.155   7.156  -2.532  0.00  0.00     0.022 A 
ATOM      8  C   LIG d   1       9.783   6.575  -3.824  0.00  0.00    -0.029 A 
ATOM      9  C   LIG d   1       9.728   5.223  -3.929  0.00  0.00     0.049 A 
ATOM     10  C   LIG d   1      10.029   4.420  -2.808  0.00  0.00     0.341 A 
ATOM     11  O   LIG d   1       9.977   3.208  -2.916  0.00  0.00    -0.245 OA
ATOM     12  O   LIG d   1      10.370   4.957  -1.626  0.00  0.00    -0.422 OA
ATOM     13  C   LIG d   1      10.444   6.295  -1.452  0.00  0.00     0.146 A 
ATOM     14  C   LIG d   1      10.798   6.822  -0.222  0.00  0.00     0.035 A 
ATOM     15  H   LIG d   1      10.008   9.200  -3.191  0.00  0.00     0.063 H 
ENDROOT
BRANCH   9  16
ATOM     16  C   LIG d   1       9.349   4.580  -5.238  0.00  0.00     0.056 C 
ATOM     17  H   LIG d   1       8.860   3.625  -5.045  0.00  0.00     0.041 H 
ATOM     18  H   LIG d   1       8.668   5.235  -5.781  0.00  0.00     0.041 H 
BRANCH  16  19
ATOM     19  C   LIG d   1      10.590   4.350  -6.062  0.00  0.00     0.220 C 
ATOM     20  O   LIG d   1      11.477   3.641  -5.638  0.00  0.00    -0.275 OA
ATOM     21  N   LIG d   1      10.714   4.935  -7.270  0.00  0.00    -0.301 N 
ATOM     22  C   LIG d   1      11.917   4.721  -8.086  0.00  0.00     0.015 C 
ATOM     23  C   LIG d   1       9.645   5.793  -7.800  0.00  0.00     0.015 C 
ATOM     24  C   LIG d   1      11.493   4.229  -9.473  0.00  0.00    -0.029 C 
ATOM     25  H   LIG d   1      12.464   5.659  -8.182  0.00  0.00     0.046 H 
ATOM     26  H   LIG d   1      12.551   3.973  -7.611  0.00  0.00     0.046 H 
ATOM     27  C   LIG d   1      10.492   5.218 -10.075  0.00  0.00     0.001 C 
ATOM     28  H   LIG d   1      12.368   4.158 -10.118  0.00  0.00     0.029 H 
ATOM     29  H   LIG d   1      11.026   3.247  -9.384  0.00  0.00     0.029 H 
ATOM     30  C   LIG d   1       9.248   5.293  -9.188  0.00  0.00    -0.029 C 
ATOM     31  H   LIG d   1      10.951   6.204 -10.142  0.00  0.00     0.036 H 
ATOM     32  H   LIG d   1       8.526   5.979  -9.630  0.00  0.00     0.029 H 
ATOM     33  H   LIG d   1       8.802   4.302  -9.102  0.00  0.00     0.029 H 
ATOM     34  H   LIG d   1       8.780   5.751  -7.138  0.00  0.00     0.046 H 
ATOM     35  H   LIG d   1      10.003   6.819  -7.873  0.00  0.00     0.046 H 
BRANCH  27  36
ATOM     36  C   LIG d   1      10.098   4.755 -11.455  0.00  0.00     0.045 C 
ATOM     37  O   LIG d   1      10.718   3.869 -11.995  0.00  0.00    -0.549 OA
ATOM     38  O   LIG d   1       9.058   5.325 -12.083  0.00  0.00    -0.549 OA
ENDBRANCH  27  36
ENDBRANCH  16  19
ENDBRANCH   9  16
BRANCH   8  39
ATOM     39  C   LIG d   1       9.466   7.455  -5.006  0.00  0.00    -0.038 C 
ATOM     40  H   LIG d   1       9.064   8.404  -4.655  0.00  0.00     0.028 H 
ATOM     41  H   LIG d   1      10.376   7.636  -5.579  0.00  0.00     0.028 H 
ATOM     42  H   LIG d   1       8.730   6.960  -5.641  0.00  0.00     0.028 H 
ENDBRANCH   8  39
BRANCH  14  43
ATOM     43  C   LIG d   1      11.105   5.902   0.930  0.00  0.00    -0.033 C 
ATOM     44  H   LIG d   1      12.176   5.916   1.132  0.00  0.00     0.028 H 
ATOM     45  H   LIG d   1      10.565   6.236   1.817  0.00  0.00     0.028 H 
ATOM     46  H   LIG d   1      10.795   4.888   0.680  0.00  0.00     0.028 H 
ENDBRANCH  14  43
BRANCH   1  47
ATOM     47  C   LIG d   1      10.556  11.710  -1.348  0.00  0.00    -0.036 C 
ATOM     48  H   LIG d   1       9.752  12.283  -0.885  0.00  0.00     0.028 H 
ATOM     49  H   LIG d   1      11.479  12.290  -1.318  0.00  0.00     0.028 H 
ATOM     50  H   LIG d   1      10.298  11.493  -2.385  0.00  0.00     0.028 H 
ENDBRANCH   1  47
BRANCH   2  51
ATOM     51  C   LIG d   1      11.398  11.418   1.626  0.00  0.00    -0.006 C 
ATOM     52  H   LIG d   1      11.519  12.340   1.057  0.00  0.00     0.031 H 
ATOM     53  H   LIG d   1      12.313  11.211   2.181  0.00  0.00     0.031 H 
ATOM     54  H   LIG d   1      10.567  11.528   2.323  0.00  0.00     0.031 H 
ENDBRANCH   2  51
TORSDOF 7
ENDMDL
