MODEL 1
REMARK VINA RESULT:      -7.9      0.000      0.000
REMARK  6 active torsions:
REMARK  status: ('A' for Active; 'I' for Inactive)
REMARK    1  A    between atoms: C_1  and  O_2 
REMARK    2  A    between atoms: O_2  and  C_3 
REMARK    3  A    between atoms: C_5  and  C_30 
REMARK    4  A    between atoms: C_6  and  N_11 
REMARK    5  A    between atoms: C_8  and  O_9 
REMARK    6  A    between atoms: O_9  and  C_10 
REMARK       I    between atoms: N_11  and  C_12 
REMARK       I    between atoms: C_12  and  N_14 
ROOT
ATOM      1  N   LIG d   1       4.104  -1.323  -6.422  0.00  0.00    -0.269 N 
ATOM      2  C   LIG d   1       3.625  -0.378  -5.588  0.00  0.00     0.306 C 
ATOM      3  O   LIG d   1       3.243   0.688  -6.032  0.00  0.00    -0.252 OA
ATOM      4  N   LIG d   1       3.570  -0.614  -4.263  0.00  0.00    -0.284 N 
ATOM      5  C   LIG d   1       3.156   0.440  -3.329  0.00  0.00     0.021 C 
ATOM      6  C   LIG d   1       4.164   0.565  -2.194  0.00  0.00    -0.006 C 
ATOM      7  H   LIG d   1       3.724   1.191  -1.418  0.00  0.00     0.033 H 
ATOM      8  C   LIG d   1       4.461  -0.799  -1.571  0.00  0.00    -0.037 C 
ATOM      9  C   LIG d   1       5.019  -1.717  -2.661  0.00  0.00     0.016 C 
ATOM     10  H   LIG d   1       5.329  -2.673  -2.239  0.00  0.00     0.038 H 
ATOM     11  C   LIG d   1       3.918  -1.937  -3.719  0.00  0.00     0.024 C 
ATOM     12  C   LIG d   1       6.189  -1.046  -3.343  0.00  0.00     0.027 A 
ATOM     13  C   LIG d   1       7.109  -1.850  -3.940  0.00  0.00    -0.042 A 
ATOM     14  C   LIG d   1       8.144  -1.299  -4.703  0.00  0.00    -0.055 A 
ATOM     15  C   LIG d   1       8.207   0.055  -4.849  0.00  0.00     0.003 A 
ATOM     16  C   LIG d   1       7.252   0.855  -4.208  0.00  0.00     0.252 A 
ATOM     17  O   LIG d   1       7.273   2.065  -4.368  0.00  0.00    -0.268 OA
ATOM     18  N   LIG d   1       6.304   0.301  -3.412  0.00  0.00    -0.312 N 
ATOM     19  C   LIG d   1       5.456   1.217  -2.650  0.00  0.00     0.031 C 
ATOM     20  H   LIG d   1       4.335  -2.200  -6.078  0.00  0.00     0.156 HD
ATOM     21  H   LIG d   1       3.092   1.389  -3.861  0.00  0.00     0.047 H 
ATOM     22  H   LIG d   1       2.178   0.193  -2.915  0.00  0.00     0.047 H 
ATOM     23  H   LIG d   1       5.195  -0.686  -0.774  0.00  0.00     0.028 H 
ATOM     24  H   LIG d   1       3.542  -1.225  -1.167  0.00  0.00     0.028 H 
ATOM     25  H   LIG d   1       3.041  -2.390  -3.257  0.00  0.00     0.047 H 
ATOM     26  H   LIG d   1       4.291  -2.579  -4.517  0.00  0.00     0.047 H 
ATOM     27  H   LIG d   1       7.038  -2.921  -3.825  0.00  0.00     0.064 H 
ATOM     28  H   LIG d   1       8.881  -1.937  -5.169  0.00  0.00     0.062 H 
ATOM     29  H   LIG d   1       8.984   0.505  -5.449  0.00  0.00     0.067 H 
ATOM     30  H   LIG d   1       5.217   2.078  -3.275  0.00  0.00     0.050 H 
ATOM     31  H   LIG d   1       6.007   1.559  -1.774  0.00  0.00     0.050 H 
ENDROOT
BRANCH   1  32
ATOM     32  C   LIG d   1       4.273  -1.037  -7.776  0.00  0.00     0.047 A 
ATOM     33  C   LIG d   1       4.140  -2.057  -8.732  0.00  0.00     0.022 A 
ATOM     34  C   LIG d   1       4.307  -1.760 -10.089  0.00  0.00    -0.006 A 
ATOM     35  C   LIG d   1       4.608  -0.473 -10.481  0.00  0.00     0.162 A 
ATOM     36  H   LIG d   1       4.203  -2.541 -10.830  0.00  0.00     0.066 H 
ATOM     37  C   LIG d   1       4.744   0.536  -9.527  0.00  0.00     0.163 A 
ATOM     38  C   LIG d   1       4.576   0.253  -8.182  0.00  0.00     0.006 A 
ATOM     39  H   LIG d   1       4.682   1.038  -7.447  0.00  0.00     0.067 H 
BRANCH  33  40
ATOM     40  C   LIG d   1       3.824  -3.430  -8.309  0.00  0.00     0.074 C 
ATOM     41  O   LIG d   1       2.991  -4.075  -8.913  0.00  0.00    -0.545 OA
ATOM     42  O   LIG d   1       4.460  -3.972  -7.251  0.00  0.00    -0.545 OA
ENDBRANCH  33  40
BRANCH  35  43
ATOM     43  O   LIG d   1       4.775  -0.186 -11.801  0.00  0.00    -0.491 OA
BRANCH  43  44
ATOM     44  C   LIG d   1       3.816  -0.732 -12.709  0.00  0.00     0.079 C 
ATOM     45  H   LIG d   1       3.871  -1.820 -12.684  0.00  0.00     0.066 H 
ATOM     46  H   LIG d   1       2.816  -0.413 -12.416  0.00  0.00     0.066 H 
ATOM     47  H   LIG d   1       4.028  -0.380 -13.719  0.00  0.00     0.066 H 
ENDBRANCH  43  44
ENDBRANCH  35  43
BRANCH  37  48
ATOM     48  O   LIG d   1       5.040   1.803  -9.919  0.00  0.00    -0.491 OA
BRANCH  48  49
ATOM     49  C   LIG d   1       4.273   2.858  -9.339  0.00  0.00     0.079 C 
ATOM     50  H   LIG d   1       3.663   2.460  -8.528  0.00  0.00     0.066 H 
ATOM     51  H   LIG d   1       4.944   3.623  -8.948  0.00  0.00     0.066 H 
ATOM     52  H   LIG d   1       3.626   3.298 -10.100  0.00  0.00     0.066 H 
ENDBRANCH  48  49
ENDBRANCH  37  48
ENDBRANCH   1  32
TORSDOF 6
ENDMDL
MODEL 2
REMARK VINA RESULT:      -7.0      2.363      6.692
REMARK  6 active torsions:
REMARK  status: ('A' for Active; 'I' for Inactive)
REMARK    1  A    between atoms: C_1  and  O_2 
REMARK    2  A    between atoms: O_2  and  C_3 
REMARK    3  A    between atoms: C_5  and  C_30 
REMARK    4  A    between atoms: C_6  and  N_11 
REMARK    5  A    between atoms: C_8  and  O_9 
REMARK    6  A    between atoms: O_9  and  C_10 
REMARK       I    between atoms: N_11  and  C_12 
REMARK       I    between atoms: C_12  and  N_14 
ROOT
ATOM      1  N   LIG d   1       3.872  -2.509  -7.766  0.00  0.00    -0.269 N 
ATOM      2  C   LIG d   1       4.317  -2.722  -9.020  0.00  0.00     0.306 C 
ATOM      3  O   LIG d   1       5.472  -3.054  -9.207  0.00  0.00    -0.252 OA
ATOM      4  N   LIG d   1       3.482  -2.567 -10.067  0.00  0.00    -0.284 N 
ATOM      5  C   LIG d   1       3.976  -2.686 -11.444  0.00  0.00     0.021 C 
ATOM      6  C   LIG d   1       3.532  -1.485 -12.269  0.00  0.00    -0.006 C 
ATOM      7  H   LIG d   1       3.724  -1.706 -13.319  0.00  0.00     0.033 H 
ATOM      8  C   LIG d   1       2.031  -1.239 -12.117  0.00  0.00    -0.037 C 
ATOM      9  C   LIG d   1       1.729  -0.992 -10.636  0.00  0.00     0.016 C 
ATOM     10  H   LIG d   1       0.682  -0.722 -10.496  0.00  0.00     0.038 H 
ATOM     11  C   LIG d   1       2.054  -2.281  -9.854  0.00  0.00     0.024 C 
ATOM     12  C   LIG d   1       2.624   0.107 -10.111  0.00  0.00     0.027 A 
ATOM     13  C   LIG d   1       2.184   0.809  -9.032  0.00  0.00    -0.042 A 
ATOM     14  C   LIG d   1       3.013   1.748  -8.409  0.00  0.00    -0.055 A 
ATOM     15  C   LIG d   1       4.274   1.938  -8.893  0.00  0.00     0.003 A 
ATOM     16  C   LIG d   1       4.690   1.208 -10.015  0.00  0.00     0.252 A 
ATOM     17  O   LIG d   1       5.832   1.338 -10.429  0.00  0.00    -0.268 OA
ATOM     18  N   LIG d   1       3.841   0.361 -10.646  0.00  0.00    -0.312 N 
ATOM     19  C   LIG d   1       4.301  -0.229 -11.903  0.00  0.00     0.031 C 
ATOM     20  H   LIG d   1       2.933  -2.323  -7.610  0.00  0.00     0.156 HD
ATOM     21  H   LIG d   1       5.065  -2.735 -11.434  0.00  0.00     0.047 H 
ATOM     22  H   LIG d   1       3.578  -3.596 -11.893  0.00  0.00     0.047 H 
ATOM     23  H   LIG d   1       1.741  -0.367 -12.702  0.00  0.00     0.028 H 
ATOM     24  H   LIG d   1       1.479  -2.114 -12.462  0.00  0.00     0.028 H 
ATOM     25  H   LIG d   1       1.451  -3.107 -10.229  0.00  0.00     0.047 H 
ATOM     26  H   LIG d   1       1.860  -2.131  -8.792  0.00  0.00     0.047 H 
ATOM     27  H   LIG d   1       1.186   0.638  -8.654  0.00  0.00     0.064 H 
ATOM     28  H   LIG d   1       2.660   2.312  -7.559  0.00  0.00     0.062 H 
ATOM     29  H   LIG d   1       4.941   2.641  -8.418  0.00  0.00     0.067 H 
ATOM     30  H   LIG d   1       5.359  -0.476 -11.810  0.00  0.00     0.050 H 
ATOM     31  H   LIG d   1       4.179   0.504 -12.700  0.00  0.00     0.050 H 
ENDROOT
BRANCH   1  32
ATOM     32  C   LIG d   1       4.761  -2.553  -6.693  0.00  0.00     0.047 A 
ATOM     33  C   LIG d   1       5.040  -3.775  -6.059  0.00  0.00     0.022 A 
ATOM     34  C   LIG d   1       5.938  -3.810  -4.986  0.00  0.00    -0.006 A 
ATOM     35  C   LIG d   1       6.537  -2.647  -4.551  0.00  0.00     0.162 A 
ATOM     36  H   LIG d   1       6.158  -4.748  -4.496  0.00  0.00     0.066 H 
ATOM     37  C   LIG d   1       6.253  -1.434  -5.181  0.00  0.00     0.163 A 
ATOM     38  C   LIG d   1       5.369  -1.390  -6.247  0.00  0.00     0.006 A 
ATOM     39  H   LIG d   1       5.153  -0.449  -6.731  0.00  0.00     0.067 H 
BRANCH  33  40
ATOM     40  C   LIG d   1       4.394  -5.012  -6.523  0.00  0.00     0.074 C 
ATOM     41  O   LIG d   1       3.269  -5.286  -6.153  0.00  0.00    -0.545 OA
ATOM     42  O   LIG d   1       5.049  -5.842  -7.359  0.00  0.00    -0.545 OA
ENDBRANCH  33  40
BRANCH  35  43
ATOM     43  O   LIG d   1       7.406  -2.680  -3.504  0.00  0.00    -0.491 OA
BRANCH  43  44
ATOM     44  C   LIG d   1       8.607  -3.435  -3.683  0.00  0.00     0.079 C 
ATOM     45  H   LIG d   1       8.524  -4.037  -4.588  0.00  0.00     0.066 H 
ATOM     46  H   LIG d   1       9.453  -2.755  -3.777  0.00  0.00     0.066 H 
ATOM     47  H   LIG d   1       8.758  -4.088  -2.824  0.00  0.00     0.066 H 
ENDBRANCH  43  44
ENDBRANCH  35  43
BRANCH  37  48
ATOM     48  O   LIG d   1       6.847  -0.291  -4.748  0.00  0.00    -0.491 OA
BRANCH  48  49
ATOM     49  C   LIG d   1       6.167   0.450  -3.735  0.00  0.00     0.079 C 
ATOM     50  H   LIG d   1       5.411  -0.181  -3.268  0.00  0.00     0.066 H 
ATOM     51  H   LIG d   1       6.883   0.777  -2.981  0.00  0.00     0.066 H 
ATOM     52  H   LIG d   1       5.687   1.322  -4.182  0.00  0.00     0.066 H 
ENDBRANCH  48  49
ENDBRANCH  37  48
ENDBRANCH   1  32
TORSDOF 6
ENDMDL
MODEL 3
REMARK VINA RESULT:      -6.6      9.007     11.713
REMARK  6 active torsions:
REMARK  status: ('A' for Active; 'I' for Inactive)
REMARK    1  A    between atoms: C_1  and  O_2 
REMARK    2  A    between atoms: O_2  and  C_3 
REMARK    3  A    between atoms: C_5  and  C_30 
REMARK    4  A    between atoms: C_6  and  N_11 
REMARK    5  A    between atoms: C_8  and  O_9 
REMARK    6  A    between atoms: O_9  and  C_10 
REMARK       I    between atoms: N_11  and  C_12 
REMARK       I    between atoms: C_12  and  N_14 
ROOT
ATOM      1  N   LIG d   1       9.697   9.078  -4.117  0.00  0.00    -0.269 N 
ATOM      2  C   LIG d   1      10.783   8.853  -3.351  0.00  0.00     0.306 C 
ATOM      3  O   LIG d   1      11.787   9.521  -3.507  0.00  0.00    -0.252 OA
ATOM      4  N   LIG d   1      10.757   7.887  -2.412  0.00  0.00    -0.284 N 
ATOM      5  C   LIG d   1      11.963   7.553  -1.645  0.00  0.00     0.021 C 
ATOM      6  C   LIG d   1      12.207   6.050  -1.673  0.00  0.00    -0.006 C 
ATOM      7  H   LIG d   1      12.967   5.815  -0.929  0.00  0.00     0.033 H 
ATOM      8  C   LIG d   1      10.940   5.281  -1.294  0.00  0.00    -0.037 C 
ATOM      9  C   LIG d   1       9.837   5.646  -2.290  0.00  0.00     0.016 C 
ATOM     10  H   LIG d   1       8.942   5.050  -2.110  0.00  0.00     0.038 H 
ATOM     11  C   LIG d   1       9.516   7.147  -2.128  0.00  0.00     0.024 C 
ATOM     12  C   LIG d   1      10.331   5.428  -3.701  0.00  0.00     0.027 A 
ATOM     13  C   LIG d   1       9.397   5.195  -4.661  0.00  0.00    -0.042 A 
ATOM     14  C   LIG d   1       9.766   5.117  -6.009  0.00  0.00    -0.055 A 
ATOM     15  C   LIG d   1      11.077   5.291  -6.343  0.00  0.00     0.003 A 
ATOM     16  C   LIG d   1      12.016   5.514  -5.328  0.00  0.00     0.252 A 
ATOM     17  O   LIG d   1      13.185   5.715  -5.620  0.00  0.00    -0.268 OA
ATOM     18  N   LIG d   1      11.643   5.509  -4.024  0.00  0.00    -0.312 N 
ATOM     19  C   LIG d   1      12.709   5.580  -3.026  0.00  0.00     0.031 C 
ATOM     20  H   LIG d   1       8.872   8.600  -3.939  0.00  0.00     0.156 HD
ATOM     21  H   LIG d   1      12.821   8.066  -2.080  0.00  0.00     0.047 H 
ATOM     22  H   LIG d   1      11.835   7.876  -0.612  0.00  0.00     0.047 H 
ATOM     23  H   LIG d   1      11.135   4.210  -1.337  0.00  0.00     0.028 H 
ATOM     24  H   LIG d   1      10.632   5.558  -0.286  0.00  0.00     0.028 H 
ATOM     25  H   LIG d   1       9.187   7.351  -1.109  0.00  0.00     0.047 H 
ATOM     26  H   LIG d   1       8.740   7.440  -2.835  0.00  0.00     0.047 H 
ATOM     27  H   LIG d   1       8.361   5.072  -4.381  0.00  0.00     0.064 H 
ATOM     28  H   LIG d   1       9.026   4.923  -6.770  0.00  0.00     0.062 H 
ATOM     29  H   LIG d   1      11.386   5.256  -7.377  0.00  0.00     0.067 H 
ATOM     30  H   LIG d   1      13.476   6.272  -3.378  0.00  0.00     0.050 H 
ATOM     31  H   LIG d   1      13.152   4.591  -2.914  0.00  0.00     0.050 H 
ENDROOT
BRANCH   1  32
ATOM     32  C   LIG d   1       9.761   9.995  -5.166  0.00  0.00     0.047 A 
ATOM     33  C   LIG d   1       9.422  11.339  -4.947  0.00  0.00     0.022 A 
ATOM     34  C   LIG d   1       9.493  12.253  -6.005  0.00  0.00    -0.006 A 
ATOM     35  C   LIG d   1       9.888  11.829  -7.256  0.00  0.00     0.162 A 
ATOM     36  H   LIG d   1       9.236  13.290  -5.841  0.00  0.00     0.066 H 
ATOM     37  C   LIG d   1      10.219  10.490  -7.470  0.00  0.00     0.163 A 
ATOM     38  C   LIG d   1      10.156   9.579  -6.428  0.00  0.00     0.006 A 
ATOM     39  H   LIG d   1      10.413   8.545  -6.598  0.00  0.00     0.067 H 
BRANCH  33  40
ATOM     40  C   LIG d   1       8.996  11.787  -3.612  0.00  0.00     0.074 C 
ATOM     41  O   LIG d   1       7.849  11.612  -3.250  0.00  0.00    -0.545 OA
ATOM     42  O   LIG d   1       9.878  12.390  -2.790  0.00  0.00    -0.545 OA
ENDBRANCH  33  40
BRANCH  35  43
ATOM     43  O   LIG d   1       9.952  12.716  -8.286  0.00  0.00    -0.491 OA
BRANCH  43  44
ATOM     44  C   LIG d   1       9.875  14.103  -7.951  0.00  0.00     0.079 C 
ATOM     45  H   LIG d   1       9.026  14.554  -8.466  0.00  0.00     0.066 H 
ATOM     46  H   LIG d   1       9.744  14.211  -6.874  0.00  0.00     0.066 H 
ATOM     47  H   LIG d   1      10.793  14.604  -8.257  0.00  0.00     0.066 H 
ENDBRANCH  43  44
ENDBRANCH  35  43
BRANCH  37  48
ATOM     48  O   LIG d   1      10.607  10.078  -8.704  0.00  0.00    -0.491 OA
BRANCH  48  49
ATOM     49  C   LIG d   1      10.686   8.668  -8.923  0.00  0.00     0.079 C 
ATOM     50  H   LIG d   1      11.730   8.377  -9.042  0.00  0.00     0.066 H 
ATOM     51  H   LIG d   1      10.257   8.143  -8.070  0.00  0.00     0.066 H 
ATOM     52  H   LIG d   1      10.131   8.409  -9.826  0.00  0.00     0.066 H 
ENDBRANCH  48  49
ENDBRANCH  37  48
ENDBRANCH   1  32
TORSDOF 6
ENDMDL
MODEL 4
REMARK VINA RESULT:      -6.2      9.607     12.859
REMARK  6 active torsions:
REMARK  status: ('A' for Active; 'I' for Inactive)
REMARK    1  A    between atoms: C_1  and  O_2 
REMARK    2  A    between atoms: O_2  and  C_3 
REMARK    3  A    between atoms: C_5  and  C_30 
REMARK    4  A    between atoms: C_6  and  N_11 
REMARK    5  A    between atoms: C_8  and  O_9 
REMARK    6  A    between atoms: O_9  and  C_10 
REMARK       I    between atoms: N_11  and  C_12 
REMARK       I    between atoms: C_12  and  N_14 
ROOT
ATOM      1  N   LIG d   1      11.683   8.471  -1.699  0.00  0.00    -0.269 N 
ATOM      2  C   LIG d   1      10.983   9.360  -0.967  0.00  0.00     0.306 C 
ATOM      3  O   LIG d   1       9.913   9.042  -0.484  0.00  0.00    -0.252 OA
ATOM      4  N   LIG d   1      11.467  10.602  -0.770  0.00  0.00    -0.284 N 
ATOM      5  C   LIG d   1      10.670  11.617  -0.071  0.00  0.00     0.021 C 
ATOM      6  C   LIG d   1      10.626  12.905  -0.882  0.00  0.00    -0.006 C 
ATOM      7  H   LIG d   1      10.220  13.692  -0.247  0.00  0.00     0.033 H 
ATOM      8  C   LIG d   1      12.031  13.335  -1.305  0.00  0.00    -0.037 C 
ATOM      9  C   LIG d   1      12.647  12.214  -2.146  0.00  0.00     0.016 C 
ATOM     10  H   LIG d   1      13.615  12.518  -2.544  0.00  0.00     0.038 H 
ATOM     11  C   LIG d   1      12.810  10.970  -1.248  0.00  0.00     0.024 C 
ATOM     12  C   LIG d   1      11.711  11.851  -3.275  0.00  0.00     0.027 A 
ATOM     13  C   LIG d   1      12.260  11.286  -4.384  0.00  0.00    -0.042 A 
ATOM     14  C   LIG d   1      11.445  10.802  -5.413  0.00  0.00    -0.055 A 
ATOM     15  C   LIG d   1      10.090  10.893  -5.278  0.00  0.00     0.003 A 
ATOM     16  C   LIG d   1       9.558  11.494  -4.129  0.00  0.00     0.252 A 
ATOM     17  O   LIG d   1       8.348  11.541  -3.978  0.00  0.00    -0.268 OA
ATOM     18  N   LIG d   1      10.372  12.023  -3.183  0.00  0.00    -0.312 N 
ATOM     19  C   LIG d   1       9.735  12.778  -2.104  0.00  0.00     0.031 C 
ATOM     20  H   LIG d   1      12.570   8.699  -2.018  0.00  0.00     0.156 HD
ATOM     21  H   LIG d   1       9.656  11.244   0.070  0.00  0.00     0.047 H 
ATOM     22  H   LIG d   1      11.118  11.821   0.902  0.00  0.00     0.047 H 
ATOM     23  H   LIG d   1      11.973  14.248  -1.897  0.00  0.00     0.028 H 
ATOM     24  H   LIG d   1      12.643  13.509  -0.420  0.00  0.00     0.028 H 
ATOM     25  H   LIG d   1      13.454  11.203  -0.400  0.00  0.00     0.047 H 
ATOM     26  H   LIG d   1      13.236  10.149  -1.824  0.00  0.00     0.047 H 
ATOM     27  H   LIG d   1      13.334  11.211  -4.470  0.00  0.00     0.064 H 
ATOM     28  H   LIG d   1      11.880  10.363  -6.298  0.00  0.00     0.062 H 
ATOM     29  H   LIG d   1       9.438  10.509  -6.047  0.00  0.00     0.067 H 
ATOM     30  H   LIG d   1       8.813  12.273  -1.817  0.00  0.00     0.050 H 
ATOM     31  H   LIG d   1       9.493  13.775  -2.469  0.00  0.00     0.050 H 
ENDROOT
BRANCH   1  32
ATOM     32  C   LIG d   1      11.130   7.228  -2.003  0.00  0.00     0.047 A 
ATOM     33  C   LIG d   1      11.361   6.130  -1.158  0.00  0.00     0.022 A 
ATOM     34  C   LIG d   1      10.799   4.887  -1.468  0.00  0.00    -0.006 A 
ATOM     35  C   LIG d   1      10.029   4.743  -2.602  0.00  0.00     0.162 A 
ATOM     36  H   LIG d   1      10.971   4.039  -0.820  0.00  0.00     0.066 H 
ATOM     37  C   LIG d   1       9.806   5.836  -3.442  0.00  0.00     0.163 A 
ATOM     38  C   LIG d   1      10.355   7.071  -3.141  0.00  0.00     0.006 A 
ATOM     39  H   LIG d   1      10.179   7.913  -3.793  0.00  0.00     0.067 H 
BRANCH  33  40
ATOM     40  C   LIG d   1      12.188   6.287   0.049  0.00  0.00     0.074 C 
ATOM     41  O   LIG d   1      11.679   6.204   1.149  0.00  0.00    -0.545 OA
ATOM     42  O   LIG d   1      13.511   6.523  -0.067  0.00  0.00    -0.545 OA
ENDBRANCH  33  40
BRANCH  35  43
ATOM     43  O   LIG d   1       9.486   3.532  -2.907  0.00  0.00    -0.491 OA
BRANCH  43  44
ATOM     44  C   LIG d   1      10.394   2.485  -3.255  0.00  0.00     0.079 C 
ATOM     45  H   LIG d   1      11.398   2.896  -3.359  0.00  0.00     0.066 H 
ATOM     46  H   LIG d   1      10.391   1.726  -2.473  0.00  0.00     0.066 H 
ATOM     47  H   LIG d   1      10.086   2.035  -4.199  0.00  0.00     0.066 H 
ENDBRANCH  43  44
ENDBRANCH  35  43
BRANCH  37  48
ATOM     48  O   LIG d   1       9.046   5.688  -4.558  0.00  0.00    -0.491 OA
BRANCH  48  49
ATOM     49  C   LIG d   1       9.736   5.586  -5.804  0.00  0.00     0.079 C 
ATOM     50  H   LIG d   1       9.370   4.718  -6.352  0.00  0.00     0.066 H 
ATOM     51  H   LIG d   1       9.560   6.487  -6.392  0.00  0.00     0.066 H 
ATOM     52  H   LIG d   1      10.806   5.476  -5.620  0.00  0.00     0.066 H 
ENDBRANCH  48  49
ENDBRANCH  37  48
ENDBRANCH   1  32
TORSDOF 6
ENDMDL
MODEL 5
REMARK VINA RESULT:      -6.0      2.595      6.471
REMARK  6 active torsions:
REMARK  status: ('A' for Active; 'I' for Inactive)
REMARK    1  A    between atoms: C_1  and  O_2 
REMARK    2  A    between atoms: O_2  and  C_3 
REMARK    3  A    between atoms: C_5  and  C_30 
REMARK    4  A    between atoms: C_6  and  N_11 
REMARK    5  A    between atoms: C_8  and  O_9 
REMARK    6  A    between atoms: O_9  and  C_10 
REMARK       I    between atoms: N_11  and  C_12 
REMARK       I    between atoms: C_12  and  N_14 
ROOT
ATOM      1  N   LIG d   1       5.245  -0.903  -6.089  0.00  0.00    -0.269 N 
ATOM      2  C   LIG d   1       4.494  -1.568  -6.990  0.00  0.00     0.306 C 
ATOM      3  O   LIG d   1       4.674  -2.757  -7.172  0.00  0.00    -0.252 OA
ATOM      4  N   LIG d   1       3.544  -0.916  -7.688  0.00  0.00    -0.284 N 
ATOM      5  C   LIG d   1       2.793  -1.596  -8.750  0.00  0.00     0.021 C 
ATOM      6  C   LIG d   1       2.808  -0.762 -10.024  0.00  0.00    -0.006 C 
ATOM      7  H   LIG d   1       2.073  -1.180 -10.712  0.00  0.00     0.033 H 
ATOM      8  C   LIG d   1       2.400   0.684  -9.739  0.00  0.00    -0.037 C 
ATOM      9  C   LIG d   1       3.382   1.272  -8.723  0.00  0.00     0.016 C 
ATOM     10  H   LIG d   1       3.181   2.331  -8.560  0.00  0.00     0.038 H 
ATOM     11  C   LIG d   1       3.232   0.494  -7.399  0.00  0.00     0.024 C 
ATOM     12  C   LIG d   1       4.798   1.082  -9.214  0.00  0.00     0.027 A 
ATOM     13  C   LIG d   1       5.741   1.947  -8.753  0.00  0.00    -0.042 A 
ATOM     14  C   LIG d   1       7.093   1.753  -9.057  0.00  0.00    -0.055 A 
ATOM     15  C   LIG d   1       7.450   0.674  -9.812  0.00  0.00     0.003 A 
ATOM     16  C   LIG d   1       6.452  -0.189 -10.283  0.00  0.00     0.252 A 
ATOM     17  O   LIG d   1       6.765  -1.182 -10.921  0.00  0.00    -0.268 OA
ATOM     18  N   LIG d   1       5.143   0.064 -10.038  0.00  0.00    -0.312 N 
ATOM     19  C   LIG d   1       4.163  -0.790 -10.707  0.00  0.00     0.031 C 
ATOM     20  H   LIG d   1       5.049   0.025  -5.886  0.00  0.00     0.156 HD
ATOM     21  H   LIG d   1       3.247  -2.566  -8.948  0.00  0.00     0.047 H 
ATOM     22  H   LIG d   1       1.761  -1.740  -8.428  0.00  0.00     0.047 H 
ATOM     23  H   LIG d   1       2.434   1.263 -10.661  0.00  0.00     0.028 H 
ATOM     24  H   LIG d   1       1.390   0.705  -9.328  0.00  0.00     0.028 H 
ATOM     25  H   LIG d   1       2.210   0.579  -7.029  0.00  0.00     0.047 H 
ATOM     26  H   LIG d   1       3.930   0.883  -6.658  0.00  0.00     0.047 H 
ATOM     27  H   LIG d   1       5.442   2.790  -8.147  0.00  0.00     0.064 H 
ATOM     28  H   LIG d   1       7.840   2.445  -8.700  0.00  0.00     0.062 H 
ATOM     29  H   LIG d   1       8.488   0.490 -10.044  0.00  0.00     0.067 H 
ATOM     30  H   LIG d   1       4.534  -1.816 -10.712  0.00  0.00     0.050 H 
ATOM     31  H   LIG d   1       4.047  -0.453 -11.736  0.00  0.00     0.050 H 
ENDROOT
BRANCH   1  32
ATOM     32  C   LIG d   1       6.305  -1.548  -5.454  0.00  0.00     0.047 A 
ATOM     33  C   LIG d   1       6.150  -2.033  -4.145  0.00  0.00     0.022 A 
ATOM     34  C   LIG d   1       7.219  -2.683  -3.516  0.00  0.00    -0.006 A 
ATOM     35  C   LIG d   1       8.418  -2.836  -4.179  0.00  0.00     0.162 A 
ATOM     36  H   LIG d   1       7.104  -3.061  -2.510  0.00  0.00     0.066 H 
ATOM     37  C   LIG d   1       8.568  -2.347  -5.478  0.00  0.00     0.163 A 
ATOM     38  C   LIG d   1       7.515  -1.707  -6.110  0.00  0.00     0.006 A 
ATOM     39  H   LIG d   1       7.637  -1.331  -7.115  0.00  0.00     0.067 H 
BRANCH  33  40
ATOM     40  C   LIG d   1       4.871  -1.862  -3.439  0.00  0.00     0.074 C 
ATOM     41  O   LIG d   1       3.918  -2.556  -3.733  0.00  0.00    -0.545 OA
ATOM     42  O   LIG d   1       4.756  -0.936  -2.467  0.00  0.00    -0.545 OA
ENDBRANCH  33  40
BRANCH  35  43
ATOM     43  O   LIG d   1       9.458  -3.463  -3.565  0.00  0.00    -0.491 OA
BRANCH  43  44
ATOM     44  C   LIG d   1       9.373  -4.884  -3.437  0.00  0.00     0.079 C 
ATOM     45  H   LIG d   1       9.043  -5.138  -2.429  0.00  0.00     0.066 H 
ATOM     46  H   LIG d   1       8.657  -5.272  -4.161  0.00  0.00     0.066 H 
ATOM     47  H   LIG d   1      10.352  -5.326  -3.621  0.00  0.00     0.066 H 
ENDBRANCH  43  44
ENDBRANCH  35  43
BRANCH  37  48
ATOM     48  O   LIG d   1       9.752  -2.502  -6.126  0.00  0.00    -0.491 OA
BRANCH  48  49
ATOM     49  C   LIG d   1       9.981  -1.673  -7.266  0.00  0.00     0.079 C 
ATOM     50  H   LIG d   1       9.528  -2.131  -8.145  0.00  0.00     0.066 H 
ATOM     51  H   LIG d   1       9.536  -0.692  -7.097  0.00  0.00     0.066 H 
ATOM     52  H   LIG d   1      11.055  -1.562  -7.425  0.00  0.00     0.066 H 
ENDBRANCH  48  49
ENDBRANCH  37  48
ENDBRANCH   1  32
TORSDOF 6
ENDMDL
MODEL 6
REMARK VINA RESULT:      -5.9     10.320     13.185
REMARK  6 active torsions:
REMARK  status: ('A' for Active; 'I' for Inactive)
REMARK    1  A    between atoms: C_1  and  O_2 
REMARK    2  A    between atoms: O_2  and  C_3 
REMARK    3  A    between atoms: C_5  and  C_30 
REMARK    4  A    between atoms: C_6  and  N_11 
REMARK    5  A    between atoms: C_8  and  O_9 
REMARK    6  A    between atoms: O_9  and  C_10 
REMARK       I    between atoms: N_11  and  C_12 
REMARK       I    between atoms: C_12  and  N_14 
ROOT
ATOM      1  N   LIG d   1      10.024  10.983  -3.128  0.00  0.00    -0.269 N 
ATOM      2  C   LIG d   1      11.248  10.897  -2.571  0.00  0.00     0.306 C 
ATOM      3  O   LIG d   1      12.212  11.368  -3.144  0.00  0.00    -0.252 OA
ATOM      4  N   LIG d   1      11.405  10.289  -1.379  0.00  0.00    -0.284 N 
ATOM      5  C   LIG d   1      12.743  10.087  -0.810  0.00  0.00     0.021 C 
ATOM      6  C   LIG d   1      12.922   8.637  -0.383  0.00  0.00    -0.006 C 
ATOM      7  H   LIG d   1      13.825   8.570   0.224  0.00  0.00     0.033 H 
ATOM      8  C   LIG d   1      11.752   8.170   0.483  0.00  0.00    -0.037 C 
ATOM      9  C   LIG d   1      10.462   8.317  -0.329  0.00  0.00     0.016 C 
ATOM     10  H   LIG d   1       9.612   7.910   0.220  0.00  0.00     0.038 H 
ATOM     11  C   LIG d   1      10.238   9.816  -0.616  0.00  0.00     0.024 C 
ATOM     12  C   LIG d   1      10.611   7.608  -1.655  0.00  0.00     0.027 A 
ATOM     13  C   LIG d   1       9.474   7.185  -2.269  0.00  0.00    -0.042 A 
ATOM     14  C   LIG d   1       9.522   6.643  -3.558  0.00  0.00    -0.055 A 
ATOM     15  C   LIG d   1      10.726   6.558  -4.193  0.00  0.00     0.003 A 
ATOM     16  C   LIG d   1      11.880   6.990  -3.526  0.00  0.00     0.252 A 
ATOM     17  O   LIG d   1      12.957   6.959  -4.101  0.00  0.00    -0.268 OA
ATOM     18  N   LIG d   1      11.816   7.440  -2.248  0.00  0.00    -0.312 N 
ATOM     19  C   LIG d   1      13.085   7.709  -1.573  0.00  0.00     0.031 C 
ATOM     20  H   LIG d   1       9.246  10.679  -2.636  0.00  0.00     0.156 HD
ATOM     21  H   LIG d   1      13.495  10.339  -1.557  0.00  0.00     0.047 H 
ATOM     22  H   LIG d   1      12.867  10.735   0.059  0.00  0.00     0.047 H 
ATOM     23  H   LIG d   1      11.894   7.127   0.761  0.00  0.00     0.028 H 
ATOM     24  H   LIG d   1      11.692   8.786   1.381  0.00  0.00     0.028 H 
ATOM     25  H   LIG d   1      10.159  10.368   0.321  0.00  0.00     0.047 H 
ATOM     26  H   LIG d   1       9.332   9.951  -1.205  0.00  0.00     0.047 H 
ATOM     27  H   LIG d   1       8.526   7.270  -1.757  0.00  0.00     0.064 H 
ATOM     28  H   LIG d   1       8.620   6.297  -4.041  0.00  0.00     0.062 H 
ATOM     29  H   LIG d   1      10.789   6.163  -5.195  0.00  0.00     0.067 H 
ATOM     30  H   LIG d   1      13.773   8.166  -2.285  0.00  0.00     0.050 H 
ATOM     31  H   LIG d   1      13.507   6.766  -1.230  0.00  0.00     0.050 H 
ENDROOT
BRANCH   1  32
ATOM     32  C   LIG d   1       9.877  11.505  -4.412  0.00  0.00     0.047 A 
ATOM     33  C   LIG d   1       9.535  12.856  -4.588  0.00  0.00     0.022 A 
ATOM     34  C   LIG d   1       9.394  13.372  -5.881  0.00  0.00    -0.006 A 
ATOM     35  C   LIG d   1       9.583  12.554  -6.974  0.00  0.00     0.162 A 
ATOM     36  H   LIG d   1       9.134  14.412  -6.022  0.00  0.00     0.066 H 
ATOM     37  C   LIG d   1       9.918  11.210  -6.794  0.00  0.00     0.163 A 
ATOM     38  C   LIG d   1      10.064  10.691  -5.519  0.00  0.00     0.006 A 
ATOM     39  H   LIG d   1      10.323   9.652  -5.385  0.00  0.00     0.067 H 
BRANCH  33  40
ATOM     40  C   LIG d   1       9.329  13.724  -3.418  0.00  0.00     0.074 C 
ATOM     41  O   LIG d   1      10.282  14.250  -2.877  0.00  0.00    -0.545 OA
ATOM     42  O   LIG d   1       8.084  13.937  -2.948  0.00  0.00    -0.545 OA
ENDBRANCH  33  40
BRANCH  35  43
ATOM     43  O   LIG d   1       9.440  13.055  -8.231  0.00  0.00    -0.491 OA
BRANCH  43  44
ATOM     44  C   LIG d   1      10.268  14.165  -8.583  0.00  0.00     0.079 C 
ATOM     45  H   LIG d   1       9.863  14.654  -9.469  0.00  0.00     0.066 H 
ATOM     46  H   LIG d   1      10.294  14.876  -7.757  0.00  0.00     0.066 H 
ATOM     47  H   LIG d   1      11.279  13.814  -8.792  0.00  0.00     0.066 H 
ENDBRANCH  43  44
ENDBRANCH  35  43
BRANCH  37  48
ATOM     48  O   LIG d   1      10.103  10.409  -7.875  0.00  0.00    -0.491 OA
BRANCH  48  49
ATOM     49  C   LIG d   1       9.486   9.121  -7.841  0.00  0.00     0.079 C 
ATOM     50  H   LIG d   1       8.795   9.027  -8.678  0.00  0.00     0.066 H 
ATOM     51  H   LIG d   1      10.253   8.349  -7.914  0.00  0.00     0.066 H 
ATOM     52  H   LIG d   1       8.941   9.003  -6.904  0.00  0.00     0.066 H 
ENDBRANCH  48  49
ENDBRANCH  37  48
ENDBRANCH   1  32
TORSDOF 6
ENDMDL
MODEL 7
REMARK VINA RESULT:      -5.9      8.784     11.408
REMARK  6 active torsions:
REMARK  status: ('A' for Active; 'I' for Inactive)
REMARK    1  A    between atoms: C_1  and  O_2 
REMARK    2  A    between atoms: O_2  and  C_3 
REMARK    3  A    between atoms: C_5  and  C_30 
REMARK    4  A    between atoms: C_6  and  N_11 
REMARK    5  A    between atoms: C_8  and  O_9 
REMARK    6  A    between atoms: O_9  and  C_10 
REMARK       I    between atoms: N_11  and  C_12 
REMARK       I    between atoms: C_12  and  N_14 
ROOT
ATOM      1  N   LIG d   1      10.045   8.900  -3.747  0.00  0.00    -0.269 N 
ATOM      2  C   LIG d   1      11.153   9.271  -3.075  0.00  0.00     0.306 C 
ATOM      3  O   LIG d   1      12.116   9.702  -3.680  0.00  0.00    -0.252 OA
ATOM      4  N   LIG d   1      11.194   9.163  -1.732  0.00  0.00    -0.284 N 
ATOM      5  C   LIG d   1      12.428   9.456  -0.994  0.00  0.00     0.021 C 
ATOM      6  C   LIG d   1      12.754   8.317  -0.038  0.00  0.00    -0.006 C 
ATOM      7  H   LIG d   1      13.538   8.656   0.640  0.00  0.00     0.033 H 
ATOM      8  C   LIG d   1      11.539   7.949   0.814  0.00  0.00    -0.037 C 
ATOM      9  C   LIG d   1      10.402   7.531  -0.123  0.00  0.00     0.016 C 
ATOM     10  H   LIG d   1       9.544   7.174   0.447  0.00  0.00     0.038 H 
ATOM     11  C   LIG d   1      10.001   8.755  -0.973  0.00  0.00     0.024 C 
ATOM     12  C   LIG d   1      10.887   6.453  -1.063  0.00  0.00     0.027 A 
ATOM     13  C   LIG d   1       9.953   5.615  -1.588  0.00  0.00    -0.042 A 
ATOM     14  C   LIG d   1      10.306   4.679  -2.566  0.00  0.00    -0.055 A 
ATOM     15  C   LIG d   1      11.600   4.631  -2.995  0.00  0.00     0.003 A 
ATOM     16  C   LIG d   1      12.541   5.499  -2.423  0.00  0.00     0.252 A 
ATOM     17  O   LIG d   1      13.692   5.494  -2.830  0.00  0.00    -0.268 OA
ATOM     18  N   LIG d   1      12.187   6.343  -1.422  0.00  0.00    -0.312 N 
ATOM     19  C   LIG d   1      13.263   7.088  -0.769  0.00  0.00     0.031 C 
ATOM     20  H   LIG d   1       9.250   8.632  -3.260  0.00  0.00     0.156 HD
ATOM     21  H   LIG d   1      13.250   9.583  -1.698  0.00  0.00     0.047 H 
ATOM     22  H   LIG d   1      12.298  10.377  -0.423  0.00  0.00     0.047 H 
ATOM     23  H   LIG d   1      11.791   7.122   1.476  0.00  0.00     0.028 H 
ATOM     24  H   LIG d   1      11.230   8.812   1.404  0.00  0.00     0.028 H 
ATOM     25  H   LIG d   1       9.676   9.569  -0.326  0.00  0.00     0.047 H 
ATOM     26  H   LIG d   1       9.200   8.484  -1.660  0.00  0.00     0.047 H 
ATOM     27  H   LIG d   1       8.929   5.674  -1.246  0.00  0.00     0.064 H 
ATOM     28  H   LIG d   1       9.567   4.008  -2.976  0.00  0.00     0.062 H 
ATOM     29  H   LIG d   1      11.896   3.933  -3.763  0.00  0.00     0.067 H 
ATOM     30  H   LIG d   1      13.984   7.400  -1.525  0.00  0.00     0.050 H 
ATOM     31  H   LIG d   1      13.761   6.433  -0.055  0.00  0.00     0.050 H 
ENDROOT
BRANCH   1  32
ATOM     32  C   LIG d   1      10.043   8.899  -5.141  0.00  0.00     0.047 A 
ATOM     33  C   LIG d   1       9.738  10.075  -5.845  0.00  0.00     0.022 A 
ATOM     34  C   LIG d   1       9.743  10.065  -7.245  0.00  0.00    -0.006 A 
ATOM     35  C   LIG d   1      10.038   8.902  -7.925  0.00  0.00     0.162 A 
ATOM     36  H   LIG d   1       9.511  10.968  -7.792  0.00  0.00     0.066 H 
ATOM     37  C   LIG d   1      10.335   7.735  -7.220  0.00  0.00     0.163 A 
ATOM     38  C   LIG d   1      10.338   7.736  -5.835  0.00  0.00     0.006 A 
ATOM     39  H   LIG d   1      10.569   6.830  -5.295  0.00  0.00     0.067 H 
BRANCH  33  40
ATOM     40  C   LIG d   1       9.418  11.311  -5.116  0.00  0.00     0.074 C 
ATOM     41  O   LIG d   1      10.031  12.333  -5.355  0.00  0.00    -0.545 OA
ATOM     42  O   LIG d   1       8.445  11.311  -4.183  0.00  0.00    -0.545 OA
ENDBRANCH  33  40
BRANCH  35  43
ATOM     43  O   LIG d   1      10.037   8.892  -9.286  0.00  0.00    -0.491 OA
BRANCH  43  44
ATOM     44  C   LIG d   1      11.265   9.226  -9.936  0.00  0.00     0.079 C 
ATOM     45  H   LIG d   1      11.056   9.571 -10.949  0.00  0.00     0.066 H 
ATOM     46  H   LIG d   1      11.767  10.017  -9.380  0.00  0.00     0.066 H 
ATOM     47  H   LIG d   1      11.907   8.346  -9.977  0.00  0.00     0.066 H 
ENDBRANCH  43  44
ENDBRANCH  35  43
BRANCH  37  48
ATOM     48  O   LIG d   1      10.625   6.592  -7.896  0.00  0.00    -0.491 OA
BRANCH  48  49
ATOM     49  C   LIG d   1       9.800   5.456  -7.635  0.00  0.00     0.079 C 
ATOM     50  H   LIG d   1       9.617   4.919  -8.565  0.00  0.00     0.066 H 
ATOM     51  H   LIG d   1      10.301   4.797  -6.927  0.00  0.00     0.066 H 
ATOM     52  H   LIG d   1       8.849   5.787  -7.213  0.00  0.00     0.066 H 
ENDBRANCH  48  49
ENDBRANCH  37  48
ENDBRANCH   1  32
TORSDOF 6
ENDMDL
MODEL 8
REMARK VINA RESULT:      -5.9      9.483     13.151
REMARK  6 active torsions:
REMARK  status: ('A' for Active; 'I' for Inactive)
REMARK    1  A    between atoms: C_1  and  O_2 
REMARK    2  A    between atoms: O_2  and  C_3 
REMARK    3  A    between atoms: C_5  and  C_30 
REMARK    4  A    between atoms: C_6  and  N_11 
REMARK    5  A    between atoms: C_8  and  O_9 
REMARK    6  A    between atoms: O_9  and  C_10 
REMARK       I    between atoms: N_11  and  C_12 
REMARK       I    between atoms: C_12  and  N_14 
ROOT
ATOM      1  N   LIG d   1      10.329   7.757  -3.216  0.00  0.00    -0.269 N 
ATOM      2  C   LIG d   1      11.359   7.880  -4.077  0.00  0.00     0.306 C 
ATOM      3  O   LIG d   1      12.496   7.669  -3.700  0.00  0.00    -0.252 OA
ATOM      4  N   LIG d   1      11.130   8.236  -5.356  0.00  0.00    -0.284 N 
ATOM      5  C   LIG d   1      12.244   8.483  -6.278  0.00  0.00     0.021 C 
ATOM      6  C   LIG d   1      12.061   9.820  -6.982  0.00  0.00    -0.006 C 
ATOM      7  H   LIG d   1      12.776   9.872  -7.804  0.00  0.00     0.033 H 
ATOM      8  C   LIG d   1      10.660   9.937  -7.583  0.00  0.00    -0.037 C 
ATOM      9  C   LIG d   1       9.637   9.801  -6.453  0.00  0.00     0.016 C 
ATOM     10  H   LIG d   1       8.626   9.970  -6.826  0.00  0.00     0.038 H 
ATOM     11  C   LIG d   1       9.754   8.381  -5.862  0.00  0.00     0.024 C 
ATOM     12  C   LIG d   1       9.957  10.788  -5.355  0.00  0.00     0.027 A 
ATOM     13  C   LIG d   1       8.933  11.182  -4.551  0.00  0.00    -0.042 A 
ATOM     14  C   LIG d   1       9.176  11.988  -3.433  0.00  0.00    -0.055 A 
ATOM     15  C   LIG d   1      10.459  12.360  -3.156  0.00  0.00     0.003 A 
ATOM     16  C   LIG d   1      11.489  11.949  -4.013  0.00  0.00     0.252 A 
ATOM     17  O   LIG d   1      12.645  12.239  -3.750  0.00  0.00    -0.268 OA
ATOM     18  N   LIG d   1      11.216  11.233  -5.131  0.00  0.00    -0.312 N 
ATOM     19  C   LIG d   1      12.324  10.992  -6.054  0.00  0.00     0.031 C 
ATOM     20  H   LIG d   1       9.418   7.847  -3.536  0.00  0.00     0.156 HD
ATOM     21  H   LIG d   1      13.180   8.494  -5.719  0.00  0.00     0.047 H 
ATOM     22  H   LIG d   1      12.280   7.687  -7.023  0.00  0.00     0.047 H 
ATOM     23  H   LIG d   1      10.548  10.907  -8.066  0.00  0.00     0.028 H 
ATOM     24  H   LIG d   1      10.507   9.143  -8.314  0.00  0.00     0.028 H 
ATOM     25  H   LIG d   1       9.563   7.638  -6.635  0.00  0.00     0.047 H 
ATOM     26  H   LIG d   1       9.045   8.259  -5.044  0.00  0.00     0.047 H 
ATOM     27  H   LIG d   1       7.924  10.869  -4.777  0.00  0.00     0.064 H 
ATOM     28  H   LIG d   1       8.362  12.308  -2.800  0.00  0.00     0.062 H 
ATOM     29  H   LIG d   1      10.677  12.964  -2.288  0.00  0.00     0.067 H 
ATOM     30  H   LIG d   1      13.226  10.790  -5.477  0.00  0.00     0.050 H 
ATOM     31  H   LIG d   1      12.483  11.888  -6.654  0.00  0.00     0.050 H 
ENDROOT
BRANCH   1  32
ATOM     32  C   LIG d   1      10.574   7.505  -1.867  0.00  0.00     0.047 A 
ATOM     33  C   LIG d   1      10.584   6.185  -1.388  0.00  0.00     0.022 A 
ATOM     34  C   LIG d   1      10.835   5.941  -0.033  0.00  0.00    -0.006 A 
ATOM     35  C   LIG d   1      11.063   6.995   0.825  0.00  0.00     0.162 A 
ATOM     36  H   LIG d   1      10.847   4.927   0.340  0.00  0.00     0.066 H 
ATOM     37  C   LIG d   1      11.047   8.306   0.346  0.00  0.00     0.163 A 
ATOM     38  C   LIG d   1      10.805   8.557  -0.995  0.00  0.00     0.006 A 
ATOM     39  H   LIG d   1      10.794   9.573  -1.360  0.00  0.00     0.067 H 
BRANCH  33  40
ATOM     40  C   LIG d   1      10.334   5.063  -2.307  0.00  0.00     0.074 C 
ATOM     41  O   LIG d   1       9.404   5.113  -3.087  0.00  0.00    -0.545 OA
ATOM     42  O   LIG d   1      11.138   3.982  -2.283  0.00  0.00    -0.545 OA
ENDBRANCH  33  40
BRANCH  35  43
ATOM     43  O   LIG d   1      11.302   6.759   2.144  0.00  0.00    -0.491 OA
BRANCH  43  44
ATOM     44  C   LIG d   1      10.804   5.532   2.682  0.00  0.00     0.079 C 
ATOM     45  H   LIG d   1      11.549   4.748   2.549  0.00  0.00     0.066 H 
ATOM     46  H   LIG d   1      10.596   5.659   3.745  0.00  0.00     0.066 H 
ATOM     47  H   LIG d   1       9.886   5.253   2.164  0.00  0.00     0.066 H 
ENDBRANCH  43  44
ENDBRANCH  35  43
BRANCH  37  48
ATOM     48  O   LIG d   1      11.273   9.341   1.197  0.00  0.00    -0.491 OA
BRANCH  48  49
ATOM     49  C   LIG d   1      10.922  10.647   0.738  0.00  0.00     0.079 C 
ATOM     50  H   LIG d   1      10.439  10.572  -0.236  0.00  0.00     0.066 H 
ATOM     51  H   LIG d   1      10.238  11.110   1.449  0.00  0.00     0.066 H 
ATOM     52  H   LIG d   1      11.823  11.256   0.651  0.00  0.00     0.066 H 
ENDBRANCH  48  49
ENDBRANCH  37  48
ENDBRANCH   1  32
TORSDOF 6
ENDMDL
MODEL 9
REMARK VINA RESULT:      -5.9      9.370     12.080
REMARK  6 active torsions:
REMARK  status: ('A' for Active; 'I' for Inactive)
REMARK    1  A    between atoms: C_1  and  O_2 
REMARK    2  A    between atoms: O_2  and  C_3 
REMARK    3  A    between atoms: C_5  and  C_30 
REMARK    4  A    between atoms: C_6  and  N_11 
REMARK    5  A    between atoms: C_8  and  O_9 
REMARK    6  A    between atoms: O_9  and  C_10 
REMARK       I    between atoms: N_11  and  C_12 
REMARK       I    between atoms: C_12  and  N_14 
ROOT
ATOM      1  N   LIG d   1      11.168   8.956  -5.223  0.00  0.00    -0.269 N 
ATOM      2  C   LIG d   1      10.337   7.911  -5.035  0.00  0.00     0.306 C 
ATOM      3  O   LIG d   1       9.167   7.999  -5.355  0.00  0.00    -0.252 OA
ATOM      4  N   LIG d   1      10.802   6.769  -4.492  0.00  0.00    -0.284 N 
ATOM      5  C   LIG d   1       9.892   5.662  -4.177  0.00  0.00     0.021 C 
ATOM      6  C   LIG d   1      10.110   5.189  -2.747  0.00  0.00    -0.006 C 
ATOM      7  H   LIG d   1       9.584   4.243  -2.618  0.00  0.00     0.033 H 
ATOM      8  C   LIG d   1      11.592   4.931  -2.474  0.00  0.00    -0.037 C 
ATOM      9  C   LIG d   1      12.361   6.233  -2.713  0.00  0.00     0.016 C 
ATOM     10  H   LIG d   1      13.410   6.117  -2.441  0.00  0.00     0.038 H 
ATOM     11  C   LIG d   1      12.237   6.602  -4.205  0.00  0.00     0.024 C 
ATOM     12  C   LIG d   1      11.737   7.349  -1.907  0.00  0.00     0.027 A 
ATOM     13  C   LIG d   1      12.532   8.401  -1.576  0.00  0.00    -0.042 A 
ATOM     14  C   LIG d   1      11.992   9.530  -0.948  0.00  0.00    -0.055 A 
ATOM     15  C   LIG d   1      10.654   9.561  -0.686  0.00  0.00     0.003 A 
ATOM     16  C   LIG d   1       9.866   8.454  -1.027  0.00  0.00     0.252 A 
ATOM     17  O   LIG d   1       8.661   8.489  -0.837  0.00  0.00    -0.268 OA
ATOM     18  N   LIG d   1      10.427   7.342  -1.564  0.00  0.00    -0.312 N 
ATOM     19  C   LIG d   1       9.562   6.175  -1.731  0.00  0.00     0.031 C 
ATOM     20  H   LIG d   1      12.116   8.859  -5.041  0.00  0.00     0.156 HD
ATOM     21  H   LIG d   1       8.861   5.998  -4.293  0.00  0.00     0.047 H 
ATOM     22  H   LIG d   1      10.079   4.834  -4.862  0.00  0.00     0.047 H 
ATOM     23  H   LIG d   1      11.725   4.610  -1.442  0.00  0.00     0.028 H 
ATOM     24  H   LIG d   1      11.961   4.159  -3.149  0.00  0.00     0.028 H 
ATOM     25  H   LIG d   1      12.647   5.803  -4.823  0.00  0.00     0.047 H 
ATOM     26  H   LIG d   1      12.765   7.534  -4.404  0.00  0.00     0.047 H 
ATOM     27  H   LIG d   1      13.588   8.366  -1.801  0.00  0.00     0.064 H 
ATOM     28  H   LIG d   1      12.625  10.361  -0.677  0.00  0.00     0.062 H 
ATOM     29  H   LIG d   1      10.209  10.428  -0.222  0.00  0.00     0.067 H 
ATOM     30  H   LIG d   1       8.578   6.509  -2.059  0.00  0.00     0.050 H 
ATOM     31  H   LIG d   1       9.462   5.672  -0.770  0.00  0.00     0.050 H 
ENDROOT
BRANCH   1  32
ATOM     32  C   LIG d   1      10.664  10.175  -5.673  0.00  0.00     0.047 A 
ATOM     33  C   LIG d   1      10.620  10.453  -7.049  0.00  0.00     0.022 A 
ATOM     34  C   LIG d   1      10.108  11.678  -7.492  0.00  0.00    -0.006 A 
ATOM     35  C   LIG d   1       9.659  12.608  -6.579  0.00  0.00     0.162 A 
ATOM     36  H   LIG d   1      10.068  11.896  -8.550  0.00  0.00     0.066 H 
ATOM     37  C   LIG d   1       9.711  12.330  -5.212  0.00  0.00     0.163 A 
ATOM     38  C   LIG d   1      10.211  11.118  -4.764  0.00  0.00     0.006 A 
ATOM     39  H   LIG d   1      10.248  10.907  -3.705  0.00  0.00     0.067 H 
BRANCH  33  40
ATOM     40  C   LIG d   1      11.105   9.460  -8.020  0.00  0.00     0.074 C 
ATOM     41  O   LIG d   1      10.405   9.137  -8.959  0.00  0.00    -0.545 OA
ATOM     42  O   LIG d   1      12.326   8.910  -7.867  0.00  0.00    -0.545 OA
ENDBRANCH  33  40
BRANCH  35  43
ATOM     43  O   LIG d   1       9.167  13.802  -7.009  0.00  0.00    -0.491 OA
BRANCH  43  44
ATOM     44  C   LIG d   1       9.939  14.507  -7.984  0.00  0.00     0.079 C 
ATOM     45  H   LIG d   1       9.646  14.183  -8.982  0.00  0.00     0.066 H 
ATOM     46  H   LIG d   1       9.762  15.577  -7.883  0.00  0.00     0.066 H 
ATOM     47  H   LIG d   1      10.998  14.297  -7.830  0.00  0.00     0.066 H 
ENDBRANCH  43  44
ENDBRANCH  35  43
BRANCH  37  48
ATOM     48  O   LIG d   1       9.267  13.250  -4.316  0.00  0.00    -0.491 OA
BRANCH  48  49
ATOM     49  C   LIG d   1       8.578  12.757  -3.166  0.00  0.00     0.079 C 
ATOM     50  H   LIG d   1       8.598  11.667  -3.171  0.00  0.00     0.066 H 
ATOM     51  H   LIG d   1       9.067  13.126  -2.264  0.00  0.00     0.066 H 
ATOM     52  H   LIG d   1       7.544  13.102  -3.186  0.00  0.00     0.066 H 
ENDBRANCH  48  49
ENDBRANCH  37  48
ENDBRANCH   1  32
TORSDOF 6
ENDMDL
MODEL 10
REMARK VINA RESULT:      -5.9     11.202     14.514
REMARK  6 active torsions:
REMARK  status: ('A' for Active; 'I' for Inactive)
REMARK    1  A    between atoms: C_1  and  O_2 
REMARK    2  A    between atoms: O_2  and  C_3 
REMARK    3  A    between atoms: C_5  and  C_30 
REMARK    4  A    between atoms: C_6  and  N_11 
REMARK    5  A    between atoms: C_8  and  O_9 
REMARK    6  A    between atoms: O_9  and  C_10 
REMARK       I    between atoms: N_11  and  C_12 
REMARK       I    between atoms: C_12  and  N_14 
ROOT
ATOM      1  N   LIG d   1      10.785   8.847  -1.624  0.00  0.00    -0.269 N 
ATOM      2  C   LIG d   1      11.744   8.583  -2.534  0.00  0.00     0.306 C 
ATOM      3  O   LIG d   1      12.917   8.675  -2.225  0.00  0.00    -0.252 OA
ATOM      4  N   LIG d   1      11.403   8.218  -3.785  0.00  0.00    -0.284 N 
ATOM      5  C   LIG d   1      12.429   8.035  -4.819  0.00  0.00     0.021 C 
ATOM      6  C   LIG d   1      12.055   8.808  -6.076  0.00  0.00    -0.006 C 
ATOM      7  H   LIG d   1      12.711   8.482  -6.883  0.00  0.00     0.033 H 
ATOM      8  C   LIG d   1      10.618   8.503  -6.501  0.00  0.00    -0.037 C 
ATOM      9  C   LIG d   1       9.682   8.894  -5.354  0.00  0.00     0.016 C 
ATOM     10  H   LIG d   1       8.639   8.777  -5.650  0.00  0.00     0.038 H 
ATOM     11  C   LIG d   1       9.994   7.989  -4.145  0.00  0.00     0.024 C 
ATOM     12  C   LIG d   1       9.949  10.324  -4.943  0.00  0.00     0.027 A 
ATOM     13  C   LIG d   1       8.934  11.001  -4.343  0.00  0.00    -0.042 A 
ATOM     14  C   LIG d   1       9.146  12.279  -3.816  0.00  0.00    -0.055 A 
ATOM     15  C   LIG d   1      10.391  12.829  -3.903  0.00  0.00     0.003 A 
ATOM     16  C   LIG d   1      11.411  12.110  -4.541  0.00  0.00     0.252 A 
ATOM     17  O   LIG d   1      12.540  12.574  -4.585  0.00  0.00    -0.268 OA
ATOM     18  N   LIG d   1      11.159  10.906  -5.110  0.00  0.00    -0.312 N 
ATOM     19  C   LIG d   1      12.234  10.305  -5.899  0.00  0.00     0.031 C 
ATOM     20  H   LIG d   1       9.853   8.697  -1.845  0.00  0.00     0.156 HD
ATOM     21  H   LIG d   1      13.387   8.396  -4.445  0.00  0.00     0.047 H 
ATOM     22  H   LIG d   1      12.513   6.975  -5.061  0.00  0.00     0.047 H 
ATOM     23  H   LIG d   1      10.368   9.079  -7.391  0.00  0.00     0.028 H 
ATOM     24  H   LIG d   1      10.515   7.439  -6.711  0.00  0.00     0.028 H 
ATOM     25  H   LIG d   1       9.846   6.943  -4.413  0.00  0.00     0.047 H 
ATOM     26  H   LIG d   1       9.350   8.252  -3.306  0.00  0.00     0.047 H 
ATOM     27  H   LIG d   1       7.956  10.547  -4.272  0.00  0.00     0.064 H 
ATOM     28  H   LIG d   1       8.338  12.821  -3.348  0.00  0.00     0.062 H 
ATOM     29  H   LIG d   1      10.588  13.805  -3.486  0.00  0.00     0.067 H 
ATOM     30  H   LIG d   1      13.184  10.490  -5.398  0.00  0.00     0.050 H 
ATOM     31  H   LIG d   1      12.255  10.776  -6.881  0.00  0.00     0.050 H 
ENDROOT
BRANCH   1  32
ATOM     32  C   LIG d   1      11.133   9.338  -0.366  0.00  0.00     0.047 A 
ATOM     33  C   LIG d   1      11.429   8.449   0.679  0.00  0.00     0.022 A 
ATOM     34  C   LIG d   1      11.782   8.951   1.937  0.00  0.00    -0.006 A 
ATOM     35  C   LIG d   1      11.829  10.313   2.147  0.00  0.00     0.162 A 
ATOM     36  H   LIG d   1      12.013   8.271   2.745  0.00  0.00     0.066 H 
ATOM     37  C   LIG d   1      11.529  11.193   1.105  0.00  0.00     0.163 A 
ATOM     38  C   LIG d   1      11.184  10.705  -0.144  0.00  0.00     0.006 A 
ATOM     39  H   LIG d   1      10.953  11.390  -0.946  0.00  0.00     0.067 H 
BRANCH  33  40
ATOM     40  C   LIG d   1      11.372   6.996   0.453  0.00  0.00     0.074 C 
ATOM     41  O   LIG d   1      10.298   6.446   0.309  0.00  0.00    -0.545 OA
ATOM     42  O   LIG d   1      12.510   6.276   0.406  0.00  0.00    -0.545 OA
ENDBRANCH  33  40
BRANCH  35  43
ATOM     43  O   LIG d   1      12.167  10.801   3.371  0.00  0.00    -0.491 OA
BRANCH  43  44
ATOM     44  C   LIG d   1      12.529   9.847   4.371  0.00  0.00     0.079 C 
ATOM     45  H   LIG d   1      12.035  10.099   5.309  0.00  0.00     0.066 H 
ATOM     46  H   LIG d   1      12.219   8.852   4.053  0.00  0.00     0.066 H 
ATOM     47  H   LIG d   1      13.610   9.862   4.514  0.00  0.00     0.066 H 
ENDBRANCH  43  44
ENDBRANCH  35  43
BRANCH  37  48
ATOM     48  O   LIG d   1      11.578  12.534   1.318  0.00  0.00    -0.491 OA
BRANCH  48  49
ATOM     49  C   LIG d   1      10.574  13.328   0.684  0.00  0.00     0.079 C 
ATOM     50  H   LIG d   1      11.014  13.869  -0.153  0.00  0.00     0.066 H 
ATOM     51  H   LIG d   1       9.775  12.682   0.321  0.00  0.00     0.066 H 
ATOM     52  H   LIG d   1      10.166  14.040   1.403  0.00  0.00     0.066 H 
ENDBRANCH  48  49
ENDBRANCH  37  48
ENDBRANCH   1  32
TORSDOF 6
ENDMDL
