MODEL 1
REMARK VINA RESULT:      -4.9      0.000      0.000
REMARK  5 active torsions:
REMARK  status: ('A' for Active; 'I' for Inactive)
REMARK    1  A    between atoms: C_1  and  C_2 
REMARK    2  A    between atoms: C_3  and  C_4 
REMARK    3  A    between atoms: C_7  and  O_12 
REMARK    4  A    between atoms: C_8  and  O_10 
REMARK    5  A    between atoms: O_10  and  C_11 
ROOT
ATOM      1  C   LIG d   1       5.549  -1.870  -3.652  0.00  0.00    -0.022 A 
ATOM      2  C   LIG d   1       4.589  -1.965  -2.643  0.00  0.00    -0.051 A 
ATOM      3  C   LIG d   1       4.286  -0.862  -1.874  0.00  0.00    -0.016 A 
ATOM      4  C   LIG d   1       4.931   0.344  -2.099  0.00  0.00     0.159 A 
ATOM      5  C   LIG d   1       5.891   0.446  -3.104  0.00  0.00     0.162 A 
ATOM      6  C   LIG d   1       6.204  -0.658  -3.875  0.00  0.00    -0.009 A 
ATOM      7  H   LIG d   1       4.084  -2.904  -2.466  0.00  0.00     0.062 H 
ATOM      8  H   LIG d   1       3.542  -0.938  -1.094  0.00  0.00     0.066 H 
ATOM      9  H   LIG d   1       6.951  -0.581  -4.652  0.00  0.00     0.066 H 
ENDROOT
BRANCH   1  10
ATOM     10  C   LIG d   1       5.875  -3.051  -4.478  0.00  0.00    -0.059 C 
ATOM     11  C   LIG d   1       4.918  -3.896  -4.835  0.00  0.00    -0.086 C 
ATOM     12  H   LIG d   1       3.898  -3.720  -4.523  0.00  0.00     0.057 H 
ATOM     13  H   LIG d   1       6.895  -3.227  -4.790  0.00  0.00     0.062 H 
BRANCH  11  14
ATOM     14  C   LIG d   1       5.251  -5.100  -5.677  0.00  0.00    -0.046 C 
ATOM     15  H   LIG d   1       5.751  -5.847  -5.062  0.00  0.00     0.027 H 
ATOM     16  H   LIG d   1       4.333  -5.522  -6.087  0.00  0.00     0.027 H 
ATOM     17  H   LIG d   1       5.909  -4.802  -6.494  0.00  0.00     0.027 H 
ENDBRANCH  11  14
ENDBRANCH   1  10
BRANCH   5  18
ATOM     18  O   LIG d   1       6.523   1.630  -3.323  0.00  0.00    -0.491 OA
BRANCH  18  19
ATOM     19  C   LIG d   1       7.858   1.569  -3.830  0.00  0.00     0.079 C 
ATOM     20  H   LIG d   1       8.549   1.371  -3.010  0.00  0.00     0.066 H 
ATOM     21  H   LIG d   1       7.930   0.770  -4.567  0.00  0.00     0.066 H 
ATOM     22  H   LIG d   1       8.113   2.520  -4.298  0.00  0.00     0.066 H 
ENDBRANCH  18  19
ENDBRANCH   5  18
BRANCH   4  23
ATOM     23  O   LIG d   1       4.628   1.429  -1.338  0.00  0.00    -0.503 OA
ATOM     24  H   LIG d   1       3.679   1.561  -1.203  0.00  0.00     0.292 HD
ENDBRANCH   4  23
TORSDOF 5
ENDMDL
MODEL 2
REMARK VINA RESULT:      -4.7      2.088      2.441
REMARK  5 active torsions:
REMARK  status: ('A' for Active; 'I' for Inactive)
REMARK    1  A    between atoms: C_1  and  C_2 
REMARK    2  A    between atoms: C_3  and  C_4 
REMARK    3  A    between atoms: C_7  and  O_12 
REMARK    4  A    between atoms: C_8  and  O_10 
REMARK    5  A    between atoms: O_10  and  C_11 
ROOT
ATOM      1  C   LIG d   1       4.492  -2.077  -3.694  0.00  0.00    -0.022 A 
ATOM      2  C   LIG d   1       4.706  -1.803  -2.342  0.00  0.00    -0.051 A 
ATOM      3  C   LIG d   1       4.306  -0.595  -1.811  0.00  0.00    -0.016 A 
ATOM      4  C   LIG d   1       3.689   0.351  -2.617  0.00  0.00     0.159 A 
ATOM      5  C   LIG d   1       3.474   0.084  -3.967  0.00  0.00     0.162 A 
ATOM      6  C   LIG d   1       3.878  -1.123  -4.507  0.00  0.00    -0.009 A 
ATOM      7  H   LIG d   1       5.185  -2.539  -1.712  0.00  0.00     0.062 H 
ATOM      8  H   LIG d   1       4.471  -0.385  -0.764  0.00  0.00     0.066 H 
ATOM      9  H   LIG d   1       3.715  -1.329  -5.554  0.00  0.00     0.066 H 
ENDROOT
BRANCH   1  10
ATOM     10  C   LIG d   1       4.920  -3.370  -4.264  0.00  0.00    -0.059 C 
ATOM     11  C   LIG d   1       6.101  -3.474  -4.860  0.00  0.00    -0.086 C 
ATOM     12  H   LIG d   1       6.749  -2.613  -4.927  0.00  0.00     0.057 H 
ATOM     13  H   LIG d   1       4.272  -4.232  -4.197  0.00  0.00     0.062 H 
BRANCH  11  14
ATOM     14  C   LIG d   1       6.538  -4.794  -5.442  0.00  0.00    -0.046 C 
ATOM     15  H   LIG d   1       5.693  -5.272  -5.934  0.00  0.00     0.027 H 
ATOM     16  H   LIG d   1       7.334  -4.625  -6.167  0.00  0.00     0.027 H 
ATOM     17  H   LIG d   1       6.906  -5.438  -4.643  0.00  0.00     0.027 H 
ENDBRANCH  11  14
ENDBRANCH   1  10
BRANCH   5  18
ATOM     18  O   LIG d   1       2.869   1.014  -4.755  0.00  0.00    -0.491 OA
BRANCH  18  19
ATOM     19  C   LIG d   1       2.668   0.668  -6.127  0.00  0.00     0.079 C 
ATOM     20  H   LIG d   1       2.325   1.545  -6.676  0.00  0.00     0.066 H 
ATOM     21  H   LIG d   1       3.607   0.316  -6.555  0.00  0.00     0.066 H 
ATOM     22  H   LIG d   1       1.918  -0.120  -6.197  0.00  0.00     0.066 H 
ENDBRANCH  18  19
ENDBRANCH   5  18
BRANCH   4  23
ATOM     23  O   LIG d   1       3.296   1.540  -2.088  0.00  0.00    -0.503 OA
ATOM     24  H   LIG d   1       2.640   1.458  -1.382  0.00  0.00     0.292 HD
ENDBRANCH   4  23
TORSDOF 5
ENDMDL
MODEL 3
REMARK VINA RESULT:      -4.6      2.658      3.175
REMARK  5 active torsions:
REMARK  status: ('A' for Active; 'I' for Inactive)
REMARK    1  A    between atoms: C_1  and  C_2 
REMARK    2  A    between atoms: C_3  and  C_4 
REMARK    3  A    between atoms: C_7  and  O_12 
REMARK    4  A    between atoms: C_8  and  O_10 
REMARK    5  A    between atoms: O_10  and  C_11 
ROOT
ATOM      1  C   LIG d   1       5.637  -1.573  -3.516  0.00  0.00    -0.022 A 
ATOM      2  C   LIG d   1       4.635  -1.910  -2.605  0.00  0.00    -0.051 A 
ATOM      3  C   LIG d   1       3.337  -1.499  -2.825  0.00  0.00    -0.016 A 
ATOM      4  C   LIG d   1       3.023  -0.752  -3.950  0.00  0.00     0.159 A 
ATOM      5  C   LIG d   1       4.020  -0.411  -4.862  0.00  0.00     0.162 A 
ATOM      6  C   LIG d   1       5.324  -0.815  -4.645  0.00  0.00    -0.009 A 
ATOM      7  H   LIG d   1       4.876  -2.493  -1.728  0.00  0.00     0.062 H 
ATOM      8  H   LIG d   1       2.562  -1.761  -2.120  0.00  0.00     0.066 H 
ATOM      9  H   LIG d   1       6.098  -0.548  -5.350  0.00  0.00     0.066 H 
ENDROOT
BRANCH   1  10
ATOM     10  C   LIG d   1       7.028  -2.012  -3.282  0.00  0.00    -0.059 C 
ATOM     11  C   LIG d   1       7.532  -3.020  -3.979  0.00  0.00    -0.086 C 
ATOM     12  H   LIG d   1       6.926  -3.521  -4.720  0.00  0.00     0.057 H 
ATOM     13  H   LIG d   1       7.636  -1.511  -2.541  0.00  0.00     0.062 H 
BRANCH  11  14
ATOM     14  C   LIG d   1       8.951  -3.468  -3.741  0.00  0.00    -0.046 C 
ATOM     15  H   LIG d   1       9.076  -3.736  -2.692  0.00  0.00     0.027 H 
ATOM     16  H   LIG d   1       9.169  -4.334  -4.366  0.00  0.00     0.027 H 
ATOM     17  H   LIG d   1       9.635  -2.657  -3.993  0.00  0.00     0.027 H 
ENDBRANCH  11  14
ENDBRANCH   1  10
BRANCH   5  18
ATOM     18  O   LIG d   1       3.709   0.322  -5.966  0.00  0.00    -0.491 OA
BRANCH  18  19
ATOM     19  C   LIG d   1       3.610  -0.383  -7.205  0.00  0.00     0.079 C 
ATOM     20  H   LIG d   1       4.501  -0.995  -7.347  0.00  0.00     0.066 H 
ATOM     21  H   LIG d   1       2.728  -1.022  -7.191  0.00  0.00     0.066 H 
ATOM     22  H   LIG d   1       3.528   0.333  -8.024  0.00  0.00     0.066 H 
ENDBRANCH  18  19
ENDBRANCH   5  18
BRANCH   4  23
ATOM     23  O   LIG d   1       1.742  -0.350  -4.163  0.00  0.00    -0.503 OA
ATOM     24  H   LIG d   1       1.084  -1.046  -4.025  0.00  0.00     0.292 HD
ENDBRANCH   4  23
TORSDOF 5
ENDMDL
MODEL 4
REMARK VINA RESULT:      -4.5      3.758      4.207
REMARK  5 active torsions:
REMARK  status: ('A' for Active; 'I' for Inactive)
REMARK    1  A    between atoms: C_1  and  C_2 
REMARK    2  A    between atoms: C_3  and  C_4 
REMARK    3  A    between atoms: C_7  and  O_12 
REMARK    4  A    between atoms: C_8  and  O_10 
REMARK    5  A    between atoms: O_10  and  C_11 
ROOT
ATOM      1  C   LIG d   1       3.234  -0.156  -5.623  0.00  0.00    -0.022 A 
ATOM      2  C   LIG d   1       2.406   0.110  -4.531  0.00  0.00    -0.051 A 
ATOM      3  C   LIG d   1       2.594  -0.566  -3.343  0.00  0.00    -0.016 A 
ATOM      4  C   LIG d   1       3.605  -1.508  -3.229  0.00  0.00     0.159 A 
ATOM      5  C   LIG d   1       4.433  -1.778  -4.316  0.00  0.00     0.162 A 
ATOM      6  C   LIG d   1       4.247  -1.109  -5.511  0.00  0.00    -0.009 A 
ATOM      7  H   LIG d   1       1.618   0.844  -4.616  0.00  0.00     0.062 H 
ATOM      8  H   LIG d   1       1.953  -0.358  -2.499  0.00  0.00     0.066 H 
ATOM      9  H   LIG d   1       4.886  -1.321  -6.356  0.00  0.00     0.066 H 
ENDROOT
BRANCH   1  10
ATOM     10  C   LIG d   1       3.033   0.566  -6.896  0.00  0.00    -0.059 C 
ATOM     11  C   LIG d   1       2.653  -0.095  -7.981  0.00  0.00    -0.086 C 
ATOM     12  H   LIG d   1       2.489  -1.162  -7.934  0.00  0.00     0.057 H 
ATOM     13  H   LIG d   1       3.197   1.633  -6.944  0.00  0.00     0.062 H 
BRANCH  11  14
ATOM     14  C   LIG d   1       2.448   0.641  -9.280  0.00  0.00    -0.046 C 
ATOM     15  H   LIG d   1       1.442   1.057  -9.307  0.00  0.00     0.027 H 
ATOM     16  H   LIG d   1       3.177   1.447  -9.360  0.00  0.00     0.027 H 
ATOM     17  H   LIG d   1       2.579  -0.050 -10.113  0.00  0.00     0.027 H 
ENDBRANCH  11  14
ENDBRANCH   1  10
BRANCH   5  18
ATOM     18  O   LIG d   1       5.424  -2.703  -4.202  0.00  0.00    -0.491 OA
BRANCH  18  19
ATOM     19  C   LIG d   1       6.746  -2.212  -3.969  0.00  0.00     0.079 C 
ATOM     20  H   LIG d   1       6.891  -1.283  -4.522  0.00  0.00     0.066 H 
ATOM     21  H   LIG d   1       6.883  -2.026  -2.904  0.00  0.00     0.066 H 
ATOM     22  H   LIG d   1       7.473  -2.951  -4.306  0.00  0.00     0.066 H 
ENDBRANCH  18  19
ENDBRANCH   5  18
BRANCH   4  23
ATOM     23  O   LIG d   1       3.787  -2.170  -2.056  0.00  0.00    -0.503 OA
ATOM     24  H   LIG d   1       3.998  -3.108  -2.163  0.00  0.00     0.292 HD
ENDBRANCH   4  23
TORSDOF 5
ENDMDL
MODEL 5
REMARK VINA RESULT:      -4.4      2.140      4.383
REMARK  5 active torsions:
REMARK  status: ('A' for Active; 'I' for Inactive)
REMARK    1  A    between atoms: C_1  and  C_2 
REMARK    2  A    between atoms: C_3  and  C_4 
REMARK    3  A    between atoms: C_7  and  O_12 
REMARK    4  A    between atoms: C_8  and  O_10 
REMARK    5  A    between atoms: O_10  and  C_11 
ROOT
ATOM      1  C   LIG d   1       6.045   0.492  -3.203  0.00  0.00    -0.022 A 
ATOM      2  C   LIG d   1       5.043   0.628  -2.241  0.00  0.00    -0.051 A 
ATOM      3  C   LIG d   1       4.221  -0.439  -1.945  0.00  0.00    -0.016 A 
ATOM      4  C   LIG d   1       4.387  -1.650  -2.600  0.00  0.00     0.159 A 
ATOM      5  C   LIG d   1       5.384  -1.792  -3.562  0.00  0.00     0.162 A 
ATOM      6  C   LIG d   1       6.208  -0.725  -3.868  0.00  0.00    -0.009 A 
ATOM      7  H   LIG d   1       4.912   1.570  -1.727  0.00  0.00     0.062 H 
ATOM      8  H   LIG d   1       3.447  -0.331  -1.199  0.00  0.00     0.066 H 
ATOM      9  H   LIG d   1       6.979  -0.833  -4.616  0.00  0.00     0.066 H 
ENDROOT
BRANCH   1  10
ATOM     10  C   LIG d   1       6.926   1.633  -3.521  0.00  0.00    -0.059 C 
ATOM     11  C   LIG d   1       8.180   1.420  -3.897  0.00  0.00    -0.086 C 
ATOM     12  H   LIG d   1       8.557   0.410  -3.971  0.00  0.00     0.057 H 
ATOM     13  H   LIG d   1       6.550   2.644  -3.447  0.00  0.00     0.062 H 
BRANCH  11  14
ATOM     14  C   LIG d   1       9.079   2.584  -4.223  0.00  0.00    -0.046 C 
ATOM     15  H   LIG d   1       9.395   3.068  -3.299  0.00  0.00     0.027 H 
ATOM     16  H   LIG d   1       9.955   2.227  -4.764  0.00  0.00     0.027 H 
ATOM     17  H   LIG d   1       8.536   3.300  -4.841  0.00  0.00     0.027 H 
ENDBRANCH  11  14
ENDBRANCH   1  10
BRANCH   5  18
ATOM     18  O   LIG d   1       5.545  -2.981  -4.203  0.00  0.00    -0.491 OA
BRANCH  18  19
ATOM     19  C   LIG d   1       6.876  -3.337  -4.584  0.00  0.00     0.079 C 
ATOM     20  H   LIG d   1       6.874  -3.700  -5.612  0.00  0.00     0.066 H 
ATOM     21  H   LIG d   1       7.522  -2.463  -4.508  0.00  0.00     0.066 H 
ATOM     22  H   LIG d   1       7.245  -4.122  -3.923  0.00  0.00     0.066 H 
ENDBRANCH  18  19
ENDBRANCH   5  18
BRANCH   4  23
ATOM     23  O   LIG d   1       3.575  -2.698  -2.304  0.00  0.00    -0.503 OA
ATOM     24  H   LIG d   1       2.709  -2.440  -1.957  0.00  0.00     0.292 HD
ENDBRANCH   4  23
TORSDOF 5
ENDMDL
MODEL 6
REMARK VINA RESULT:      -4.0      1.922      3.142
REMARK  5 active torsions:
REMARK  status: ('A' for Active; 'I' for Inactive)
REMARK    1  A    between atoms: C_1  and  C_2 
REMARK    2  A    between atoms: C_3  and  C_4 
REMARK    3  A    between atoms: C_7  and  O_12 
REMARK    4  A    between atoms: C_8  and  O_10 
REMARK    5  A    between atoms: O_10  and  C_11 
ROOT
ATOM      1  C   LIG d   1       6.930  -1.862  -3.790  0.00  0.00    -0.022 A 
ATOM      2  C   LIG d   1       7.606  -0.681  -4.103  0.00  0.00    -0.051 A 
ATOM      3  C   LIG d   1       7.054   0.538  -3.770  0.00  0.00    -0.016 A 
ATOM      4  C   LIG d   1       5.829   0.596  -3.124  0.00  0.00     0.159 A 
ATOM      5  C   LIG d   1       5.149  -0.579  -2.810  0.00  0.00     0.162 A 
ATOM      6  C   LIG d   1       5.694  -1.804  -3.146  0.00  0.00    -0.009 A 
ATOM      7  H   LIG d   1       8.562  -0.723  -4.605  0.00  0.00     0.062 H 
ATOM      8  H   LIG d   1       7.579   1.451  -4.012  0.00  0.00     0.066 H 
ATOM      9  H   LIG d   1       5.165  -2.715  -2.907  0.00  0.00     0.066 H 
ENDROOT
BRANCH   1  10
ATOM     10  C   LIG d   1       7.520  -3.169  -4.146  0.00  0.00    -0.059 C 
ATOM     11  C   LIG d   1       8.647  -3.566  -3.573  0.00  0.00    -0.086 C 
ATOM     12  H   LIG d   1       9.135  -2.934  -2.845  0.00  0.00     0.057 H 
ATOM     13  H   LIG d   1       7.032  -3.801  -4.874  0.00  0.00     0.062 H 
BRANCH  11  14
ATOM     14  C   LIG d   1       9.249  -4.900  -3.935  0.00  0.00    -0.046 C 
ATOM     15  H   LIG d   1      10.336  -4.824  -3.922  0.00  0.00     0.027 H 
ATOM     16  H   LIG d   1       8.928  -5.651  -3.214  0.00  0.00     0.027 H 
ATOM     17  H   LIG d   1       8.917  -5.188  -4.933  0.00  0.00     0.027 H 
ENDBRANCH  11  14
ENDBRANCH   1  10
BRANCH   5  18
ATOM     18  O   LIG d   1       3.946  -0.519  -2.177  0.00  0.00    -0.491 OA
BRANCH  18  19
ATOM     19  C   LIG d   1       2.782  -0.757  -2.972  0.00  0.00     0.079 C 
ATOM     20  H   LIG d   1       2.218   0.170  -3.074  0.00  0.00     0.066 H 
ATOM     21  H   LIG d   1       3.082  -1.112  -3.957  0.00  0.00     0.066 H 
ATOM     22  H   LIG d   1       2.159  -1.509  -2.487  0.00  0.00     0.066 H 
ENDBRANCH  18  19
ENDBRANCH   5  18
BRANCH   4  23
ATOM     23  O   LIG d   1       5.289   1.800  -2.798  0.00  0.00    -0.503 OA
ATOM     24  H   LIG d   1       5.815   2.307  -2.163  0.00  0.00     0.292 HD
ENDBRANCH   4  23
TORSDOF 5
ENDMDL
MODEL 7
REMARK VINA RESULT:      -4.0      6.812      7.543
REMARK  5 active torsions:
REMARK  status: ('A' for Active; 'I' for Inactive)
REMARK    1  A    between atoms: C_1  and  C_2 
REMARK    2  A    between atoms: C_3  and  C_4 
REMARK    3  A    between atoms: C_7  and  O_12 
REMARK    4  A    between atoms: C_8  and  O_10 
REMARK    5  A    between atoms: O_10  and  C_11 
ROOT
ATOM      1  C   LIG d   1       2.347  -0.202 -10.360  0.00  0.00    -0.022 A 
ATOM      2  C   LIG d   1       3.378   0.280 -11.168  0.00  0.00    -0.051 A 
ATOM      3  C   LIG d   1       4.357   1.087 -10.629  0.00  0.00    -0.016 A 
ATOM      4  C   LIG d   1       4.321   1.423  -9.284  0.00  0.00     0.159 A 
ATOM      5  C   LIG d   1       3.294   0.945  -8.472  0.00  0.00     0.162 A 
ATOM      6  C   LIG d   1       2.307   0.140  -9.008  0.00  0.00    -0.009 A 
ATOM      7  H   LIG d   1       3.409   0.019 -12.217  0.00  0.00     0.062 H 
ATOM      8  H   LIG d   1       5.155   1.459 -11.256  0.00  0.00     0.066 H 
ATOM      9  H   LIG d   1       1.508  -0.227  -8.381  0.00  0.00     0.066 H 
ENDROOT
BRANCH   1  10
ATOM     10  C   LIG d   1       1.298  -1.067 -10.937  0.00  0.00    -0.059 C 
ATOM     11  C   LIG d   1       1.406  -1.499 -12.186  0.00  0.00    -0.086 C 
ATOM     12  H   LIG d   1       2.261  -1.218 -12.782  0.00  0.00     0.057 H 
ATOM     13  H   LIG d   1       0.441  -1.349 -10.341  0.00  0.00     0.062 H 
BRANCH  11  14
ATOM     14  C   LIG d   1       0.335  -2.382 -12.774  0.00  0.00    -0.046 C 
ATOM     15  H   LIG d   1      -0.201  -2.887 -11.972  0.00  0.00     0.027 H 
ATOM     16  H   LIG d   1      -0.362  -1.773 -13.350  0.00  0.00     0.027 H 
ATOM     17  H   LIG d   1       0.795  -3.123 -13.428  0.00  0.00     0.027 H 
ENDBRANCH  11  14
ENDBRANCH   1  10
BRANCH   5  18
ATOM     18  O   LIG d   1       3.262   1.276  -7.153  0.00  0.00    -0.491 OA
BRANCH  18  19
ATOM     19  C   LIG d   1       2.940   0.232  -6.231  0.00  0.00     0.079 C 
ATOM     20  H   LIG d   1       3.793  -0.441  -6.132  0.00  0.00     0.066 H 
ATOM     21  H   LIG d   1       2.704   0.665  -5.260  0.00  0.00     0.066 H 
ATOM     22  H   LIG d   1       2.079  -0.326  -6.600  0.00  0.00     0.066 H 
ENDBRANCH  18  19
ENDBRANCH   5  18
BRANCH   4  23
ATOM     23  O   LIG d   1       5.289   2.218  -8.756  0.00  0.00    -0.503 OA
ATOM     24  H   LIG d   1       5.206   2.358  -7.802  0.00  0.00     0.292 HD
ENDBRANCH   4  23
TORSDOF 5
ENDMDL
MODEL 8
REMARK VINA RESULT:      -3.9      8.173      9.374
REMARK  5 active torsions:
REMARK  status: ('A' for Active; 'I' for Inactive)
REMARK    1  A    between atoms: C_1  and  C_2 
REMARK    2  A    between atoms: C_3  and  C_4 
REMARK    3  A    between atoms: C_7  and  O_12 
REMARK    4  A    between atoms: C_8  and  O_10 
REMARK    5  A    between atoms: O_10  and  C_11 
ROOT
ATOM      1  C   LIG d   1       9.686   6.200  -3.722  0.00  0.00    -0.022 A 
ATOM      2  C   LIG d   1      10.342   4.971  -3.798  0.00  0.00    -0.051 A 
ATOM      3  C   LIG d   1      10.895   4.412  -2.665  0.00  0.00    -0.016 A 
ATOM      4  C   LIG d   1      10.799   5.068  -1.446  0.00  0.00     0.159 A 
ATOM      5  C   LIG d   1      10.145   6.296  -1.364  0.00  0.00     0.162 A 
ATOM      6  C   LIG d   1       9.595   6.864  -2.497  0.00  0.00    -0.009 A 
ATOM      7  H   LIG d   1      10.418   4.457  -4.746  0.00  0.00     0.062 H 
ATOM      8  H   LIG d   1      11.402   3.460  -2.725  0.00  0.00     0.066 H 
ATOM      9  H   LIG d   1       9.091   7.817  -2.435  0.00  0.00     0.066 H 
ENDROOT
BRANCH   1  10
ATOM     10  C   LIG d   1       9.094   6.800  -4.935  0.00  0.00    -0.059 C 
ATOM     11  C   LIG d   1       9.782   7.687  -5.640  0.00  0.00    -0.086 C 
ATOM     12  H   LIG d   1      10.777   7.972  -5.327  0.00  0.00     0.057 H 
ATOM     13  H   LIG d   1       8.099   6.516  -5.249  0.00  0.00     0.062 H 
BRANCH  11  14
ATOM     14  C   LIG d   1       9.179   8.300  -6.878  0.00  0.00    -0.046 C 
ATOM     15  H   LIG d   1       9.391   9.368  -6.895  0.00  0.00     0.027 H 
ATOM     16  H   LIG d   1       9.609   7.829  -7.762  0.00  0.00     0.027 H 
ATOM     17  H   LIG d   1       8.100   8.143  -6.871  0.00  0.00     0.027 H 
ENDBRANCH  11  14
ENDBRANCH   1  10
BRANCH   5  18
ATOM     18  O   LIG d   1      10.053   6.937  -0.168  0.00  0.00    -0.491 OA
BRANCH  18  19
ATOM     19  C   LIG d   1      10.639   8.238  -0.082  0.00  0.00     0.079 C 
ATOM     20  H   LIG d   1      11.522   8.197   0.555  0.00  0.00     0.066 H 
ATOM     21  H   LIG d   1      10.926   8.573  -1.079  0.00  0.00     0.066 H 
ATOM     22  H   LIG d   1       9.917   8.935   0.343  0.00  0.00     0.066 H 
ENDBRANCH  18  19
ENDBRANCH   5  18
BRANCH   4  23
ATOM     23  O   LIG d   1      11.344   4.513  -0.332  0.00  0.00    -0.503 OA
ATOM     24  H   LIG d   1      12.295   4.349  -0.400  0.00  0.00     0.292 HD
ENDBRANCH   4  23
TORSDOF 5
ENDMDL
MODEL 9
REMARK VINA RESULT:      -3.8      2.182      2.951
REMARK  5 active torsions:
REMARK  status: ('A' for Active; 'I' for Inactive)
REMARK    1  A    between atoms: C_1  and  C_2 
REMARK    2  A    between atoms: C_3  and  C_4 
REMARK    3  A    between atoms: C_7  and  O_12 
REMARK    4  A    between atoms: C_8  and  O_10 
REMARK    5  A    between atoms: O_10  and  C_11 
ROOT
ATOM      1  C   LIG d   1       4.762  -2.456  -4.833  0.00  0.00    -0.022 A 
ATOM      2  C   LIG d   1       4.486  -1.783  -6.025  0.00  0.00    -0.051 A 
ATOM      3  C   LIG d   1       3.867  -0.551  -5.994  0.00  0.00    -0.016 A 
ATOM      4  C   LIG d   1       3.517   0.024  -4.782  0.00  0.00     0.159 A 
ATOM      5  C   LIG d   1       3.789  -0.643  -3.589  0.00  0.00     0.162 A 
ATOM      6  C   LIG d   1       4.403  -1.881  -3.613  0.00  0.00    -0.009 A 
ATOM      7  H   LIG d   1       4.759  -2.228  -6.971  0.00  0.00     0.062 H 
ATOM      8  H   LIG d   1       3.656  -0.032  -6.918  0.00  0.00     0.066 H 
ATOM      9  H   LIG d   1       4.610  -2.400  -2.688  0.00  0.00     0.066 H 
ENDROOT
BRANCH   1  10
ATOM     10  C   LIG d   1       5.424  -3.776  -4.864  0.00  0.00    -0.059 C 
ATOM     11  C   LIG d   1       6.679  -3.879  -5.280  0.00  0.00    -0.086 C 
ATOM     12  H   LIG d   1       7.217  -2.997  -5.596  0.00  0.00     0.057 H 
ATOM     13  H   LIG d   1       4.886  -4.658  -4.548  0.00  0.00     0.062 H 
BRANCH  11  14
ATOM     14  C   LIG d   1       7.355  -5.225  -5.311  0.00  0.00    -0.046 C 
ATOM     15  H   LIG d   1       7.508  -5.579  -4.292  0.00  0.00     0.027 H 
ATOM     16  H   LIG d   1       6.729  -5.934  -5.852  0.00  0.00     0.027 H 
ATOM     17  H   LIG d   1       8.319  -5.135  -5.813  0.00  0.00     0.027 H 
ENDBRANCH  11  14
ENDBRANCH   1  10
BRANCH   5  18
ATOM     18  O   LIG d   1       3.444  -0.077  -2.401  0.00  0.00    -0.491 OA
BRANCH  18  19
ATOM     19  C   LIG d   1       4.454   0.675  -1.724  0.00  0.00     0.079 C 
ATOM     20  H   LIG d   1       4.513   0.351  -0.685  0.00  0.00     0.066 H 
ATOM     21  H   LIG d   1       5.416   0.512  -2.211  0.00  0.00     0.066 H 
ATOM     22  H   LIG d   1       4.203   1.736  -1.760  0.00  0.00     0.066 H 
ENDBRANCH  18  19
ENDBRANCH   5  18
BRANCH   4  23
ATOM     23  O   LIG d   1       2.909   1.239  -4.757  0.00  0.00    -0.503 OA
ATOM     24  H   LIG d   1       2.133   1.301  -5.332  0.00  0.00     0.292 HD
ENDBRANCH   4  23
TORSDOF 5
ENDMDL
MODEL 10
REMARK VINA RESULT:      -3.8      7.129      8.978
REMARK  5 active torsions:
REMARK  status: ('A' for Active; 'I' for Inactive)
REMARK    1  A    between atoms: C_1  and  C_2 
REMARK    2  A    between atoms: C_3  and  C_4 
REMARK    3  A    between atoms: C_7  and  O_12 
REMARK    4  A    between atoms: C_8  and  O_10 
REMARK    5  A    between atoms: O_10  and  C_11 
ROOT
ATOM      1  C   LIG d   1       9.688   6.140  -3.792  0.00  0.00    -0.022 A 
ATOM      2  C   LIG d   1      10.008   6.956  -2.707  0.00  0.00    -0.051 A 
ATOM      3  C   LIG d   1      10.539   6.403  -1.561  0.00  0.00    -0.016 A 
ATOM      4  C   LIG d   1      10.757   5.036  -1.482  0.00  0.00     0.159 A 
ATOM      5  C   LIG d   1      10.438   4.215  -2.562  0.00  0.00     0.162 A 
ATOM      6  C   LIG d   1       9.900   4.763  -3.712  0.00  0.00    -0.009 A 
ATOM      7  H   LIG d   1       9.840   8.022  -2.765  0.00  0.00     0.062 H 
ATOM      8  H   LIG d   1      10.787   7.037  -0.722  0.00  0.00     0.066 H 
ATOM      9  H   LIG d   1       9.649   4.126  -4.548  0.00  0.00     0.066 H 
ENDROOT
BRANCH   1  10
ATOM     10  C   LIG d   1       9.119   6.730  -5.021  0.00  0.00    -0.059 C 
ATOM     11  C   LIG d   1       9.736   7.741  -5.619  0.00  0.00    -0.086 C 
ATOM     12  H   LIG d   1      10.655   8.132  -5.207  0.00  0.00     0.057 H 
ATOM     13  H   LIG d   1       8.199   6.340  -5.433  0.00  0.00     0.062 H 
BRANCH  11  14
ATOM     14  C   LIG d   1       9.155   8.343  -6.872  0.00  0.00    -0.046 C 
ATOM     15  H   LIG d   1       9.882   9.020  -7.320  0.00  0.00     0.027 H 
ATOM     16  H   LIG d   1       8.914   7.550  -7.579  0.00  0.00     0.027 H 
ATOM     17  H   LIG d   1       8.249   8.896  -6.623  0.00  0.00     0.027 H 
ENDBRANCH  11  14
ENDBRANCH   1  10
BRANCH   5  18
ATOM     18  O   LIG d   1      10.653   2.874  -2.482  0.00  0.00    -0.491 OA
BRANCH  18  19
ATOM     19  C   LIG d   1      11.437   2.281  -3.520  0.00  0.00     0.079 C 
ATOM     20  H   LIG d   1      12.189   1.627  -3.078  0.00  0.00     0.066 H 
ATOM     21  H   LIG d   1      10.791   1.700  -4.177  0.00  0.00     0.066 H 
ATOM     22  H   LIG d   1      11.931   3.064  -4.095  0.00  0.00     0.066 H 
ENDBRANCH  18  19
ENDBRANCH   5  18
BRANCH   4  23
ATOM     23  O   LIG d   1      11.281   4.496  -0.351  0.00  0.00    -0.503 OA
ATOM     24  H   LIG d   1      10.742   3.790   0.034  0.00  0.00     0.292 HD
ENDBRANCH   4  23
TORSDOF 5
ENDMDL
