MODEL 1
REMARK VINA RESULT:      -5.9      0.000      0.000
REMARK  10 active torsions:
REMARK  status: ('A' for Active; 'I' for Inactive)
REMARK    1  A    between atoms: C_1  and  C_2 
REMARK    2  A    between atoms: C_2  and  C_29 
REMARK    3  A    between atoms: C_3  and  C_10 
REMARK    4  A    between atoms: C_5  and  C_7 
REMARK       I    between atoms: C_10  and  N_12 
REMARK    5  A    between atoms: N_12  and  C_13 
REMARK    6  A    between atoms: C_19  and  O_20 
REMARK    7  A    between atoms: O_20  and  C_21 
REMARK    8  A    between atoms: C_24  and  C_25 
REMARK    9  A    between atoms: C_25  and  O_27 
REMARK   10  A    between atoms: O_27  and  C_28 
ROOT
ATOM      1  C   LIG d   1       4.279  -1.429  -6.924  0.00  0.00     0.077 A 
ATOM      2  C   LIG d   1       3.453  -1.085  -8.081  0.00  0.00     0.063 A 
ATOM      3  C   LIG d   1       3.136  -2.296  -8.724  0.00  0.00     0.052 A 
ATOM      4  C   LIG d   1       2.348  -2.272  -9.872  0.00  0.00    -0.037 A 
ATOM      5  C   LIG d   1       1.887  -1.074 -10.370  0.00  0.00    -0.056 A 
ATOM      6  C   LIG d   1       2.196   0.122  -9.740  0.00  0.00    -0.019 A 
ATOM      7  C   LIG d   1       2.975   0.128  -8.599  0.00  0.00     0.131 A 
ATOM      8  N   LIG d   1       3.724  -3.318  -8.016  0.00  0.00    -0.347 N 
ATOM      9  H   LIG d   1       3.664  -4.259  -8.244  0.00  0.00     0.166 HD
ATOM     10  C   LIG d   1       4.420  -2.802  -6.932  0.00  0.00     0.147 A 
ATOM     11  H   LIG d   1       2.098  -3.196 -10.374  0.00  0.00     0.064 H 
ATOM     12  H   LIG d   1       1.277  -1.066 -11.262  0.00  0.00     0.062 H 
ATOM     13  H   LIG d   1       1.827   1.054 -10.143  0.00  0.00     0.065 H 
ENDROOT
BRANCH   1  14
ATOM     14  N   LIG d   1       4.823  -0.544  -5.998  0.00  0.00    -0.283 N 
ATOM     15  C   LIG d   1       4.174  -0.293  -4.843  0.00  0.00     0.222 C 
ATOM     16  O   LIG d   1       3.092  -0.799  -4.634  0.00  0.00    -0.275 OA
ATOM     17  H   LIG d   1       5.669  -0.108  -6.182  0.00  0.00     0.155 HD
BRANCH  15  18
ATOM     18  C   LIG d   1       4.793   0.615  -3.812  0.00  0.00     0.050 A 
ATOM     19  C   LIG d   1       4.910   0.084  -2.383  0.00  0.00    -0.015 A 
ATOM     20  C   LIG d   1       6.161   0.221  -3.253  0.00  0.00     0.016 A 
ATOM     21  H   LIG d   1       6.857   1.024  -3.012  0.00  0.00     0.037 H 
ATOM     22  H   LIG d   1       4.588   1.678  -3.939  0.00  0.00     0.041 H 
BRANCH  19  23
ATOM     23  C   LIG d   1       4.390  -1.328  -2.109  0.00  0.00    -0.059 C 
ATOM     24  H   LIG d   1       3.491  -1.271  -1.496  0.00  0.00     0.024 H 
ATOM     25  H   LIG d   1       4.154  -1.819  -3.052  0.00  0.00     0.024 H 
ATOM     26  H   LIG d   1       5.153  -1.901  -1.582  0.00  0.00     0.024 H 
ENDBRANCH  19  23
BRANCH  19  27
ATOM     27  C   LIG d   1       4.731   1.086  -1.240  0.00  0.00    -0.059 C 
ATOM     28  H   LIG d   1       3.684   1.383  -1.178  0.00  0.00     0.024 H 
ATOM     29  H   LIG d   1       5.034   0.623  -0.301  0.00  0.00     0.024 H 
ATOM     30  H   LIG d   1       5.347   1.965  -1.427  0.00  0.00     0.024 H 
ENDBRANCH  19  27
BRANCH  20  31
ATOM     31  C   LIG d   1       6.787  -1.047  -3.775  0.00  0.00     0.046 C 
ATOM     32  O   LIG d   1       7.339  -1.052  -4.862  0.00  0.00    -0.549 OA
ATOM     33  O   LIG d   1       6.741  -2.068  -3.110  0.00  0.00    -0.549 OA
ENDBRANCH  20  31
ENDBRANCH  15  18
ENDBRANCH   1  14
BRANCH  10  34
ATOM     34  C   LIG d   1       5.153  -3.561  -5.987  0.00  0.00     0.357 C 
ATOM     35  O   LIG d   1       4.623  -3.924  -4.954  0.00  0.00    -0.243 OA
BRANCH  34  36
ATOM     36  O   LIG d   1       6.441  -3.883  -6.234  0.00  0.00    -0.463 OA
BRANCH  36  37
ATOM     37  C   LIG d   1       7.047  -4.841  -5.365  0.00  0.00     0.082 C 
ATOM     38  H   LIG d   1       8.130  -4.719  -5.386  0.00  0.00     0.066 H 
ATOM     39  H   LIG d   1       6.685  -4.691  -4.348  0.00  0.00     0.066 H 
ATOM     40  H   LIG d   1       6.789  -5.847  -5.696  0.00  0.00     0.066 H 
ENDBRANCH  36  37
ENDBRANCH  34  36
ENDBRANCH  10  34
BRANCH   7  41
ATOM     41  O   LIG d   1       3.277   1.300  -7.984  0.00  0.00    -0.494 OA
BRANCH  41  42
ATOM     42  C   LIG d   1       3.483   2.439  -8.821  0.00  0.00     0.079 C 
ATOM     43  H   LIG d   1       3.544   2.118  -9.861  0.00  0.00     0.066 H 
ATOM     44  H   LIG d   1       2.650   3.132  -8.704  0.00  0.00     0.066 H 
ATOM     45  H   LIG d   1       4.411   2.935  -8.539  0.00  0.00     0.066 H 
ENDBRANCH  41  42
ENDBRANCH   7  41
TORSDOF 10
ENDMDL
MODEL 2
REMARK VINA RESULT:      -5.7      2.603      5.759
REMARK  10 active torsions:
REMARK  status: ('A' for Active; 'I' for Inactive)
REMARK    1  A    between atoms: C_1  and  C_2 
REMARK    2  A    between atoms: C_2  and  C_29 
REMARK    3  A    between atoms: C_3  and  C_10 
REMARK    4  A    between atoms: C_5  and  C_7 
REMARK       I    between atoms: C_10  and  N_12 
REMARK    5  A    between atoms: N_12  and  C_13 
REMARK    6  A    between atoms: C_19  and  O_20 
REMARK    7  A    between atoms: O_20  and  C_21 
REMARK    8  A    between atoms: C_24  and  C_25 
REMARK    9  A    between atoms: C_25  and  O_27 
REMARK   10  A    between atoms: O_27  and  C_28 
ROOT
ATOM      1  C   LIG d   1       5.025  -0.642  -5.915  0.00  0.00     0.077 A 
ATOM      2  C   LIG d   1       4.874  -0.702  -4.460  0.00  0.00     0.063 A 
ATOM      3  C   LIG d   1       4.261  -1.935  -4.170  0.00  0.00     0.052 A 
ATOM      4  C   LIG d   1       3.991  -2.267  -2.844  0.00  0.00    -0.037 A 
ATOM      5  C   LIG d   1       4.322  -1.394  -1.832  0.00  0.00    -0.056 A 
ATOM      6  C   LIG d   1       4.926  -0.178  -2.113  0.00  0.00    -0.019 A 
ATOM      7  C   LIG d   1       5.207   0.176  -3.419  0.00  0.00     0.131 A 
ATOM      8  N   LIG d   1       4.047  -2.593  -5.358  0.00  0.00    -0.347 N 
ATOM      9  H   LIG d   1       3.636  -3.468  -5.445  0.00  0.00     0.166 HD
ATOM     10  C   LIG d   1       4.500  -1.816  -6.416  0.00  0.00     0.147 A 
ATOM     11  H   LIG d   1       3.520  -3.211  -2.610  0.00  0.00     0.064 H 
ATOM     12  H   LIG d   1       4.108  -1.659  -0.807  0.00  0.00     0.062 H 
ATOM     13  H   LIG d   1       5.180   0.496  -1.308  0.00  0.00     0.065 H 
ENDROOT
BRANCH   1  14
ATOM     14  N   LIG d   1       5.584   0.398  -6.650  0.00  0.00    -0.283 N 
ATOM     15  C   LIG d   1       6.887   0.356  -6.995  0.00  0.00     0.222 C 
ATOM     16  O   LIG d   1       7.583  -0.563  -6.621  0.00  0.00    -0.275 OA
ATOM     17  H   LIG d   1       5.037   1.154  -6.915  0.00  0.00     0.155 HD
BRANCH  15  18
ATOM     18  C   LIG d   1       7.477   1.451  -7.846  0.00  0.00     0.050 A 
ATOM     19  C   LIG d   1       7.792   1.119  -9.305  0.00  0.00    -0.015 A 
ATOM     20  C   LIG d   1       6.606   2.023  -8.966  0.00  0.00     0.016 A 
ATOM     21  H   LIG d   1       6.703   3.086  -9.186  0.00  0.00     0.037 H 
ATOM     22  H   LIG d   1       8.147   2.137  -7.330  0.00  0.00     0.041 H 
BRANCH  19  23
ATOM     23  C   LIG d   1       7.485  -0.300  -9.789  0.00  0.00    -0.059 C 
ATOM     24  H   LIG d   1       6.410  -0.407  -9.938  0.00  0.00     0.024 H 
ATOM     25  H   LIG d   1       8.002  -0.484 -10.730  0.00  0.00     0.024 H 
ATOM     26  H   LIG d   1       7.822  -1.020  -9.043  0.00  0.00     0.024 H 
ENDBRANCH  19  23
BRANCH  19  27
ATOM     27  C   LIG d   1       9.026   1.775  -9.928  0.00  0.00    -0.059 C 
ATOM     28  H   LIG d   1       8.886   2.856  -9.959  0.00  0.00     0.024 H 
ATOM     29  H   LIG d   1       9.905   1.540  -9.328  0.00  0.00     0.024 H 
ATOM     30  H   LIG d   1       9.166   1.399 -10.941  0.00  0.00     0.024 H 
ENDBRANCH  19  27
BRANCH  20  31
ATOM     31  C   LIG d   1       5.223   1.448  -9.134  0.00  0.00     0.046 C 
ATOM     32  O   LIG d   1       4.275   1.961  -8.563  0.00  0.00    -0.549 OA
ATOM     33  O   LIG d   1       5.051   0.470  -9.843  0.00  0.00    -0.549 OA
ENDBRANCH  20  31
ENDBRANCH  15  18
ENDBRANCH   1  14
BRANCH  10  34
ATOM     34  C   LIG d   1       4.437  -2.172  -7.786  0.00  0.00     0.357 C 
ATOM     35  O   LIG d   1       5.431  -2.582  -8.355  0.00  0.00    -0.243 OA
BRANCH  34  36
ATOM     36  O   LIG d   1       3.272  -2.056  -8.459  0.00  0.00    -0.463 OA
BRANCH  36  37
ATOM     37  C   LIG d   1       2.945  -3.105  -9.372  0.00  0.00     0.082 C 
ATOM     38  H   LIG d   1       1.996  -3.556  -9.084  0.00  0.00     0.066 H 
ATOM     39  H   LIG d   1       2.862  -2.698 -10.380  0.00  0.00     0.066 H 
ATOM     40  H   LIG d   1       3.729  -3.863  -9.351  0.00  0.00     0.066 H 
ENDBRANCH  36  37
ENDBRANCH  34  36
ENDBRANCH  10  34
BRANCH   7  41
ATOM     41  O   LIG d   1       5.798   1.367  -3.692  0.00  0.00    -0.494 OA
BRANCH  41  42
ATOM     42  C   LIG d   1       7.223   1.420  -3.604  0.00  0.00     0.079 C 
ATOM     43  H   LIG d   1       7.536   1.136  -2.599  0.00  0.00     0.066 H 
ATOM     44  H   LIG d   1       7.658   0.730  -4.327  0.00  0.00     0.066 H 
ATOM     45  H   LIG d   1       7.563   2.433  -3.817  0.00  0.00     0.066 H 
ENDBRANCH  41  42
ENDBRANCH   7  41
TORSDOF 10
ENDMDL
MODEL 3
REMARK VINA RESULT:      -5.7      3.249      5.426
REMARK  10 active torsions:
REMARK  status: ('A' for Active; 'I' for Inactive)
REMARK    1  A    between atoms: C_1  and  C_2 
REMARK    2  A    between atoms: C_2  and  C_29 
REMARK    3  A    between atoms: C_3  and  C_10 
REMARK    4  A    between atoms: C_5  and  C_7 
REMARK       I    between atoms: C_10  and  N_12 
REMARK    5  A    between atoms: N_12  and  C_13 
REMARK    6  A    between atoms: C_19  and  O_20 
REMARK    7  A    between atoms: O_20  and  C_21 
REMARK    8  A    between atoms: C_24  and  C_25 
REMARK    9  A    between atoms: C_25  and  O_27 
REMARK   10  A    between atoms: O_27  and  C_28 
ROOT
ATOM      1  C   LIG d   1       5.753  -1.950  -4.522  0.00  0.00     0.077 A 
ATOM      2  C   LIG d   1       5.299  -0.822  -3.709  0.00  0.00     0.063 A 
ATOM      3  C   LIG d   1       3.918  -1.000  -3.507  0.00  0.00     0.052 A 
ATOM      4  C   LIG d   1       3.212  -0.063  -2.756  0.00  0.00    -0.037 A 
ATOM      5  C   LIG d   1       3.863   1.024  -2.219  0.00  0.00    -0.056 A 
ATOM      6  C   LIG d   1       5.224   1.205  -2.414  0.00  0.00    -0.019 A 
ATOM      7  C   LIG d   1       5.950   0.290  -3.154  0.00  0.00     0.131 A 
ATOM      8  N   LIG d   1       3.542  -2.156  -4.150  0.00  0.00    -0.347 N 
ATOM      9  H   LIG d   1       2.640  -2.513  -4.171  0.00  0.00     0.166 HD
ATOM     10  C   LIG d   1       4.642  -2.732  -4.770  0.00  0.00     0.147 A 
ATOM     11  H   LIG d   1       2.151  -0.190  -2.595  0.00  0.00     0.064 H 
ATOM     12  H   LIG d   1       3.307   1.747  -1.639  0.00  0.00     0.062 H 
ATOM     13  H   LIG d   1       5.721   2.064  -1.986  0.00  0.00     0.065 H 
ENDROOT
BRANCH   1  14
ATOM     14  N   LIG d   1       7.050  -2.187  -4.966  0.00  0.00    -0.283 N 
ATOM     15  C   LIG d   1       7.978  -2.666  -4.113  0.00  0.00     0.222 C 
ATOM     16  O   LIG d   1       7.695  -2.842  -2.947  0.00  0.00    -0.275 OA
ATOM     17  H   LIG d   1       7.288  -2.007  -5.889  0.00  0.00     0.155 HD
BRANCH  15  18
ATOM     18  C   LIG d   1       9.365  -2.983  -4.608  0.00  0.00     0.050 A 
ATOM     19  C   LIG d   1      10.282  -3.781  -3.679  0.00  0.00    -0.015 A 
ATOM     20  C   LIG d   1       9.687  -4.445  -4.922  0.00  0.00     0.016 A 
ATOM     21  H   LIG d   1      10.359  -4.645  -5.757  0.00  0.00     0.037 H 
ATOM     22  H   LIG d   1       9.825  -2.220  -5.236  0.00  0.00     0.041 H 
BRANCH  19  23
ATOM     23  C   LIG d   1       9.720  -4.195  -2.318  0.00  0.00    -0.059 C 
ATOM     24  H   LIG d   1      10.502  -4.683  -1.736  0.00  0.00     0.024 H 
ATOM     25  H   LIG d   1       9.367  -3.313  -1.785  0.00  0.00     0.024 H 
ATOM     26  H   LIG d   1       8.890  -4.888  -2.463  0.00  0.00     0.024 H 
ENDBRANCH  19  23
BRANCH  19  27
ATOM     27  C   LIG d   1      11.775  -3.446  -3.702  0.00  0.00    -0.059 C 
ATOM     28  H   LIG d   1      12.143  -3.355  -2.680  0.00  0.00     0.024 H 
ATOM     29  H   LIG d   1      12.317  -4.242  -4.214  0.00  0.00     0.024 H 
ATOM     30  H   LIG d   1      11.929  -2.505  -4.228  0.00  0.00     0.024 H 
ENDBRANCH  19  27
BRANCH  20  31
ATOM     31  C   LIG d   1       8.592  -5.459  -4.712  0.00  0.00     0.046 C 
ATOM     32  O   LIG d   1       7.502  -5.296  -5.233  0.00  0.00    -0.549 OA
ATOM     33  O   LIG d   1       8.797  -6.443  -4.021  0.00  0.00    -0.549 OA
ENDBRANCH  20  31
ENDBRANCH  15  18
ENDBRANCH   1  14
BRANCH  10  34
ATOM     34  C   LIG d   1       4.628  -3.927  -5.530  0.00  0.00     0.357 C 
ATOM     35  O   LIG d   1       4.259  -4.968  -5.020  0.00  0.00    -0.243 OA
BRANCH  34  36
ATOM     36  O   LIG d   1       5.025  -3.910  -6.820  0.00  0.00    -0.463 OA
BRANCH  36  37
ATOM     37  C   LIG d   1       4.377  -4.823  -7.709  0.00  0.00     0.082 C 
ATOM     38  H   LIG d   1       4.892  -5.783  -7.684  0.00  0.00     0.066 H 
ATOM     39  H   LIG d   1       3.341  -4.958  -7.399  0.00  0.00     0.066 H 
ATOM     40  H   LIG d   1       4.403  -4.423  -8.723  0.00  0.00     0.066 H 
ENDBRANCH  36  37
ENDBRANCH  34  36
ENDBRANCH  10  34
BRANCH   7  41
ATOM     41  O   LIG d   1       7.282   0.469  -3.344  0.00  0.00    -0.494 OA
BRANCH  41  42
ATOM     42  C   LIG d   1       7.694   1.701  -3.937  0.00  0.00     0.079 C 
ATOM     43  H   LIG d   1       7.720   2.480  -3.175  0.00  0.00     0.066 H 
ATOM     44  H   LIG d   1       8.687   1.582  -4.369  0.00  0.00     0.066 H 
ATOM     45  H   LIG d   1       6.988   1.981  -4.720  0.00  0.00     0.066 H 
ENDBRANCH  41  42
ENDBRANCH   7  41
TORSDOF 10
ENDMDL
MODEL 4
REMARK VINA RESULT:      -5.5      1.987      4.012
REMARK  10 active torsions:
REMARK  status: ('A' for Active; 'I' for Inactive)
REMARK    1  A    between atoms: C_1  and  C_2 
REMARK    2  A    between atoms: C_2  and  C_29 
REMARK    3  A    between atoms: C_3  and  C_10 
REMARK    4  A    between atoms: C_5  and  C_7 
REMARK       I    between atoms: C_10  and  N_12 
REMARK    5  A    between atoms: N_12  and  C_13 
REMARK    6  A    between atoms: C_19  and  O_20 
REMARK    7  A    between atoms: O_20  and  C_21 
REMARK    8  A    between atoms: C_24  and  C_25 
REMARK    9  A    between atoms: C_25  and  O_27 
REMARK   10  A    between atoms: O_27  and  C_28 
ROOT
ATOM      1  C   LIG d   1       4.205  -0.417  -6.765  0.00  0.00     0.077 A 
ATOM      2  C   LIG d   1       4.123   0.238  -8.071  0.00  0.00     0.063 A 
ATOM      3  C   LIG d   1       3.217   1.305  -7.930  0.00  0.00     0.052 A 
ATOM      4  C   LIG d   1       2.940   2.114  -9.030  0.00  0.00    -0.037 A 
ATOM      5  C   LIG d   1       3.549   1.868 -10.240  0.00  0.00    -0.056 A 
ATOM      6  C   LIG d   1       4.443   0.817 -10.385  0.00  0.00    -0.019 A 
ATOM      7  C   LIG d   1       4.737  -0.000  -9.310  0.00  0.00     0.131 A 
ATOM      8  N   LIG d   1       2.769   1.313  -6.631  0.00  0.00    -0.347 N 
ATOM      9  H   LIG d   1       2.133   1.948  -6.264  0.00  0.00     0.166 HD
ATOM     10  C   LIG d   1       3.356   0.273  -5.923  0.00  0.00     0.147 A 
ATOM     11  H   LIG d   1       2.246   2.937  -8.933  0.00  0.00     0.064 H 
ATOM     12  H   LIG d   1       3.328   2.500 -11.088  0.00  0.00     0.062 H 
ATOM     13  H   LIG d   1       4.912   0.637 -11.340  0.00  0.00     0.065 H 
ENDROOT
BRANCH   1  14
ATOM     14  N   LIG d   1       4.983  -1.522  -6.437  0.00  0.00    -0.283 N 
ATOM     15  C   LIG d   1       6.246  -1.352  -5.999  0.00  0.00     0.222 C 
ATOM     16  O   LIG d   1       6.722  -0.238  -5.941  0.00  0.00    -0.275 OA
ATOM     17  H   LIG d   1       4.616  -2.416  -6.522  0.00  0.00     0.155 HD
BRANCH  15  18
ATOM     18  C   LIG d   1       7.067  -2.545  -5.582  0.00  0.00     0.050 A 
ATOM     19  C   LIG d   1       7.242  -2.793  -4.084  0.00  0.00    -0.015 A 
ATOM     20  C   LIG d   1       6.334  -3.707  -4.909  0.00  0.00     0.016 A 
ATOM     21  H   LIG d   1       6.690  -4.715  -5.118  0.00  0.00     0.037 H 
ATOM     22  H   LIG d   1       7.906  -2.790  -6.235  0.00  0.00     0.041 H 
BRANCH  19  23
ATOM     23  C   LIG d   1       6.571  -1.811  -3.122  0.00  0.00    -0.059 C 
ATOM     24  H   LIG d   1       6.876  -0.794  -3.371  0.00  0.00     0.024 H 
ATOM     25  H   LIG d   1       5.489  -1.897  -3.210  0.00  0.00     0.024 H 
ATOM     26  H   LIG d   1       6.872  -2.040  -2.099  0.00  0.00     0.024 H 
ENDBRANCH  19  23
BRANCH  19  27
ATOM     27  C   LIG d   1       8.581  -3.365  -3.614  0.00  0.00    -0.059 C 
ATOM     28  H   LIG d   1       8.771  -4.312  -4.121  0.00  0.00     0.024 H 
ATOM     29  H   LIG d   1       9.380  -2.661  -3.851  0.00  0.00     0.024 H 
ATOM     30  H   LIG d   1       8.550  -3.529  -2.538  0.00  0.00     0.024 H 
ENDBRANCH  19  27
BRANCH  20  31
ATOM     31  C   LIG d   1       4.846  -3.570  -4.712  0.00  0.00     0.046 C 
ATOM     32  O   LIG d   1       4.411  -3.037  -3.705  0.00  0.00    -0.549 OA
ATOM     33  O   LIG d   1       4.078  -3.993  -5.559  0.00  0.00    -0.549 OA
ENDBRANCH  20  31
ENDBRANCH  15  18
ENDBRANCH   1  14
BRANCH  10  34
ATOM     34  C   LIG d   1       3.125  -0.029  -4.558  0.00  0.00     0.357 C 
ATOM     35  O   LIG d   1       2.063  -0.514  -4.214  0.00  0.00    -0.243 OA
BRANCH  34  36
ATOM     36  O   LIG d   1       4.082   0.221  -3.640  0.00  0.00    -0.463 OA
BRANCH  36  37
ATOM     37  C   LIG d   1       3.838   1.289  -2.723  0.00  0.00     0.082 C 
ATOM     38  H   LIG d   1       3.531   2.179  -3.273  0.00  0.00     0.066 H 
ATOM     39  H   LIG d   1       3.047   1.000  -2.031  0.00  0.00     0.066 H 
ATOM     40  H   LIG d   1       4.749   1.504  -2.163  0.00  0.00     0.066 H 
ENDBRANCH  36  37
ENDBRANCH  34  36
ENDBRANCH  10  34
BRANCH   7  41
ATOM     41  O   LIG d   1       5.612  -1.028  -9.453  0.00  0.00    -0.494 OA
BRANCH  41  42
ATOM     42  C   LIG d   1       5.113  -2.227 -10.047  0.00  0.00     0.079 C 
ATOM     43  H   LIG d   1       4.289  -2.614  -9.448  0.00  0.00     0.066 H 
ATOM     44  H   LIG d   1       4.760  -2.013 -11.056  0.00  0.00     0.066 H 
ATOM     45  H   LIG d   1       5.910  -2.970 -10.091  0.00  0.00     0.066 H 
ENDBRANCH  41  42
ENDBRANCH   7  41
TORSDOF 10
ENDMDL
MODEL 5
REMARK VINA RESULT:      -5.4      1.807      5.326
REMARK  10 active torsions:
REMARK  status: ('A' for Active; 'I' for Inactive)
REMARK    1  A    between atoms: C_1  and  C_2 
REMARK    2  A    between atoms: C_2  and  C_29 
REMARK    3  A    between atoms: C_3  and  C_10 
REMARK    4  A    between atoms: C_5  and  C_7 
REMARK       I    between atoms: C_10  and  N_12 
REMARK    5  A    between atoms: N_12  and  C_13 
REMARK    6  A    between atoms: C_19  and  O_20 
REMARK    7  A    between atoms: O_20  and  C_21 
REMARK    8  A    between atoms: C_24  and  C_25 
REMARK    9  A    between atoms: C_25  and  O_27 
REMARK   10  A    between atoms: O_27  and  C_28 
ROOT
ATOM      1  C   LIG d   1       4.193  -2.259  -5.607  0.00  0.00     0.077 A 
ATOM      2  C   LIG d   1       4.129  -1.349  -4.463  0.00  0.00     0.063 A 
ATOM      3  C   LIG d   1       4.477  -2.104  -3.328  0.00  0.00     0.052 A 
ATOM      4  C   LIG d   1       4.500  -1.486  -2.079  0.00  0.00    -0.037 A 
ATOM      5  C   LIG d   1       4.186  -0.151  -1.963  0.00  0.00    -0.056 A 
ATOM      6  C   LIG d   1       3.843   0.598  -3.079  0.00  0.00    -0.019 A 
ATOM      7  C   LIG d   1       3.813   0.011  -4.330  0.00  0.00     0.131 A 
ATOM      8  N   LIG d   1       4.737  -3.390  -3.737  0.00  0.00    -0.347 N 
ATOM      9  H   LIG d   1       5.000  -4.119  -3.152  0.00  0.00     0.166 HD
ATOM     10  C   LIG d   1       4.563  -3.493  -5.111  0.00  0.00     0.147 A 
ATOM     11  H   LIG d   1       4.766  -2.057  -1.201  0.00  0.00     0.064 H 
ATOM     12  H   LIG d   1       4.206   0.319  -0.990  0.00  0.00     0.062 H 
ATOM     13  H   LIG d   1       3.598   1.645  -2.971  0.00  0.00     0.065 H 
ENDROOT
BRANCH   1  14
ATOM     14  N   LIG d   1       3.928  -1.945  -6.936  0.00  0.00    -0.283 N 
ATOM     15  C   LIG d   1       4.928  -1.545  -7.747  0.00  0.00     0.222 C 
ATOM     16  O   LIG d   1       6.049  -1.410  -7.305  0.00  0.00    -0.275 OA
ATOM     17  H   LIG d   1       3.023  -2.013  -7.280  0.00  0.00     0.155 HD
BRANCH  15  18
ATOM     18  C   LIG d   1       4.652  -1.266  -9.202  0.00  0.00     0.050 A 
ATOM     19  C   LIG d   1       3.290  -0.670  -9.561  0.00  0.00    -0.015 A 
ATOM     20  C   LIG d   1       4.548   0.198  -9.633  0.00  0.00     0.016 A 
ATOM     21  H   LIG d   1       4.923   0.459 -10.623  0.00  0.00     0.037 H 
ATOM     22  H   LIG d   1       5.097  -1.968  -9.907  0.00  0.00     0.041 H 
BRANCH  19  23
ATOM     23  C   LIG d   1       2.312  -0.404  -8.416  0.00  0.00    -0.059 C 
ATOM     24  H   LIG d   1       1.352  -0.869  -8.643  0.00  0.00     0.024 H 
ATOM     25  H   LIG d   1       2.708  -0.824  -7.492  0.00  0.00     0.024 H 
ATOM     26  H   LIG d   1       2.175   0.671  -8.296  0.00  0.00     0.024 H 
ENDBRANCH  19  23
BRANCH  19  27
ATOM     27  C   LIG d   1       2.655  -1.106 -10.883  0.00  0.00    -0.059 C 
ATOM     28  H   LIG d   1       3.401  -1.062 -11.677  0.00  0.00     0.024 H 
ATOM     29  H   LIG d   1       2.286  -2.128 -10.789  0.00  0.00     0.024 H 
ATOM     30  H   LIG d   1       1.827  -0.442 -11.126  0.00  0.00     0.024 H 
ENDBRANCH  19  27
BRANCH  20  31
ATOM     31  C   LIG d   1       4.727   1.251  -8.570  0.00  0.00     0.046 C 
ATOM     32  O   LIG d   1       5.733   1.257  -7.881  0.00  0.00    -0.549 OA
ATOM     33  O   LIG d   1       3.867   2.098  -8.400  0.00  0.00    -0.549 OA
ENDBRANCH  20  31
ENDBRANCH  15  18
ENDBRANCH   1  14
BRANCH  10  34
ATOM     34  C   LIG d   1       4.738  -4.672  -5.877  0.00  0.00     0.357 C 
ATOM     35  O   LIG d   1       5.461  -4.659  -6.856  0.00  0.00    -0.243 OA
BRANCH  34  36
ATOM     36  O   LIG d   1       4.102  -5.808  -5.522  0.00  0.00    -0.463 OA
BRANCH  36  37
ATOM     37  C   LIG d   1       4.837  -7.027  -5.645  0.00  0.00     0.082 C 
ATOM     38  H   LIG d   1       4.618  -7.489  -6.607  0.00  0.00     0.066 H 
ATOM     39  H   LIG d   1       5.904  -6.817  -5.578  0.00  0.00     0.066 H 
ATOM     40  H   LIG d   1       4.551  -7.707  -4.842  0.00  0.00     0.066 H 
ENDBRANCH  36  37
ENDBRANCH  34  36
ENDBRANCH  10  34
BRANCH   7  41
ATOM     41  O   LIG d   1       3.477   0.745  -5.421  0.00  0.00    -0.494 OA
BRANCH  41  42
ATOM     42  C   LIG d   1       2.334   1.594  -5.306  0.00  0.00     0.079 C 
ATOM     43  H   LIG d   1       2.333   2.316  -6.122  0.00  0.00     0.066 H 
ATOM     44  H   LIG d   1       1.427   0.991  -5.354  0.00  0.00     0.066 H 
ATOM     45  H   LIG d   1       2.368   2.123  -4.353  0.00  0.00     0.066 H 
ENDBRANCH  41  42
ENDBRANCH   7  41
TORSDOF 10
ENDMDL
MODEL 6
REMARK VINA RESULT:      -5.4      1.799      6.043
REMARK  10 active torsions:
REMARK  status: ('A' for Active; 'I' for Inactive)
REMARK    1  A    between atoms: C_1  and  C_2 
REMARK    2  A    between atoms: C_2  and  C_29 
REMARK    3  A    between atoms: C_3  and  C_10 
REMARK    4  A    between atoms: C_5  and  C_7 
REMARK       I    between atoms: C_10  and  N_12 
REMARK    5  A    between atoms: N_12  and  C_13 
REMARK    6  A    between atoms: C_19  and  O_20 
REMARK    7  A    between atoms: O_20  and  C_21 
REMARK    8  A    between atoms: C_24  and  C_25 
REMARK    9  A    between atoms: C_25  and  O_27 
REMARK   10  A    between atoms: O_27  and  C_28 
ROOT
ATOM      1  C   LIG d   1       4.537  -0.940  -5.703  0.00  0.00     0.077 A 
ATOM      2  C   LIG d   1       4.483  -0.460  -4.322  0.00  0.00     0.063 A 
ATOM      3  C   LIG d   1       3.491   0.537  -4.281  0.00  0.00     0.052 A 
ATOM      4  C   LIG d   1       3.219   1.179  -3.074  0.00  0.00    -0.037 A 
ATOM      5  C   LIG d   1       3.916   0.837  -1.937  0.00  0.00    -0.056 A 
ATOM      6  C   LIG d   1       4.894  -0.145  -1.972  0.00  0.00    -0.019 A 
ATOM      7  C   LIG d   1       5.184  -0.799  -3.155  0.00  0.00     0.131 A 
ATOM      8  N   LIG d   1       2.968   0.668  -5.545  0.00  0.00    -0.347 N 
ATOM      9  H   LIG d   1       2.265   1.289  -5.797  0.00  0.00     0.166 HD
ATOM     10  C   LIG d   1       3.598  -0.216  -6.411  0.00  0.00     0.147 A 
ATOM     11  H   LIG d   1       2.459   1.946  -3.031  0.00  0.00     0.064 H 
ATOM     12  H   LIG d   1       3.699   1.341  -1.006  0.00  0.00     0.062 H 
ATOM     13  H   LIG d   1       5.432  -0.402  -1.071  0.00  0.00     0.065 H 
ENDROOT
BRANCH   1  14
ATOM     14  N   LIG d   1       5.376  -1.928  -6.208  0.00  0.00    -0.283 N 
ATOM     15  C   LIG d   1       5.172  -3.219  -5.876  0.00  0.00     0.222 C 
ATOM     16  O   LIG d   1       4.290  -3.513  -5.098  0.00  0.00    -0.275 OA
ATOM     17  H   LIG d   1       6.107  -1.689  -6.798  0.00  0.00     0.155 HD
BRANCH  15  18
ATOM     18  C   LIG d   1       6.040  -4.296  -6.473  0.00  0.00     0.050 A 
ATOM     19  C   LIG d   1       5.662  -5.750  -6.183  0.00  0.00    -0.015 A 
ATOM     20  C   LIG d   1       5.433  -5.163  -7.577  0.00  0.00     0.016 A 
ATOM     21  H   LIG d   1       6.094  -5.495  -8.378  0.00  0.00     0.037 H 
ATOM     22  H   LIG d   1       7.101  -4.058  -6.546  0.00  0.00     0.041 H 
BRANCH  19  23
ATOM     23  C   LIG d   1       4.430  -5.998  -5.310  0.00  0.00    -0.059 C 
ATOM     24  H   LIG d   1       4.134  -5.067  -4.828  0.00  0.00     0.024 H 
ATOM     25  H   LIG d   1       3.612  -6.362  -5.929  0.00  0.00     0.024 H 
ATOM     26  H   LIG d   1       4.669  -6.741  -4.548  0.00  0.00     0.024 H 
ENDBRANCH  19  23
BRANCH  19  27
ATOM     27  C   LIG d   1       6.801  -6.757  -6.018  0.00  0.00    -0.059 C 
ATOM     28  H   LIG d   1       6.551  -7.462  -5.225  0.00  0.00     0.024 H 
ATOM     29  H   LIG d   1       6.945  -7.299  -6.953  0.00  0.00     0.024 H 
ATOM     30  H   LIG d   1       7.719  -6.230  -5.760  0.00  0.00     0.024 H 
ENDBRANCH  19  27
BRANCH  20  31
ATOM     31  C   LIG d   1       4.011  -4.874  -7.986  0.00  0.00     0.046 C 
ATOM     32  O   LIG d   1       3.681  -3.739  -8.283  0.00  0.00    -0.549 OA
ATOM     33  O   LIG d   1       3.192  -5.776  -8.019  0.00  0.00    -0.549 OA
ENDBRANCH  20  31
ENDBRANCH  15  18
ENDBRANCH   1  14
BRANCH  10  34
ATOM     34  C   LIG d   1       3.321  -0.355  -7.793  0.00  0.00     0.357 C 
ATOM     35  O   LIG d   1       4.234  -0.475  -8.588  0.00  0.00    -0.243 OA
BRANCH  34  36
ATOM     36  O   LIG d   1       2.043  -0.354  -8.228  0.00  0.00    -0.463 OA
BRANCH  36  37
ATOM     37  C   LIG d   1       1.801  -0.897  -9.527  0.00  0.00     0.082 C 
ATOM     38  H   LIG d   1       2.695  -1.410  -9.880  0.00  0.00     0.066 H 
ATOM     39  H   LIG d   1       0.973  -1.605  -9.477  0.00  0.00     0.066 H 
ATOM     40  H   LIG d   1       1.547  -0.092 -10.217  0.00  0.00     0.066 H 
ENDBRANCH  36  37
ENDBRANCH  34  36
ENDBRANCH  10  34
BRANCH   7  41
ATOM     41  O   LIG d   1       6.142  -1.760  -3.187  0.00  0.00    -0.494 OA
BRANCH  41  42
ATOM     42  C   LIG d   1       7.477  -1.337  -3.464  0.00  0.00     0.079 C 
ATOM     43  H   LIG d   1       7.743  -1.617  -4.483  0.00  0.00     0.066 H 
ATOM     44  H   LIG d   1       7.546  -0.254  -3.355  0.00  0.00     0.066 H 
ATOM     45  H   LIG d   1       8.163  -1.816  -2.765  0.00  0.00     0.066 H 
ENDBRANCH  41  42
ENDBRANCH   7  41
TORSDOF 10
ENDMDL
MODEL 7
REMARK VINA RESULT:      -5.4      2.553      6.133
REMARK  10 active torsions:
REMARK  status: ('A' for Active; 'I' for Inactive)
REMARK    1  A    between atoms: C_1  and  C_2 
REMARK    2  A    between atoms: C_2  and  C_29 
REMARK    3  A    between atoms: C_3  and  C_10 
REMARK    4  A    between atoms: C_5  and  C_7 
REMARK       I    between atoms: C_10  and  N_12 
REMARK    5  A    between atoms: N_12  and  C_13 
REMARK    6  A    between atoms: C_19  and  O_20 
REMARK    7  A    between atoms: O_20  and  C_21 
REMARK    8  A    between atoms: C_24  and  C_25 
REMARK    9  A    between atoms: C_25  and  O_27 
REMARK   10  A    between atoms: O_27  and  C_28 
ROOT
ATOM      1  C   LIG d   1       4.391  -0.632  -6.348  0.00  0.00     0.077 A 
ATOM      2  C   LIG d   1       4.244  -1.083  -4.964  0.00  0.00     0.063 A 
ATOM      3  C   LIG d   1       3.065  -0.492  -4.472  0.00  0.00     0.052 A 
ATOM      4  C   LIG d   1       2.671  -0.749  -3.161  0.00  0.00    -0.037 A 
ATOM      5  C   LIG d   1       3.428  -1.573  -2.359  0.00  0.00    -0.056 A 
ATOM      6  C   LIG d   1       4.590  -2.158  -2.840  0.00  0.00    -0.019 A 
ATOM      7  C   LIG d   1       5.005  -1.921  -4.137  0.00  0.00     0.131 A 
ATOM      8  N   LIG d   1       2.521   0.271  -5.477  0.00  0.00    -0.347 N 
ATOM      9  H   LIG d   1       1.703   0.789  -5.404  0.00  0.00     0.166 HD
ATOM     10  C   LIG d   1       3.319   0.197  -6.611  0.00  0.00     0.147 A 
ATOM     11  H   LIG d   1       1.767  -0.301  -2.772  0.00  0.00     0.064 H 
ATOM     12  H   LIG d   1       3.115  -1.766  -1.344  0.00  0.00     0.062 H 
ATOM     13  H   LIG d   1       5.174  -2.802  -2.199  0.00  0.00     0.065 H 
ENDROOT
BRANCH   1  14
ATOM     14  N   LIG d   1       5.416  -0.967  -7.227  0.00  0.00    -0.283 N 
ATOM     15  C   LIG d   1       6.538  -0.220  -7.270  0.00  0.00     0.222 C 
ATOM     16  O   LIG d   1       6.633   0.772  -6.580  0.00  0.00    -0.275 OA
ATOM     17  H   LIG d   1       5.325  -1.737  -7.809  0.00  0.00     0.155 HD
BRANCH  15  18
ATOM     18  C   LIG d   1       7.675  -0.620  -8.175  0.00  0.00     0.050 A 
ATOM     19  C   LIG d   1       7.383  -1.658  -9.259  0.00  0.00    -0.015 A 
ATOM     20  C   LIG d   1       7.595  -0.192  -9.641  0.00  0.00     0.016 A 
ATOM     21  H   LIG d   1       8.527   0.068 -10.142  0.00  0.00     0.037 H 
ATOM     22  H   LIG d   1       8.661  -0.641  -7.711  0.00  0.00     0.041 H 
BRANCH  19  23
ATOM     23  C   LIG d   1       5.959  -2.212  -9.341  0.00  0.00    -0.059 C 
ATOM     24  H   LIG d   1       5.366  -1.813  -8.519  0.00  0.00     0.024 H 
ATOM     25  H   LIG d   1       5.508  -1.919 -10.289  0.00  0.00     0.024 H 
ATOM     26  H   LIG d   1       5.988  -3.300  -9.274  0.00  0.00     0.024 H 
ENDBRANCH  19  23
BRANCH  19  27
ATOM     27  C   LIG d   1       8.496  -2.648  -9.608  0.00  0.00    -0.059 C 
ATOM     28  H   LIG d   1       8.876  -3.106  -8.694  0.00  0.00     0.024 H 
ATOM     29  H   LIG d   1       8.101  -3.423 -10.265  0.00  0.00     0.024 H 
ATOM     30  H   LIG d   1       9.305  -2.122 -10.114  0.00  0.00     0.024 H 
ENDBRANCH  19  27
BRANCH  20  31
ATOM     31  C   LIG d   1       6.384   0.596 -10.071  0.00  0.00     0.046 C 
ATOM     32  O   LIG d   1       6.150   1.679  -9.562  0.00  0.00    -0.549 OA
ATOM     33  O   LIG d   1       5.639   0.151 -10.928  0.00  0.00    -0.549 OA
ENDBRANCH  20  31
ENDBRANCH  15  18
ENDBRANCH   1  14
BRANCH  10  34
ATOM     34  C   LIG d   1       3.071   0.860  -7.838  0.00  0.00     0.357 C 
ATOM     35  O   LIG d   1       2.879   2.062  -7.852  0.00  0.00    -0.243 OA
BRANCH  34  36
ATOM     36  O   LIG d   1       3.048   0.159  -8.991  0.00  0.00    -0.463 OA
BRANCH  36  37
ATOM     37  C   LIG d   1       1.994  -0.793  -9.149  0.00  0.00     0.082 C 
ATOM     38  H   LIG d   1       1.333  -0.753  -8.284  0.00  0.00     0.066 H 
ATOM     39  H   LIG d   1       1.427  -0.561 -10.051  0.00  0.00     0.066 H 
ATOM     40  H   LIG d   1       2.418  -1.794  -9.236  0.00  0.00     0.066 H 
ENDBRANCH  36  37
ENDBRANCH  34  36
ENDBRANCH  10  34
BRANCH   7  41
ATOM     41  O   LIG d   1       6.143  -2.495  -4.606  0.00  0.00    -0.494 OA
BRANCH  41  42
ATOM     42  C   LIG d   1       7.377  -2.037  -4.052  0.00  0.00     0.079 C 
ATOM     43  H   LIG d   1       8.131  -2.817  -4.150  0.00  0.00     0.066 H 
ATOM     44  H   LIG d   1       7.706  -1.145  -4.585  0.00  0.00     0.066 H 
ATOM     45  H   LIG d   1       7.236  -1.799  -2.997  0.00  0.00     0.066 H 
ENDBRANCH  41  42
ENDBRANCH   7  41
TORSDOF 10
ENDMDL
MODEL 8
REMARK VINA RESULT:      -5.3      2.069      6.235
REMARK  10 active torsions:
REMARK  status: ('A' for Active; 'I' for Inactive)
REMARK    1  A    between atoms: C_1  and  C_2 
REMARK    2  A    between atoms: C_2  and  C_29 
REMARK    3  A    between atoms: C_3  and  C_10 
REMARK    4  A    between atoms: C_5  and  C_7 
REMARK       I    between atoms: C_10  and  N_12 
REMARK    5  A    between atoms: N_12  and  C_13 
REMARK    6  A    between atoms: C_19  and  O_20 
REMARK    7  A    between atoms: O_20  and  C_21 
REMARK    8  A    between atoms: C_24  and  C_25 
REMARK    9  A    between atoms: C_25  and  O_27 
REMARK   10  A    between atoms: O_27  and  C_28 
ROOT
ATOM      1  C   LIG d   1       3.956  -0.861  -5.857  0.00  0.00     0.077 A 
ATOM      2  C   LIG d   1       4.137  -0.580  -4.432  0.00  0.00     0.063 A 
ATOM      3  C   LIG d   1       3.432   0.608  -4.164  0.00  0.00     0.052 A 
ATOM      4  C   LIG d   1       3.428   1.121  -2.869  0.00  0.00    -0.037 A 
ATOM      5  C   LIG d   1       4.109   0.469  -1.865  0.00  0.00    -0.056 A 
ATOM      6  C   LIG d   1       4.805  -0.702  -2.124  0.00  0.00    -0.019 A 
ATOM      7  C   LIG d   1       4.824  -1.234  -3.399  0.00  0.00     0.131 A 
ATOM      8  N   LIG d   1       2.856   1.034  -5.338  0.00  0.00    -0.347 N 
ATOM      9  H   LIG d   1       2.312   1.832  -5.434  0.00  0.00     0.166 HD
ATOM     10  C   LIG d   1       3.172   0.155  -6.365  0.00  0.00     0.147 A 
ATOM     11  H   LIG d   1       2.890   2.033  -2.651  0.00  0.00     0.064 H 
ATOM     12  H   LIG d   1       4.101   0.875  -0.864  0.00  0.00     0.062 H 
ATOM     13  H   LIG d   1       5.334  -1.202  -1.326  0.00  0.00     0.065 H 
ENDROOT
BRANCH   1  14
ATOM     14  N   LIG d   1       4.478  -1.940  -6.564  0.00  0.00    -0.283 N 
ATOM     15  C   LIG d   1       5.739  -1.889  -7.037  0.00  0.00     0.222 C 
ATOM     16  O   LIG d   1       6.401  -0.883  -6.892  0.00  0.00    -0.275 OA
ATOM     17  H   LIG d   1       3.935  -2.729  -6.716  0.00  0.00     0.155 HD
BRANCH  15  18
ATOM     18  C   LIG d   1       6.327  -3.081  -7.747  0.00  0.00     0.050 A 
ATOM     19  C   LIG d   1       5.356  -4.144  -8.264  0.00  0.00    -0.015 A 
ATOM     20  C   LIG d   1       6.063  -3.211  -9.248  0.00  0.00     0.016 A 
ATOM     21  H   LIG d   1       6.856  -3.635  -9.864  0.00  0.00     0.037 H 
ATOM     22  H   LIG d   1       7.293  -3.421  -7.375  0.00  0.00     0.041 H 
BRANCH  19  23
ATOM     23  C   LIG d   1       3.863  -3.915  -8.020  0.00  0.00    -0.059 C 
ATOM     24  H   LIG d   1       3.307  -4.151  -8.928  0.00  0.00     0.024 H 
ATOM     25  H   LIG d   1       3.523  -4.559  -7.210  0.00  0.00     0.024 H 
ATOM     26  H   LIG d   1       3.694  -2.872  -7.752  0.00  0.00     0.024 H 
ENDBRANCH  19  23
BRANCH  19  27
ATOM     27  C   LIG d   1       5.816  -5.603  -8.218  0.00  0.00    -0.059 C 
ATOM     28  H   LIG d   1       5.488  -6.116  -9.122  0.00  0.00     0.024 H 
ATOM     29  H   LIG d   1       6.904  -5.639  -8.155  0.00  0.00     0.024 H 
ATOM     30  H   LIG d   1       5.385  -6.093  -7.346  0.00  0.00     0.024 H 
ENDBRANCH  19  27
BRANCH  20  31
ATOM     31  C   LIG d   1       5.235  -2.136  -9.905  0.00  0.00     0.046 C 
ATOM     32  O   LIG d   1       4.390  -2.437 -10.730  0.00  0.00    -0.549 OA
ATOM     33  O   LIG d   1       5.410  -0.966  -9.610  0.00  0.00    -0.549 OA
ENDBRANCH  20  31
ENDBRANCH  15  18
ENDBRANCH   1  14
BRANCH  10  34
ATOM     34  C   LIG d   1       2.757   0.281  -7.713  0.00  0.00     0.357 C 
ATOM     35  O   LIG d   1       2.807   1.363  -8.268  0.00  0.00    -0.243 OA
BRANCH  34  36
ATOM     36  O   LIG d   1       2.307  -0.801  -8.383  0.00  0.00    -0.463 OA
BRANCH  36  37
ATOM     37  C   LIG d   1       1.661  -0.565  -9.636  0.00  0.00     0.082 C 
ATOM     38  H   LIG d   1       1.888   0.445  -9.978  0.00  0.00     0.066 H 
ATOM     39  H   LIG d   1       2.018  -1.286 -10.371  0.00  0.00     0.066 H 
ATOM     40  H   LIG d   1       0.583  -0.674  -9.516  0.00  0.00     0.066 H 
ENDBRANCH  36  37
ENDBRANCH  34  36
ENDBRANCH  10  34
BRANCH   7  41
ATOM     41  O   LIG d   1       5.506  -2.381  -3.651  0.00  0.00    -0.494 OA
BRANCH  41  42
ATOM     42  C   LIG d   1       6.932  -2.307  -3.624  0.00  0.00     0.079 C 
ATOM     43  H   LIG d   1       7.298  -1.989  -4.600  0.00  0.00     0.066 H 
ATOM     44  H   LIG d   1       7.245  -1.589  -2.867  0.00  0.00     0.066 H 
ATOM     45  H   LIG d   1       7.342  -3.289  -3.385  0.00  0.00     0.066 H 
ENDBRANCH  41  42
ENDBRANCH   7  41
TORSDOF 10
ENDMDL
MODEL 9
REMARK VINA RESULT:      -5.2      2.273      6.503
REMARK  10 active torsions:
REMARK  status: ('A' for Active; 'I' for Inactive)
REMARK    1  A    between atoms: C_1  and  C_2 
REMARK    2  A    between atoms: C_2  and  C_29 
REMARK    3  A    between atoms: C_3  and  C_10 
REMARK    4  A    between atoms: C_5  and  C_7 
REMARK       I    between atoms: C_10  and  N_12 
REMARK    5  A    between atoms: N_12  and  C_13 
REMARK    6  A    between atoms: C_19  and  O_20 
REMARK    7  A    between atoms: O_20  and  C_21 
REMARK    8  A    between atoms: C_24  and  C_25 
REMARK    9  A    between atoms: C_25  and  O_27 
REMARK   10  A    between atoms: O_27  and  C_28 
ROOT
ATOM      1  C   LIG d   1       4.307  -0.859  -6.388  0.00  0.00     0.077 A 
ATOM      2  C   LIG d   1       4.186  -1.224  -4.976  0.00  0.00     0.063 A 
ATOM      3  C   LIG d   1       3.088  -0.506  -4.467  0.00  0.00     0.052 A 
ATOM      4  C   LIG d   1       2.735  -0.659  -3.128  0.00  0.00    -0.037 A 
ATOM      5  C   LIG d   1       3.455  -1.506  -2.316  0.00  0.00    -0.056 A 
ATOM      6  C   LIG d   1       4.537  -2.217  -2.812  0.00  0.00    -0.019 A 
ATOM      7  C   LIG d   1       4.909  -2.085  -4.137  0.00  0.00     0.131 A 
ATOM      8  N   LIG d   1       2.566   0.251  -5.489  0.00  0.00    -0.347 N 
ATOM      9  H   LIG d   1       1.801   0.843  -5.409  0.00  0.00     0.166 HD
ATOM     10  C   LIG d   1       3.299   0.048  -6.650  0.00  0.00     0.147 A 
ATOM     11  H   LIG d   1       1.894  -0.112  -2.727  0.00  0.00     0.064 H 
ATOM     12  H   LIG d   1       3.174  -1.618  -1.278  0.00  0.00     0.062 H 
ATOM     13  H   LIG d   1       5.092  -2.877  -2.162  0.00  0.00     0.065 H 
ENDROOT
BRANCH   1  14
ATOM     14  N   LIG d   1       5.256  -1.330  -7.290  0.00  0.00    -0.283 N 
ATOM     15  C   LIG d   1       4.974  -2.392  -8.071  0.00  0.00     0.222 C 
ATOM     16  O   LIG d   1       3.915  -2.968  -7.952  0.00  0.00    -0.275 OA
ATOM     17  H   LIG d   1       6.119  -0.894  -7.357  0.00  0.00     0.155 HD
BRANCH  15  18
ATOM     18  C   LIG d   1       5.977  -2.862  -9.093  0.00  0.00     0.050 A 
ATOM     19  C   LIG d   1       5.484  -3.059 -10.528  0.00  0.00    -0.015 A 
ATOM     20  C   LIG d   1       6.389  -1.874 -10.186  0.00  0.00     0.016 A 
ATOM     21  H   LIG d   1       7.421  -1.911 -10.535  0.00  0.00     0.037 H 
ATOM     22  H   LIG d   1       6.738  -3.549  -8.723  0.00  0.00     0.041 H 
BRANCH  19  23
ATOM     23  C   LIG d   1       4.011  -2.765 -10.815  0.00  0.00    -0.059 C 
ATOM     24  H   LIG d   1       3.409  -3.048  -9.951  0.00  0.00     0.024 H 
ATOM     25  H   LIG d   1       3.884  -1.701 -11.012  0.00  0.00     0.024 H 
ATOM     26  H   LIG d   1       3.688  -3.337 -11.685  0.00  0.00     0.024 H 
ENDBRANCH  19  23
BRANCH  19  27
ATOM     27  C   LIG d   1       6.096  -4.207 -11.333  0.00  0.00    -0.059 C 
ATOM     28  H   LIG d   1       5.986  -4.003 -12.399  0.00  0.00     0.024 H 
ATOM     29  H   LIG d   1       7.155  -4.298 -11.089  0.00  0.00     0.024 H 
ATOM     30  H   LIG d   1       5.586  -5.137 -11.087  0.00  0.00     0.024 H 
ENDBRANCH  19  27
BRANCH  20  31
ATOM     31  C   LIG d   1       5.760  -0.504 -10.159  0.00  0.00     0.046 C 
ATOM     32  O   LIG d   1       6.148   0.329  -9.358  0.00  0.00    -0.549 OA
ATOM     33  O   LIG d   1       4.864  -0.230 -10.938  0.00  0.00    -0.549 OA
ENDBRANCH  20  31
ENDBRANCH  15  18
ENDBRANCH   1  14
BRANCH  10  34
ATOM     34  C   LIG d   1       3.053   0.667  -7.900  0.00  0.00     0.357 C 
ATOM     35  O   LIG d   1       2.531   0.036  -8.799  0.00  0.00    -0.243 OA
BRANCH  34  36
ATOM     36  O   LIG d   1       3.397   1.958  -8.092  0.00  0.00    -0.463 OA
BRANCH  36  37
ATOM     37  C   LIG d   1       3.402   2.434  -9.439  0.00  0.00     0.082 C 
ATOM     38  H   LIG d   1       3.057   1.644 -10.106  0.00  0.00     0.066 H 
ATOM     39  H   LIG d   1       2.739   3.295  -9.523  0.00  0.00     0.066 H 
ATOM     40  H   LIG d   1       4.415   2.728  -9.717  0.00  0.00     0.066 H 
ENDBRANCH  36  37
ENDBRANCH  34  36
ENDBRANCH  10  34
BRANCH   7  41
ATOM     41  O   LIG d   1       5.969  -2.781  -4.621  0.00  0.00    -0.494 OA
BRANCH  41  42
ATOM     42  C   LIG d   1       7.258  -2.441  -4.110  0.00  0.00     0.079 C 
ATOM     43  H   LIG d   1       8.026  -2.781  -4.805  0.00  0.00     0.066 H 
ATOM     44  H   LIG d   1       7.329  -1.360  -3.991  0.00  0.00     0.066 H 
ATOM     45  H   LIG d   1       7.404  -2.923  -3.143  0.00  0.00     0.066 H 
ENDBRANCH  41  42
ENDBRANCH   7  41
TORSDOF 10
ENDMDL
MODEL 10
REMARK VINA RESULT:      -5.0      9.336     11.644
REMARK  10 active torsions:
REMARK  status: ('A' for Active; 'I' for Inactive)
REMARK    1  A    between atoms: C_1  and  C_2 
REMARK    2  A    between atoms: C_2  and  C_29 
REMARK    3  A    between atoms: C_3  and  C_10 
REMARK    4  A    between atoms: C_5  and  C_7 
REMARK       I    between atoms: C_10  and  N_12 
REMARK    5  A    between atoms: N_12  and  C_13 
REMARK    6  A    between atoms: C_19  and  O_20 
REMARK    7  A    between atoms: O_20  and  C_21 
REMARK    8  A    between atoms: C_24  and  C_25 
REMARK    9  A    between atoms: C_25  and  O_27 
REMARK   10  A    between atoms: O_27  and  C_28 
ROOT
ATOM      1  C   LIG d   1      10.745   6.299  -1.863  0.00  0.00     0.077 A 
ATOM      2  C   LIG d   1      10.199   5.448  -2.922  0.00  0.00     0.063 A 
ATOM      3  C   LIG d   1      10.434   4.117  -2.530  0.00  0.00     0.052 A 
ATOM      4  C   LIG d   1      10.014   3.079  -3.358  0.00  0.00    -0.037 A 
ATOM      5  C   LIG d   1       9.376   3.356  -4.546  0.00  0.00    -0.056 A 
ATOM      6  C   LIG d   1       9.142   4.666  -4.937  0.00  0.00    -0.019 A 
ATOM      7  C   LIG d   1       9.546   5.716  -4.134  0.00  0.00     0.131 A 
ATOM      8  N   LIG d   1      11.080   4.140  -1.316  0.00  0.00    -0.347 N 
ATOM      9  H   LIG d   1      11.360   3.355  -0.819  0.00  0.00     0.166 HD
ATOM     10  C   LIG d   1      11.276   5.453  -0.910  0.00  0.00     0.147 A 
ATOM     11  H   LIG d   1      10.190   2.053  -3.067  0.00  0.00     0.064 H 
ATOM     12  H   LIG d   1       9.055   2.544  -5.182  0.00  0.00     0.062 H 
ATOM     13  H   LIG d   1       8.640   4.868  -5.872  0.00  0.00     0.065 H 
ENDROOT
BRANCH   1  14
ATOM     14  N   LIG d   1      10.736   7.690  -1.827  0.00  0.00    -0.283 N 
ATOM     15  C   LIG d   1       9.723   8.342  -1.221  0.00  0.00     0.222 C 
ATOM     16  O   LIG d   1       8.794   7.718  -0.754  0.00  0.00    -0.275 OA
ATOM     17  H   LIG d   1      11.458   8.191  -2.237  0.00  0.00     0.155 HD
BRANCH  15  18
ATOM     18  C   LIG d   1       9.745   9.845  -1.126  0.00  0.00     0.050 A 
ATOM     19  C   LIG d   1      10.584  10.470  -0.010  0.00  0.00    -0.015 A 
ATOM     20  C   LIG d   1      11.057  10.556  -1.461  0.00  0.00     0.016 A 
ATOM     21  H   LIG d   1      10.994  11.525  -1.955  0.00  0.00     0.037 H 
ATOM     22  H   LIG d   1       8.817  10.347  -1.399  0.00  0.00     0.041 H 
BRANCH  19  23
ATOM     23  C   LIG d   1      11.335   9.520   0.925  0.00  0.00    -0.059 C 
ATOM     24  H   LIG d   1      12.337   9.908   1.108  0.00  0.00     0.024 H 
ATOM     25  H   LIG d   1      10.799   9.439   1.870  0.00  0.00     0.024 H 
ATOM     26  H   LIG d   1      11.406   8.535   0.462  0.00  0.00     0.024 H 
ENDBRANCH  19  23
BRANCH  19  27
ATOM     27  C   LIG d   1      10.055  11.751   0.639  0.00  0.00    -0.059 C 
ATOM     28  H   LIG d   1      10.543  12.615   0.187  0.00  0.00     0.024 H 
ATOM     29  H   LIG d   1       8.978  11.820   0.482  0.00  0.00     0.024 H 
ATOM     30  H   LIG d   1      10.266  11.732   1.707  0.00  0.00     0.024 H 
ENDBRANCH  19  27
BRANCH  20  31
ATOM     31  C   LIG d   1      12.231   9.698  -1.862  0.00  0.00     0.046 C 
ATOM     32  O   LIG d   1      12.375   9.369  -3.027  0.00  0.00    -0.549 OA
ATOM     33  O   LIG d   1      13.034   9.333  -1.021  0.00  0.00    -0.549 OA
ENDBRANCH  20  31
ENDBRANCH  15  18
ENDBRANCH   1  14
BRANCH  10  34
ATOM     34  C   LIG d   1      11.915   5.859   0.287  0.00  0.00     0.357 C 
ATOM     35  O   LIG d   1      11.379   5.657   1.361  0.00  0.00    -0.243 OA
BRANCH  34  36
ATOM     36  O   LIG d   1      13.118   6.468   0.237  0.00  0.00    -0.463 OA
BRANCH  36  37
ATOM     37  C   LIG d   1      14.098   5.897  -0.632  0.00  0.00     0.082 C 
ATOM     38  H   LIG d   1      14.746   6.683  -1.018  0.00  0.00     0.066 H 
ATOM     39  H   LIG d   1      14.695   5.172  -0.079  0.00  0.00     0.066 H 
ATOM     40  H   LIG d   1      13.599   5.397  -1.464  0.00  0.00     0.066 H 
ENDBRANCH  36  37
ENDBRANCH  34  36
ENDBRANCH  10  34
BRANCH   7  41
ATOM     41  O   LIG d   1       9.316   6.998  -4.518  0.00  0.00    -0.494 OA
BRANCH  41  42
ATOM     42  C   LIG d   1       9.567   7.320  -5.886  0.00  0.00     0.079 C 
ATOM     43  H   LIG d   1      10.357   6.677  -6.272  0.00  0.00     0.066 H 
ATOM     44  H   LIG d   1       8.658   7.168  -6.469  0.00  0.00     0.066 H 
ATOM     45  H   LIG d   1       9.877   8.362  -5.963  0.00  0.00     0.066 H 
ENDBRANCH  41  42
ENDBRANCH   7  41
TORSDOF 10
ENDMDL
