MODEL 1
REMARK VINA RESULT:      -7.1      0.000      0.000
REMARK  13 active torsions:
REMARK  status: ('A' for Active; 'I' for Inactive)
REMARK    1  A    between atoms: C_1  and  C_2 
REMARK    2  A    between atoms: N_6  and  O_7 
REMARK    3  A    between atoms: O_7  and  C_8 
REMARK    4  A    between atoms: C_8  and  C_9 
REMARK       I    between atoms: C_9  and  N_11 
REMARK    5  A    between atoms: N_11  and  C_12 
REMARK    6  A    between atoms: C_12  and  C_14 
REMARK    7  A    between atoms: C_12  and  C_18 
REMARK    8  A    between atoms: C_14  and  C_15 
REMARK    9  A    between atoms: C_23  and  C_25 
REMARK   10  A    between atoms: C_23  and  C_26 
REMARK   11  A    between atoms: C_37  and  C_46 
REMARK   12  A    between atoms: C_42  and  C_43 
REMARK   13  A    between atoms: C_42  and  O_45 
ROOT
ATOM      1  C   LIG d   1       4.305   0.465  -2.362  0.00  0.00    -0.070 C 
ATOM      2  C   LIG d   1       4.664   1.247  -1.564  0.00  0.00    -0.116 C 
ATOM      3  H   LIG d   1       4.987   1.946  -0.850  0.00  0.00     0.123 H 
ENDROOT
BRANCH   1   4
ATOM      4  C   LIG d   1       3.853  -0.516  -3.362  0.00  0.00     0.132 C 
ATOM      5  C   LIG d   1       5.042  -0.947  -4.262  0.00  0.00     0.011 C 
ATOM      6  C   LIG d   1       6.307  -0.812  -3.409  0.00  0.00    -0.043 C 
ATOM      7  C   LIG d   1       4.741  -2.429  -4.547  0.00  0.00    -0.029 C 
ATOM      8  C   LIG d   1       7.479  -1.534  -4.067  0.00  0.00    -0.049 C 
ATOM      9  H   LIG d   1       6.125  -1.244  -2.425  0.00  0.00     0.027 H 
ATOM     10  H   LIG d   1       6.553   0.244  -3.296  0.00  0.00     0.027 H 
ATOM     11  C   LIG d   1       7.152  -3.030  -4.154  0.00  0.00    -0.029 C 
ATOM     12  H   LIG d   1       8.378  -1.391  -3.469  0.00  0.00     0.027 H 
ATOM     13  H   LIG d   1       7.637  -1.136  -5.069  0.00  0.00     0.027 H 
ATOM     14  C   LIG d   1       8.345  -3.760  -4.775  0.00  0.00    -0.007 C 
ATOM     15  C   LIG d   1       5.930  -3.206  -5.057  0.00  0.00    -0.034 C 
ATOM     16  H   LIG d   1       6.943  -3.432  -3.163  0.00  0.00     0.031 H 
ATOM     17  C   LIG d   1       7.978  -5.188  -5.029  0.00  0.00    -0.062 C 
ATOM     18  C   LIG d   1       9.601  -3.545  -3.967  0.00  0.00    -0.038 C 
ATOM     19  C   LIG d   1       8.667  -6.223  -4.569  0.00  0.00    -0.037 C 
ATOM     20  C   LIG d   1       6.725  -5.451  -5.847  0.00  0.00    -0.031 C 
ATOM     21  C   LIG d   1       9.827  -5.977  -3.690  0.00  0.00     0.080 C 
ATOM     22  H   LIG d   1       8.377  -7.231  -4.822  0.00  0.00     0.064 H 
ATOM     23  C   LIG d   1       9.827  -4.656  -2.941  0.00  0.00    -0.006 C 
ATOM     24  N   LIG d   1      10.787  -6.837  -3.563  0.00  0.00    -0.089 NA
ATOM     25  H   LIG d   1      10.788  -4.512  -2.446  0.00  0.00     0.033 H 
ATOM     26  H   LIG d   1       9.026  -4.648  -2.203  0.00  0.00     0.033 H 
ATOM     27  C   LIG d   1       5.572  -4.688  -5.185  0.00  0.00    -0.046 C 
ATOM     28  H   LIG d   1       6.867  -5.094  -6.867  0.00  0.00     0.031 H 
ATOM     29  H   LIG d   1       6.505  -6.519  -5.855  0.00  0.00     0.031 H 
ATOM     30  H   LIG d   1       4.673  -4.792  -5.792  0.00  0.00     0.027 H 
ATOM     31  H   LIG d   1       5.386  -5.102  -4.194  0.00  0.00     0.027 H 
ATOM     32  H   LIG d   1      10.454  -3.509  -4.644  0.00  0.00     0.028 H 
ATOM     33  H   LIG d   1       9.526  -2.592  -3.444  0.00  0.00     0.028 H 
ATOM     34  H   LIG d   1       6.188  -2.829  -6.047  0.00  0.00     0.031 H 
ATOM     35  H   LIG d   1       3.931  -2.494  -5.274  0.00  0.00     0.031 H 
ATOM     36  C   LIG d   1       4.224  -2.956  -3.195  0.00  0.00    -0.046 C 
ATOM     37  C   LIG d   1       3.354  -1.794  -2.664  0.00  0.00    -0.012 C 
ATOM     38  H   LIG d   1       3.622  -3.853  -3.338  0.00  0.00     0.027 H 
ATOM     39  H   LIG d   1       5.056  -3.154  -2.518  0.00  0.00     0.027 H 
ATOM     40  H   LIG d   1       2.306  -1.970  -2.909  0.00  0.00     0.030 H 
ATOM     41  H   LIG d   1       3.474  -1.701  -1.584  0.00  0.00     0.030 H 
BRANCH   5  42
ATOM     42  C   LIG d   1       5.127  -0.113  -5.541  0.00  0.00    -0.056 C 
ATOM     43  H   LIG d   1       5.426  -0.751  -6.372  0.00  0.00     0.024 H 
ATOM     44  H   LIG d   1       4.152   0.327  -5.754  0.00  0.00     0.024 H 
ATOM     45  H   LIG d   1       5.862   0.681  -5.410  0.00  0.00     0.024 H 
ENDBRANCH   5  42
BRANCH  14  46
ATOM     46  C   LIG d   1       8.584  -3.118  -6.143  0.00  0.00    -0.056 C 
ATOM     47  H   LIG d   1       7.745  -2.470  -6.393  0.00  0.00     0.024 H 
ATOM     48  H   LIG d   1       9.501  -2.530  -6.112  0.00  0.00     0.024 H 
ATOM     49  H   LIG d   1       8.679  -3.898  -6.899  0.00  0.00     0.024 H 
ENDBRANCH  14  46
BRANCH  24  50
ATOM     50  O   LIG d   1      11.880  -6.558  -2.707  0.00  0.00    -0.384 OA
BRANCH  50  51
ATOM     51  C   LIG d   1      12.356  -7.694  -1.982  0.00  0.00     0.193 C 
ATOM     52  H   LIG d   1      12.675  -8.464  -2.685  0.00  0.00     0.082 H 
ATOM     53  H   LIG d   1      13.199  -7.399  -1.358  0.00  0.00     0.082 H 
BRANCH  51  54
ATOM     54  C   LIG d   1      11.250  -8.233  -1.113  0.00  0.00     0.254 C 
ATOM     55  O   LIG d   1      10.925  -7.640  -0.106  0.00  0.00    -0.272 OA
ATOM     56  N   LIG d   1      10.621  -9.375  -1.454  0.00  0.00    -0.309 N 
ATOM     57  H   LIG d   1      10.932  -9.891  -2.215  0.00  0.00     0.149 HD
BRANCH  56  58
ATOM     58  C   LIG d   1       9.467  -9.838  -0.678  0.00  0.00     0.031 C 
ATOM     59  H   LIG d   1       9.030  -8.996  -0.141  0.00  0.00     0.050 H 
BRANCH  58  60
ATOM     60  C   LIG d   1       9.920 -10.901   0.324  0.00  0.00     0.005 C 
ATOM     61  H   LIG d   1      10.127 -10.429   1.285  0.00  0.00     0.034 H 
ATOM     62  H   LIG d   1       9.133 -11.644   0.446  0.00  0.00     0.034 H 
BRANCH  60  63
ATOM     63  C   LIG d   1      11.170 -11.572  -0.185  0.00  0.00     0.043 C 
ATOM     64  O   LIG d   1      12.259 -11.247   0.258  0.00  0.00    -0.550 OA
ATOM     65  O   LIG d   1      11.093 -12.438  -1.039  0.00  0.00    -0.550 OA
ENDBRANCH  60  63
ENDBRANCH  58  60
BRANCH  58  66
ATOM     66  C   LIG d   1       8.424 -10.437  -1.622  0.00  0.00    -0.018 C 
ATOM     67  H   LIG d   1       8.875 -11.247  -2.197  0.00  0.00     0.032 H 
ATOM     68  C   LIG d   1       7.913  -9.354  -2.577  0.00  0.00    -0.020 C 
ATOM     69  C   LIG d   1       6.813  -9.943  -3.464  0.00  0.00     0.064 C 
ATOM     70  H   LIG d   1       7.509  -8.522  -2.001  0.00  0.00     0.030 H 
ATOM     71  H   LIG d   1       8.735  -9.001  -3.201  0.00  0.00     0.030 H 
ATOM     72  O   LIG d   1       5.764 -10.459  -2.641  0.00  0.00    -0.374 OA
ATOM     73  C   LIG d   1       6.174 -11.508  -1.763  0.00  0.00     0.049 C 
ATOM     74  C   LIG d   1       7.247 -10.982  -0.806  0.00  0.00    -0.025 C 
ATOM     75  H   LIG d   1       6.581 -12.333  -2.347  0.00  0.00     0.056 H 
ATOM     76  H   LIG d   1       5.315 -11.858  -1.189  0.00  0.00     0.056 H 
ATOM     77  H   LIG d   1       7.593 -11.792  -0.165  0.00  0.00     0.029 H 
ATOM     78  H   LIG d   1       6.829 -10.183  -0.193  0.00  0.00     0.029 H 
BRANCH  69  79
ATOM     79  C   LIG d   1       7.396 -11.072  -4.315  0.00  0.00    -0.036 C 
ATOM     80  H   LIG d   1       8.442 -11.223  -4.050  0.00  0.00     0.026 H 
ATOM     81  H   LIG d   1       6.839 -11.990  -4.131  0.00  0.00     0.026 H 
ATOM     82  H   LIG d   1       7.323 -10.807  -5.370  0.00  0.00     0.026 H 
ENDBRANCH  69  79
BRANCH  69  83
ATOM     83  C   LIG d   1       6.254  -8.851  -4.378  0.00  0.00    -0.036 C 
ATOM     84  H   LIG d   1       6.416  -9.131  -5.419  0.00  0.00     0.026 H 
ATOM     85  H   LIG d   1       5.186  -8.734  -4.194  0.00  0.00     0.026 H 
ATOM     86  H   LIG d   1       6.764  -7.909  -4.172  0.00  0.00     0.026 H 
ENDBRANCH  69  83
ENDBRANCH  58  66
ENDBRANCH  56  58
ENDBRANCH  51  54
ENDBRANCH  50  51
ENDBRANCH  24  50
BRANCH   4  87
ATOM     87  O   LIG d   1       2.810   0.045  -4.163  0.00  0.00    -0.376 OA
ATOM     88  H   LIG d   1       2.395   0.828  -3.777  0.00  0.00     0.211 HD
ENDBRANCH   4  87
ENDBRANCH   1   4
TORSDOF 13
ENDMDL
MODEL 2
REMARK VINA RESULT:      -7.0      1.832      3.698
REMARK  13 active torsions:
REMARK  status: ('A' for Active; 'I' for Inactive)
REMARK    1  A    between atoms: C_1  and  C_2 
REMARK    2  A    between atoms: N_6  and  O_7 
REMARK    3  A    between atoms: O_7  and  C_8 
REMARK    4  A    between atoms: C_8  and  C_9 
REMARK       I    between atoms: C_9  and  N_11 
REMARK    5  A    between atoms: N_11  and  C_12 
REMARK    6  A    between atoms: C_12  and  C_14 
REMARK    7  A    between atoms: C_12  and  C_18 
REMARK    8  A    between atoms: C_14  and  C_15 
REMARK    9  A    between atoms: C_23  and  C_25 
REMARK   10  A    between atoms: C_23  and  C_26 
REMARK   11  A    between atoms: C_37  and  C_46 
REMARK   12  A    between atoms: C_42  and  C_43 
REMARK   13  A    between atoms: C_42  and  O_45 
ROOT
ATOM      1  C   LIG d   1       4.265   0.493  -2.375  0.00  0.00    -0.070 C 
ATOM      2  C   LIG d   1       4.623   1.281  -1.582  0.00  0.00    -0.116 C 
ATOM      3  H   LIG d   1       4.942   1.985  -0.871  0.00  0.00     0.123 H 
ENDROOT
BRANCH   1   4
ATOM      4  C   LIG d   1       3.816  -0.494  -3.370  0.00  0.00     0.132 C 
ATOM      5  C   LIG d   1       5.009  -0.932  -4.262  0.00  0.00     0.011 C 
ATOM      6  C   LIG d   1       6.270  -0.791  -3.405  0.00  0.00    -0.043 C 
ATOM      7  C   LIG d   1       4.708  -2.416  -4.538  0.00  0.00    -0.029 C 
ATOM      8  C   LIG d   1       7.445  -1.518  -4.054  0.00  0.00    -0.049 C 
ATOM      9  H   LIG d   1       6.085  -1.217  -2.419  0.00  0.00     0.027 H 
ATOM     10  H   LIG d   1       6.516   0.266  -3.299  0.00  0.00     0.027 H 
ATOM     11  C   LIG d   1       7.118  -3.015  -4.131  0.00  0.00    -0.029 C 
ATOM     12  H   LIG d   1       8.341  -1.371  -3.453  0.00  0.00     0.027 H 
ATOM     13  H   LIG d   1       7.607  -1.127  -5.058  0.00  0.00     0.027 H 
ATOM     14  C   LIG d   1       8.313  -3.749  -4.742  0.00  0.00    -0.007 C 
ATOM     15  C   LIG d   1       5.899  -3.197  -5.038  0.00  0.00    -0.034 C 
ATOM     16  H   LIG d   1       6.905  -3.410  -3.139  0.00  0.00     0.031 H 
ATOM     17  C   LIG d   1       7.947  -5.179  -4.988  0.00  0.00    -0.062 C 
ATOM     18  C   LIG d   1       9.566  -3.529  -3.931  0.00  0.00    -0.038 C 
ATOM     19  C   LIG d   1       8.633  -6.211  -4.518  0.00  0.00    -0.037 C 
ATOM     20  C   LIG d   1       6.697  -5.447  -5.809  0.00  0.00    -0.031 C 
ATOM     21  C   LIG d   1       9.790  -5.959  -3.636  0.00  0.00     0.080 C 
ATOM     22  H   LIG d   1       8.344  -7.221  -4.765  0.00  0.00     0.064 H 
ATOM     23  C   LIG d   1       9.788  -4.633  -2.897  0.00  0.00    -0.006 C 
ATOM     24  N   LIG d   1      10.749  -6.818  -3.499  0.00  0.00    -0.089 NA
ATOM     25  H   LIG d   1      10.747  -4.485  -2.399  0.00  0.00     0.033 H 
ATOM     26  H   LIG d   1       8.983  -4.619  -2.162  0.00  0.00     0.033 H 
ATOM     27  C   LIG d   1       5.541  -4.679  -5.157  0.00  0.00    -0.046 C 
ATOM     28  H   LIG d   1       6.843  -5.098  -6.831  0.00  0.00     0.031 H 
ATOM     29  H   LIG d   1       6.477  -6.516  -5.810  0.00  0.00     0.031 H 
ATOM     30  H   LIG d   1       4.645  -4.787  -5.767  0.00  0.00     0.027 H 
ATOM     31  H   LIG d   1       5.352  -5.086  -4.164  0.00  0.00     0.027 H 
ATOM     32  H   LIG d   1      10.422  -3.498  -4.605  0.00  0.00     0.028 H 
ATOM     33  H   LIG d   1       9.489  -2.573  -3.415  0.00  0.00     0.028 H 
ATOM     34  H   LIG d   1       6.161  -2.827  -6.030  0.00  0.00     0.031 H 
ATOM     35  H   LIG d   1       3.902  -2.486  -5.268  0.00  0.00     0.031 H 
ATOM     36  C   LIG d   1       4.186  -2.933  -3.184  0.00  0.00    -0.046 C 
ATOM     37  C   LIG d   1       3.314  -1.767  -2.664  0.00  0.00    -0.012 C 
ATOM     38  H   LIG d   1       3.584  -3.831  -3.323  0.00  0.00     0.027 H 
ATOM     39  H   LIG d   1       5.015  -3.127  -2.503  0.00  0.00     0.027 H 
ATOM     40  H   LIG d   1       2.268  -1.944  -2.913  0.00  0.00     0.030 H 
ATOM     41  H   LIG d   1       3.431  -1.667  -1.585  0.00  0.00     0.030 H 
BRANCH   5  42
ATOM     42  C   LIG d   1       5.099  -0.107  -5.547  0.00  0.00    -0.056 C 
ATOM     43  H   LIG d   1       6.140   0.155  -5.739  0.00  0.00     0.024 H 
ATOM     44  H   LIG d   1       4.713  -0.692  -6.382  0.00  0.00     0.024 H 
ATOM     45  H   LIG d   1       4.509   0.803  -5.438  0.00  0.00     0.024 H 
ENDBRANCH   5  42
BRANCH  14  46
ATOM     46  C   LIG d   1       8.558  -3.117  -6.114  0.00  0.00    -0.056 C 
ATOM     47  H   LIG d   1       8.302  -2.058  -6.078  0.00  0.00     0.024 H 
ATOM     48  H   LIG d   1       9.608  -3.228  -6.382  0.00  0.00     0.024 H 
ATOM     49  H   LIG d   1       7.938  -3.615  -6.860  0.00  0.00     0.024 H 
ENDBRANCH  14  46
BRANCH  24  50
ATOM     50  O   LIG d   1      11.839  -6.534  -2.641  0.00  0.00    -0.384 OA
BRANCH  50  51
ATOM     51  C   LIG d   1      12.907  -7.480  -2.723  0.00  0.00     0.193 C 
ATOM     52  H   LIG d   1      13.100  -7.718  -3.770  0.00  0.00     0.082 H 
ATOM     53  H   LIG d   1      13.804  -7.055  -2.275  0.00  0.00     0.082 H 
BRANCH  51  54
ATOM     54  C   LIG d   1      12.522  -8.736  -1.986  0.00  0.00     0.254 C 
ATOM     55  O   LIG d   1      13.164  -9.753  -2.141  0.00  0.00    -0.272 OA
ATOM     56  N   LIG d   1      11.463  -8.729  -1.152  0.00  0.00    -0.309 N 
ATOM     57  H   LIG d   1      10.902  -7.941  -1.087  0.00  0.00     0.149 HD
BRANCH  56  58
ATOM     58  C   LIG d   1      11.159  -9.913  -0.343  0.00  0.00     0.031 C 
ATOM     59  H   LIG d   1      11.617 -10.791  -0.798  0.00  0.00     0.050 H 
BRANCH  58  60
ATOM     60  C   LIG d   1       9.643 -10.107  -0.274  0.00  0.00     0.005 C 
ATOM     61  H   LIG d   1       9.422 -11.146  -0.028  0.00  0.00     0.034 H 
ATOM     62  H   LIG d   1       9.228  -9.455   0.494  0.00  0.00     0.034 H 
BRANCH  60  63
ATOM     63  C   LIG d   1       9.031  -9.765  -1.608  0.00  0.00     0.043 C 
ATOM     64  O   LIG d   1       8.342  -8.766  -1.724  0.00  0.00    -0.550 OA
ATOM     65  O   LIG d   1       9.224 -10.488  -2.570  0.00  0.00    -0.550 OA
ENDBRANCH  60  63
ENDBRANCH  58  60
BRANCH  58  66
ATOM     66  C   LIG d   1      11.714  -9.722   1.070  0.00  0.00    -0.018 C 
ATOM     67  H   LIG d   1      12.803  -9.730   1.038  0.00  0.00     0.032 H 
ATOM     68  C   LIG d   1      11.220 -10.857   1.973  0.00  0.00    -0.020 C 
ATOM     69  C   LIG d   1      11.714 -10.615   3.401  0.00  0.00     0.064 C 
ATOM     70  H   LIG d   1      10.130 -10.881   1.964  0.00  0.00     0.030 H 
ATOM     71  H   LIG d   1      11.609 -11.808   1.608  0.00  0.00     0.030 H 
ATOM     72  O   LIG d   1      11.253  -9.340   3.855  0.00  0.00    -0.374 OA
ATOM     73  C   LIG d   1      11.723  -8.238   3.077  0.00  0.00     0.049 C 
ATOM     74  C   LIG d   1      11.228  -8.384   1.635  0.00  0.00    -0.025 C 
ATOM     75  H   LIG d   1      12.813  -8.225   3.087  0.00  0.00     0.056 H 
ATOM     76  H   LIG d   1      11.345  -7.307   3.499  0.00  0.00     0.056 H 
ATOM     77  H   LIG d   1      11.622  -7.568   1.030  0.00  0.00     0.029 H 
ATOM     78  H   LIG d   1      10.138  -8.357   1.620  0.00  0.00     0.029 H 
BRANCH  69  79
ATOM     79  C   LIG d   1      13.243 -10.640   3.422  0.00  0.00    -0.036 C 
ATOM     80  H   LIG d   1      13.604 -11.369   2.696  0.00  0.00     0.026 H 
ATOM     81  H   LIG d   1      13.626  -9.653   3.166  0.00  0.00     0.026 H 
ATOM     82  H   LIG d   1      13.589 -10.918   4.418  0.00  0.00     0.026 H 
ENDBRANCH  69  79
BRANCH  69  83
ATOM     83  C   LIG d   1      11.173 -11.710   4.321  0.00  0.00    -0.036 C 
ATOM     84  H   LIG d   1      10.756 -11.256   5.220  0.00  0.00     0.026 H 
ATOM     85  H   LIG d   1      10.395 -12.269   3.801  0.00  0.00     0.026 H 
ATOM     86  H   LIG d   1      11.983 -12.385   4.598  0.00  0.00     0.026 H 
ENDBRANCH  69  83
ENDBRANCH  58  66
ENDBRANCH  56  58
ENDBRANCH  51  54
ENDBRANCH  50  51
ENDBRANCH  24  50
BRANCH   4  87
ATOM     87  O   LIG d   1       2.777   0.061  -4.179  0.00  0.00    -0.376 OA
ATOM     88  H   LIG d   1       2.462  -0.532  -4.875  0.00  0.00     0.211 HD
ENDBRANCH   4  87
ENDBRANCH   1   4
TORSDOF 13
ENDMDL
MODEL 3
REMARK VINA RESULT:      -6.7      7.113     12.700
REMARK  13 active torsions:
REMARK  status: ('A' for Active; 'I' for Inactive)
REMARK    1  A    between atoms: C_1  and  C_2 
REMARK    2  A    between atoms: N_6  and  O_7 
REMARK    3  A    between atoms: O_7  and  C_8 
REMARK    4  A    between atoms: C_8  and  C_9 
REMARK       I    between atoms: C_9  and  N_11 
REMARK    5  A    between atoms: N_11  and  C_12 
REMARK    6  A    between atoms: C_12  and  C_14 
REMARK    7  A    between atoms: C_12  and  C_18 
REMARK    8  A    between atoms: C_14  and  C_15 
REMARK    9  A    between atoms: C_23  and  C_25 
REMARK   10  A    between atoms: C_23  and  C_26 
REMARK   11  A    between atoms: C_37  and  C_46 
REMARK   12  A    between atoms: C_42  and  C_43 
REMARK   13  A    between atoms: C_42  and  O_45 
ROOT
ATOM      1  C   LIG d   1       3.088  -0.401  -3.454  0.00  0.00    -0.070 C 
ATOM      2  C   LIG d   1       2.035  -0.425  -3.971  0.00  0.00    -0.116 C 
ATOM      3  H   LIG d   1       1.093  -0.446  -4.435  0.00  0.00     0.123 H 
ENDROOT
BRANCH   1   4
ATOM      4  C   LIG d   1       4.409  -0.371  -2.804  0.00  0.00     0.132 C 
ATOM      5  C   LIG d   1       5.506  -0.823  -3.805  0.00  0.00     0.011 C 
ATOM      6  C   LIG d   1       5.005  -0.446  -5.202  0.00  0.00    -0.043 C 
ATOM      7  C   LIG d   1       6.712   0.048  -3.412  0.00  0.00    -0.029 C 
ATOM      8  C   LIG d   1       6.141  -0.522  -6.219  0.00  0.00    -0.049 C 
ATOM      9  H   LIG d   1       4.610   0.569  -5.181  0.00  0.00     0.027 H 
ATOM     10  H   LIG d   1       4.212  -1.134  -5.497  0.00  0.00     0.027 H 
ATOM     11  C   LIG d   1       7.217   0.502  -5.835  0.00  0.00    -0.029 C 
ATOM     12  H   LIG d   1       5.757  -0.293  -7.212  0.00  0.00     0.027 H 
ATOM     13  H   LIG d   1       6.570  -1.524  -6.212  0.00  0.00     0.027 H 
ATOM     14  C   LIG d   1       8.335   0.455  -6.878  0.00  0.00    -0.007 C 
ATOM     15  C   LIG d   1       7.788   0.114  -4.469  0.00  0.00    -0.034 C 
ATOM     16  H   LIG d   1       6.791   1.503  -5.789  0.00  0.00     0.031 H 
ATOM     17  C   LIG d   1       9.473   1.317  -6.428  0.00  0.00    -0.062 C 
ATOM     18  C   LIG d   1       7.808   0.745  -8.261  0.00  0.00    -0.038 C 
ATOM     19  C   LIG d   1       9.991   2.297  -7.154  0.00  0.00    -0.037 C 
ATOM     20  C   LIG d   1      10.042   1.053  -5.044  0.00  0.00    -0.031 C 
ATOM     21  C   LIG d   1       9.378   2.626  -8.456  0.00  0.00     0.080 C 
ATOM     22  H   LIG d   1      10.841   2.857  -6.792  0.00  0.00     0.064 H 
ATOM     23  C   LIG d   1       7.924   2.225  -8.628  0.00  0.00    -0.006 C 
ATOM     24  N   LIG d   1      10.041   3.221  -9.396  0.00  0.00    -0.089 NA
ATOM     25  H   LIG d   1       7.619   2.374  -9.665  0.00  0.00     0.033 H 
ATOM     26  H   LIG d   1       7.295   2.821  -7.967  0.00  0.00     0.033 H 
ATOM     27  C   LIG d   1       8.878   1.101  -4.048  0.00  0.00    -0.046 C 
ATOM     28  H   LIG d   1      10.511   0.070  -5.018  0.00  0.00     0.031 H 
ATOM     29  H   LIG d   1      10.775   1.821  -4.793  0.00  0.00     0.031 H 
ATOM     30  H   LIG d   1       9.240   0.838  -3.055  0.00  0.00     0.027 H 
ATOM     31  H   LIG d   1       8.463   2.109  -4.025  0.00  0.00     0.027 H 
ATOM     32  H   LIG d   1       8.371   0.156  -8.985  0.00  0.00     0.028 H 
ATOM     33  H   LIG d   1       6.759   0.452  -8.308  0.00  0.00     0.028 H 
ATOM     34  H   LIG d   1       8.238  -0.875  -4.563  0.00  0.00     0.031 H 
ATOM     35  H   LIG d   1       7.142  -0.335  -2.487  0.00  0.00     0.031 H 
ATOM     36  C   LIG d   1       6.082   1.424  -3.122  0.00  0.00    -0.046 C 
ATOM     37  C   LIG d   1       4.764   1.070  -2.395  0.00  0.00    -0.012 C 
ATOM     38  H   LIG d   1       6.731   2.015  -2.476  0.00  0.00     0.027 H 
ATOM     39  H   LIG d   1       5.877   1.955  -4.052  0.00  0.00     0.027 H 
ATOM     40  H   LIG d   1       4.907   1.128  -1.315  0.00  0.00     0.030 H 
ATOM     41  H   LIG d   1       3.973   1.753  -2.704  0.00  0.00     0.030 H 
BRANCH   5  42
ATOM     42  C   LIG d   1       5.806  -2.318  -3.692  0.00  0.00    -0.056 C 
ATOM     43  H   LIG d   1       5.117  -2.775  -2.982  0.00  0.00     0.024 H 
ATOM     44  H   LIG d   1       5.685  -2.787  -4.669  0.00  0.00     0.024 H 
ATOM     45  H   LIG d   1       6.830  -2.459  -3.347  0.00  0.00     0.024 H 
ENDBRANCH   5  42
BRANCH  14  46
ATOM     46  C   LIG d   1       8.855  -0.984  -6.896  0.00  0.00    -0.056 C 
ATOM     47  H   LIG d   1       9.086  -1.274  -7.921  0.00  0.00     0.024 H 
ATOM     48  H   LIG d   1       9.755  -1.052  -6.286  0.00  0.00     0.024 H 
ATOM     49  H   LIG d   1       8.092  -1.651  -6.493  0.00  0.00     0.024 H 
ENDBRANCH  14  46
BRANCH  24  50
ATOM     50  O   LIG d   1       9.412   3.516 -10.630  0.00  0.00    -0.384 OA
BRANCH  50  51
ATOM     51  C   LIG d   1       9.501   4.890 -11.014  0.00  0.00     0.193 C 
ATOM     52  H   LIG d   1      10.518   5.109 -11.340  0.00  0.00     0.082 H 
ATOM     53  H   LIG d   1       8.808   5.084 -11.832  0.00  0.00     0.082 H 
BRANCH  51  54
ATOM     54  C   LIG d   1       9.150   5.764  -9.839  0.00  0.00     0.254 C 
ATOM     55  O   LIG d   1       7.991   6.046  -9.616  0.00  0.00    -0.272 OA
ATOM     56  N   LIG d   1      10.123   6.233  -9.033  0.00  0.00    -0.309 N 
ATOM     57  H   LIG d   1      11.054   6.074  -9.254  0.00  0.00     0.149 HD
BRANCH  56  58
ATOM     58  C   LIG d   1       9.776   6.982  -7.822  0.00  0.00     0.031 C 
ATOM     59  H   LIG d   1       8.713   7.224  -7.837  0.00  0.00     0.050 H 
BRANCH  58  60
ATOM     60  C   LIG d   1      10.592   8.275  -7.772  0.00  0.00     0.005 C 
ATOM     61  H   LIG d   1       9.967   9.084  -7.391  0.00  0.00     0.034 H 
ATOM     62  H   LIG d   1      11.449   8.138  -7.113  0.00  0.00     0.034 H 
BRANCH  60  63
ATOM     63  C   LIG d   1      11.073   8.621  -9.157  0.00  0.00     0.043 C 
ATOM     64  O   LIG d   1      12.227   8.392  -9.477  0.00  0.00    -0.550 OA
ATOM     65  O   LIG d   1      10.309   9.131  -9.958  0.00  0.00    -0.550 OA
ENDBRANCH  60  63
ENDBRANCH  58  60
BRANCH  58  66
ATOM     66  C   LIG d   1      10.088   6.133  -6.589  0.00  0.00    -0.018 C 
ATOM     67  H   LIG d   1       9.554   5.185  -6.655  0.00  0.00     0.032 H 
ATOM     68  C   LIG d   1       9.650   6.881  -5.326  0.00  0.00    -0.020 C 
ATOM     69  C   LIG d   1      10.038   6.059  -4.094  0.00  0.00     0.064 C 
ATOM     70  H   LIG d   1      10.145   7.851  -5.288  0.00  0.00     0.030 H 
ATOM     71  H   LIG d   1       8.569   7.023  -5.344  0.00  0.00     0.030 H 
ATOM     72  O   LIG d   1      11.449   5.823  -4.105  0.00  0.00    -0.374 OA
ATOM     73  C   LIG d   1      11.907   5.085  -5.239  0.00  0.00     0.049 C 
ATOM     74  C   LIG d   1      11.595   5.868  -6.517  0.00  0.00    -0.025 C 
ATOM     75  H   LIG d   1      11.403   4.119  -5.273  0.00  0.00     0.056 H 
ATOM     76  H   LIG d   1      12.984   4.931  -5.161  0.00  0.00     0.056 H 
ATOM     77  H   LIG d   1      11.905   5.287  -7.385  0.00  0.00     0.029 H 
ATOM     78  H   LIG d   1      12.131   6.818  -6.503  0.00  0.00     0.029 H 
BRANCH  69  79
ATOM     79  C   LIG d   1       9.297   4.722  -4.120  0.00  0.00    -0.036 C 
ATOM     80  H   LIG d   1       8.820   4.590  -5.092  0.00  0.00     0.026 H 
ATOM     81  H   LIG d   1      10.004   3.911  -3.949  0.00  0.00     0.026 H 
ATOM     82  H   LIG d   1       8.536   4.713  -3.339  0.00  0.00     0.026 H 
ENDBRANCH  69  79
BRANCH  69  83
ATOM     83  C   LIG d   1       9.660   6.829  -2.828  0.00  0.00    -0.036 C 
ATOM     84  H   LIG d   1      10.534   7.360  -2.451  0.00  0.00     0.026 H 
ATOM     85  H   LIG d   1       8.871   7.544  -3.060  0.00  0.00     0.026 H 
ATOM     86  H   LIG d   1       9.306   6.129  -2.069  0.00  0.00     0.026 H 
ENDBRANCH  69  83
ENDBRANCH  58  66
ENDBRANCH  56  58
ENDBRANCH  51  54
ENDBRANCH  50  51
ENDBRANCH  24  50
BRANCH   4  87
ATOM     87  O   LIG d   1       4.411  -1.222  -1.656  0.00  0.00    -0.376 OA
ATOM     88  H   LIG d   1       4.664  -2.136  -1.845  0.00  0.00     0.211 HD
ENDBRANCH   4  87
ENDBRANCH   1   4
TORSDOF 13
ENDMDL
MODEL 4
REMARK VINA RESULT:      -6.6      7.591     11.604
REMARK  13 active torsions:
REMARK  status: ('A' for Active; 'I' for Inactive)
REMARK    1  A    between atoms: C_1  and  C_2 
REMARK    2  A    between atoms: N_6  and  O_7 
REMARK    3  A    between atoms: O_7  and  C_8 
REMARK    4  A    between atoms: C_8  and  C_9 
REMARK       I    between atoms: C_9  and  N_11 
REMARK    5  A    between atoms: N_11  and  C_12 
REMARK    6  A    between atoms: C_12  and  C_14 
REMARK    7  A    between atoms: C_12  and  C_18 
REMARK    8  A    between atoms: C_14  and  C_15 
REMARK    9  A    between atoms: C_23  and  C_25 
REMARK   10  A    between atoms: C_23  and  C_26 
REMARK   11  A    between atoms: C_37  and  C_46 
REMARK   12  A    between atoms: C_42  and  C_43 
REMARK   13  A    between atoms: C_42  and  O_45 
ROOT
ATOM      1  C   LIG d   1      11.058   6.296   1.348  0.00  0.00    -0.070 C 
ATOM      2  C   LIG d   1      10.693   5.539   2.167  0.00  0.00    -0.116 C 
ATOM      3  H   LIG d   1      10.365   4.861   2.899  0.00  0.00     0.123 H 
ENDROOT
BRANCH   1   4
ATOM      4  C   LIG d   1      11.517   7.245   0.321  0.00  0.00     0.132 C 
ATOM      5  C   LIG d   1      12.153   6.478  -0.869  0.00  0.00     0.011 C 
ATOM      6  C   LIG d   1      11.467   5.110  -0.924  0.00  0.00    -0.043 C 
ATOM      7  C   LIG d   1      11.751   7.331  -2.085  0.00  0.00    -0.029 C 
ATOM      8  C   LIG d   1      11.758   4.416  -2.251  0.00  0.00    -0.049 C 
ATOM      9  H   LIG d   1      10.391   5.243  -0.817  0.00  0.00     0.027 H 
ATOM     10  H   LIG d   1      11.836   4.491  -0.106  0.00  0.00     0.027 H 
ATOM     11  C   LIG d   1      11.172   5.260  -3.390  0.00  0.00    -0.029 C 
ATOM     12  H   LIG d   1      11.299   3.428  -2.255  0.00  0.00     0.027 H 
ATOM     13  H   LIG d   1      12.836   4.320  -2.385  0.00  0.00     0.027 H 
ATOM     14  C   LIG d   1      11.427   4.542  -4.717  0.00  0.00    -0.007 C 
ATOM     15  C   LIG d   1      11.885   6.613  -3.406  0.00  0.00    -0.034 C 
ATOM     16  H   LIG d   1      10.102   5.405  -3.244  0.00  0.00     0.031 H 
ATOM     17  C   LIG d   1      11.020   5.430  -5.850  0.00  0.00    -0.062 C 
ATOM     18  C   LIG d   1      10.817   3.162  -4.721  0.00  0.00    -0.038 C 
ATOM     19  C   LIG d   1      10.162   5.077  -6.797  0.00  0.00    -0.037 C 
ATOM     20  C   LIG d   1      11.618   6.826  -5.891  0.00  0.00    -0.031 C 
ATOM     21  C   LIG d   1       9.500   3.760  -6.708  0.00  0.00     0.080 C 
ATOM     22  H   LIG d   1       9.940   5.747  -7.614  0.00  0.00     0.064 H 
ATOM     23  C   LIG d   1       9.410   3.152  -5.320  0.00  0.00    -0.006 C 
ATOM     24  N   LIG d   1       9.023   3.160  -7.752  0.00  0.00    -0.089 NA
ATOM     25  H   LIG d   1       9.045   2.126  -5.388  0.00  0.00     0.033 H 
ATOM     26  H   LIG d   1       8.738   3.744  -4.699  0.00  0.00     0.033 H 
ATOM     27  C   LIG d   1      11.342   7.488  -4.537  0.00  0.00    -0.046 C 
ATOM     28  H   LIG d   1      12.693   6.764  -6.060  0.00  0.00     0.031 H 
ATOM     29  H   LIG d   1      11.151   7.406  -6.688  0.00  0.00     0.031 H 
ATOM     30  H   LIG d   1      11.826   8.463  -4.504  0.00  0.00     0.027 H 
ATOM     31  H   LIG d   1      10.267   7.616  -4.409  0.00  0.00     0.027 H 
ATOM     32  H   LIG d   1      11.454   2.495  -5.302  0.00  0.00     0.028 H 
ATOM     33  H   LIG d   1      10.765   2.796  -3.696  0.00  0.00     0.028 H 
ATOM     34  H   LIG d   1      12.944   6.431  -3.592  0.00  0.00     0.031 H 
ATOM     35  H   LIG d   1      12.362   8.234  -2.105  0.00  0.00     0.031 H 
ATOM     36  C   LIG d   1      10.297   7.734  -1.775  0.00  0.00    -0.046 C 
ATOM     37  C   LIG d   1      10.318   8.021  -0.256  0.00  0.00    -0.012 C 
ATOM     38  H   LIG d   1      10.020   8.630  -2.331  0.00  0.00     0.027 H 
ATOM     39  H   LIG d   1       9.615   6.914  -2.002  0.00  0.00     0.027 H 
ATOM     40  H   LIG d   1      10.444   9.090  -0.080  0.00  0.00     0.030 H 
ATOM     41  H   LIG d   1       9.392   7.673   0.202  0.00  0.00     0.030 H 
BRANCH   5  42
ATOM     42  C   LIG d   1      13.670   6.349  -0.724  0.00  0.00    -0.056 C 
ATOM     43  H   LIG d   1      13.909   5.951   0.262  0.00  0.00     0.024 H 
ATOM     44  H   LIG d   1      14.052   5.672  -1.490  0.00  0.00     0.024 H 
ATOM     45  H   LIG d   1      14.132   7.329  -0.843  0.00  0.00     0.024 H 
ENDBRANCH   5  42
BRANCH  14  46
ATOM     46  C   LIG d   1      12.941   4.355  -4.827  0.00  0.00    -0.056 C 
ATOM     47  H   LIG d   1      13.161   3.603  -5.584  0.00  0.00     0.024 H 
ATOM     48  H   LIG d   1      13.404   5.300  -5.109  0.00  0.00     0.024 H 
ATOM     49  H   LIG d   1      13.338   4.029  -3.865  0.00  0.00     0.024 H 
ENDBRANCH  14  46
BRANCH  24  50
ATOM     50  O   LIG d   1       8.395   1.898  -7.618  0.00  0.00    -0.384 OA
BRANCH  50  51
ATOM     51  C   LIG d   1       7.361   1.658  -8.576  0.00  0.00     0.193 C 
ATOM     52  H   LIG d   1       6.727   2.542  -8.652  0.00  0.00     0.082 H 
ATOM     53  H   LIG d   1       7.807   1.445  -9.546  0.00  0.00     0.082 H 
BRANCH  51  54
ATOM     54  C   LIG d   1       6.532   0.481  -8.134  0.00  0.00     0.254 C 
ATOM     55  O   LIG d   1       6.748  -0.621  -8.593  0.00  0.00    -0.272 OA
ATOM     56  N   LIG d   1       5.549   0.651  -7.228  0.00  0.00    -0.309 N 
ATOM     57  H   LIG d   1       5.323   1.542  -6.919  0.00  0.00     0.149 HD
BRANCH  56  58
ATOM     58  C   LIG d   1       4.821  -0.510  -6.708  0.00  0.00     0.031 C 
ATOM     59  H   LIG d   1       5.110  -1.400  -7.267  0.00  0.00     0.050 H 
BRANCH  58  60
ATOM     60  C   LIG d   1       3.317  -0.279  -6.860  0.00  0.00     0.005 C 
ATOM     61  H   LIG d   1       2.836  -1.208  -7.169  0.00  0.00     0.034 H 
ATOM     62  H   LIG d   1       2.901   0.046  -5.906  0.00  0.00     0.034 H 
BRANCH  60  63
ATOM     63  C   LIG d   1       3.074   0.783  -7.901  0.00  0.00     0.043 C 
ATOM     64  O   LIG d   1       2.890   1.940  -7.561  0.00  0.00    -0.550 OA
ATOM     65  O   LIG d   1       3.060   0.486  -9.083  0.00  0.00    -0.550 OA
ENDBRANCH  60  63
ENDBRANCH  58  60
BRANCH  58  66
ATOM     66  C   LIG d   1       5.161  -0.705  -5.229  0.00  0.00    -0.018 C 
ATOM     67  H   LIG d   1       4.991  -1.745  -4.950  0.00  0.00     0.032 H 
ATOM     68  C   LIG d   1       4.274   0.206  -4.374  0.00  0.00    -0.020 C 
ATOM     69  C   LIG d   1       4.676   0.063  -2.904  0.00  0.00     0.064 C 
ATOM     70  H   LIG d   1       4.406   1.241  -4.688  0.00  0.00     0.030 H 
ATOM     71  H   LIG d   1       3.230  -0.083  -4.497  0.00  0.00     0.030 H 
ATOM     72  O   LIG d   1       6.061   0.384  -2.755  0.00  0.00    -0.374 OA
ATOM     73  C   LIG d   1       6.939  -0.467  -3.494  0.00  0.00     0.049 C 
ATOM     74  C   LIG d   1       6.630  -0.344  -4.989  0.00  0.00    -0.025 C 
ATOM     75  H   LIG d   1       6.797  -1.500  -3.177  0.00  0.00     0.056 H 
ATOM     76  H   LIG d   1       7.972  -0.169  -3.311  0.00  0.00     0.056 H 
ATOM     77  H   LIG d   1       7.269  -1.024  -5.550  0.00  0.00     0.029 H 
ATOM     78  H   LIG d   1       6.810   0.681  -5.315  0.00  0.00     0.029 H 
BRANCH  69  79
ATOM     79  C   LIG d   1       4.434  -1.377  -2.448  0.00  0.00    -0.036 C 
ATOM     80  H   LIG d   1       5.388  -1.849  -2.213  0.00  0.00     0.026 H 
ATOM     81  H   LIG d   1       3.801  -1.376  -1.562  0.00  0.00     0.026 H 
ATOM     82  H   LIG d   1       3.942  -1.933  -3.247  0.00  0.00     0.026 H 
ENDBRANCH  69  79
BRANCH  69  83
ATOM     83  C   LIG d   1       3.836   1.016  -2.051  0.00  0.00    -0.036 C 
ATOM     84  H   LIG d   1       3.882   2.019  -2.476  0.00  0.00     0.026 H 
ATOM     85  H   LIG d   1       2.802   0.673  -2.035  0.00  0.00     0.026 H 
ATOM     86  H   LIG d   1       4.229   1.035  -1.034  0.00  0.00     0.026 H 
ENDBRANCH  69  83
ENDBRANCH  58  66
ENDBRANCH  56  58
ENDBRANCH  51  54
ENDBRANCH  50  51
ENDBRANCH  24  50
BRANCH   4  87
ATOM     87  O   LIG d   1      12.466   8.155   0.882  0.00  0.00    -0.376 OA
ATOM     88  H   LIG d   1      13.080   8.530   0.236  0.00  0.00     0.211 HD
ENDBRANCH   4  87
ENDBRANCH   1   4
TORSDOF 13
ENDMDL
MODEL 5
REMARK VINA RESULT:      -6.6      7.112     10.725
REMARK  13 active torsions:
REMARK  status: ('A' for Active; 'I' for Inactive)
REMARK    1  A    between atoms: C_1  and  C_2 
REMARK    2  A    between atoms: N_6  and  O_7 
REMARK    3  A    between atoms: O_7  and  C_8 
REMARK    4  A    between atoms: C_8  and  C_9 
REMARK       I    between atoms: C_9  and  N_11 
REMARK    5  A    between atoms: N_11  and  C_12 
REMARK    6  A    between atoms: C_12  and  C_14 
REMARK    7  A    between atoms: C_12  and  C_18 
REMARK    8  A    between atoms: C_14  and  C_15 
REMARK    9  A    between atoms: C_23  and  C_25 
REMARK   10  A    between atoms: C_23  and  C_26 
REMARK   11  A    between atoms: C_37  and  C_46 
REMARK   12  A    between atoms: C_42  and  C_43 
REMARK   13  A    between atoms: C_42  and  O_45 
ROOT
ATOM      1  C   LIG d   1      10.941   6.535   0.462  0.00  0.00    -0.070 C 
ATOM      2  C   LIG d   1      11.043   5.943   1.471  0.00  0.00    -0.116 C 
ATOM      3  H   LIG d   1      11.135   5.412   2.372  0.00  0.00     0.123 H 
ENDROOT
BRANCH   1   4
ATOM      4  C   LIG d   1      10.813   7.278  -0.802  0.00  0.00     0.132 C 
ATOM      5  C   LIG d   1      11.491   6.490  -1.955  0.00  0.00     0.011 C 
ATOM      6  C   LIG d   1      11.398   5.007  -1.585  0.00  0.00    -0.043 C 
ATOM      7  C   LIG d   1      10.590   6.801  -3.163  0.00  0.00    -0.029 C 
ATOM      8  C   LIG d   1      11.713   4.130  -2.794  0.00  0.00    -0.049 C 
ATOM      9  H   LIG d   1      10.390   4.786  -1.234  0.00  0.00     0.027 H 
ATOM     10  H   LIG d   1      12.111   4.790  -0.789  0.00  0.00     0.027 H 
ATOM     11  C   LIG d   1      10.661   4.390  -3.880  0.00  0.00    -0.029 C 
ATOM     12  H   LIG d   1      11.684   3.082  -2.502  0.00  0.00     0.027 H 
ATOM     13  H   LIG d   1      12.703   4.379  -3.177  0.00  0.00     0.027 H 
ATOM     14  C   LIG d   1      10.952   3.481  -5.075  0.00  0.00    -0.007 C 
ATOM     15  C   LIG d   1      10.773   5.851  -4.322  0.00  0.00    -0.034 C 
ATOM     16  H   LIG d   1       9.661   4.194  -3.496  0.00  0.00     0.031 H 
ATOM     17  C   LIG d   1      10.047   3.843  -6.210  0.00  0.00    -0.062 C 
ATOM     18  C   LIG d   1      10.941   2.026  -4.673  0.00  0.00    -0.038 C 
ATOM     19  C   LIG d   1       9.252   2.981  -6.828  0.00  0.00    -0.037 C 
ATOM     20  C   LIG d   1      10.033   5.296  -6.654  0.00  0.00    -0.031 C 
ATOM     21  C   LIG d   1       9.184   1.590  -6.336  0.00  0.00     0.080 C 
ATOM     22  H   LIG d   1       8.652   3.293  -7.669  0.00  0.00     0.064 H 
ATOM     23  C   LIG d   1       9.573   1.377  -4.884  0.00  0.00    -0.006 C 
ATOM     24  N   LIG d   1       8.814   0.611  -7.098  0.00  0.00    -0.089 NA
ATOM     25  H   LIG d   1       9.633   0.309  -4.670  0.00  0.00     0.033 H 
ATOM     26  H   LIG d   1       8.836   1.845  -4.231  0.00  0.00     0.033 H 
ATOM     27  C   LIG d   1       9.749   6.155  -5.417  0.00  0.00    -0.046 C 
ATOM     28  H   LIG d   1      11.002   5.563  -7.076  0.00  0.00     0.031 H 
ATOM     29  H   LIG d   1       9.250   5.448  -7.398  0.00  0.00     0.031 H 
ATOM     30  H   LIG d   1       9.810   7.209  -5.686  0.00  0.00     0.027 H 
ATOM     31  H   LIG d   1       8.748   5.936  -5.047  0.00  0.00     0.027 H 
ATOM     32  H   LIG d   1      11.682   1.490  -5.266  0.00  0.00     0.028 H 
ATOM     33  H   LIG d   1      11.209   1.948  -3.620  0.00  0.00     0.028 H 
ATOM     34  H   LIG d   1      11.771   6.001  -4.734  0.00  0.00     0.031 H 
ATOM     35  H   LIG d   1      10.785   7.819  -3.501  0.00  0.00     0.031 H 
ATOM     36  C   LIG d   1       9.168   6.748  -2.573  0.00  0.00    -0.046 C 
ATOM     37  C   LIG d   1       9.328   7.414  -1.187  0.00  0.00    -0.012 C 
ATOM     38  H   LIG d   1       8.474   7.314  -3.194  0.00  0.00     0.027 H 
ATOM     39  H   LIG d   1       8.835   5.715  -2.467  0.00  0.00     0.027 H 
ATOM     40  H   LIG d   1       9.052   8.468  -1.245  0.00  0.00     0.030 H 
ATOM     41  H   LIG d   1       8.703   6.904  -0.454  0.00  0.00     0.030 H 
BRANCH   5  42
ATOM     42  C   LIG d   1      12.938   6.931  -2.179  0.00  0.00    -0.056 C 
ATOM     43  H   LIG d   1      13.056   7.286  -3.203  0.00  0.00     0.024 H 
ATOM     44  H   LIG d   1      13.184   7.735  -1.485  0.00  0.00     0.024 H 
ATOM     45  H   LIG d   1      13.606   6.087  -2.008  0.00  0.00     0.024 H 
ENDBRANCH   5  42
BRANCH  14  46
ATOM     46  C   LIG d   1      12.377   3.802  -5.531  0.00  0.00    -0.056 C 
ATOM     47  H   LIG d   1      13.024   2.948  -5.332  0.00  0.00     0.024 H 
ATOM     48  H   LIG d   1      12.377   4.017  -6.599  0.00  0.00     0.024 H 
ATOM     49  H   LIG d   1      12.746   4.671  -4.985  0.00  0.00     0.024 H 
ENDBRANCH  14  46
BRANCH  24  50
ATOM     50  O   LIG d   1       8.763  -0.708  -6.583  0.00  0.00    -0.384 OA
BRANCH  50  51
ATOM     51  C   LIG d   1       8.324  -1.685  -7.528  0.00  0.00     0.193 C 
ATOM     52  H   LIG d   1       8.559  -1.344  -8.537  0.00  0.00     0.082 H 
ATOM     53  H   LIG d   1       8.832  -2.630  -7.336  0.00  0.00     0.082 H 
BRANCH  51  54
ATOM     54  C   LIG d   1       6.836  -1.879  -7.396  0.00  0.00     0.254 C 
ATOM     55  O   LIG d   1       6.376  -2.995  -7.279  0.00  0.00    -0.272 OA
ATOM     56  N   LIG d   1       6.015  -0.811  -7.407  0.00  0.00    -0.309 N 
ATOM     57  H   LIG d   1       6.372   0.075  -7.579  0.00  0.00     0.149 HD
BRANCH  56  58
ATOM     58  C   LIG d   1       4.581  -0.985  -7.159  0.00  0.00     0.031 C 
ATOM     59  H   LIG d   1       4.337  -2.047  -7.171  0.00  0.00     0.050 H 
BRANCH  58  60
ATOM     60  C   LIG d   1       3.784  -0.266  -8.249  0.00  0.00     0.005 C 
ATOM     61  H   LIG d   1       3.394  -0.999  -8.956  0.00  0.00     0.034 H 
ATOM     62  H   LIG d   1       2.955   0.277  -7.795  0.00  0.00     0.034 H 
BRANCH  60  63
ATOM     63  C   LIG d   1       4.682   0.702  -8.974  0.00  0.00     0.043 C 
ATOM     64  O   LIG d   1       4.930   1.790  -8.481  0.00  0.00    -0.550 OA
ATOM     65  O   LIG d   1       5.161   0.399 -10.053  0.00  0.00    -0.550 OA
ENDBRANCH  60  63
ENDBRANCH  58  60
BRANCH  58  66
ATOM     66  C   LIG d   1       4.224  -0.396  -5.793  0.00  0.00    -0.018 C 
ATOM     67  H   LIG d   1       4.916   0.411  -5.552  0.00  0.00     0.032 H 
ATOM     68  C   LIG d   1       4.319  -1.488  -4.722  0.00  0.00    -0.020 C 
ATOM     69  C   LIG d   1       3.883  -0.909  -3.374  0.00  0.00     0.064 C 
ATOM     70  H   LIG d   1       3.666  -2.318  -4.991  0.00  0.00     0.030 H 
ATOM     71  H   LIG d   1       5.348  -1.841  -4.653  0.00  0.00     0.030 H 
ATOM     72  O   LIG d   1       2.555  -0.392  -3.484  0.00  0.00    -0.374 OA
ATOM     73  C   LIG d   1       2.418   0.665  -4.436  0.00  0.00     0.049 C 
ATOM     74  C   LIG d   1       2.793   0.149  -5.828  0.00  0.00    -0.025 C 
ATOM     75  H   LIG d   1       3.078   1.488  -4.163  0.00  0.00     0.056 H 
ATOM     76  H   LIG d   1       1.385   1.014  -4.444  0.00  0.00     0.056 H 
ATOM     77  H   LIG d   1       2.731   0.965  -6.548  0.00  0.00     0.029 H 
ATOM     78  H   LIG d   1       2.108  -0.647  -6.118  0.00  0.00     0.029 H 
BRANCH  69  79
ATOM     79  C   LIG d   1       4.837   0.217  -2.971  0.00  0.00    -0.036 C 
ATOM     80  H   LIG d   1       5.817   0.039  -3.415  0.00  0.00     0.026 H 
ATOM     81  H   LIG d   1       4.445   1.169  -3.327  0.00  0.00     0.026 H 
ATOM     82  H   LIG d   1       4.930   0.244  -1.886  0.00  0.00     0.026 H 
ENDBRANCH  69  79
BRANCH  69  83
ATOM     83  C   LIG d   1       3.916  -2.010  -2.312  0.00  0.00    -0.036 C 
ATOM     84  H   LIG d   1       3.596  -2.952  -2.757  0.00  0.00     0.026 H 
ATOM     85  H   LIG d   1       4.930  -2.114  -1.928  0.00  0.00     0.026 H 
ATOM     86  H   LIG d   1       3.242  -1.747  -1.495  0.00  0.00     0.026 H 
ENDBRANCH  69  83
ENDBRANCH  58  66
ENDBRANCH  56  58
ENDBRANCH  51  54
ENDBRANCH  50  51
ENDBRANCH  24  50
BRANCH   4  87
ATOM     87  O   LIG d   1      11.408   8.571  -0.675  0.00  0.00    -0.376 OA
ATOM     88  H   LIG d   1      12.112   8.616  -0.014  0.00  0.00     0.211 HD
ENDBRANCH   4  87
ENDBRANCH   1   4
TORSDOF 13
ENDMDL
MODEL 6
REMARK VINA RESULT:      -6.5      6.071     10.419
REMARK  13 active torsions:
REMARK  status: ('A' for Active; 'I' for Inactive)
REMARK    1  A    between atoms: C_1  and  C_2 
REMARK    2  A    between atoms: N_6  and  O_7 
REMARK    3  A    between atoms: O_7  and  C_8 
REMARK    4  A    between atoms: C_8  and  C_9 
REMARK       I    between atoms: C_9  and  N_11 
REMARK    5  A    between atoms: N_11  and  C_12 
REMARK    6  A    between atoms: C_12  and  C_14 
REMARK    7  A    between atoms: C_12  and  C_18 
REMARK    8  A    between atoms: C_14  and  C_15 
REMARK    9  A    between atoms: C_23  and  C_25 
REMARK   10  A    between atoms: C_23  and  C_26 
REMARK   11  A    between atoms: C_37  and  C_46 
REMARK   12  A    between atoms: C_42  and  C_43 
REMARK   13  A    between atoms: C_42  and  O_45 
ROOT
ATOM      1  C   LIG d   1       5.303   0.255  -2.960  0.00  0.00    -0.070 C 
ATOM      2  C   LIG d   1       4.337   0.483  -2.334  0.00  0.00    -0.116 C 
ATOM      3  H   LIG d   1       3.473   0.689  -1.773  0.00  0.00     0.123 H 
ENDROOT
BRANCH   1   4
ATOM      4  C   LIG d   1       6.514  -0.032  -3.745  0.00  0.00     0.132 C 
ATOM      5  C   LIG d   1       6.592  -1.548  -4.071  0.00  0.00     0.011 C 
ATOM      6  C   LIG d   1       5.148  -2.057  -4.128  0.00  0.00    -0.043 C 
ATOM      7  C   LIG d   1       7.225  -1.568  -5.474  0.00  0.00    -0.029 C 
ATOM      8  C   LIG d   1       5.090  -3.436  -4.779  0.00  0.00    -0.049 C 
ATOM      9  H   LIG d   1       4.543  -1.360  -4.707  0.00  0.00     0.027 H 
ATOM     10  H   LIG d   1       4.751  -2.121  -3.114  0.00  0.00     0.027 H 
ATOM     11  C   LIG d   1       5.583  -3.320  -6.226  0.00  0.00    -0.029 C 
ATOM     12  H   LIG d   1       4.063  -3.800  -4.771  0.00  0.00     0.027 H 
ATOM     13  H   LIG d   1       5.729  -4.127  -4.229  0.00  0.00     0.027 H 
ATOM     14  C   LIG d   1       5.484  -4.694  -6.892  0.00  0.00    -0.007 C 
ATOM     15  C   LIG d   1       7.047  -2.877  -6.205  0.00  0.00    -0.034 C 
ATOM     16  H   LIG d   1       4.984  -2.595  -6.776  0.00  0.00     0.031 H 
ATOM     17  C   LIG d   1       6.123  -4.640  -8.244  0.00  0.00    -0.062 C 
ATOM     18  C   LIG d   1       4.069  -5.218  -6.862  0.00  0.00    -0.038 C 
ATOM     19  C   LIG d   1       5.512  -4.992  -9.366  0.00  0.00    -0.037 C 
ATOM     20  C   LIG d   1       7.551  -4.128  -8.320  0.00  0.00    -0.031 C 
ATOM     21  C   LIG d   1       4.092  -5.394  -9.313  0.00  0.00     0.080 C 
ATOM     22  H   LIG d   1       6.039  -4.972 -10.308  0.00  0.00     0.064 H 
ATOM     23  C   LIG d   1       3.295  -4.869  -8.133  0.00  0.00    -0.006 C 
ATOM     24  N   LIG d   1       3.558  -6.149 -10.220  0.00  0.00    -0.089 NA
ATOM     25  H   LIG d   1       2.313  -5.344  -8.110  0.00  0.00     0.033 H 
ATOM     26  H   LIG d   1       3.182  -3.788  -8.214  0.00  0.00     0.033 H 
ATOM     27  C   LIG d   1       7.589  -2.760  -7.630  0.00  0.00    -0.046 C 
ATOM     28  H   LIG d   1       8.220  -4.819  -7.808  0.00  0.00     0.031 H 
ATOM     29  H   LIG d   1       7.852  -4.025  -9.364  0.00  0.00     0.031 H 
ATOM     30  H   LIG d   1       8.617  -2.399  -7.598  0.00  0.00     0.027 H 
ATOM     31  H   LIG d   1       6.977  -2.054  -8.192  0.00  0.00     0.027 H 
ATOM     32  H   LIG d   1       4.096  -6.302  -6.750  0.00  0.00     0.028 H 
ATOM     33  H   LIG d   1       3.551  -4.788  -6.005  0.00  0.00     0.028 H 
ATOM     34  H   LIG d   1       7.621  -3.643  -5.682  0.00  0.00     0.031 H 
ATOM     35  H   LIG d   1       8.289  -1.347  -5.388  0.00  0.00     0.031 H 
ATOM     36  C   LIG d   1       6.540  -0.391  -6.193  0.00  0.00    -0.046 C 
ATOM     37  C   LIG d   1       6.453   0.698  -5.099  0.00  0.00    -0.012 C 
ATOM     38  H   LIG d   1       7.147  -0.047  -7.030  0.00  0.00     0.027 H 
ATOM     39  H   LIG d   1       5.543  -0.676  -6.532  0.00  0.00     0.027 H 
ATOM     40  H   LIG d   1       7.293   1.387  -5.192  0.00  0.00     0.030 H 
ATOM     41  H   LIG d   1       5.512   1.242  -5.189  0.00  0.00     0.030 H 
BRANCH   5  42
ATOM     42  C   LIG d   1       7.426  -2.315  -3.044  0.00  0.00    -0.056 C 
ATOM     43  H   LIG d   1       6.995  -2.180  -2.052  0.00  0.00     0.024 H 
ATOM     44  H   LIG d   1       7.428  -3.376  -3.298  0.00  0.00     0.024 H 
ATOM     45  H   LIG d   1       8.449  -1.938  -3.052  0.00  0.00     0.024 H 
ENDBRANCH   5  42
BRANCH  14  46
ATOM     46  C   LIG d   1       6.327  -5.650  -6.046  0.00  0.00    -0.056 C 
ATOM     47  H   LIG d   1       5.854  -5.790  -5.074  0.00  0.00     0.024 H 
ATOM     48  H   LIG d   1       6.406  -6.611  -6.554  0.00  0.00     0.024 H 
ATOM     49  H   LIG d   1       7.323  -5.230  -5.907  0.00  0.00     0.024 H 
ENDBRANCH  14  46
BRANCH  24  50
ATOM     50  O   LIG d   1       2.192  -6.510 -10.128  0.00  0.00    -0.384 OA
BRANCH  50  51
ATOM     51  C   LIG d   1       1.386  -6.016 -11.201  0.00  0.00     0.193 C 
ATOM     52  H   LIG d   1       1.986  -5.966 -12.109  0.00  0.00     0.082 H 
ATOM     53  H   LIG d   1       0.542  -6.687 -11.359  0.00  0.00     0.082 H 
BRANCH  51  54
ATOM     54  C   LIG d   1       0.879  -4.641 -10.855  0.00  0.00     0.254 C 
ATOM     55  O   LIG d   1      -0.222  -4.505 -10.363  0.00  0.00    -0.272 OA
ATOM     56  N   LIG d   1       1.647  -3.560 -11.093  0.00  0.00    -0.309 N 
ATOM     57  H   LIG d   1       2.493  -3.659 -11.558  0.00  0.00     0.149 HD
BRANCH  56  58
ATOM     58  C   LIG d   1       1.207  -2.234 -10.649  0.00  0.00     0.031 C 
ATOM     59  H   LIG d   1       0.245  -2.322 -10.144  0.00  0.00     0.050 H 
BRANCH  58  60
ATOM     60  C   LIG d   1       1.064  -1.312 -11.861  0.00  0.00     0.005 C 
ATOM     61  H   LIG d   1       0.057  -0.893 -11.882  0.00  0.00     0.034 H 
ATOM     62  H   LIG d   1       1.792  -0.504 -11.791  0.00  0.00     0.034 H 
BRANCH  60  63
ATOM     63  C   LIG d   1       1.307  -2.099 -13.123  0.00  0.00     0.043 C 
ATOM     64  O   LIG d   1       2.436  -2.198 -13.572  0.00  0.00    -0.550 OA
ATOM     65  O   LIG d   1       0.374  -2.636 -13.696  0.00  0.00    -0.550 OA
ENDBRANCH  60  63
ENDBRANCH  58  60
BRANCH  58  66
ATOM     66  C   LIG d   1       2.239  -1.651  -9.682  0.00  0.00    -0.018 C 
ATOM     67  H   LIG d   1       2.138  -2.130  -8.708  0.00  0.00     0.032 H 
ATOM     68  C   LIG d   1       2.011  -0.143  -9.537  0.00  0.00    -0.020 C 
ATOM     69  C   LIG d   1       3.096   0.445  -8.632  0.00  0.00     0.064 C 
ATOM     70  H   LIG d   1       2.061   0.329 -10.518  0.00  0.00     0.030 H 
ATOM     71  H   LIG d   1       1.030   0.036  -9.096  0.00  0.00     0.030 H 
ATOM     72  O   LIG d   1       4.384   0.156  -9.182  0.00  0.00    -0.374 OA
ATOM     73  C   LIG d   1       4.670  -1.238  -9.295  0.00  0.00     0.049 C 
ATOM     74  C   LIG d   1       3.649  -1.895 -10.229  0.00  0.00    -0.025 C 
ATOM     75  H   LIG d   1       4.612  -1.703  -8.311  0.00  0.00     0.056 H 
ATOM     76  H   LIG d   1       5.672  -1.372  -9.702  0.00  0.00     0.056 H 
ATOM     77  H   LIG d   1       3.839  -2.966 -10.282  0.00  0.00     0.029 H 
ATOM     78  H   LIG d   1       3.733  -1.458 -11.225  0.00  0.00     0.029 H 
BRANCH  69  79
ATOM     79  C   LIG d   1       2.987  -0.175  -7.238  0.00  0.00    -0.036 C 
ATOM     80  H   LIG d   1       2.281  -1.005  -7.264  0.00  0.00     0.026 H 
ATOM     81  H   LIG d   1       3.964  -0.540  -6.925  0.00  0.00     0.026 H 
ATOM     82  H   LIG d   1       2.635   0.578  -6.532  0.00  0.00     0.026 H 
ENDBRANCH  69  79
BRANCH  69  83
ATOM     83  C   LIG d   1       2.912   1.961  -8.532  0.00  0.00    -0.036 C 
ATOM     84  H   LIG d   1       3.004   2.403  -9.524  0.00  0.00     0.026 H 
ATOM     85  H   LIG d   1       1.925   2.180  -8.125  0.00  0.00     0.026 H 
ATOM     86  H   LIG d   1       3.677   2.378  -7.877  0.00  0.00     0.026 H 
ENDBRANCH  69  83
ENDBRANCH  58  66
ENDBRANCH  56  58
ENDBRANCH  51  54
ENDBRANCH  50  51
ENDBRANCH  24  50
BRANCH   4  87
ATOM     87  O   LIG d   1       7.678   0.374  -3.021  0.00  0.00    -0.376 OA
ATOM     88  H   LIG d   1       7.939   1.292  -3.179  0.00  0.00     0.211 HD
ENDBRANCH   4  87
ENDBRANCH   1   4
TORSDOF 13
ENDMDL
MODEL 7
REMARK VINA RESULT:      -6.4      7.560     12.452
REMARK  13 active torsions:
REMARK  status: ('A' for Active; 'I' for Inactive)
REMARK    1  A    between atoms: C_1  and  C_2 
REMARK    2  A    between atoms: N_6  and  O_7 
REMARK    3  A    between atoms: O_7  and  C_8 
REMARK    4  A    between atoms: C_8  and  C_9 
REMARK       I    between atoms: C_9  and  N_11 
REMARK    5  A    between atoms: N_11  and  C_12 
REMARK    6  A    between atoms: C_12  and  C_14 
REMARK    7  A    between atoms: C_12  and  C_18 
REMARK    8  A    between atoms: C_14  and  C_15 
REMARK    9  A    between atoms: C_23  and  C_25 
REMARK   10  A    between atoms: C_23  and  C_26 
REMARK   11  A    between atoms: C_37  and  C_46 
REMARK   12  A    between atoms: C_42  and  C_43 
REMARK   13  A    between atoms: C_42  and  O_45 
ROOT
ATOM      1  C   LIG d   1       3.381  -0.382 -10.986  0.00  0.00    -0.070 C 
ATOM      2  C   LIG d   1       3.904  -0.131 -12.007  0.00  0.00    -0.116 C 
ATOM      3  H   LIG d   1       4.372   0.096 -12.919  0.00  0.00     0.123 H 
ENDROOT
BRANCH   1   4
ATOM      4  C   LIG d   1       2.726  -0.698  -9.707  0.00  0.00     0.132 C 
ATOM      5  C   LIG d   1       3.761  -1.276  -8.705  0.00  0.00     0.011 C 
ATOM      6  C   LIG d   1       5.116  -0.668  -9.077  0.00  0.00    -0.043 C 
ATOM      7  C   LIG d   1       3.278  -0.726  -7.352  0.00  0.00    -0.029 C 
ATOM      8  C   LIG d   1       6.130  -0.887  -7.958  0.00  0.00    -0.049 C 
ATOM      9  H   LIG d   1       4.996   0.401  -9.249  0.00  0.00     0.027 H 
ATOM     10  H   LIG d   1       5.482  -1.139  -9.991  0.00  0.00     0.027 H 
ATOM     11  C   LIG d   1       5.641  -0.160  -6.699  0.00  0.00    -0.029 C 
ATOM     12  H   LIG d   1       7.097  -0.487  -8.259  0.00  0.00     0.027 H 
ATOM     13  H   LIG d   1       6.222  -1.954  -7.752  0.00  0.00     0.027 H 
ATOM     14  C   LIG d   1       6.678  -0.344  -5.590  0.00  0.00    -0.007 C 
ATOM     15  C   LIG d   1       4.318  -0.791  -6.260  0.00  0.00    -0.034 C 
ATOM     16  H   LIG d   1       5.497   0.900  -6.904  0.00  0.00     0.031 H 
ATOM     17  C   LIG d   1       6.139   0.206  -4.307  0.00  0.00    -0.062 C 
ATOM     18  C   LIG d   1       8.028   0.184  -6.008  0.00  0.00    -0.038 C 
ATOM     19  C   LIG d   1       6.761   1.118  -3.573  0.00  0.00    -0.037 C 
ATOM     20  C   LIG d   1       4.786  -0.305  -3.843  0.00  0.00    -0.031 C 
ATOM     21  C   LIG d   1       8.027   1.694  -4.068  0.00  0.00     0.080 C 
ATOM     22  H   LIG d   1       6.342   1.446  -2.634  0.00  0.00     0.064 H 
ATOM     23  C   LIG d   1       8.245   1.633  -5.569  0.00  0.00    -0.006 C 
ATOM     24  N   LIG d   1       8.900   2.221  -3.270  0.00  0.00    -0.089 NA
ATOM     25  H   LIG d   1       9.263   1.943  -5.808  0.00  0.00     0.033 H 
ATOM     26  H   LIG d   1       7.532   2.283  -6.074  0.00  0.00     0.033 H 
ATOM     27  C   LIG d   1       3.796  -0.105  -4.996  0.00  0.00    -0.046 C 
ATOM     28  H   LIG d   1       4.855  -1.364  -3.595  0.00  0.00     0.031 H 
ATOM     29  H   LIG d   1       4.456   0.260  -2.970  0.00  0.00     0.031 H 
ATOM     30  H   LIG d   1       2.832  -0.534  -4.724  0.00  0.00     0.027 H 
ATOM     31  H   LIG d   1       3.674   0.961  -5.187  0.00  0.00     0.027 H 
ATOM     32  H   LIG d   1       8.805  -0.440  -5.564  0.00  0.00     0.028 H 
ATOM     33  H   LIG d   1       8.109   0.128  -7.093  0.00  0.00     0.028 H 
ATOM     34  H   LIG d   1       4.508  -1.839  -6.028  0.00  0.00     0.031 H 
ATOM     35  H   LIG d   1       2.393  -1.280  -7.037  0.00  0.00     0.031 H 
ATOM     36  C   LIG d   1       2.856   0.718  -7.682  0.00  0.00    -0.046 C 
ATOM     37  C   LIG d   1       2.173   0.587  -9.064  0.00  0.00    -0.012 C 
ATOM     38  H   LIG d   1       2.151   1.091  -6.940  0.00  0.00     0.027 H 
ATOM     39  H   LIG d   1       3.729   1.368  -7.745  0.00  0.00     0.027 H 
ATOM     40  H   LIG d   1       1.092   0.508  -8.940  0.00  0.00     0.030 H 
ATOM     41  H   LIG d   1       2.416   1.450  -9.683  0.00  0.00     0.030 H 
BRANCH   5  42
ATOM     42  C   LIG d   1       3.797  -2.805  -8.733  0.00  0.00    -0.056 C 
ATOM     43  H   LIG d   1       4.107  -3.180  -7.758  0.00  0.00     0.024 H 
ATOM     44  H   LIG d   1       2.803  -3.187  -8.969  0.00  0.00     0.024 H 
ATOM     45  H   LIG d   1       4.504  -3.139  -9.493  0.00  0.00     0.024 H 
ENDBRANCH   5  42
BRANCH  14  46
ATOM     46  C   LIG d   1       6.837  -1.852  -5.388  0.00  0.00    -0.056 C 
ATOM     47  H   LIG d   1       5.927  -2.259  -4.950  0.00  0.00     0.024 H 
ATOM     48  H   LIG d   1       7.023  -2.330  -6.350  0.00  0.00     0.024 H 
ATOM     49  H   LIG d   1       7.678  -2.043  -4.720  0.00  0.00     0.024 H 
ENDBRANCH  14  46
BRANCH  24  50
ATOM     50  O   LIG d   1      10.101   2.762  -3.790  0.00  0.00    -0.384 OA
BRANCH  50  51
ATOM     51  C   LIG d   1      11.137   2.919  -2.818  0.00  0.00     0.193 C 
ATOM     52  H   LIG d   1      10.847   2.415  -1.896  0.00  0.00     0.082 H 
ATOM     53  H   LIG d   1      12.060   2.481  -3.197  0.00  0.00     0.082 H 
BRANCH  51  54
ATOM     54  C   LIG d   1      11.351   4.385  -2.545  0.00  0.00     0.254 C 
ATOM     55  O   LIG d   1      12.380   4.762  -2.025  0.00  0.00    -0.272 OA
ATOM     56  N   LIG d   1      10.399   5.278  -2.879  0.00  0.00    -0.309 N 
ATOM     57  H   LIG d   1       9.545   4.972  -3.221  0.00  0.00     0.149 HD
BRANCH  56  58
ATOM     58  C   LIG d   1      10.654   6.713  -2.725  0.00  0.00     0.031 C 
ATOM     59  H   LIG d   1      11.643   6.862  -2.293  0.00  0.00     0.050 H 
BRANCH  58  60
ATOM     60  C   LIG d   1       9.597   7.322  -1.802  0.00  0.00     0.005 C 
ATOM     61  H   LIG d   1       9.325   8.314  -2.166  0.00  0.00     0.034 H 
ATOM     62  H   LIG d   1       8.713   6.685  -1.790  0.00  0.00     0.034 H 
BRANCH  60  63
ATOM     63  C   LIG d   1      10.153   7.435  -0.406  0.00  0.00     0.043 C 
ATOM     64  O   LIG d   1      10.363   8.534   0.080  0.00  0.00    -0.550 OA
ATOM     65  O   LIG d   1      10.394   6.428   0.237  0.00  0.00    -0.550 OA
ENDBRANCH  60  63
ENDBRANCH  58  60
BRANCH  58  66
ATOM     66  C   LIG d   1      10.588   7.393  -4.094  0.00  0.00    -0.018 C 
ATOM     67  H   LIG d   1      11.578   7.389  -4.550  0.00  0.00     0.032 H 
ATOM     68  C   LIG d   1      10.107   8.838  -3.927  0.00  0.00    -0.020 C 
ATOM     69  C   LIG d   1       9.969   9.485  -5.308  0.00  0.00     0.064 C 
ATOM     70  H   LIG d   1       9.141   8.844  -3.424  0.00  0.00     0.030 H 
ATOM     71  H   LIG d   1      10.832   9.396  -3.334  0.00  0.00     0.030 H 
ATOM     72  O   LIG d   1       9.065   8.716  -6.105  0.00  0.00    -0.374 OA
ATOM     73  C   LIG d   1       9.488   7.371  -6.334  0.00  0.00     0.049 C 
ATOM     74  C   LIG d   1       9.606   6.638  -4.994  0.00  0.00    -0.025 C 
ATOM     75  H   LIG d   1      10.457   7.374  -6.832  0.00  0.00     0.056 H 
ATOM     76  H   LIG d   1       8.757   6.862  -6.963  0.00  0.00     0.056 H 
ATOM     77  H   LIG d   1       9.970   5.626  -5.164  0.00  0.00     0.029 H 
ATOM     78  H   LIG d   1       8.628   6.599  -4.513  0.00  0.00     0.029 H 
BRANCH  69  79
ATOM     79  C   LIG d   1      11.338   9.529  -5.989  0.00  0.00    -0.036 C 
ATOM     80  H   LIG d   1      11.321   8.900  -6.879  0.00  0.00     0.026 H 
ATOM     81  H   LIG d   1      11.569  10.555  -6.273  0.00  0.00     0.026 H 
ATOM     82  H   LIG d   1      12.098   9.161  -5.299  0.00  0.00     0.026 H 
ENDBRANCH  69  79
BRANCH  69  83
ATOM     83  C   LIG d   1       9.429  10.908  -5.153  0.00  0.00    -0.036 C 
ATOM     84  H   LIG d   1      10.151  11.511  -4.603  0.00  0.00     0.026 H 
ATOM     85  H   LIG d   1       9.266  11.343  -6.139  0.00  0.00     0.026 H 
ATOM     86  H   LIG d   1       8.487  10.881  -4.606  0.00  0.00     0.026 H 
ENDBRANCH  69  83
ENDBRANCH  58  66
ENDBRANCH  56  58
ENDBRANCH  51  54
ENDBRANCH  50  51
ENDBRANCH  24  50
BRANCH   4  87
ATOM     87  O   LIG d   1       1.668  -1.637  -9.915  0.00  0.00    -0.376 OA
ATOM     88  H   LIG d   1       1.618  -1.978 -10.819  0.00  0.00     0.211 HD
ENDBRANCH   4  87
ENDBRANCH   1   4
TORSDOF 13
ENDMDL
MODEL 8
REMARK VINA RESULT:      -6.4      6.199     10.077
REMARK  13 active torsions:
REMARK  status: ('A' for Active; 'I' for Inactive)
REMARK    1  A    between atoms: C_1  and  C_2 
REMARK    2  A    between atoms: N_6  and  O_7 
REMARK    3  A    between atoms: O_7  and  C_8 
REMARK    4  A    between atoms: C_8  and  C_9 
REMARK       I    between atoms: C_9  and  N_11 
REMARK    5  A    between atoms: N_11  and  C_12 
REMARK    6  A    between atoms: C_12  and  C_14 
REMARK    7  A    between atoms: C_12  and  C_18 
REMARK    8  A    between atoms: C_14  and  C_15 
REMARK    9  A    between atoms: C_23  and  C_25 
REMARK   10  A    between atoms: C_23  and  C_26 
REMARK   11  A    between atoms: C_37  and  C_46 
REMARK   12  A    between atoms: C_42  and  C_43 
REMARK   13  A    between atoms: C_42  and  O_45 
ROOT
ATOM      1  C   LIG d   1       3.547  -4.531 -14.883  0.00  0.00    -0.070 C 
ATOM      2  C   LIG d   1       4.455  -5.057 -15.409  0.00  0.00    -0.116 C 
ATOM      3  H   LIG d   1       5.266  -5.528 -15.881  0.00  0.00     0.123 H 
ENDROOT
BRANCH   1   4
ATOM      4  C   LIG d   1       2.410  -3.871 -14.222  0.00  0.00     0.132 C 
ATOM      5  C   LIG d   1       2.594  -3.905 -12.681  0.00  0.00     0.011 C 
ATOM      6  C   LIG d   1       4.104  -3.922 -12.422  0.00  0.00    -0.043 C 
ATOM      7  C   LIG d   1       1.986  -2.565 -12.230  0.00  0.00    -0.029 C 
ATOM      8  C   LIG d   1       4.402  -3.604 -10.960  0.00  0.00    -0.049 C 
ATOM      9  H   LIG d   1       4.586  -3.180 -13.057  0.00  0.00     0.027 H 
ATOM     10  H   LIG d   1       4.498  -4.910 -12.663  0.00  0.00     0.027 H 
ATOM     11  C   LIG d   1       3.909  -2.185 -10.652  0.00  0.00    -0.029 C 
ATOM     12  H   LIG d   1       5.475  -3.664 -10.786  0.00  0.00     0.027 H 
ATOM     13  H   LIG d   1       3.885  -4.318 -10.318  0.00  0.00     0.027 H 
ATOM     14  C   LIG d   1       4.246  -1.851  -9.198  0.00  0.00    -0.007 C 
ATOM     15  C   LIG d   1       2.390  -2.150 -10.836  0.00  0.00    -0.034 C 
ATOM     16  H   LIG d   1       4.380  -1.465 -11.320  0.00  0.00     0.031 H 
ATOM     17  C   LIG d   1       3.619  -0.543  -8.829  0.00  0.00    -0.062 C 
ATOM     18  C   LIG d   1       5.729  -1.956  -8.941  0.00  0.00    -0.038 C 
ATOM     19  C   LIG d   1       4.291   0.487  -8.334  0.00  0.00    -0.037 C 
ATOM     20  C   LIG d   1       2.125  -0.396  -9.062  0.00  0.00    -0.031 C 
ATOM     21  C   LIG d   1       5.758   0.387  -8.199  0.00  0.00     0.080 C 
ATOM     22  H   LIG d   1       3.775   1.391  -8.046  0.00  0.00     0.064 H 
ATOM     23  C   LIG d   1       6.444  -0.615  -9.109  0.00  0.00    -0.006 C 
ATOM     24  N   LIG d   1       6.420   1.112  -7.354  0.00  0.00    -0.089 NA
ATOM     25  H   LIG d   1       7.492  -0.716  -8.825  0.00  0.00     0.033 H 
ATOM     26  H   LIG d   1       6.371  -0.285 -10.146  0.00  0.00     0.033 H 
ATOM     27  C   LIG d   1       1.848  -0.754 -10.527  0.00  0.00    -0.046 C 
ATOM     28  H   LIG d   1       1.579  -1.074  -8.407  0.00  0.00     0.031 H 
ATOM     29  H   LIG d   1       1.820   0.633  -8.869  0.00  0.00     0.031 H 
ATOM     30  H   LIG d   1       0.774  -0.734 -10.708  0.00  0.00     0.027 H 
ATOM     31  H   LIG d   1       2.336  -0.025 -11.175  0.00  0.00     0.027 H 
ATOM     32  H   LIG d   1       5.887  -2.315  -7.924  0.00  0.00     0.028 H 
ATOM     33  H   LIG d   1       6.159  -2.675  -9.638  0.00  0.00     0.028 H 
ATOM     34  H   LIG d   1       1.951  -2.853 -10.128  0.00  0.00     0.031 H 
ATOM     35  H   LIG d   1       0.899  -2.632 -12.283  0.00  0.00     0.031 H 
ATOM     36  C   LIG d   1       2.466  -1.574 -13.306  0.00  0.00    -0.046 C 
ATOM     37  C   LIG d   1       2.357  -2.384 -14.618  0.00  0.00    -0.012 C 
ATOM     38  H   LIG d   1       1.817  -0.699 -13.340  0.00  0.00     0.027 H 
ATOM     39  H   LIG d   1       3.500  -1.278 -13.122  0.00  0.00     0.027 H 
ATOM     40  H   LIG d   1       1.413  -2.162 -15.116  0.00  0.00     0.030 H 
ATOM     41  H   LIG d   1       3.192  -2.142 -15.276  0.00  0.00     0.030 H 
BRANCH   5  42
ATOM     42  C   LIG d   1       1.894  -5.107 -12.045  0.00  0.00    -0.056 C 
ATOM     43  H   LIG d   1       2.027  -5.983 -12.679  0.00  0.00     0.024 H 
ATOM     44  H   LIG d   1       2.327  -5.301 -11.063  0.00  0.00     0.024 H 
ATOM     45  H   LIG d   1       0.831  -4.893 -11.937  0.00  0.00     0.024 H 
ENDBRANCH   5  42
BRANCH  14  46
ATOM     46  C   LIG d   1       3.571  -2.920  -8.337  0.00  0.00    -0.056 C 
ATOM     47  H   LIG d   1       4.330  -3.481  -7.793  0.00  0.00     0.024 H 
ATOM     48  H   LIG d   1       2.894  -2.442  -7.629  0.00  0.00     0.024 H 
ATOM     49  H   LIG d   1       3.007  -3.599  -8.977  0.00  0.00     0.024 H 
ENDBRANCH  14  46
BRANCH  24  50
ATOM     50  O   LIG d   1       7.827   0.982  -7.260  0.00  0.00    -0.384 OA
BRANCH  50  51
ATOM     51  C   LIG d   1       8.414   1.761  -6.215  0.00  0.00     0.193 C 
ATOM     52  H   LIG d   1       9.487   1.847  -6.387  0.00  0.00     0.082 H 
ATOM     53  H   LIG d   1       7.966   2.755  -6.208  0.00  0.00     0.082 H 
BRANCH  51  54
ATOM     54  C   LIG d   1       8.169   1.089  -4.890  0.00  0.00     0.254 C 
ATOM     55  O   LIG d   1       8.729   1.492  -3.892  0.00  0.00    -0.272 OA
ATOM     56  N   LIG d   1       7.327   0.040  -4.812  0.00  0.00    -0.309 N 
ATOM     57  H   LIG d   1       6.940  -0.332  -5.620  0.00  0.00     0.149 HD
BRANCH  56  58
ATOM     58  C   LIG d   1       6.995  -0.539  -3.507  0.00  0.00     0.031 C 
ATOM     59  H   LIG d   1       7.643  -0.109  -2.744  0.00  0.00     0.050 H 
BRANCH  58  60
ATOM     60  C   LIG d   1       7.199  -2.054  -3.555  0.00  0.00     0.005 C 
ATOM     61  H   LIG d   1       7.898  -2.351  -2.772  0.00  0.00     0.034 H 
ATOM     62  H   LIG d   1       6.244  -2.555  -3.398  0.00  0.00     0.034 H 
BRANCH  60  63
ATOM     63  C   LIG d   1       7.756  -2.445  -4.900  0.00  0.00     0.043 C 
ATOM     64  O   LIG d   1       7.000  -2.755  -5.806  0.00  0.00    -0.550 OA
ATOM     65  O   LIG d   1       8.961  -2.451  -5.083  0.00  0.00    -0.550 OA
ENDBRANCH  60  63
ENDBRANCH  58  60
BRANCH  58  66
ATOM     66  C   LIG d   1       5.535  -0.231  -3.169  0.00  0.00    -0.018 C 
ATOM     67  H   LIG d   1       5.143  -1.004  -2.507  0.00  0.00     0.032 H 
ATOM     68  C   LIG d   1       4.707  -0.193  -4.458  0.00  0.00    -0.020 C 
ATOM     69  C   LIG d   1       3.265   0.194  -4.118  0.00  0.00     0.064 C 
ATOM     70  H   LIG d   1       5.130   0.543  -5.141  0.00  0.00     0.030 H 
ATOM     71  H   LIG d   1       4.720  -1.177  -4.928  0.00  0.00     0.030 H 
ATOM     72  O   LIG d   1       3.256   1.456  -3.447  0.00  0.00    -0.374 OA
ATOM     73  C   LIG d   1       3.975   1.465  -2.212  0.00  0.00     0.049 C 
ATOM     74  C   LIG d   1       5.446   1.131  -2.475  0.00  0.00    -0.025 C 
ATOM     75  H   LIG d   1       3.549   0.723  -1.538  0.00  0.00     0.056 H 
ATOM     76  H   LIG d   1       3.903   2.454  -1.757  0.00  0.00     0.056 H 
ATOM     77  H   LIG d   1       5.986   1.095  -1.530  0.00  0.00     0.029 H 
ATOM     78  H   LIG d   1       5.884   1.896  -3.118  0.00  0.00     0.029 H 
BRANCH  69  79
ATOM     79  C   LIG d   1       2.654  -0.872  -3.207  0.00  0.00    -0.036 C 
ATOM     80  H   LIG d   1       2.596  -1.819  -3.743  0.00  0.00     0.026 H 
ATOM     81  H   LIG d   1       3.277  -0.994  -2.321  0.00  0.00     0.026 H 
ATOM     82  H   LIG d   1       1.652  -0.563  -2.908  0.00  0.00     0.026 H 
ENDBRANCH  69  79
BRANCH  69  83
ATOM     83  C   LIG d   1       2.447   0.295  -5.406  0.00  0.00    -0.036 C 
ATOM     84  H   LIG d   1       2.898   1.036  -6.066  0.00  0.00     0.026 H 
ATOM     85  H   LIG d   1       2.432  -0.675  -5.904  0.00  0.00     0.026 H 
ATOM     86  H   LIG d   1       1.427   0.597  -5.166  0.00  0.00     0.026 H 
ENDBRANCH  69  83
ENDBRANCH  58  66
ENDBRANCH  56  58
ENDBRANCH  51  54
ENDBRANCH  50  51
ENDBRANCH  24  50
BRANCH   4  87
ATOM     87  O   LIG d   1       1.188  -4.519 -14.584  0.00  0.00    -0.376 OA
ATOM     88  H   LIG d   1       0.619  -4.733 -13.832  0.00  0.00     0.211 HD
ENDBRANCH   4  87
ENDBRANCH   1   4
TORSDOF 13
ENDMDL
MODEL 9
REMARK VINA RESULT:      -6.3      6.956     10.189
REMARK  13 active torsions:
REMARK  status: ('A' for Active; 'I' for Inactive)
REMARK    1  A    between atoms: C_1  and  C_2 
REMARK    2  A    between atoms: N_6  and  O_7 
REMARK    3  A    between atoms: O_7  and  C_8 
REMARK    4  A    between atoms: C_8  and  C_9 
REMARK       I    between atoms: C_9  and  N_11 
REMARK    5  A    between atoms: N_11  and  C_12 
REMARK    6  A    between atoms: C_12  and  C_14 
REMARK    7  A    between atoms: C_12  and  C_18 
REMARK    8  A    between atoms: C_14  and  C_15 
REMARK    9  A    between atoms: C_23  and  C_25 
REMARK   10  A    between atoms: C_23  and  C_26 
REMARK   11  A    between atoms: C_37  and  C_46 
REMARK   12  A    between atoms: C_42  and  C_43 
REMARK   13  A    between atoms: C_42  and  O_45 
ROOT
ATOM      1  C   LIG d   1      10.403   8.124  -5.021  0.00  0.00    -0.070 C 
ATOM      2  C   LIG d   1       9.674   8.872  -5.557  0.00  0.00    -0.116 C 
ATOM      3  H   LIG d   1       9.020   9.539  -6.037  0.00  0.00     0.123 H 
ENDROOT
BRANCH   1   4
ATOM      4  C   LIG d   1      11.319   7.188  -4.349  0.00  0.00     0.132 C 
ATOM      5  C   LIG d   1      10.557   5.900  -3.937  0.00  0.00     0.011 C 
ATOM      6  C   LIG d   1       9.417   5.725  -4.945  0.00  0.00    -0.043 C 
ATOM      7  C   LIG d   1      11.614   4.798  -4.125  0.00  0.00    -0.029 C 
ATOM      8  C   LIG d   1       8.826   4.321  -4.850  0.00  0.00    -0.049 C 
ATOM      9  H   LIG d   1       9.799   5.887  -5.952  0.00  0.00     0.027 H 
ATOM     10  H   LIG d   1       8.637   6.458  -4.735  0.00  0.00     0.027 H 
ATOM     11  C   LIG d   1       9.911   3.302  -5.218  0.00  0.00    -0.029 C 
ATOM     12  H   LIG d   1       7.990   4.230  -5.543  0.00  0.00     0.027 H 
ATOM     13  H   LIG d   1       8.482   4.138  -3.832  0.00  0.00     0.027 H 
ATOM     14  C   LIG d   1       9.307   1.898  -5.164  0.00  0.00    -0.007 C 
ATOM     15  C   LIG d   1      11.038   3.404  -4.188  0.00  0.00    -0.034 C 
ATOM     16  H   LIG d   1      10.301   3.504  -6.215  0.00  0.00     0.031 H 
ATOM     17  C   LIG d   1      10.390   0.882  -5.347  0.00  0.00    -0.062 C 
ATOM     18  C   LIG d   1       8.131   1.770  -6.101  0.00  0.00    -0.038 C 
ATOM     19  C   LIG d   1      10.370  -0.064  -6.275  0.00  0.00    -0.037 C 
ATOM     20  C   LIG d   1      11.590   0.967  -4.418  0.00  0.00    -0.031 C 
ATOM     21  C   LIG d   1       9.257  -0.091  -7.246  0.00  0.00     0.080 C 
ATOM     22  H   LIG d   1      11.161  -0.796  -6.331  0.00  0.00     0.064 H 
ATOM     23  C   LIG d   1       8.538   1.227  -7.471  0.00  0.00    -0.006 C 
ATOM     24  N   LIG d   1       8.916  -1.174  -7.868  0.00  0.00    -0.089 NA
ATOM     25  H   LIG d   1       7.649   1.063  -8.083  0.00  0.00     0.033 H 
ATOM     26  H   LIG d   1       9.204   1.933  -7.967  0.00  0.00     0.033 H 
ATOM     27  C   LIG d   1      12.143   2.394  -4.506  0.00  0.00    -0.046 C 
ATOM     28  H   LIG d   1      11.282   0.752  -3.395  0.00  0.00     0.031 H 
ATOM     29  H   LIG d   1      12.353   0.254  -4.734  0.00  0.00     0.031 H 
ATOM     30  H   LIG d   1      12.957   2.512  -3.793  0.00  0.00     0.027 H 
ATOM     31  H   LIG d   1      12.518   2.575  -5.514  0.00  0.00     0.027 H 
ATOM     32  H   LIG d   1       7.397   1.098  -5.657  0.00  0.00     0.028 H 
ATOM     33  H   LIG d   1       7.676   2.751  -6.232  0.00  0.00     0.028 H 
ATOM     34  H   LIG d   1      10.622   3.159  -3.211  0.00  0.00     0.031 H 
ATOM     35  H   LIG d   1      12.334   4.851  -3.308  0.00  0.00     0.031 H 
ATOM     36  C   LIG d   1      12.328   5.203  -5.428  0.00  0.00    -0.046 C 
ATOM     37  C   LIG d   1      12.427   6.743  -5.321  0.00  0.00    -0.012 C 
ATOM     38  H   LIG d   1      13.321   4.757  -5.477  0.00  0.00     0.027 H 
ATOM     39  H   LIG d   1      11.733   4.916  -6.296  0.00  0.00     0.027 H 
ATOM     40  H   LIG d   1      13.404   7.027  -4.929  0.00  0.00     0.030 H 
ATOM     41  H   LIG d   1      12.271   7.196  -6.300  0.00  0.00     0.030 H 
BRANCH   5  42
ATOM     42  C   LIG d   1      10.040   5.972  -2.500  0.00  0.00    -0.056 C 
ATOM     43  H   LIG d   1      10.308   5.059  -1.970  0.00  0.00     0.024 H 
ATOM     44  H   LIG d   1      10.488   6.829  -1.995  0.00  0.00     0.024 H 
ATOM     45  H   LIG d   1       8.955   6.083  -2.509  0.00  0.00     0.024 H 
ENDBRANCH   5  42
BRANCH  14  46
ATOM     46  C   LIG d   1       8.764   1.711  -3.746  0.00  0.00    -0.056 C 
ATOM     47  H   LIG d   1       8.190   0.786  -3.695  0.00  0.00     0.024 H 
ATOM     48  H   LIG d   1       9.595   1.662  -3.043  0.00  0.00     0.024 H 
ATOM     49  H   LIG d   1       8.120   2.553  -3.490  0.00  0.00     0.024 H 
ENDBRANCH  14  46
BRANCH  24  50
ATOM     50  O   LIG d   1       7.842  -1.152  -8.791  0.00  0.00    -0.384 OA
BRANCH  50  51
ATOM     51  C   LIG d   1       7.165  -2.404  -8.926  0.00  0.00     0.193 C 
ATOM     52  H   LIG d   1       6.947  -2.585  -9.979  0.00  0.00     0.082 H 
ATOM     53  H   LIG d   1       7.800  -3.202  -8.543  0.00  0.00     0.082 H 
BRANCH  51  54
ATOM     54  C   LIG d   1       5.878  -2.366  -8.145  0.00  0.00     0.254 C 
ATOM     55  O   LIG d   1       5.048  -3.237  -8.298  0.00  0.00    -0.272 OA
ATOM     56  N   LIG d   1       5.649  -1.363  -7.274  0.00  0.00    -0.309 N 
ATOM     57  H   LIG d   1       6.275  -0.625  -7.208  0.00  0.00     0.149 HD
BRANCH  56  58
ATOM     58  C   LIG d   1       4.453  -1.387  -6.426  0.00  0.00     0.031 C 
ATOM     59  H   LIG d   1       3.850  -2.261  -6.674  0.00  0.00     0.050 H 
BRANCH  58  60
ATOM     60  C   LIG d   1       3.633  -0.118  -6.664  0.00  0.00     0.005 C 
ATOM     61  H   LIG d   1       2.571  -0.359  -6.620  0.00  0.00     0.034 H 
ATOM     62  H   LIG d   1       3.872   0.618  -5.897  0.00  0.00     0.034 H 
BRANCH  60  63
ATOM     63  C   LIG d   1       3.964   0.446  -8.022  0.00  0.00     0.043 C 
ATOM     64  O   LIG d   1       3.403   0.013  -9.015  0.00  0.00    -0.550 OA
ATOM     65  O   LIG d   1       4.791   1.335  -8.128  0.00  0.00    -0.550 OA
ENDBRANCH  60  63
ENDBRANCH  58  60
BRANCH  58  66
ATOM     66  C   LIG d   1       4.872  -1.457  -4.956  0.00  0.00    -0.018 C 
ATOM     67  H   LIG d   1       4.511  -2.388  -4.518  0.00  0.00     0.032 H 
ATOM     68  C   LIG d   1       4.274  -0.268  -4.196  0.00  0.00    -0.020 C 
ATOM     69  C   LIG d   1       4.762  -0.302  -2.746  0.00  0.00     0.064 C 
ATOM     70  H   LIG d   1       4.592   0.662  -4.666  0.00  0.00     0.030 H 
ATOM     71  H   LIG d   1       3.186  -0.333  -4.217  0.00  0.00     0.030 H 
ATOM     72  O   LIG d   1       6.192  -0.277  -2.724  0.00  0.00    -0.374 OA
ATOM     73  C   LIG d   1       6.804  -1.390  -3.378  0.00  0.00     0.049 C 
ATOM     74  C   LIG d   1       6.399  -1.400  -4.855  0.00  0.00    -0.025 C 
ATOM     75  H   LIG d   1       6.475  -2.315  -2.905  0.00  0.00     0.056 H 
ATOM     76  H   LIG d   1       7.888  -1.306  -3.299  0.00  0.00     0.056 H 
ATOM     77  H   LIG d   1       6.829  -2.272  -5.345  0.00  0.00     0.029 H 
ATOM     78  H   LIG d   1       6.762  -0.492  -5.338  0.00  0.00     0.029 H 
BRANCH  69  79
ATOM     79  C   LIG d   1       4.264  -1.580  -2.070  0.00  0.00    -0.036 C 
ATOM     80  H   LIG d   1       4.606  -2.447  -2.636  0.00  0.00     0.026 H 
ATOM     81  H   LIG d   1       4.656  -1.631  -1.055  0.00  0.00     0.026 H 
ATOM     82  H   LIG d   1       3.174  -1.574  -2.040  0.00  0.00     0.026 H 
ENDBRANCH  69  79
BRANCH  69  83
ATOM     83  C   LIG d   1       4.220   0.917  -1.996  0.00  0.00    -0.036 C 
ATOM     84  H   LIG d   1       5.016   1.360  -1.399  0.00  0.00     0.026 H 
ATOM     85  H   LIG d   1       3.852   1.650  -2.714  0.00  0.00     0.026 H 
ATOM     86  H   LIG d   1       3.404   0.607  -1.341  0.00  0.00     0.026 H 
ENDBRANCH  69  83
ENDBRANCH  58  66
ENDBRANCH  56  58
ENDBRANCH  51  54
ENDBRANCH  50  51
ENDBRANCH  24  50
BRANCH   4  87
ATOM     87  O   LIG d   1      11.895   7.806  -3.197  0.00  0.00    -0.376 OA
ATOM     88  H   LIG d   1      12.852   7.687  -3.124  0.00  0.00     0.211 HD
ENDBRANCH   4  87
ENDBRANCH   1   4
TORSDOF 13
ENDMDL
