MODEL 1
REMARK VINA RESULT:      -7.6      0.000      0.000
REMARK  4 active torsions:
REMARK  status: ('A' for Active; 'I' for Inactive)
REMARK    1  A    between atoms: C_1  and  C_2 
REMARK    2  A    between atoms: C_17  and  C_25 
REMARK    3  A    between atoms: C_22  and  C_23 
REMARK    4  A    between atoms: C_22  and  O_24 
ROOT
ATOM      1  C   LIG d   1       3.729   0.012  -7.755  0.00  0.00    -0.006 C 
ATOM      2  C   LIG d   1       3.131   1.403  -7.804  0.00  0.00    -0.037 C 
ATOM      3  C   LIG d   1       3.253   2.085  -9.160  0.00  0.00     0.012 C 
ATOM      4  C   LIG d   1       4.053   1.257 -10.134  0.00  0.00     0.174 C 
ATOM      5  O   LIG d   1       3.739   1.182 -11.308  0.00  0.00    -0.291 OA
ATOM      6  C   LIG d   1       5.235   0.544  -9.609  0.00  0.00     0.083 C 
ATOM      7  C   LIG d   1       5.055  -0.083  -8.418  0.00  0.00    -0.042 C 
ATOM      8  C   LIG d   1       6.241  -0.825  -7.868  0.00  0.00    -0.029 C 
ATOM      9  C   LIG d   1       5.836  -1.681  -6.671  0.00  0.00    -0.046 C 
ATOM     10  C   LIG d   1       5.005  -0.800  -5.725  0.00  0.00    -0.034 C 
ATOM     11  H   LIG d   1       5.505   0.157  -5.589  0.00  0.00     0.031 H 
ATOM     12  C   LIG d   1       3.641  -0.581  -6.363  0.00  0.00    -0.029 C 
ATOM     13  H   LIG d   1       3.140  -1.546  -6.444  0.00  0.00     0.031 H 
ATOM     14  C   LIG d   1       2.811   0.323  -5.450  0.00  0.00    -0.049 C 
ATOM     15  C   LIG d   1       2.630  -0.326  -4.088  0.00  0.00    -0.044 C 
ATOM     16  C   LIG d   1       3.896  -0.812  -3.432  0.00  0.00    -0.000 C 
ATOM     17  C   LIG d   1       4.870  -1.517  -4.383  0.00  0.00    -0.030 C 
ATOM     18  H   LIG d   1       4.593  -2.571  -4.527  0.00  0.00     0.031 H 
ATOM     19  C   LIG d   1       6.240  -1.387  -3.659  0.00  0.00    -0.047 C 
ATOM     20  C   LIG d   1       6.177   0.004  -2.996  0.00  0.00    -0.024 C 
ATOM     21  C   LIG d   1       4.688   0.243  -2.662  0.00  0.00     0.069 C 
ATOM     22 CL   LIG d   1       6.758   0.509 -10.454  0.00  0.00    -0.080 Cl
ATOM     23  H   LIG d   1       2.069   1.341  -7.541  0.00  0.00     0.028 H 
ATOM     24  H   LIG d   1       3.626   2.029  -7.052  0.00  0.00     0.028 H 
ATOM     25  H   LIG d   1       3.718   2.964  -9.052  0.00  0.00     0.035 H 
ATOM     26  H   LIG d   1       2.253   2.258  -9.571  0.00  0.00     0.035 H 
ATOM     27  H   LIG d   1       6.647  -1.467  -8.651  0.00  0.00     0.031 H 
ATOM     28  H   LIG d   1       7.000  -0.106  -7.563  0.00  0.00     0.031 H 
ATOM     29  H   LIG d   1       5.235  -2.527  -7.004  0.00  0.00     0.027 H 
ATOM     30  H   LIG d   1       6.724  -2.043  -6.154  0.00  0.00     0.027 H 
ATOM     31  H   LIG d   1       1.818   0.467  -5.902  0.00  0.00     0.027 H 
ATOM     32  H   LIG d   1       3.284   1.299  -5.363  0.00  0.00     0.027 H 
ATOM     33  H   LIG d   1       1.968  -1.201  -4.218  0.00  0.00     0.027 H 
ATOM     34  H   LIG d   1       2.098   0.355  -3.421  0.00  0.00     0.027 H 
ATOM     35  H   LIG d   1       6.359  -2.168  -2.908  0.00  0.00     0.027 H 
ATOM     36  H   LIG d   1       7.061  -1.428  -4.376  0.00  0.00     0.027 H 
ATOM     37  H   LIG d   1       6.534   0.768  -3.685  0.00  0.00     0.029 H 
ATOM     38  H   LIG d   1       6.770   0.013  -2.082  0.00  0.00     0.029 H 
ENDROOT
BRANCH  21  39
ATOM     39  C   LIG d   1       4.302   1.673  -3.027  0.00  0.00    -0.036 C 
ATOM     40  H   LIG d   1       4.488   2.328  -2.175  0.00  0.00     0.026 H 
ATOM     41  H   LIG d   1       4.896   2.005  -3.878  0.00  0.00     0.026 H 
ATOM     42  H   LIG d   1       3.243   1.709  -3.286  0.00  0.00     0.026 H 
ENDBRANCH  21  39
BRANCH  21  43
ATOM     43  O   LIG d   1       4.492   0.049  -1.251  0.00  0.00    -0.388 OA
ATOM     44  H   LIG d   1       3.662   0.415  -0.915  0.00  0.00     0.210 HD
ENDBRANCH  21  43
BRANCH  16  45
ATOM     45  C   LIG d   1       3.457  -1.872  -2.390  0.00  0.00    -0.057 C 
ATOM     46  H   LIG d   1       4.104  -2.746  -2.465  0.00  0.00     0.024 H 
ATOM     47  H   LIG d   1       3.530  -1.450  -1.387  0.00  0.00     0.024 H 
ATOM     48  H   LIG d   1       2.425  -2.168  -2.585  0.00  0.00     0.024 H 
ENDBRANCH  16  45
BRANCH   1  49
ATOM     49  C   LIG d   1       2.785  -0.871  -8.577  0.00  0.00    -0.056 C 
ATOM     50  H   LIG d   1       1.780  -0.817  -8.160  0.00  0.00     0.024 H 
ATOM     51  H   LIG d   1       2.769  -0.522  -9.611  0.00  0.00     0.024 H 
ATOM     52  H   LIG d   1       3.136  -1.903  -8.548  0.00  0.00     0.024 H 
ENDBRANCH   1  49
TORSDOF 4
ENDMDL
MODEL 2
REMARK VINA RESULT:      -7.2      2.810      3.944
REMARK  4 active torsions:
REMARK  status: ('A' for Active; 'I' for Inactive)
REMARK    1  A    between atoms: C_1  and  C_2 
REMARK    2  A    between atoms: C_17  and  C_25 
REMARK    3  A    between atoms: C_22  and  C_23 
REMARK    4  A    between atoms: C_22  and  O_24 
ROOT
ATOM      1  C   LIG d   1       7.489   0.420  -6.288  0.00  0.00    -0.006 C 
ATOM      2  C   LIG d   1       6.750   0.582  -7.600  0.00  0.00    -0.037 C 
ATOM      3  C   LIG d   1       7.518   1.369  -8.654  0.00  0.00     0.012 C 
ATOM      4  C   LIG d   1       8.814   1.914  -8.111  0.00  0.00     0.174 C 
ATOM      5  O   LIG d   1       9.826   1.931  -8.788  0.00  0.00    -0.291 OA
ATOM      6  C   LIG d   1       8.807   2.434  -6.729  0.00  0.00     0.083 C 
ATOM      7  C   LIG d   1       8.146   1.669  -5.823  0.00  0.00    -0.042 C 
ATOM      8  C   LIG d   1       8.134   2.170  -4.406  0.00  0.00    -0.029 C 
ATOM      9  C   LIG d   1       7.584   1.107  -3.459  0.00  0.00    -0.046 C 
ATOM     10  C   LIG d   1       6.281   0.567  -4.069  0.00  0.00    -0.034 C 
ATOM     11  H   LIG d   1       5.663   1.400  -4.399  0.00  0.00     0.031 H 
ATOM     12  C   LIG d   1       6.645  -0.307  -5.260  0.00  0.00    -0.029 C 
ATOM     13  H   LIG d   1       7.221  -1.159  -4.899  0.00  0.00     0.031 H 
ATOM     14  C   LIG d   1       5.357  -0.827  -5.901  0.00  0.00    -0.049 C 
ATOM     15  C   LIG d   1       4.564  -1.649  -4.899  0.00  0.00    -0.044 C 
ATOM     16  C   LIG d   1       4.326  -0.988  -3.566  0.00  0.00    -0.000 C 
ATOM     17  C   LIG d   1       5.544  -0.243  -3.005  0.00  0.00    -0.030 C 
ATOM     18  H   LIG d   1       6.229  -0.932  -2.490  0.00  0.00     0.031 H 
ATOM     19  C   LIG d   1       4.917   0.775  -2.011  0.00  0.00    -0.047 C 
ATOM     20  C   LIG d   1       3.600   1.196  -2.695  0.00  0.00    -0.024 C 
ATOM     21  C   LIG d   1       3.136  -0.034  -3.505  0.00  0.00     0.069 C 
ATOM     22 CL   LIG d   1       9.590   3.926  -6.286  0.00  0.00    -0.080 Cl
ATOM     23  H   LIG d   1       6.524  -0.411  -8.004  0.00  0.00     0.028 H 
ATOM     24  H   LIG d   1       5.797   1.090  -7.409  0.00  0.00     0.028 H 
ATOM     25  H   LIG d   1       6.965   2.143  -8.962  0.00  0.00     0.035 H 
ATOM     26  H   LIG d   1       7.730   0.719  -9.509  0.00  0.00     0.035 H 
ATOM     27  H   LIG d   1       9.155   2.421  -4.114  0.00  0.00     0.031 H 
ATOM     28  H   LIG d   1       7.515   3.064  -4.351  0.00  0.00     0.031 H 
ATOM     29  H   LIG d   1       8.303   0.293  -3.355  0.00  0.00     0.027 H 
ATOM     30  H   LIG d   1       7.382   1.545  -2.483  0.00  0.00     0.027 H 
ATOM     31  H   LIG d   1       5.619  -1.473  -6.752  0.00  0.00     0.027 H 
ATOM     32  H   LIG d   1       4.769   0.006  -6.282  0.00  0.00     0.027 H 
ATOM     33  H   LIG d   1       5.125  -2.582  -4.711  0.00  0.00     0.027 H 
ATOM     34  H   LIG d   1       3.615  -1.956  -5.341  0.00  0.00     0.027 H 
ATOM     35  H   LIG d   1       4.720   0.307  -1.047  0.00  0.00     0.027 H 
ATOM     36  H   LIG d   1       5.570   1.640  -1.881  0.00  0.00     0.027 H 
ATOM     37  H   LIG d   1       3.774   2.040  -3.362  0.00  0.00     0.029 H 
ATOM     38  H   LIG d   1       2.853   1.454  -1.946  0.00  0.00     0.029 H 
ENDROOT
BRANCH  21  39
ATOM     39  C   LIG d   1       2.646   0.410  -4.880  0.00  0.00    -0.036 C 
ATOM     40  H   LIG d   1       3.151  -0.172  -5.651  0.00  0.00     0.026 H 
ATOM     41  H   LIG d   1       1.570   0.254  -4.951  0.00  0.00     0.026 H 
ATOM     42  H   LIG d   1       2.870   1.468  -5.021  0.00  0.00     0.026 H 
ENDBRANCH  21  39
BRANCH  21  43
ATOM     43  O   LIG d   1       2.053  -0.669  -2.804  0.00  0.00    -0.388 OA
ATOM     44  H   LIG d   1       1.215  -0.665  -3.287  0.00  0.00     0.210 HD
ENDBRANCH  21  43
BRANCH  16  45
ATOM     45  C   LIG d   1       4.016  -2.135  -2.570  0.00  0.00    -0.057 C 
ATOM     46  H   LIG d   1       4.895  -2.330  -1.956  0.00  0.00     0.024 H 
ATOM     47  H   LIG d   1       3.181  -1.847  -1.932  0.00  0.00     0.024 H 
ATOM     48  H   LIG d   1       3.756  -3.037  -3.126  0.00  0.00     0.024 H 
ENDBRANCH  16  45
BRANCH   1  49
ATOM     49  C   LIG d   1       8.625  -0.568  -6.576  0.00  0.00    -0.056 C 
ATOM     50  H   LIG d   1       8.767  -1.221  -5.714  0.00  0.00     0.024 H 
ATOM     51  H   LIG d   1       8.370  -1.171  -7.449  0.00  0.00     0.024 H 
ATOM     52  H   LIG d   1       9.545  -0.018  -6.770  0.00  0.00     0.024 H 
ENDBRANCH   1  49
TORSDOF 4
ENDMDL
MODEL 3
REMARK VINA RESULT:      -6.4      2.162      3.628
REMARK  4 active torsions:
REMARK  status: ('A' for Active; 'I' for Inactive)
REMARK    1  A    between atoms: C_1  and  C_2 
REMARK    2  A    between atoms: C_17  and  C_25 
REMARK    3  A    between atoms: C_22  and  C_23 
REMARK    4  A    between atoms: C_22  and  O_24 
ROOT
ATOM      1  C   LIG d   1       4.637  -1.888  -7.906  0.00  0.00    -0.006 C 
ATOM      2  C   LIG d   1       4.860  -3.378  -7.746  0.00  0.00    -0.037 C 
ATOM      3  C   LIG d   1       4.459  -4.201  -8.963  0.00  0.00     0.012 C 
ATOM      4  C   LIG d   1       3.817  -3.350 -10.029  0.00  0.00     0.174 C 
ATOM      5  O   LIG d   1       4.042  -3.538 -11.210  0.00  0.00    -0.291 OA
ATOM      6  C   LIG d   1       2.899  -2.282  -9.584  0.00  0.00     0.083 C 
ATOM      7  C   LIG d   1       3.328  -1.551  -8.522  0.00  0.00    -0.042 C 
ATOM      8  C   LIG d   1       2.417  -0.450  -8.058  0.00  0.00    -0.029 C 
ATOM      9  C   LIG d   1       3.120   0.442  -7.038  0.00  0.00    -0.046 C 
ATOM     10  C   LIG d   1       3.778  -0.473  -5.991  0.00  0.00    -0.034 C 
ATOM     11  H   LIG d   1       3.066  -1.233  -5.677  0.00  0.00     0.031 H 
ATOM     12  C   LIG d   1       4.985  -1.135  -6.638  0.00  0.00    -0.029 C 
ATOM     13  H   LIG d   1       5.705  -0.358  -6.900  0.00  0.00     0.031 H 
ATOM     14  C   LIG d   1       5.634  -2.075  -5.621  0.00  0.00    -0.049 C 
ATOM     15  C   LIG d   1       6.083  -1.298  -4.395  0.00  0.00    -0.044 C 
ATOM     16  C   LIG d   1       5.038  -0.405  -3.779  0.00  0.00    -0.000 C 
ATOM     17  C   LIG d   1       4.198   0.379  -4.795  0.00  0.00    -0.030 C 
ATOM     18  H   LIG d   1       4.719   1.289  -5.124  0.00  0.00     0.031 H 
ATOM     19  C   LIG d   1       2.904   0.723  -4.005  0.00  0.00    -0.047 C 
ATOM     20  C   LIG d   1       2.669  -0.519  -3.121  0.00  0.00    -0.024 C 
ATOM     21  C   LIG d   1       4.072  -1.086  -2.813  0.00  0.00     0.069 C 
ATOM     22 CL   LIG d   1       1.370  -1.978 -10.361  0.00  0.00    -0.080 Cl
ATOM     23  H   LIG d   1       5.921  -3.557  -7.540  0.00  0.00     0.028 H 
ATOM     24  H   LIG d   1       4.287  -3.731  -6.880  0.00  0.00     0.028 H 
ATOM     25  H   LIG d   1       3.799  -4.901  -8.691  0.00  0.00     0.035 H 
ATOM     26  H   LIG d   1       5.346  -4.690  -9.378  0.00  0.00     0.035 H 
ATOM     27  H   LIG d   1       2.122   0.150  -8.920  0.00  0.00     0.031 H 
ATOM     28  H   LIG d   1       1.528  -0.891  -7.606  0.00  0.00     0.031 H 
ATOM     29  H   LIG d   1       3.886   1.040  -7.532  0.00  0.00     0.027 H 
ATOM     30  H   LIG d   1       2.398   1.097  -6.554  0.00  0.00     0.027 H 
ATOM     31  H   LIG d   1       6.518  -2.541  -6.081  0.00  0.00     0.027 H 
ATOM     32  H   LIG d   1       4.939  -2.869  -5.353  0.00  0.00     0.027 H 
ATOM     33  H   LIG d   1       6.931  -0.657  -4.695  0.00  0.00     0.027 H 
ATOM     34  H   LIG d   1       6.479  -1.985  -3.645  0.00  0.00     0.027 H 
ATOM     35  H   LIG d   1       3.048   1.612  -3.392  0.00  0.00     0.027 H 
ATOM     36  H   LIG d   1       2.063   0.868  -4.686  0.00  0.00     0.027 H 
ATOM     37  H   LIG d   1       2.076  -1.259  -3.659  0.00  0.00     0.029 H 
ATOM     38  H   LIG d   1       2.169  -0.234  -2.196  0.00  0.00     0.029 H 
ENDROOT
BRANCH  21  39
ATOM     39  C   LIG d   1       4.055  -2.606  -2.948  0.00  0.00    -0.036 C 
ATOM     40  H   LIG d   1       3.146  -2.914  -3.466  0.00  0.00     0.026 H 
ATOM     41  H   LIG d   1       4.926  -2.931  -3.516  0.00  0.00     0.026 H 
ATOM     42  H   LIG d   1       4.077  -3.059  -1.956  0.00  0.00     0.026 H 
ENDBRANCH  21  39
BRANCH  21  43
ATOM     43  O   LIG d   1       4.425  -0.739  -1.463  0.00  0.00    -0.388 OA
ATOM     44  H   LIG d   1       3.666  -0.608  -0.878  0.00  0.00     0.210 HD
ENDBRANCH  21  43
BRANCH  16  45
ATOM     45  C   LIG d   1       5.814   0.649  -2.948  0.00  0.00    -0.057 C 
ATOM     46  H   LIG d   1       6.175   0.192  -2.026  0.00  0.00     0.024 H 
ATOM     47  H   LIG d   1       6.660   1.018  -3.527  0.00  0.00     0.024 H 
ATOM     48  H   LIG d   1       5.150   1.479  -2.704  0.00  0.00     0.024 H 
ENDBRANCH  16  45
BRANCH   1  49
ATOM     49  C   LIG d   1       5.703  -1.417  -8.902  0.00  0.00    -0.056 C 
ATOM     50  H   LIG d   1       5.703  -0.328  -8.947  0.00  0.00     0.024 H 
ATOM     51  H   LIG d   1       6.684  -1.768  -8.577  0.00  0.00     0.024 H 
ATOM     52  H   LIG d   1       5.481  -1.822  -9.889  0.00  0.00     0.024 H 
ENDBRANCH   1  49
TORSDOF 4
ENDMDL
MODEL 4
REMARK VINA RESULT:      -6.3      3.557      5.991
REMARK  4 active torsions:
REMARK  status: ('A' for Active; 'I' for Inactive)
REMARK    1  A    between atoms: C_1  and  C_2 
REMARK    2  A    between atoms: C_17  and  C_25 
REMARK    3  A    between atoms: C_22  and  C_23 
REMARK    4  A    between atoms: C_22  and  O_24 
ROOT
ATOM      1  C   LIG d   1       5.352  -1.235  -3.322  0.00  0.00    -0.006 C 
ATOM      2  C   LIG d   1       6.223  -0.067  -2.909  0.00  0.00    -0.037 C 
ATOM      3  C   LIG d   1       5.451   1.214  -2.620  0.00  0.00     0.012 C 
ATOM      4  C   LIG d   1       3.982   1.062  -2.922  0.00  0.00     0.174 C 
ATOM      5  O   LIG d   1       3.134   1.563  -2.206  0.00  0.00    -0.291 OA
ATOM      6  C   LIG d   1       3.611   0.288  -4.124  0.00  0.00     0.083 C 
ATOM      7  C   LIG d   1       4.301  -0.868  -4.307  0.00  0.00    -0.042 C 
ATOM      8  C   LIG d   1       3.935  -1.680  -5.517  0.00  0.00    -0.029 C 
ATOM      9  C   LIG d   1       4.597  -3.055  -5.468  0.00  0.00    -0.046 C 
ATOM     10  C   LIG d   1       6.083  -2.847  -5.132  0.00  0.00    -0.034 C 
ATOM     11  H   LIG d   1       6.486  -2.050  -5.755  0.00  0.00     0.031 H 
ATOM     12  C   LIG d   1       6.184  -2.455  -3.666  0.00  0.00    -0.029 C 
ATOM     13  H   LIG d   1       5.819  -3.286  -3.061  0.00  0.00     0.031 H 
ATOM     14  C   LIG d   1       7.654  -2.210  -3.322  0.00  0.00    -0.049 C 
ATOM     15  C   LIG d   1       8.468  -3.470  -3.563  0.00  0.00    -0.044 C 
ATOM     16  C   LIG d   1       8.284  -4.109  -4.915  0.00  0.00    -0.000 C 
ATOM     17  C   LIG d   1       6.830  -4.151  -5.401  0.00  0.00    -0.030 C 
ATOM     18  H   LIG d   1       6.291  -5.008  -4.972  0.00  0.00     0.031 H 
ATOM     19  C   LIG d   1       6.969  -4.287  -6.943  0.00  0.00    -0.047 C 
ATOM     20  C   LIG d   1       8.208  -3.431  -7.279  0.00  0.00    -0.024 C 
ATOM     21  C   LIG d   1       9.129  -3.523  -6.043  0.00  0.00     0.069 C 
ATOM     22 CL   LIG d   1       2.377   0.815  -5.233  0.00  0.00    -0.080 Cl
ATOM     23  H   LIG d   1       6.784  -0.345  -2.010  0.00  0.00     0.028 H 
ATOM     24  H   LIG d   1       6.948   0.134  -3.707  0.00  0.00     0.028 H 
ATOM     25  H   LIG d   1       5.806   1.955  -3.190  0.00  0.00     0.035 H 
ATOM     26  H   LIG d   1       5.576   1.483  -1.566  0.00  0.00     0.035 H 
ATOM     27  H   LIG d   1       2.851  -1.802  -5.543  0.00  0.00     0.031 H 
ATOM     28  H   LIG d   1       4.258  -1.150  -6.412  0.00  0.00     0.031 H 
ATOM     29  H   LIG d   1       4.130  -3.665  -4.694  0.00  0.00     0.027 H 
ATOM     30  H   LIG d   1       4.501  -3.550  -6.433  0.00  0.00     0.027 H 
ATOM     31  H   LIG d   1       7.730  -1.944  -2.257  0.00  0.00     0.027 H 
ATOM     32  H   LIG d   1       8.038  -1.375  -3.904  0.00  0.00     0.027 H 
ATOM     33  H   LIG d   1       8.170  -4.214  -2.802  0.00  0.00     0.027 H 
ATOM     34  H   LIG d   1       9.525  -3.268  -3.384  0.00  0.00     0.027 H 
ATOM     35  H   LIG d   1       7.127  -5.326  -7.230  0.00  0.00     0.027 H 
ATOM     36  H   LIG d   1       6.086  -3.889  -7.447  0.00  0.00     0.027 H 
ATOM     37  H   LIG d   1       7.917  -2.396  -7.454  0.00  0.00     0.029 H 
ATOM     38  H   LIG d   1       8.716  -3.833  -8.155  0.00  0.00     0.029 H 
ENDROOT
BRANCH  21  39
ATOM     39  C   LIG d   1       9.695  -2.144  -5.720  0.00  0.00    -0.036 C 
ATOM     40  H   LIG d   1      10.315  -2.206  -4.825  0.00  0.00     0.026 H 
ATOM     41  H   LIG d   1      10.298  -1.792  -6.556  0.00  0.00     0.026 H 
ATOM     42  H   LIG d   1       8.876  -1.446  -5.544  0.00  0.00     0.026 H 
ENDBRANCH  21  39
BRANCH  21  43
ATOM     43  O   LIG d   1      10.214  -4.419  -6.339  0.00  0.00    -0.388 OA
ATOM     44  H   LIG d   1      10.146  -5.278  -5.900  0.00  0.00     0.210 HD
ENDBRANCH  21  43
BRANCH  16  45
ATOM     45  C   LIG d   1       8.735  -5.584  -4.754  0.00  0.00    -0.057 C 
ATOM     46  H   LIG d   1       9.818  -5.623  -4.639  0.00  0.00     0.024 H 
ATOM     47  H   LIG d   1       8.259  -6.017  -3.874  0.00  0.00     0.024 H 
ATOM     48  H   LIG d   1       8.444  -6.150  -5.640  0.00  0.00     0.024 H 
ENDBRANCH  16  45
BRANCH   1  49
ATOM     49  C   LIG d   1       4.605  -1.661  -2.053  0.00  0.00    -0.056 C 
ATOM     50  H   LIG d   1       5.292  -1.653  -1.207  0.00  0.00     0.024 H 
ATOM     51  H   LIG d   1       3.787  -0.965  -1.863  0.00  0.00     0.024 H 
ATOM     52  H   LIG d   1       4.205  -2.665  -2.187  0.00  0.00     0.024 H 
ENDBRANCH   1  49
TORSDOF 4
ENDMDL
MODEL 5
REMARK VINA RESULT:      -6.2      2.177      6.407
REMARK  4 active torsions:
REMARK  status: ('A' for Active; 'I' for Inactive)
REMARK    1  A    between atoms: C_1  and  C_2 
REMARK    2  A    between atoms: C_17  and  C_25 
REMARK    3  A    between atoms: C_22  and  C_23 
REMARK    4  A    between atoms: C_22  and  O_24 
ROOT
ATOM      1  C   LIG d   1       4.703  -1.182  -5.446  0.00  0.00    -0.006 C 
ATOM      2  C   LIG d   1       6.212  -1.116  -5.334  0.00  0.00    -0.037 C 
ATOM      3  C   LIG d   1       6.727  -1.035  -3.902  0.00  0.00     0.012 C 
ATOM      4  C   LIG d   1       5.599  -0.925  -2.907  0.00  0.00     0.174 C 
ATOM      5  O   LIG d   1       5.638  -1.507  -1.839  0.00  0.00    -0.291 OA
ATOM      6  C   LIG d   1       4.447  -0.077  -3.277  0.00  0.00     0.083 C 
ATOM      7  C   LIG d   1       4.002  -0.224  -4.552  0.00  0.00    -0.042 C 
ATOM      8  C   LIG d   1       2.824   0.619  -4.949  0.00  0.00    -0.029 C 
ATOM      9  C   LIG d   1       2.276   0.180  -6.305  0.00  0.00    -0.046 C 
ATOM     10  C   LIG d   1       3.464   0.058  -7.273  0.00  0.00    -0.034 C 
ATOM     11  H   LIG d   1       4.098   0.938  -7.180  0.00  0.00     0.031 H 
ATOM     12  C   LIG d   1       4.253  -1.186  -6.894  0.00  0.00    -0.029 C 
ATOM     13  H   LIG d   1       3.614  -2.058  -7.040  0.00  0.00     0.031 H 
ATOM     14  C   LIG d   1       5.461  -1.306  -7.825  0.00  0.00    -0.049 C 
ATOM     15  C   LIG d   1       5.002  -1.422  -9.269  0.00  0.00    -0.044 C 
ATOM     16  C   LIG d   1       4.019  -0.373  -9.721  0.00  0.00    -0.000 C 
ATOM     17  C   LIG d   1       2.924  -0.052  -8.697  0.00  0.00    -0.030 C 
ATOM     18  H   LIG d   1       2.103  -0.781  -8.750  0.00  0.00     0.031 H 
ATOM     19  C   LIG d   1       2.446   1.367  -9.113  0.00  0.00    -0.047 C 
ATOM     20  C   LIG d   1       3.736   2.068  -9.587  0.00  0.00    -0.024 C 
ATOM     21  C   LIG d   1       4.628   0.952 -10.173  0.00  0.00     0.069 C 
ATOM     22 CL   LIG d   1       3.706   1.035  -2.160  0.00  0.00    -0.080 Cl
ATOM     23  H   LIG d   1       6.642  -2.006  -5.807  0.00  0.00     0.028 H 
ATOM     24  H   LIG d   1       6.571  -0.238  -5.884  0.00  0.00     0.028 H 
ATOM     25  H   LIG d   1       7.306  -0.226  -3.800  0.00  0.00     0.035 H 
ATOM     26  H   LIG d   1       7.318  -1.928  -3.678  0.00  0.00     0.035 H 
ATOM     27  H   LIG d   1       2.044   0.512  -4.194  0.00  0.00     0.031 H 
ATOM     28  H   LIG d   1       3.134   1.662  -5.001  0.00  0.00     0.031 H 
ATOM     29  H   LIG d   1       1.781  -0.787  -6.211  0.00  0.00     0.027 H 
ATOM     30  H   LIG d   1       1.569   0.919  -6.679  0.00  0.00     0.027 H 
ATOM     31  H   LIG d   1       6.023  -2.215  -7.564  0.00  0.00     0.027 H 
ATOM     32  H   LIG d   1       6.122  -0.453  -7.689  0.00  0.00     0.027 H 
ATOM     33  H   LIG d   1       4.515  -2.406  -9.390  0.00  0.00     0.027 H 
ATOM     34  H   LIG d   1       5.869  -1.435  -9.933  0.00  0.00     0.027 H 
ATOM     35  H   LIG d   1       1.717   1.311  -9.921  0.00  0.00     0.027 H 
ATOM     36  H   LIG d   1       2.019   1.897  -8.259  0.00  0.00     0.027 H 
ATOM     37  H   LIG d   1       4.237   2.545  -8.746  0.00  0.00     0.029 H 
ATOM     38  H   LIG d   1       3.504   2.804 -10.356  0.00  0.00     0.029 H 
ENDROOT
BRANCH  21  39
ATOM     39  C   LIG d   1       6.068   1.146  -9.708  0.00  0.00    -0.036 C 
ATOM     40  H   LIG d   1       6.298   0.420  -8.927  0.00  0.00     0.026 H 
ATOM     41  H   LIG d   1       6.745   1.003 -10.549  0.00  0.00     0.026 H 
ATOM     42  H   LIG d   1       6.189   2.154  -9.311  0.00  0.00     0.026 H 
ENDBRANCH  21  39
BRANCH  21  43
ATOM     43  O   LIG d   1       4.584   1.030 -11.608  0.00  0.00    -0.388 OA
ATOM     44  H   LIG d   1       4.430   0.180 -12.044  0.00  0.00     0.210 HD
ENDBRANCH  21  43
BRANCH  16  45
ATOM     45  C   LIG d   1       3.300  -0.968 -10.959  0.00  0.00    -0.057 C 
ATOM     46  H   LIG d   1       2.998  -1.993 -10.747  0.00  0.00     0.024 H 
ATOM     47  H   LIG d   1       2.420  -0.369 -11.191  0.00  0.00     0.024 H 
ATOM     48  H   LIG d   1       3.980  -0.960 -11.812  0.00  0.00     0.024 H 
ENDBRANCH  16  45
BRANCH   1  49
ATOM     49  C   LIG d   1       4.314  -2.579  -4.950  0.00  0.00    -0.056 C 
ATOM     50  H   LIG d   1       5.153  -3.260  -5.085  0.00  0.00     0.024 H 
ATOM     51  H   LIG d   1       4.055  -2.528  -3.891  0.00  0.00     0.024 H 
ATOM     52  H   LIG d   1       3.457  -2.940  -5.517  0.00  0.00     0.024 H 
ENDBRANCH   1  49
TORSDOF 4
ENDMDL
MODEL 6
REMARK VINA RESULT:      -5.8      3.158      4.220
REMARK  4 active torsions:
REMARK  status: ('A' for Active; 'I' for Inactive)
REMARK    1  A    between atoms: C_1  and  C_2 
REMARK    2  A    between atoms: C_17  and  C_25 
REMARK    3  A    between atoms: C_22  and  C_23 
REMARK    4  A    between atoms: C_22  and  O_24 
ROOT
ATOM      1  C   LIG d   1       6.615  -2.278  -6.713  0.00  0.00    -0.006 C 
ATOM      2  C   LIG d   1       7.581  -1.139  -6.962  0.00  0.00    -0.037 C 
ATOM      3  C   LIG d   1       8.896  -1.568  -7.602  0.00  0.00     0.012 C 
ATOM      4  C   LIG d   1       8.988  -3.066  -7.743  0.00  0.00     0.174 C 
ATOM      5  O   LIG d   1       9.484  -3.579  -8.729  0.00  0.00    -0.291 OA
ATOM      6  C   LIG d   1       8.458  -3.887  -6.635  0.00  0.00     0.083 C 
ATOM      7  C   LIG d   1       7.261  -3.485  -6.134  0.00  0.00    -0.042 C 
ATOM      8  C   LIG d   1       6.695  -4.310  -5.014  0.00  0.00    -0.029 C 
ATOM      9  C   LIG d   1       5.253  -3.907  -4.718  0.00  0.00    -0.046 C 
ATOM     10  C   LIG d   1       5.209  -2.374  -4.610  0.00  0.00    -0.034 C 
ATOM     11  H   LIG d   1       6.029  -2.032  -3.981  0.00  0.00     0.031 H 
ATOM     12  C   LIG d   1       5.360  -1.799  -6.010  0.00  0.00    -0.029 C 
ATOM     13  H   LIG d   1       4.504  -2.114  -6.607  0.00  0.00     0.031 H 
ATOM     14  C   LIG d   1       5.353  -0.272  -5.918  0.00  0.00    -0.049 C 
ATOM     15  C   LIG d   1       4.046   0.213  -5.313  0.00  0.00    -0.044 C 
ATOM     16  C   LIG d   1       3.646  -0.450  -4.021  0.00  0.00    -0.000 C 
ATOM     17  C   LIG d   1       3.872  -1.967  -3.995  0.00  0.00    -0.030 C 
ATOM     18  H   LIG d   1       3.039  -2.501  -4.475  0.00  0.00     0.031 H 
ATOM     19  C   LIG d   1       3.951  -2.294  -2.477  0.00  0.00    -0.047 C 
ATOM     20  C   LIG d   1       4.674  -1.072  -1.873  0.00  0.00    -0.024 C 
ATOM     21  C   LIG d   1       4.277   0.130  -2.758  0.00  0.00     0.069 C 
ATOM     22 CL   LIG d   1       9.305  -5.275  -6.011  0.00  0.00    -0.080 Cl
ATOM     23  H   LIG d   1       7.100  -0.404  -7.617  0.00  0.00     0.028 H 
ATOM     24  H   LIG d   1       7.801  -0.645  -6.009  0.00  0.00     0.028 H 
ATOM     25  H   LIG d   1       9.660  -1.266  -7.031  0.00  0.00     0.035 H 
ATOM     26  H   LIG d   1       8.985  -1.107  -8.591  0.00  0.00     0.035 H 
ATOM     27  H   LIG d   1       6.723  -5.362  -5.303  0.00  0.00     0.031 H 
ATOM     28  H   LIG d   1       7.305  -4.166  -4.123  0.00  0.00     0.031 H 
ATOM     29  H   LIG d   1       4.601  -4.234  -5.528  0.00  0.00     0.027 H 
ATOM     30  H   LIG d   1       4.925  -4.353  -3.781  0.00  0.00     0.027 H 
ATOM     31  H   LIG d   1       5.445   0.146  -6.932  0.00  0.00     0.027 H 
ATOM     32  H   LIG d   1       6.207   0.070  -5.337  0.00  0.00     0.027 H 
ATOM     33  H   LIG d   1       3.243   0.019  -6.048  0.00  0.00     0.027 H 
ATOM     34  H   LIG d   1       4.077   1.297  -5.185  0.00  0.00     0.027 H 
ATOM     35  H   LIG d   1       2.954  -2.403  -2.050  0.00  0.00     0.027 H 
ATOM     36  H   LIG d   1       4.533  -3.201  -2.307  0.00  0.00     0.027 H 
ATOM     37  H   LIG d   1       5.753  -1.219  -1.903  0.00  0.00     0.029 H 
ATOM     38  H   LIG d   1       4.343  -0.907  -0.848  0.00  0.00     0.029 H 
ENDROOT
BRANCH  21  39
ATOM     39  C   LIG d   1       5.505   0.992  -3.036  0.00  0.00    -0.036 C 
ATOM     40  H   LIG d   1       5.466   1.358  -4.063  0.00  0.00     0.026 H 
ATOM     41  H   LIG d   1       5.520   1.837  -2.349  0.00  0.00     0.026 H 
ATOM     42  H   LIG d   1       6.407   0.395  -2.899  0.00  0.00     0.026 H 
ENDBRANCH  21  39
BRANCH  21  43
ATOM     43  O   LIG d   1       3.300   0.918  -2.057  0.00  0.00    -0.388 OA
ATOM     44  H   LIG d   1       3.498   1.048  -1.119  0.00  0.00     0.210 HD
ENDBRANCH  21  43
BRANCH  16  45
ATOM     45  C   LIG d   1       2.117  -0.232  -3.884  0.00  0.00    -0.057 C 
ATOM     46  H   LIG d   1       1.607  -1.194  -3.937  0.00  0.00     0.024 H 
ATOM     47  H   LIG d   1       1.902   0.244  -2.928  0.00  0.00     0.024 H 
ATOM     48  H   LIG d   1       1.768   0.408  -4.696  0.00  0.00     0.024 H 
ENDBRANCH  16  45
BRANCH   1  49
ATOM     49  C   LIG d   1       6.107  -2.699  -8.096  0.00  0.00    -0.056 C 
ATOM     50  H   LIG d   1       6.582  -3.635  -8.390  0.00  0.00     0.024 H 
ATOM     51  H   LIG d   1       5.025  -2.837  -8.059  0.00  0.00     0.024 H 
ATOM     52  H   LIG d   1       6.350  -1.924  -8.823  0.00  0.00     0.024 H 
ENDBRANCH   1  49
TORSDOF 4
ENDMDL
MODEL 7
REMARK VINA RESULT:      -5.7      4.351      6.558
REMARK  4 active torsions:
REMARK  status: ('A' for Active; 'I' for Inactive)
REMARK    1  A    between atoms: C_1  and  C_2 
REMARK    2  A    between atoms: C_17  and  C_25 
REMARK    3  A    between atoms: C_22  and  C_23 
REMARK    4  A    between atoms: C_22  and  O_24 
ROOT
ATOM      1  C   LIG d   1       6.667  -0.769  -5.084  0.00  0.00    -0.006 C 
ATOM      2  C   LIG d   1       7.386  -2.089  -5.272  0.00  0.00    -0.037 C 
ATOM      3  C   LIG d   1       6.581  -3.304  -4.828  0.00  0.00     0.012 C 
ATOM      4  C   LIG d   1       5.274  -2.907  -4.189  0.00  0.00     0.174 C 
ATOM      5  O   LIG d   1       4.254  -3.542  -4.388  0.00  0.00    -0.291 OA
ATOM      6  C   LIG d   1       5.282  -1.723  -3.306  0.00  0.00     0.083 C 
ATOM      7  C   LIG d   1       5.978  -0.654  -3.773  0.00  0.00    -0.042 C 
ATOM      8  C   LIG d   1       5.990   0.568  -2.898  0.00  0.00    -0.029 C 
ATOM      9  C   LIG d   1       6.585   1.761  -3.643  0.00  0.00    -0.046 C 
ATOM     10  C   LIG d   1       7.897   1.298  -4.296  0.00  0.00    -0.034 C 
ATOM     11  H   LIG d   1       8.484   0.738  -3.570  0.00  0.00     0.031 H 
ATOM     12  C   LIG d   1       7.546   0.403  -5.474  0.00  0.00    -0.029 C 
ATOM     13  H   LIG d   1       7.001   0.997  -6.209  0.00  0.00     0.031 H 
ATOM     14  C   LIG d   1       8.842  -0.095  -6.117  0.00  0.00    -0.049 C 
ATOM     15  C   LIG d   1       9.672   1.079  -6.608  0.00  0.00    -0.044 C 
ATOM     16  C   LIG d   1       9.905   2.172  -5.597  0.00  0.00    -0.000 C 
ATOM     17  C   LIG d   1       8.672   2.530  -4.759  0.00  0.00    -0.030 C 
ATOM     18  H   LIG d   1       8.014   3.229  -5.297  0.00  0.00     0.031 H 
ATOM     19  C   LIG d   1       9.278   3.190  -3.489  0.00  0.00    -0.047 C 
ATOM     20  C   LIG d   1      10.573   2.390  -3.239  0.00  0.00    -0.024 C 
ATOM     21  C   LIG d   1      11.066   1.943  -4.632  0.00  0.00     0.069 C 
ATOM     22 CL   LIG d   1       4.458  -1.694  -1.772  0.00  0.00    -0.080 Cl
ATOM     23  H   LIG d   1       7.637  -2.207  -6.332  0.00  0.00     0.028 H 
ATOM     24  H   LIG d   1       8.324  -2.066  -4.706  0.00  0.00     0.028 H 
ATOM     25  H   LIG d   1       7.106  -3.826  -4.156  0.00  0.00     0.035 H 
ATOM     26  H   LIG d   1       6.378  -3.941  -5.695  0.00  0.00     0.035 H 
ATOM     27  H   LIG d   1       4.966   0.800  -2.604  0.00  0.00     0.031 H 
ATOM     28  H   LIG d   1       6.583   0.361  -2.008  0.00  0.00     0.031 H 
ATOM     29  H   LIG d   1       5.893   2.101  -4.414  0.00  0.00     0.027 H 
ATOM     30  H   LIG d   1       6.785   2.574  -2.946  0.00  0.00     0.027 H 
ATOM     31  H   LIG d   1       8.589  -0.729  -6.981  0.00  0.00     0.027 H 
ATOM     32  H   LIG d   1       9.399  -0.703  -5.408  0.00  0.00     0.027 H 
ATOM     33  H   LIG d   1       9.142   1.529  -7.467  0.00  0.00     0.027 H 
ATOM     34  H   LIG d   1      10.625   0.720  -7.000  0.00  0.00     0.027 H 
ATOM     35  H   LIG d   1       9.502   4.242  -3.666  0.00  0.00     0.027 H 
ATOM     36  H   LIG d   1       8.600   3.089  -2.640  0.00  0.00     0.027 H 
ATOM     37  H   LIG d   1      10.365   1.520  -2.618  0.00  0.00     0.029 H 
ATOM     38  H   LIG d   1      11.321   3.024  -2.763  0.00  0.00     0.029 H 
ENDROOT
BRANCH  21  39
ATOM     39  C   LIG d   1      11.525   0.489  -4.574  0.00  0.00    -0.036 C 
ATOM     40  H   LIG d   1      11.110   0.012  -3.685  0.00  0.00     0.026 H 
ATOM     41  H   LIG d   1      11.181  -0.037  -5.463  0.00  0.00     0.026 H 
ATOM     42  H   LIG d   1      12.614   0.453  -4.528  0.00  0.00     0.026 H 
ENDBRANCH  21  39
BRANCH  21  43
ATOM     43  O   LIG d   1      12.176   2.771  -5.019  0.00  0.00    -0.388 OA
ATOM     44  H   LIG d   1      12.852   2.868  -4.334  0.00  0.00     0.210 HD
ENDBRANCH  21  43
BRANCH  16  45
ATOM     45  C   LIG d   1      10.262   3.440  -6.415  0.00  0.00    -0.057 C 
ATOM     46  H   LIG d   1       9.424   4.136  -6.391  0.00  0.00     0.024 H 
ATOM     47  H   LIG d   1      11.144   3.915  -5.984  0.00  0.00     0.024 H 
ATOM     48  H   LIG d   1      10.469   3.159  -7.448  0.00  0.00     0.024 H 
ENDBRANCH  16  45
BRANCH   1  49
ATOM     49  C   LIG d   1       5.559  -0.749  -6.143  0.00  0.00    -0.056 C 
ATOM     50  H   LIG d   1       5.903  -0.200  -7.019  0.00  0.00     0.024 H 
ATOM     51  H   LIG d   1       5.312  -1.772  -6.429  0.00  0.00     0.024 H 
ATOM     52  H   LIG d   1       4.674  -0.263  -5.733  0.00  0.00     0.024 H 
ENDBRANCH   1  49
TORSDOF 4
ENDMDL
MODEL 8
REMARK VINA RESULT:      -5.6      1.874      3.323
REMARK  4 active torsions:
REMARK  status: ('A' for Active; 'I' for Inactive)
REMARK    1  A    between atoms: C_1  and  C_2 
REMARK    2  A    between atoms: C_17  and  C_25 
REMARK    3  A    between atoms: C_22  and  C_23 
REMARK    4  A    between atoms: C_22  and  O_24 
ROOT
ATOM      1  C   LIG d   1       4.953   0.191  -8.710  0.00  0.00    -0.006 C 
ATOM      2  C   LIG d   1       5.959  -0.639  -9.481  0.00  0.00    -0.037 C 
ATOM      3  C   LIG d   1       5.609  -0.833 -10.951  0.00  0.00     0.012 C 
ATOM      4  C   LIG d   1       4.265  -0.241 -11.290  0.00  0.00     0.174 C 
ATOM      5  O   LIG d   1       4.075   0.338 -12.344  0.00  0.00    -0.291 OA
ATOM      6  C   LIG d   1       3.183  -0.398 -10.296  0.00  0.00     0.083 C 
ATOM      7  C   LIG d   1       3.542  -0.169  -9.005  0.00  0.00    -0.042 C 
ATOM      8  C   LIG d   1       2.456  -0.311  -7.976  0.00  0.00    -0.029 C 
ATOM      9  C   LIG d   1       2.924   0.212  -6.620  0.00  0.00    -0.046 C 
ATOM     10  C   LIG d   1       4.306  -0.399  -6.335  0.00  0.00    -0.034 C 
ATOM     11  H   LIG d   1       4.281  -1.465  -6.548  0.00  0.00     0.031 H 
ATOM     12  C   LIG d   1       5.318   0.284  -7.242  0.00  0.00    -0.029 C 
ATOM     13  H   LIG d   1       5.361   1.342  -6.977  0.00  0.00     0.031 H 
ATOM     14  C   LIG d   1       6.695  -0.335  -6.996  0.00  0.00    -0.049 C 
ATOM     15  C   LIG d   1       7.108  -0.141  -5.547  0.00  0.00    -0.044 C 
ATOM     16  C   LIG d   1       6.088  -0.565  -4.523  0.00  0.00    -0.000 C 
ATOM     17  C   LIG d   1       4.647  -0.166  -4.865  0.00  0.00    -0.030 C 
ATOM     18  H   LIG d   1       4.443   0.875  -4.573  0.00  0.00     0.031 H 
ATOM     19  C   LIG d   1       3.790  -1.162  -4.035  0.00  0.00    -0.047 C 
ATOM     20  C   LIG d   1       4.600  -2.475  -4.083  0.00  0.00    -0.024 C 
ATOM     21  C   LIG d   1       6.082  -2.051  -4.170  0.00  0.00     0.069 C 
ATOM     22 CL   LIG d   1       1.560  -0.845 -10.741  0.00  0.00    -0.080 Cl
ATOM     23  H   LIG d   1       6.939  -0.154  -9.418  0.00  0.00     0.028 H 
ATOM     24  H   LIG d   1       6.042  -1.625  -9.008  0.00  0.00     0.028 H 
ATOM     25  H   LIG d   1       5.576  -1.810 -11.161  0.00  0.00     0.035 H 
ATOM     26  H   LIG d   1       6.377  -0.360 -11.571  0.00  0.00     0.035 H 
ATOM     27  H   LIG d   1       1.586   0.260  -8.302  0.00  0.00     0.031 H 
ATOM     28  H   LIG d   1       2.184  -1.362  -7.888  0.00  0.00     0.031 H 
ATOM     29  H   LIG d   1       3.004   1.299  -6.647  0.00  0.00     0.027 H 
ATOM     30  H   LIG d   1       2.221  -0.085  -5.843  0.00  0.00     0.027 H 
ATOM     31  H   LIG d   1       7.432   0.171  -7.639  0.00  0.00     0.027 H 
ATOM     32  H   LIG d   1       6.683  -1.388  -7.266  0.00  0.00     0.027 H 
ATOM     33  H   LIG d   1       7.305   0.935  -5.394  0.00  0.00     0.027 H 
ATOM     34  H   LIG d   1       8.058  -0.647  -5.362  0.00  0.00     0.027 H 
ATOM     35  H   LIG d   1       3.675  -0.816  -3.008  0.00  0.00     0.027 H 
ATOM     36  H   LIG d   1       2.811  -1.305  -4.495  0.00  0.00     0.027 H 
ATOM     37  H   LIG d   1       4.325  -3.057  -4.961  0.00  0.00     0.029 H 
ATOM     38  H   LIG d   1       4.430  -3.055  -3.176  0.00  0.00     0.029 H 
ENDROOT
BRANCH  21  39
ATOM     39  C   LIG d   1       6.806  -2.917  -5.196  0.00  0.00    -0.036 C 
ATOM     40  H   LIG d   1       7.881  -2.748  -5.121  0.00  0.00     0.026 H 
ATOM     41  H   LIG d   1       6.589  -3.967  -5.004  0.00  0.00     0.026 H 
ATOM     42  H   LIG d   1       6.467  -2.653  -6.199  0.00  0.00     0.026 H 
ENDBRANCH  21  39
BRANCH  21  43
ATOM     43  O   LIG d   1       6.694  -2.236  -2.883  0.00  0.00    -0.388 OA
ATOM     44  H   LIG d   1       6.099  -2.077  -2.137  0.00  0.00     0.210 HD
ENDBRANCH  21  43
BRANCH  16  45
ATOM     45  C   LIG d   1       6.454   0.190  -3.219  0.00  0.00    -0.057 C 
ATOM     46  H   LIG d   1       6.865   1.169  -3.468  0.00  0.00     0.024 H 
ATOM     47  H   LIG d   1       5.560   0.315  -2.608  0.00  0.00     0.024 H 
ATOM     48  H   LIG d   1       7.197  -0.384  -2.663  0.00  0.00     0.024 H 
ENDBRANCH  16  45
BRANCH   1  49
ATOM     49  C   LIG d   1       5.132   1.627  -9.213  0.00  0.00    -0.056 C 
ATOM     50  H   LIG d   1       4.179   2.007  -9.580  0.00  0.00     0.024 H 
ATOM     51  H   LIG d   1       5.482   2.257  -8.393  0.00  0.00     0.024 H 
ATOM     52  H   LIG d   1       5.865   1.641 -10.019  0.00  0.00     0.024 H 
ENDBRANCH   1  49
TORSDOF 4
ENDMDL
MODEL 9
REMARK VINA RESULT:      -5.4      3.074      6.307
REMARK  4 active torsions:
REMARK  status: ('A' for Active; 'I' for Inactive)
REMARK    1  A    between atoms: C_1  and  C_2 
REMARK    2  A    between atoms: C_17  and  C_25 
REMARK    3  A    between atoms: C_22  and  C_23 
REMARK    4  A    between atoms: C_22  and  O_24 
ROOT
ATOM      1  C   LIG d   1       4.437  -0.844  -5.715  0.00  0.00    -0.006 C 
ATOM      2  C   LIG d   1       3.239   0.064  -5.905  0.00  0.00    -0.037 C 
ATOM      3  C   LIG d   1       2.702   0.664  -4.612  0.00  0.00     0.012 C 
ATOM      4  C   LIG d   1       3.421   0.123  -3.402  0.00  0.00     0.174 C 
ATOM      5  O   LIG d   1       3.697   0.839  -2.457  0.00  0.00    -0.291 OA
ATOM      6  C   LIG d   1       3.774  -1.312  -3.405  0.00  0.00     0.083 C 
ATOM      7  C   LIG d   1       4.290  -1.781  -4.571  0.00  0.00    -0.042 C 
ATOM      8  C   LIG d   1       4.668  -3.235  -4.596  0.00  0.00    -0.029 C 
ATOM      9  C   LIG d   1       5.458  -3.568  -5.860  0.00  0.00    -0.046 C 
ATOM     10  C   LIG d   1       4.698  -2.974  -7.057  0.00  0.00    -0.034 C 
ATOM     11  H   LIG d   1       3.641  -3.221  -6.972  0.00  0.00     0.031 H 
ATOM     12  C   LIG d   1       4.877  -1.464  -7.026  0.00  0.00    -0.029 C 
ATOM     13  H   LIG d   1       5.936  -1.240  -7.160  0.00  0.00     0.031 H 
ATOM     14  C   LIG d   1       4.099  -0.852  -8.192  0.00  0.00    -0.049 C 
ATOM     15  C   LIG d   1       4.618  -1.394  -9.513  0.00  0.00    -0.044 C 
ATOM     16  C   LIG d   1       4.717  -2.894  -9.602  0.00  0.00    -0.000 C 
ATOM     17  C   LIG d   1       5.274  -3.566  -8.341  0.00  0.00    -0.030 C 
ATOM     18  H   LIG d   1       6.373  -3.538  -8.328  0.00  0.00     0.031 H 
ATOM     19  C   LIG d   1       4.747  -5.024  -8.447  0.00  0.00    -0.047 C 
ATOM     20  C   LIG d   1       3.345  -4.867  -9.071  0.00  0.00    -0.024 C 
ATOM     21  C   LIG d   1       3.427  -3.620  -9.979  0.00  0.00     0.069 C 
ATOM     22 CL   LIG d   1       3.543  -2.335  -2.016  0.00  0.00    -0.080 Cl
ATOM     23  H   LIG d   1       3.520   0.884  -6.577  0.00  0.00     0.028 H 
ATOM     24  H   LIG d   1       2.436  -0.504  -6.388  0.00  0.00     0.028 H 
ATOM     25  H   LIG d   1       1.732   0.439  -4.517  0.00  0.00     0.035 H 
ATOM     26  H   LIG d   1       2.815   1.752  -4.641  0.00  0.00     0.035 H 
ATOM     27  H   LIG d   1       5.279  -3.455  -3.720  0.00  0.00     0.031 H 
ATOM     28  H   LIG d   1       3.761  -3.838  -4.563  0.00  0.00     0.031 H 
ATOM     29  H   LIG d   1       6.453  -3.126  -5.804  0.00  0.00     0.027 H 
ATOM     30  H   LIG d   1       5.542  -4.648  -5.973  0.00  0.00     0.027 H 
ATOM     31  H   LIG d   1       4.242   0.239  -8.181  0.00  0.00     0.027 H 
ATOM     32  H   LIG d   1       3.036  -1.051  -8.074  0.00  0.00     0.027 H 
ATOM     33  H   LIG d   1       5.632  -0.985  -9.669  0.00  0.00     0.027 H 
ATOM     34  H   LIG d   1       4.011  -1.008 -10.335  0.00  0.00     0.027 H 
ATOM     35  H   LIG d   1       5.391  -5.625  -9.089  0.00  0.00     0.027 H 
ATOM     36  H   LIG d   1       4.673  -5.481  -7.458  0.00  0.00     0.027 H 
ATOM     37  H   LIG d   1       2.599  -4.714  -8.291  0.00  0.00     0.029 H 
ATOM     38  H   LIG d   1       3.096  -5.746  -9.665  0.00  0.00     0.029 H 
ENDROOT
BRANCH  21  39
ATOM     39  C   LIG d   1       2.177  -2.766  -9.794  0.00  0.00    -0.036 C 
ATOM     40  H   LIG d   1       2.343  -2.047  -8.991  0.00  0.00     0.026 H 
ATOM     41  H   LIG d   1       1.960  -2.234 -10.720  0.00  0.00     0.026 H 
ATOM     42  H   LIG d   1       1.333  -3.407  -9.537  0.00  0.00     0.026 H 
ENDBRANCH  21  39
BRANCH  21  43
ATOM     43  O   LIG d   1       3.505  -4.049 -11.349  0.00  0.00    -0.388 OA
ATOM     44  H   LIG d   1       3.499  -3.324 -11.989  0.00  0.00     0.210 HD
ENDBRANCH  21  43
BRANCH  16  45
ATOM     45  C   LIG d   1       5.729  -3.188 -10.739  0.00  0.00    -0.057 C 
ATOM     46  H   LIG d   1       5.268  -2.971 -11.703  0.00  0.00     0.024 H 
ATOM     47  H   LIG d   1       6.613  -2.564 -10.610  0.00  0.00     0.024 H 
ATOM     48  H   LIG d   1       6.018  -4.239 -10.705  0.00  0.00     0.024 H 
ENDBRANCH  16  45
BRANCH   1  49
ATOM     49  C   LIG d   1       5.603   0.082  -5.351  0.00  0.00    -0.056 C 
ATOM     50  H   LIG d   1       6.534  -0.341  -5.728  0.00  0.00     0.024 H 
ATOM     51  H   LIG d   1       5.441   1.063  -5.802  0.00  0.00     0.024 H 
ATOM     52  H   LIG d   1       5.661   0.185  -4.268  0.00  0.00     0.024 H 
ENDBRANCH   1  49
TORSDOF 4
ENDMDL
MODEL 10
REMARK VINA RESULT:      -5.3     10.354     12.783
REMARK  4 active torsions:
REMARK  status: ('A' for Active; 'I' for Inactive)
REMARK    1  A    between atoms: C_1  and  C_2 
REMARK    2  A    between atoms: C_17  and  C_25 
REMARK    3  A    between atoms: C_22  and  C_23 
REMARK    4  A    between atoms: C_22  and  O_24 
ROOT
ATOM      1  C   LIG d   1      10.331   9.628  -0.494  0.00  0.00    -0.006 C 
ATOM      2  C   LIG d   1      11.106   9.599   0.807  0.00  0.00    -0.037 C 
ATOM      3  C   LIG d   1      11.332  10.972   1.428  0.00  0.00     0.012 C 
ATOM      4  C   LIG d   1      10.824  12.079   0.539  0.00  0.00     0.174 C 
ATOM      5  O   LIG d   1      10.265  13.056   1.002  0.00  0.00    -0.291 OA
ATOM      6  C   LIG d   1      11.036  11.934  -0.916  0.00  0.00     0.083 C 
ATOM      7  C   LIG d   1      10.777  10.700  -1.422  0.00  0.00    -0.042 C 
ATOM      8  C   LIG d   1      10.974  10.530  -2.901  0.00  0.00    -0.029 C 
ATOM      9  C   LIG d   1      10.414   9.190  -3.372  0.00  0.00    -0.046 C 
ATOM     10  C   LIG d   1      10.938   8.103  -2.421  0.00  0.00    -0.034 C 
ATOM     11  H   LIG d   1      12.007   8.243  -2.266  0.00  0.00     0.031 H 
ATOM     12  C   LIG d   1      10.204   8.243  -1.096  0.00  0.00    -0.029 C 
ATOM     13  H   LIG d   1       9.144   8.051  -1.267  0.00  0.00     0.031 H 
ATOM     14  C   LIG d   1      10.738   7.189  -0.124  0.00  0.00    -0.049 C 
ATOM     15  C   LIG d   1      10.509   5.795  -0.682  0.00  0.00    -0.044 C 
ATOM     16  C   LIG d   1      10.984   5.578  -2.094  0.00  0.00    -0.000 C 
ATOM     17  C   LIG d   1      10.674   6.737  -3.049  0.00  0.00    -0.030 C 
ATOM     18  H   LIG d   1       9.645   6.673  -3.433  0.00  0.00     0.031 H 
ATOM     19  C   LIG d   1      11.713   6.552  -4.190  0.00  0.00    -0.047 C 
ATOM     20  C   LIG d   1      12.975   6.045  -3.462  0.00  0.00    -0.024 C 
ATOM     21  C   LIG d   1      12.464   5.238  -2.249  0.00  0.00     0.069 C 
ATOM     22 CL   LIG d   1      11.583  13.249  -1.917  0.00  0.00    -0.080 Cl
ATOM     23  H   LIG d   1      10.563   8.977   1.528  0.00  0.00     0.028 H 
ATOM     24  H   LIG d   1      12.081   9.131   0.629  0.00  0.00     0.028 H 
ATOM     25  H   LIG d   1      12.311  11.118   1.570  0.00  0.00     0.035 H 
ATOM     26  H   LIG d   1      10.819  11.022   2.394  0.00  0.00     0.035 H 
ATOM     27  H   LIG d   1      10.458  11.340  -3.420  0.00  0.00     0.031 H 
ATOM     28  H   LIG d   1      12.039  10.580  -3.126  0.00  0.00     0.031 H 
ATOM     29  H   LIG d   1       9.324   9.210  -3.339  0.00  0.00     0.027 H 
ATOM     30  H   LIG d   1      10.745   8.984  -4.389  0.00  0.00     0.027 H 
ATOM     31  H   LIG d   1      10.195   7.278   0.829  0.00  0.00     0.027 H 
ATOM     32  H   LIG d   1      11.793   7.367   0.074  0.00  0.00     0.027 H 
ATOM     33  H   LIG d   1       9.421   5.600  -0.664  0.00  0.00     0.027 H 
ATOM     34  H   LIG d   1      10.955   5.052  -0.017  0.00  0.00     0.027 H 
ATOM     35  H   LIG d   1      11.366   5.819  -4.918  0.00  0.00     0.027 H 
ATOM     36  H   LIG d   1      11.917   7.503  -4.685  0.00  0.00     0.027 H 
ATOM     37  H   LIG d   1      13.580   6.886  -3.125  0.00  0.00     0.029 H 
ATOM     38  H   LIG d   1      13.557   5.402  -4.121  0.00  0.00     0.029 H 
ENDROOT
BRANCH  21  39
ATOM     39  C   LIG d   1      13.295   5.580  -1.016  0.00  0.00    -0.036 C 
ATOM     40  H   LIG d   1      13.045   4.893  -0.208  0.00  0.00     0.026 H 
ATOM     41  H   LIG d   1      14.354   5.493  -1.255  0.00  0.00     0.026 H 
ATOM     42  H   LIG d   1      13.076   6.602  -0.703  0.00  0.00     0.026 H 
ENDBRANCH  21  39
BRANCH  21  43
ATOM     43  O   LIG d   1      12.603   3.836  -2.534  0.00  0.00    -0.388 OA
ATOM     44  H   LIG d   1      12.143   3.550  -3.336  0.00  0.00     0.210 HD
ENDBRANCH  21  43
BRANCH  16  45
ATOM     45  C   LIG d   1      10.198   4.351  -2.625  0.00  0.00    -0.057 C 
ATOM     46  H   LIG d   1      10.843   3.760  -3.276  0.00  0.00     0.024 H 
ATOM     47  H   LIG d   1       9.868   3.739  -1.786  0.00  0.00     0.024 H 
ATOM     48  H   LIG d   1       9.330   4.693  -3.190  0.00  0.00     0.024 H 
ENDBRANCH  16  45
BRANCH   1  49
ATOM     49  C   LIG d   1       8.890   9.981  -0.108  0.00  0.00    -0.056 C 
ATOM     50  H   LIG d   1       8.199   9.483  -0.788  0.00  0.00     0.024 H 
ATOM     51  H   LIG d   1       8.697   9.648   0.913  0.00  0.00     0.024 H 
ATOM     52  H   LIG d   1       8.751  11.059  -0.172  0.00  0.00     0.024 H 
ENDBRANCH   1  49
TORSDOF 4
ENDMDL
