MODEL 1
REMARK VINA RESULT:      -6.1      0.000      0.000
REMARK  8 active torsions:
REMARK  status: ('A' for Active; 'I' for Inactive)
REMARK    1  A    between atoms: C_1  and  C_2 
REMARK    2  A    between atoms: C_2  and  O_4 
REMARK    3  A    between atoms: O_4  and  C_5 
REMARK    4  A    between atoms: C_15  and  C_33 
REMARK    5  A    between atoms: C_26  and  C_27 
REMARK    6  A    between atoms: C_26  and  O_29 
REMARK    7  A    between atoms: O_29  and  C_30 
REMARK    8  A    between atoms: C_30  and  C_32 
ROOT
ATOM      1  C   LIG d   1       2.125  -1.627 -12.505  0.00  0.00    -0.058 C 
ATOM      2  C   LIG d   1       1.026  -1.976 -12.720  0.00  0.00    -0.115 C 
ATOM      3  H   LIG d   1       0.042  -2.288 -12.913  0.00  0.00     0.123 H 
ENDROOT
BRANCH   1   4
ATOM      4  C   LIG d   1       3.505  -1.190 -12.235  0.00  0.00     0.178 C 
ATOM      5  C   LIG d   1       3.621  -0.661 -10.808  0.00  0.00     0.022 C 
ATOM      6  C   LIG d   1       2.359  -0.082 -10.197  0.00  0.00    -0.043 C 
ATOM      7  C   LIG d   1       3.988  -1.927  -9.988  0.00  0.00    -0.028 C 
ATOM      8  C   LIG d   1       2.714   0.374  -8.773  0.00  0.00    -0.049 C 
ATOM      9  H   LIG d   1       1.581  -0.844 -10.160  0.00  0.00     0.027 H 
ATOM     10  H   LIG d   1       2.019   0.770 -10.786  0.00  0.00     0.027 H 
ATOM     11  C   LIG d   1       3.268  -0.773  -7.934  0.00  0.00    -0.031 C 
ATOM     12  H   LIG d   1       1.816   0.765  -8.291  0.00  0.00     0.027 H 
ATOM     13  H   LIG d   1       3.459   1.167  -8.828  0.00  0.00     0.027 H 
ATOM     14  C   LIG d   1       3.720  -0.233  -6.573  0.00  0.00    -0.017 C 
ATOM     15  H   LIG d   1       2.486  -1.517  -7.783  0.00  0.00     0.031 H 
ATOM     16  C   LIG d   1       4.466  -1.433  -8.635  0.00  0.00    -0.034 C 
ATOM     17  C   LIG d   1       2.544   0.407  -5.853  0.00  0.00    -0.043 C 
ATOM     18  H   LIG d   1       4.474   0.535  -6.745  0.00  0.00     0.035 H 
ATOM     19  C   LIG d   1       4.352  -1.345  -5.789  0.00  0.00    -0.067 C 
ATOM     20  C   LIG d   1       2.818   0.502  -4.352  0.00  0.00    -0.011 C 
ATOM     21  H   LIG d   1       1.651  -0.195  -6.018  0.00  0.00     0.027 H 
ATOM     22  H   LIG d   1       2.381   1.408  -6.253  0.00  0.00     0.027 H 
ATOM     23  C   LIG d   1       2.959  -0.917  -3.796  0.00  0.00     0.121 C 
ATOM     24  H   LIG d   1       1.988   1.009  -3.860  0.00  0.00     0.030 H 
ATOM     25  H   LIG d   1       3.740   1.058  -4.182  0.00  0.00     0.030 H 
ATOM     26  H   LIG d   1       2.014  -1.447  -3.905  0.00  0.00     0.078 H 
ATOM     27  C   LIG d   1       4.032  -1.639  -4.560  0.00  0.00    -0.044 C 
ATOM     28  H   LIG d   1       4.554  -2.449  -4.072  0.00  0.00     0.061 H 
ATOM     29  C   LIG d   1       5.460  -2.142  -6.452  0.00  0.00    -0.031 C 
ATOM     30  C   LIG d   1       4.941  -2.630  -7.807  0.00  0.00    -0.046 C 
ATOM     31  H   LIG d   1       5.719  -2.998  -5.829  0.00  0.00     0.031 H 
ATOM     32  H   LIG d   1       6.339  -1.515  -6.600  0.00  0.00     0.031 H 
ATOM     33  H   LIG d   1       4.109  -3.318  -7.652  0.00  0.00     0.027 H 
ATOM     34  H   LIG d   1       5.741  -3.145  -8.340  0.00  0.00     0.027 H 
ATOM     35  H   LIG d   1       5.269  -0.707  -8.754  0.00  0.00     0.031 H 
ATOM     36  H   LIG d   1       3.123  -2.583  -9.894  0.00  0.00     0.031 H 
ATOM     37  C   LIG d   1       5.056  -2.575 -10.876  0.00  0.00    -0.045 C 
ATOM     38  C   LIG d   1       4.474  -2.396 -12.304  0.00  0.00    -0.001 C 
ATOM     39  H   LIG d   1       6.007  -2.052 -10.778  0.00  0.00     0.027 H 
ATOM     40  H   LIG d   1       5.168  -3.631 -10.635  0.00  0.00     0.027 H 
ATOM     41  H   LIG d   1       5.277  -2.189 -13.012  0.00  0.00     0.031 H 
ATOM     42  H   LIG d   1       3.933  -3.294 -12.603  0.00  0.00     0.031 H 
BRANCH   5  43
ATOM     43  C   LIG d   1       4.755   0.363 -10.725  0.00  0.00    -0.055 C 
ATOM     44  H   LIG d   1       4.896   0.667  -9.688  0.00  0.00     0.024 H 
ATOM     45  H   LIG d   1       5.676  -0.083 -11.102  0.00  0.00     0.024 H 
ATOM     46  H   LIG d   1       4.502   1.236 -11.328  0.00  0.00     0.024 H 
ENDBRANCH   5  43
BRANCH  23  47
ATOM     47  O   LIG d   1       3.317  -0.855  -2.414  0.00  0.00    -0.457 OA
BRANCH  47  48
ATOM     48  C   LIG d   1       4.508  -0.311  -2.116  0.00  0.00     0.304 C 
ATOM     49  O   LIG d   1       5.520  -0.953  -2.267  0.00  0.00    -0.251 OA
BRANCH  48  50
ATOM     50  C   LIG d   1       4.580   1.101  -1.594  0.00  0.00     0.033 C 
ATOM     51  H   LIG d   1       5.498   1.229  -1.019  0.00  0.00     0.034 H 
ATOM     52  H   LIG d   1       4.577   1.799  -2.431  0.00  0.00     0.034 H 
ATOM     53  H   LIG d   1       3.721   1.297  -0.953  0.00  0.00     0.034 H 
ENDBRANCH  48  50
ENDBRANCH  47  48
ENDBRANCH  23  47
BRANCH   4  54
ATOM     54  O   LIG d   1       3.898  -0.182 -13.169  0.00  0.00    -0.445 OA
BRANCH  54  55
ATOM     55  C   LIG d   1       4.501  -0.598 -14.294  0.00  0.00     0.305 C 
ATOM     56  O   LIG d   1       5.705  -0.682 -14.340  0.00  0.00    -0.251 OA
BRANCH  55  57
ATOM     57  C   LIG d   1       3.674  -0.960 -15.501  0.00  0.00     0.033 C 
ATOM     58  H   LIG d   1       3.734  -2.034 -15.675  0.00  0.00     0.034 H 
ATOM     59  H   LIG d   1       2.635  -0.678 -15.329  0.00  0.00     0.034 H 
ATOM     60  H   LIG d   1       4.054  -0.430 -16.375  0.00  0.00     0.034 H 
ENDBRANCH  55  57
ENDBRANCH  54  55
ENDBRANCH   4  54
ENDBRANCH   1   4
TORSDOF 8
ENDMDL
MODEL 2
REMARK VINA RESULT:      -5.9      9.605     14.053
REMARK  8 active torsions:
REMARK  status: ('A' for Active; 'I' for Inactive)
REMARK    1  A    between atoms: C_1  and  C_2 
REMARK    2  A    between atoms: C_2  and  O_4 
REMARK    3  A    between atoms: O_4  and  C_5 
REMARK    4  A    between atoms: C_15  and  C_33 
REMARK    5  A    between atoms: C_26  and  C_27 
REMARK    6  A    between atoms: C_26  and  O_29 
REMARK    7  A    between atoms: O_29  and  C_30 
REMARK    8  A    between atoms: C_30  and  C_32 
ROOT
ATOM      1  C   LIG d   1      12.670   7.596  -0.665  0.00  0.00    -0.058 C 
ATOM      2  C   LIG d   1      13.674   8.200  -0.618  0.00  0.00    -0.115 C 
ATOM      3  H   LIG d   1      14.573   8.741  -0.575  0.00  0.00     0.123 H 
ENDROOT
BRANCH   1   4
ATOM      4  C   LIG d   1      11.409   6.837  -0.725  0.00  0.00     0.178 C 
ATOM      5  C   LIG d   1      10.683   7.122  -2.036  0.00  0.00     0.022 C 
ATOM      6  C   LIG d   1      10.951   8.470  -2.678  0.00  0.00    -0.043 C 
ATOM      7  C   LIG d   1      11.242   6.039  -2.996  0.00  0.00    -0.028 C 
ATOM      8  C   LIG d   1      10.126   8.527  -3.973  0.00  0.00    -0.049 C 
ATOM      9  H   LIG d   1      12.011   8.567  -2.908  0.00  0.00     0.027 H 
ATOM     10  H   LIG d   1      10.641   9.270  -2.005  0.00  0.00     0.027 H 
ATOM     11  C   LIG d   1      10.473   7.378  -4.915  0.00  0.00    -0.031 C 
ATOM     12  H   LIG d   1      10.324   9.473  -4.479  0.00  0.00     0.027 H 
ATOM     13  H   LIG d   1       9.066   8.475  -3.723  0.00  0.00     0.027 H 
ATOM     14  C   LIG d   1       9.535   7.414  -6.126  0.00  0.00    -0.017 C 
ATOM     15  H   LIG d   1      11.502   7.493  -5.255  0.00  0.00     0.031 H 
ATOM     16  C   LIG d   1      10.323   6.025  -4.203  0.00  0.00    -0.034 C 
ATOM     17  C   LIG d   1       9.682   8.739  -6.856  0.00  0.00    -0.043 C 
ATOM     18  H   LIG d   1       8.509   7.337  -5.764  0.00  0.00     0.035 H 
ATOM     19  C   LIG d   1       9.816   6.228  -7.000  0.00  0.00    -0.067 C 
ATOM     20  C   LIG d   1       9.164   8.624  -8.290  0.00  0.00    -0.011 C 
ATOM     21  H   LIG d   1      10.734   9.023  -6.876  0.00  0.00     0.027 H 
ATOM     22  H   LIG d   1       9.114   9.504  -6.329  0.00  0.00     0.027 H 
ATOM     23  C   LIG d   1      10.031   7.607  -9.037  0.00  0.00     0.121 C 
ATOM     24  H   LIG d   1       9.231   9.595  -8.783  0.00  0.00     0.030 H 
ATOM     25  H   LIG d   1       8.128   8.288  -8.280  0.00  0.00     0.030 H 
ATOM     26  H   LIG d   1      11.052   7.978  -9.106  0.00  0.00     0.078 H 
ATOM     27  C   LIG d   1      10.018   6.306  -8.285  0.00  0.00    -0.044 C 
ATOM     28  H   LIG d   1      10.198   5.394  -8.834  0.00  0.00     0.061 H 
ATOM     29  C   LIG d   1       9.818   4.854  -6.355  0.00  0.00    -0.031 C 
ATOM     30  C   LIG d   1      10.760   4.903  -5.149  0.00  0.00    -0.046 C 
ATOM     31  H   LIG d   1      10.177   4.114  -7.071  0.00  0.00     0.031 H 
ATOM     32  H   LIG d   1       8.814   4.591  -6.026  0.00  0.00     0.031 H 
ATOM     33  H   LIG d   1      11.779   5.093  -5.491  0.00  0.00     0.027 H 
ATOM     34  H   LIG d   1      10.726   3.950  -4.622  0.00  0.00     0.027 H 
ATOM     35  H   LIG d   1       9.288   5.883  -3.895  0.00  0.00     0.031 H 
ATOM     36  H   LIG d   1      12.270   6.272  -3.275  0.00  0.00     0.031 H 
ATOM     37  C   LIG d   1      11.200   4.788  -2.112  0.00  0.00    -0.045 C 
ATOM     38  C   LIG d   1      11.698   5.316  -0.739  0.00  0.00    -0.001 C 
ATOM     39  H   LIG d   1      10.182   4.407  -2.032  0.00  0.00     0.027 H 
ATOM     40  H   LIG d   1      11.871   4.021  -2.497  0.00  0.00     0.027 H 
ATOM     41  H   LIG d   1      11.156   4.825   0.070  0.00  0.00     0.031 H 
ATOM     42  H   LIG d   1      12.768   5.137  -0.636  0.00  0.00     0.031 H 
BRANCH   5  43
ATOM     43  C   LIG d   1       9.176   6.928  -1.848  0.00  0.00    -0.055 C 
ATOM     44  H   LIG d   1       8.674   7.025  -2.810  0.00  0.00     0.024 H 
ATOM     45  H   LIG d   1       8.987   5.936  -1.437  0.00  0.00     0.024 H 
ATOM     46  H   LIG d   1       8.795   7.684  -1.160  0.00  0.00     0.024 H 
ENDBRANCH   5  43
BRANCH  23  47
ATOM     47  O   LIG d   1       9.505   7.404 -10.350  0.00  0.00    -0.457 OA
BRANCH  47  48
ATOM     48  C   LIG d   1      10.215   7.904 -11.374  0.00  0.00     0.304 C 
ATOM     49  O   LIG d   1       9.911   8.970 -11.857  0.00  0.00    -0.251 OA
BRANCH  48  50
ATOM     50  C   LIG d   1      11.390   7.136 -11.922  0.00  0.00     0.033 C 
ATOM     51  H   LIG d   1      12.206   7.826 -12.138  0.00  0.00     0.034 H 
ATOM     52  H   LIG d   1      11.720   6.403 -11.186  0.00  0.00     0.034 H 
ATOM     53  H   LIG d   1      11.096   6.624 -12.838  0.00  0.00     0.034 H 
ENDBRANCH  48  50
ENDBRANCH  47  48
ENDBRANCH  23  47
BRANCH   4  54
ATOM     54  O   LIG d   1      10.575   7.173   0.386  0.00  0.00    -0.445 OA
BRANCH  54  55
ATOM     55  C   LIG d   1      11.055   6.905   1.610  0.00  0.00     0.305 C 
ATOM     56  O   LIG d   1      11.630   7.763   2.236  0.00  0.00    -0.251 OA
BRANCH  55  57
ATOM     57  C   LIG d   1      10.876   5.532   2.205  0.00  0.00     0.033 C 
ATOM     58  H   LIG d   1      10.628   5.622   3.262  0.00  0.00     0.034 H 
ATOM     59  H   LIG d   1      10.069   5.013   1.686  0.00  0.00     0.034 H 
ATOM     60  H   LIG d   1      11.800   4.964   2.096  0.00  0.00     0.034 H 
ENDBRANCH  55  57
ENDBRANCH  54  55
ENDBRANCH   4  54
ENDBRANCH   1   4
TORSDOF 8
ENDMDL
MODEL 3
REMARK VINA RESULT:      -5.8      8.276      9.739
REMARK  8 active torsions:
REMARK  status: ('A' for Active; 'I' for Inactive)
REMARK    1  A    between atoms: C_1  and  C_2 
REMARK    2  A    between atoms: C_2  and  O_4 
REMARK    3  A    between atoms: O_4  and  C_5 
REMARK    4  A    between atoms: C_15  and  C_33 
REMARK    5  A    between atoms: C_26  and  C_27 
REMARK    6  A    between atoms: C_26  and  O_29 
REMARK    7  A    between atoms: O_29  and  C_30 
REMARK    8  A    between atoms: C_30  and  C_32 
ROOT
ATOM      1  C   LIG d   1      11.975   5.119 -11.098  0.00  0.00    -0.058 C 
ATOM      2  C   LIG d   1      13.096   4.799 -11.222  0.00  0.00    -0.115 C 
ATOM      3  H   LIG d   1      14.101   4.513 -11.334  0.00  0.00     0.123 H 
ENDROOT
BRANCH   1   4
ATOM      4  C   LIG d   1      10.566   5.520 -10.941  0.00  0.00     0.178 C 
ATOM      5  C   LIG d   1      10.107   5.285  -9.506  0.00  0.00     0.022 C 
ATOM      6  C   LIG d   1      10.818   4.185  -8.740  0.00  0.00    -0.043 C 
ATOM      7  C   LIG d   1      10.444   6.625  -8.800  0.00  0.00    -0.028 C 
ATOM      8  C   LIG d   1      10.198   4.138  -7.334  0.00  0.00    -0.049 C 
ATOM      9  H   LIG d   1      11.881   4.410  -8.670  0.00  0.00     0.027 H 
ATOM     10  H   LIG d   1      10.671   3.229  -9.242  0.00  0.00     0.027 H 
ATOM     11  C   LIG d   1      10.312   5.482  -6.622  0.00  0.00    -0.031 C 
ATOM     12  H   LIG d   1      10.712   3.379  -6.744  0.00  0.00     0.027 H 
ATOM     13  H   LIG d   1       9.145   3.868  -7.418  0.00  0.00     0.027 H 
ATOM     14  C   LIG d   1       9.568   5.411  -5.284  0.00  0.00    -0.017 C 
ATOM     15  H   LIG d   1      11.363   5.702  -6.437  0.00  0.00     0.031 H 
ATOM     16  C   LIG d   1       9.703   6.606  -7.475  0.00  0.00    -0.034 C 
ATOM     17  C   LIG d   1      10.168   4.318  -4.416  0.00  0.00    -0.043 C 
ATOM     18  H   LIG d   1       8.528   5.154  -5.486  0.00  0.00     0.035 H 
ATOM     19  C   LIG d   1       9.601   6.762  -4.632  0.00  0.00    -0.067 C 
ATOM     20  C   LIG d   1       9.808   4.538  -2.946  0.00  0.00    -0.011 C 
ATOM     21  H   LIG d   1      11.252   4.326  -4.524  0.00  0.00     0.027 H 
ATOM     22  H   LIG d   1       9.782   3.351  -4.739  0.00  0.00     0.027 H 
ATOM     23  C   LIG d   1      10.431   5.859  -2.489  0.00  0.00     0.121 C 
ATOM     24  H   LIG d   1      10.202   3.718  -2.345  0.00  0.00     0.030 H 
ATOM     25  H   LIG d   1       8.724   4.585  -2.837  0.00  0.00     0.030 H 
ATOM     26  H   LIG d   1      11.516   5.786  -2.533  0.00  0.00     0.078 H 
ATOM     27  C   LIG d   1       9.964   6.962  -3.396  0.00  0.00    -0.044 C 
ATOM     28  H   LIG d   1       9.940   7.970  -3.009  0.00  0.00     0.061 H 
ATOM     29  C   LIG d   1       9.140   7.956  -5.447  0.00  0.00    -0.031 C 
ATOM     30  C   LIG d   1       9.911   7.948  -6.769  0.00  0.00    -0.046 C 
ATOM     31  H   LIG d   1       9.354   8.876  -4.902  0.00  0.00     0.031 H 
ATOM     32  H   LIG d   1       8.071   7.887  -5.645  0.00  0.00     0.031 H 
ATOM     33  H   LIG d   1      10.974   8.094  -6.571  0.00  0.00     0.027 H 
ATOM     34  H   LIG d   1       9.548   8.754  -7.407  0.00  0.00     0.027 H 
ATOM     35  H   LIG d   1       8.642   6.417  -7.632  0.00  0.00     0.031 H 
ATOM     36  H   LIG d   1      11.520   6.721  -8.658  0.00  0.00     0.031 H 
ATOM     37  C   LIG d   1       9.947   7.650  -9.826  0.00  0.00    -0.045 C 
ATOM     38  C   LIG d   1      10.413   7.043 -11.176  0.00  0.00    -0.001 C 
ATOM     39  H   LIG d   1       8.860   7.732  -9.793  0.00  0.00     0.027 H 
ATOM     40  H   LIG d   1      10.414   8.620  -9.658  0.00  0.00     0.027 H 
ATOM     41  H   LIG d   1       9.665   7.228 -11.948  0.00  0.00     0.031 H 
ATOM     42  H   LIG d   1      11.369   7.474 -11.471  0.00  0.00     0.031 H 
BRANCH   5  43
ATOM     43  C   LIG d   1       8.596   5.043  -9.477  0.00  0.00    -0.055 C 
ATOM     44  H   LIG d   1       8.250   4.782 -10.477  0.00  0.00     0.024 H 
ATOM     45  H   LIG d   1       8.372   4.226  -8.790  0.00  0.00     0.024 H 
ATOM     46  H   LIG d   1       8.089   5.948  -9.142  0.00  0.00     0.024 H 
ENDBRANCH   5  43
BRANCH  23  47
ATOM     47  O   LIG d   1      10.024   6.141  -1.148  0.00  0.00    -0.457 OA
BRANCH  47  48
ATOM     48  C   LIG d   1      10.941   5.962  -0.183  0.00  0.00     0.304 C 
ATOM     49  O   LIG d   1      10.613   6.012   0.979  0.00  0.00    -0.251 OA
BRANCH  48  50
ATOM     50  C   LIG d   1      12.379   5.700  -0.551  0.00  0.00     0.033 C 
ATOM     51  H   LIG d   1      12.456   4.737  -1.055  0.00  0.00     0.034 H 
ATOM     52  H   LIG d   1      12.734   6.487  -1.216  0.00  0.00     0.034 H 
ATOM     53  H   LIG d   1      12.989   5.686   0.353  0.00  0.00     0.034 H 
ENDBRANCH  48  50
ENDBRANCH  47  48
ENDBRANCH  23  47
BRANCH   4  54
ATOM     54  O   LIG d   1       9.739   4.791 -11.851  0.00  0.00    -0.445 OA
BRANCH  54  55
ATOM     55  C   LIG d   1       9.513   5.351 -13.050  0.00  0.00     0.305 C 
ATOM     56  O   LIG d   1       8.487   5.955 -13.252  0.00  0.00    -0.251 OA
BRANCH  55  57
ATOM     57  C   LIG d   1      10.541   5.227 -14.145  0.00  0.00     0.033 C 
ATOM     58  H   LIG d   1      10.299   5.917 -14.952  0.00  0.00     0.034 H 
ATOM     59  H   LIG d   1      11.528   5.465 -13.746  0.00  0.00     0.034 H 
ATOM     60  H   LIG d   1      10.542   4.206 -14.529  0.00  0.00     0.034 H 
ENDBRANCH  55  57
ENDBRANCH  54  55
ENDBRANCH   4  54
ENDBRANCH   1   4
TORSDOF 8
ENDMDL
MODEL 4
REMARK VINA RESULT:      -5.8      9.388     14.198
REMARK  8 active torsions:
REMARK  status: ('A' for Active; 'I' for Inactive)
REMARK    1  A    between atoms: C_1  and  C_2 
REMARK    2  A    between atoms: C_2  and  O_4 
REMARK    3  A    between atoms: O_4  and  C_5 
REMARK    4  A    between atoms: C_15  and  C_33 
REMARK    5  A    between atoms: C_26  and  C_27 
REMARK    6  A    between atoms: C_26  and  O_29 
REMARK    7  A    between atoms: O_29  and  C_30 
REMARK    8  A    between atoms: C_30  and  C_32 
ROOT
ATOM      1  C   LIG d   1      13.046   7.969  -0.339  0.00  0.00    -0.058 C 
ATOM      2  C   LIG d   1      14.079   8.515  -0.437  0.00  0.00    -0.115 C 
ATOM      3  H   LIG d   1      15.005   9.004  -0.524  0.00  0.00     0.123 H 
ENDROOT
BRANCH   1   4
ATOM      4  C   LIG d   1      11.749   7.283  -0.216  0.00  0.00     0.178 C 
ATOM      5  C   LIG d   1      10.935   7.459  -1.495  0.00  0.00     0.022 C 
ATOM      6  C   LIG d   1      11.218   8.708  -2.308  0.00  0.00    -0.043 C 
ATOM      7  C   LIG d   1      11.363   6.243  -2.360  0.00  0.00    -0.028 C 
ATOM      8  C   LIG d   1      10.296   8.666  -3.538  0.00  0.00    -0.049 C 
ATOM      9  H   LIG d   1      12.260   8.716  -2.626  0.00  0.00     0.027 H 
ATOM     10  H   LIG d   1      11.002   9.595  -1.714  0.00  0.00     0.027 H 
ATOM     11  C   LIG d   1      10.510   7.399  -4.361  0.00  0.00    -0.031 C 
ATOM     12  H   LIG d   1      10.499   9.535  -4.165  0.00  0.00     0.027 H 
ATOM     13  H   LIG d   1       9.258   8.703  -3.206  0.00  0.00     0.027 H 
ATOM     14  C   LIG d   1       9.481   7.352  -5.495  0.00  0.00    -0.017 C 
ATOM     15  H   LIG d   1      11.513   7.414  -4.787  0.00  0.00     0.031 H 
ATOM     16  C   LIG d   1      10.351   6.146  -3.486  0.00  0.00    -0.034 C 
ATOM     17  C   LIG d   1       9.635   8.575  -6.385  0.00  0.00    -0.043 C 
ATOM     18  H   LIG d   1       8.486   7.376  -5.053  0.00  0.00     0.035 H 
ATOM     19  C   LIG d   1       9.634   6.060  -6.243  0.00  0.00    -0.067 C 
ATOM     20  C   LIG d   1       9.000   8.329  -7.754  0.00  0.00    -0.011 C 
ATOM     21  H   LIG d   1      10.695   8.793  -6.516  0.00  0.00     0.027 H 
ATOM     22  H   LIG d   1       9.149   9.427  -5.911  0.00  0.00     0.027 H 
ATOM     23  C   LIG d   1       9.753   7.184  -8.438  0.00  0.00     0.121 C 
ATOM     24  H   LIG d   1       9.075   9.232  -8.361  0.00  0.00     0.030 H 
ATOM     25  H   LIG d   1       7.952   8.056  -7.629  0.00  0.00     0.030 H 
ATOM     26  H   LIG d   1      10.783   7.485  -8.625  0.00  0.00     0.078 H 
ATOM     27  C   LIG d   1       9.736   5.980  -7.540  0.00  0.00    -0.044 C 
ATOM     28  H   LIG d   1       9.827   5.002  -7.989  0.00  0.00     0.061 H 
ATOM     29  C   LIG d   1       9.620   4.770  -5.443  0.00  0.00    -0.031 C 
ATOM     30  C   LIG d   1      10.655   4.901  -4.323  0.00  0.00    -0.046 C 
ATOM     31  H   LIG d   1       9.883   3.935  -6.092  0.00  0.00     0.031 H 
ATOM     32  H   LIG d   1       8.633   4.604  -5.012  0.00  0.00     0.031 H 
ATOM     33  H   LIG d   1      11.652   4.991  -4.759  0.00  0.00     0.027 H 
ATOM     34  H   LIG d   1      10.617   4.017  -3.687  0.00  0.00     0.027 H 
ATOM     35  H   LIG d   1       9.338   6.100  -3.088  0.00  0.00     0.031 H 
ATOM     36  H   LIG d   1      12.375   6.383  -2.739  0.00  0.00     0.031 H 
ATOM     37  C   LIG d   1      11.329   5.105  -1.334  0.00  0.00    -0.045 C 
ATOM     38  C   LIG d   1      11.961   5.755  -0.073  0.00  0.00    -0.001 C 
ATOM     39  H   LIG d   1      10.303   4.795  -1.136  0.00  0.00     0.027 H 
ATOM     40  H   LIG d   1      11.930   4.262  -1.675  0.00  0.00     0.027 H 
ATOM     41  H   LIG d   1      11.461   5.392   0.825  0.00  0.00     0.031 H 
ATOM     42  H   LIG d   1      13.026   5.528  -0.029  0.00  0.00     0.031 H 
BRANCH   5  43
ATOM     43  C   LIG d   1       9.441   7.375  -1.175  0.00  0.00    -0.055 C 
ATOM     44  H   LIG d   1       9.248   6.489  -0.571  0.00  0.00     0.024 H 
ATOM     45  H   LIG d   1       9.137   8.266  -0.624  0.00  0.00     0.024 H 
ATOM     46  H   LIG d   1       8.874   7.313  -2.104  0.00  0.00     0.024 H 
ENDBRANCH   5  43
BRANCH  23  47
ATOM     47  O   LIG d   1       9.115   6.865  -9.676  0.00  0.00    -0.457 OA
BRANCH  47  48
ATOM     48  C   LIG d   1       9.768   6.030 -10.500  0.00  0.00     0.304 C 
ATOM     49  O   LIG d   1       9.203   5.061 -10.950  0.00  0.00    -0.251 OA
BRANCH  48  50
ATOM     50  C   LIG d   1      11.205   6.302 -10.863  0.00  0.00     0.033 C 
ATOM     51  H   LIG d   1      11.823   5.457 -10.558  0.00  0.00     0.034 H 
ATOM     52  H   LIG d   1      11.288   6.441 -11.941  0.00  0.00     0.034 H 
ATOM     53  H   LIG d   1      11.546   7.203 -10.353  0.00  0.00     0.034 H 
ENDBRANCH  48  50
ENDBRANCH  47  48
ENDBRANCH  23  47
BRANCH   4  54
ATOM     54  O   LIG d   1      11.023   7.790   0.906  0.00  0.00    -0.445 OA
BRANCH  54  55
ATOM     55  C   LIG d   1      11.508   8.895   1.495  0.00  0.00     0.305 C 
ATOM     56  O   LIG d   1      12.242   8.798   2.449  0.00  0.00    -0.251 OA
BRANCH  55  57
ATOM     57  C   LIG d   1      11.138  10.255   0.964  0.00  0.00     0.033 C 
ATOM     58  H   LIG d   1      11.672  10.442   0.033  0.00  0.00     0.034 H 
ATOM     59  H   LIG d   1      10.063  10.294   0.780  0.00  0.00     0.034 H 
ATOM     60  H   LIG d   1      11.407  11.017   1.696  0.00  0.00     0.034 H 
ENDBRANCH  55  57
ENDBRANCH  54  55
ENDBRANCH   4  54
ENDBRANCH   1   4
TORSDOF 8
ENDMDL
MODEL 5
REMARK VINA RESULT:      -5.8      4.260      6.321
REMARK  8 active torsions:
REMARK  status: ('A' for Active; 'I' for Inactive)
REMARK    1  A    between atoms: C_1  and  C_2 
REMARK    2  A    between atoms: C_2  and  O_4 
REMARK    3  A    between atoms: O_4  and  C_5 
REMARK    4  A    between atoms: C_15  and  C_33 
REMARK    5  A    between atoms: C_26  and  C_27 
REMARK    6  A    between atoms: C_26  and  O_29 
REMARK    7  A    between atoms: O_29  and  C_30 
REMARK    8  A    between atoms: C_30  and  C_32 
ROOT
ATOM      1  C   LIG d   1       3.158   0.209  -5.980  0.00  0.00    -0.058 C 
ATOM      2  C   LIG d   1       2.463   0.421  -5.059  0.00  0.00    -0.115 C 
ATOM      3  H   LIG d   1       1.841   0.611  -4.234  0.00  0.00     0.123 H 
ENDROOT
BRANCH   1   4
ATOM      4  C   LIG d   1       4.029  -0.058  -7.137  0.00  0.00     0.178 C 
ATOM      5  C   LIG d   1       5.303  -0.767  -6.686  0.00  0.00     0.022 C 
ATOM      6  C   LIG d   1       5.755  -0.503  -5.262  0.00  0.00    -0.043 C 
ATOM      7  C   LIG d   1       4.924  -2.270  -6.775  0.00  0.00    -0.028 C 
ATOM      8  C   LIG d   1       7.037  -1.320  -5.035  0.00  0.00    -0.049 C 
ATOM      9  H   LIG d   1       4.983  -0.823  -4.562  0.00  0.00     0.027 H 
ATOM     10  H   LIG d   1       5.962   0.558  -5.129  0.00  0.00     0.027 H 
ATOM     11  C   LIG d   1       6.811  -2.808  -5.286  0.00  0.00    -0.031 C 
ATOM     12  H   LIG d   1       7.371  -1.180  -4.006  0.00  0.00     0.027 H 
ATOM     13  H   LIG d   1       7.813  -0.959  -5.711  0.00  0.00     0.027 H 
ATOM     14  C   LIG d   1       8.147  -3.549  -5.169  0.00  0.00    -0.017 C 
ATOM     15  H   LIG d   1       6.119  -3.196  -4.539  0.00  0.00     0.031 H 
ATOM     16  C   LIG d   1       6.227  -3.043  -6.688  0.00  0.00    -0.034 C 
ATOM     17  C   LIG d   1       8.733  -3.346  -3.782  0.00  0.00    -0.043 C 
ATOM     18  H   LIG d   1       8.838  -3.123  -5.897  0.00  0.00     0.035 H 
ATOM     19  C   LIG d   1       7.937  -4.995  -5.511  0.00  0.00    -0.067 C 
ATOM     20  C   LIG d   1       9.764  -4.431  -3.468  0.00  0.00    -0.011 C 
ATOM     21  H   LIG d   1       7.932  -3.388  -3.044  0.00  0.00     0.027 H 
ATOM     22  H   LIG d   1       9.214  -2.369  -3.736  0.00  0.00     0.027 H 
ATOM     23  C   LIG d   1       9.051  -5.786  -3.455  0.00  0.00     0.121 C 
ATOM     24  H   LIG d   1      10.211  -4.240  -2.492  0.00  0.00     0.030 H 
ATOM     25  H   LIG d   1      10.541  -4.431  -4.233  0.00  0.00     0.030 H 
ATOM     26  H   LIG d   1       8.324  -5.807  -2.644  0.00  0.00     0.078 H 
ATOM     27  C   LIG d   1       8.348  -5.983  -4.767  0.00  0.00    -0.044 C 
ATOM     28  H   LIG d   1       8.164  -6.993  -5.104  0.00  0.00     0.061 H 
ATOM     29  C   LIG d   1       7.246  -5.323  -6.822  0.00  0.00    -0.031 C 
ATOM     30  C   LIG d   1       5.935  -4.534  -6.872  0.00  0.00    -0.046 C 
ATOM     31  H   LIG d   1       7.034  -6.391  -6.867  0.00  0.00     0.031 H 
ATOM     32  H   LIG d   1       7.878  -5.038  -7.663  0.00  0.00     0.031 H 
ATOM     33  H   LIG d   1       5.274  -4.876  -6.073  0.00  0.00     0.027 H 
ATOM     34  H   LIG d   1       5.451  -4.693  -7.835  0.00  0.00     0.027 H 
ATOM     35  H   LIG d   1       6.930  -2.695  -7.443  0.00  0.00     0.031 H 
ATOM     36  H   LIG d   1       4.242  -2.539  -5.968  0.00  0.00     0.031 H 
ATOM     37  C   LIG d   1       4.203  -2.330  -8.126  0.00  0.00    -0.045 C 
ATOM     38  C   LIG d   1       3.338  -1.040  -8.115  0.00  0.00    -0.001 C 
ATOM     39  H   LIG d   1       4.920  -2.307  -8.946  0.00  0.00     0.027 H 
ATOM     40  H   LIG d   1       3.572  -3.216  -8.187  0.00  0.00     0.027 H 
ATOM     41  H   LIG d   1       3.300  -0.606  -9.115  0.00  0.00     0.031 H 
ATOM     42  H   LIG d   1       2.331  -1.268  -7.767  0.00  0.00     0.031 H 
BRANCH   5  43
ATOM     43  C   LIG d   1       6.443  -0.456  -7.658  0.00  0.00    -0.055 C 
ATOM     44  H   LIG d   1       7.145  -1.289  -7.673  0.00  0.00     0.024 H 
ATOM     45  H   LIG d   1       6.035  -0.304  -8.658  0.00  0.00     0.024 H 
ATOM     46  H   LIG d   1       6.959   0.449  -7.335  0.00  0.00     0.024 H 
ENDBRANCH   5  43
BRANCH  23  47
ATOM     47  O   LIG d   1      10.010  -6.828  -3.265  0.00  0.00    -0.457 OA
BRANCH  47  48
ATOM     48  C   LIG d   1       9.903  -7.557  -2.142  0.00  0.00     0.304 C 
ATOM     49  O   LIG d   1      10.668  -7.370  -1.226  0.00  0.00    -0.251 OA
BRANCH  48  50
ATOM     50  C   LIG d   1       8.829  -8.608  -2.027  0.00  0.00     0.033 C 
ATOM     51  H   LIG d   1       8.630  -8.810  -0.974  0.00  0.00     0.034 H 
ATOM     52  H   LIG d   1       7.918  -8.251  -2.507  0.00  0.00     0.034 H 
ATOM     53  H   LIG d   1       9.162  -9.524  -2.514  0.00  0.00     0.034 H 
ENDBRANCH  48  50
ENDBRANCH  47  48
ENDBRANCH  23  47
BRANCH   4  54
ATOM     54  O   LIG d   1       4.354   1.163  -7.806  0.00  0.00    -0.445 OA
BRANCH  54  55
ATOM     55  C   LIG d   1       3.564   1.524  -8.829  0.00  0.00     0.305 C 
ATOM     56  O   LIG d   1       2.478   2.008  -8.613  0.00  0.00    -0.251 OA
BRANCH  55  57
ATOM     57  C   LIG d   1       4.031   1.327 -10.247  0.00  0.00     0.033 C 
ATOM     58  H   LIG d   1       4.799   0.553 -10.274  0.00  0.00     0.034 H 
ATOM     59  H   LIG d   1       3.188   1.024 -10.870  0.00  0.00     0.034 H 
ATOM     60  H   LIG d   1       4.445   2.261 -10.628  0.00  0.00     0.034 H 
ENDBRANCH  55  57
ENDBRANCH  54  55
ENDBRANCH   4  54
ENDBRANCH   1   4
TORSDOF 8
ENDMDL
MODEL 6
REMARK VINA RESULT:      -5.6      6.863      8.810
REMARK  8 active torsions:
REMARK  status: ('A' for Active; 'I' for Inactive)
REMARK    1  A    between atoms: C_1  and  C_2 
REMARK    2  A    between atoms: C_2  and  O_4 
REMARK    3  A    between atoms: O_4  and  C_5 
REMARK    4  A    between atoms: C_15  and  C_33 
REMARK    5  A    between atoms: C_26  and  C_27 
REMARK    6  A    between atoms: C_26  and  O_29 
REMARK    7  A    between atoms: O_29  and  C_30 
REMARK    8  A    between atoms: C_30  and  C_32 
ROOT
ATOM      1  C   LIG d   1      10.077   6.916  -5.959  0.00  0.00    -0.058 C 
ATOM      2  C   LIG d   1       9.390   7.827  -5.688  0.00  0.00    -0.115 C 
ATOM      3  H   LIG d   1       8.775   8.644  -5.446  0.00  0.00     0.123 H 
ENDROOT
BRANCH   1   4
ATOM      4  C   LIG d   1      10.940   5.772  -6.299  0.00  0.00     0.178 C 
ATOM      5  C   LIG d   1      10.373   4.488  -5.701  0.00  0.00     0.022 C 
ATOM      6  C   LIG d   1       9.535   4.640  -4.446  0.00  0.00    -0.043 C 
ATOM      7  C   LIG d   1       9.434   3.960  -6.818  0.00  0.00    -0.028 C 
ATOM      8  C   LIG d   1       9.073   3.232  -4.037  0.00  0.00    -0.049 C 
ATOM      9  H   LIG d   1       8.670   5.269  -4.651  0.00  0.00     0.027 H 
ATOM     10  H   LIG d   1      10.135   5.079  -3.650  0.00  0.00     0.027 H 
ATOM     11  C   LIG d   1       8.292   2.546  -5.154  0.00  0.00    -0.031 C 
ATOM     12  H   LIG d   1       8.437   3.309  -3.154  0.00  0.00     0.027 H 
ATOM     13  H   LIG d   1       9.947   2.628  -3.791  0.00  0.00     0.027 H 
ATOM     14  C   LIG d   1       7.971   1.107  -4.738  0.00  0.00    -0.017 C 
ATOM     15  H   LIG d   1       7.362   3.087  -5.325  0.00  0.00     0.031 H 
ATOM     16  C   LIG d   1       9.109   2.522  -6.456  0.00  0.00    -0.034 C 
ATOM     17  C   LIG d   1       7.145   1.109  -3.462  0.00  0.00    -0.043 C 
ATOM     18  H   LIG d   1       8.910   0.593  -4.535  0.00  0.00     0.035 H 
ATOM     19  C   LIG d   1       7.288   0.408  -5.877  0.00  0.00    -0.067 C 
ATOM     20  C   LIG d   1       6.406  -0.219  -3.296  0.00  0.00    -0.011 C 
ATOM     21  H   LIG d   1       6.419   1.921  -3.505  0.00  0.00     0.027 H 
ATOM     22  H   LIG d   1       7.805   1.262  -2.609  0.00  0.00     0.027 H 
ATOM     23  C   LIG d   1       5.423  -0.373  -4.460  0.00  0.00     0.121 C 
ATOM     24  H   LIG d   1       5.860  -0.219  -2.352  0.00  0.00     0.030 H 
ATOM     25  H   LIG d   1       7.121  -1.041  -3.307  0.00  0.00     0.030 H 
ATOM     26  H   LIG d   1       4.668   0.410  -4.406  0.00  0.00     0.078 H 
ATOM     27  C   LIG d   1       6.175  -0.259  -5.755  0.00  0.00    -0.044 C 
ATOM     28  H   LIG d   1       5.767  -0.743  -6.631  0.00  0.00     0.061 H 
ATOM     29  C   LIG d   1       7.959   0.443  -7.238  0.00  0.00    -0.031 C 
ATOM     30  C   LIG d   1       8.264   1.905  -7.573  0.00  0.00    -0.046 C 
ATOM     31  H   LIG d   1       7.287   0.026  -7.988  0.00  0.00     0.031 H 
ATOM     32  H   LIG d   1       8.886  -0.129  -7.216  0.00  0.00     0.031 H 
ATOM     33  H   LIG d   1       7.329   2.459  -7.669  0.00  0.00     0.027 H 
ATOM     34  H   LIG d   1       8.813   1.956  -8.513  0.00  0.00     0.027 H 
ATOM     35  H   LIG d   1      10.023   1.949  -6.307  0.00  0.00     0.031 H 
ATOM     36  H   LIG d   1       8.534   4.572  -6.880  0.00  0.00     0.031 H 
ATOM     37  C   LIG d   1      10.298   4.152  -8.069  0.00  0.00    -0.045 C 
ATOM     38  C   LIG d   1      10.948   5.542  -7.830  0.00  0.00    -0.001 C 
ATOM     39  H   LIG d   1      11.061   3.375  -8.134  0.00  0.00     0.027 H 
ATOM     40  H   LIG d   1       9.680   4.164  -8.966  0.00  0.00     0.027 H 
ATOM     41  H   LIG d   1      11.973   5.545  -8.203  0.00  0.00     0.031 H 
ATOM     42  H   LIG d   1      10.366   6.317  -8.328  0.00  0.00     0.031 H 
BRANCH   5  43
ATOM     43  C   LIG d   1      11.504   3.488  -5.452  0.00  0.00    -0.055 C 
ATOM     44  H   LIG d   1      12.071   3.343  -6.371  0.00  0.00     0.024 H 
ATOM     45  H   LIG d   1      12.165   3.873  -4.674  0.00  0.00     0.024 H 
ATOM     46  H   LIG d   1      11.083   2.535  -5.130  0.00  0.00     0.024 H 
ENDBRANCH   5  43
BRANCH  23  47
ATOM     47  O   LIG d   1       4.792  -1.653  -4.386  0.00  0.00    -0.457 OA
BRANCH  47  48
ATOM     48  C   LIG d   1       3.840  -1.810  -3.452  0.00  0.00     0.304 C 
ATOM     49  O   LIG d   1       3.855  -2.780  -2.732  0.00  0.00    -0.251 OA
BRANCH  48  50
ATOM     50  C   LIG d   1       2.755  -0.775  -3.302  0.00  0.00     0.033 C 
ATOM     51  H   LIG d   1       2.182  -0.978  -2.397  0.00  0.00     0.034 H 
ATOM     52  H   LIG d   1       3.204   0.216  -3.233  0.00  0.00     0.034 H 
ATOM     53  H   LIG d   1       2.092  -0.815  -4.166  0.00  0.00     0.034 H 
ENDBRANCH  48  50
ENDBRANCH  47  48
ENDBRANCH  23  47
BRANCH   4  54
ATOM     54  O   LIG d   1      12.269   5.995  -5.823  0.00  0.00    -0.445 OA
BRANCH  54  55
ATOM     55  C   LIG d   1      13.141   6.538  -6.687  0.00  0.00     0.305 C 
ATOM     56  O   LIG d   1      13.874   5.828  -7.334  0.00  0.00    -0.251 OA
BRANCH  55  57
ATOM     57  C   LIG d   1      13.207   8.035  -6.849  0.00  0.00     0.033 C 
ATOM     58  H   LIG d   1      14.214   8.326  -7.147  0.00  0.00     0.034 H 
ATOM     59  H   LIG d   1      12.497   8.349  -7.615  0.00  0.00     0.034 H 
ATOM     60  H   LIG d   1      12.955   8.515  -5.903  0.00  0.00     0.034 H 
ENDBRANCH  55  57
ENDBRANCH  54  55
ENDBRANCH   4  54
ENDBRANCH   1   4
TORSDOF 8
ENDMDL
MODEL 7
REMARK VINA RESULT:      -5.5      5.009      8.615
REMARK  8 active torsions:
REMARK  status: ('A' for Active; 'I' for Inactive)
REMARK    1  A    between atoms: C_1  and  C_2 
REMARK    2  A    between atoms: C_2  and  O_4 
REMARK    3  A    between atoms: O_4  and  C_5 
REMARK    4  A    between atoms: C_15  and  C_33 
REMARK    5  A    between atoms: C_26  and  C_27 
REMARK    6  A    between atoms: C_26  and  O_29 
REMARK    7  A    between atoms: O_29  and  C_30 
REMARK    8  A    between atoms: C_30  and  C_32 
ROOT
ATOM      1  C   LIG d   1       4.574  -0.368  -6.361  0.00  0.00    -0.058 C 
ATOM      2  C   LIG d   1       4.468  -0.097  -7.497  0.00  0.00    -0.115 C 
ATOM      3  H   LIG d   1       4.373   0.145  -8.515  0.00  0.00     0.123 H 
ENDROOT
BRANCH   1   4
ATOM      4  C   LIG d   1       4.707  -0.708  -4.934  0.00  0.00     0.178 C 
ATOM      5  C   LIG d   1       5.157  -2.157  -4.777  0.00  0.00     0.022 C 
ATOM      6  C   LIG d   1       4.776  -3.108  -5.895  0.00  0.00    -0.043 C 
ATOM      7  C   LIG d   1       6.706  -2.051  -4.774  0.00  0.00    -0.028 C 
ATOM      8  C   LIG d   1       5.336  -4.491  -5.524  0.00  0.00    -0.049 C 
ATOM      9  H   LIG d   1       5.213  -2.771  -6.834  0.00  0.00     0.027 H 
ATOM     10  H   LIG d   1       3.691  -3.160  -5.986  0.00  0.00     0.027 H 
ATOM     11  C   LIG d   1       6.846  -4.451  -5.312  0.00  0.00    -0.031 C 
ATOM     12  H   LIG d   1       5.109  -5.194  -6.327  0.00  0.00     0.027 H 
ATOM     13  H   LIG d   1       4.856  -4.835  -4.608  0.00  0.00     0.027 H 
ATOM     14  C   LIG d   1       7.326  -5.821  -4.823  0.00  0.00    -0.017 C 
ATOM     15  H   LIG d   1       7.334  -4.216  -6.258  0.00  0.00     0.031 H 
ATOM     16  C   LIG d   1       7.223  -3.386  -4.270  0.00  0.00    -0.034 C 
ATOM     17  C   LIG d   1       6.980  -6.888  -5.849  0.00  0.00    -0.043 C 
ATOM     18  H   LIG d   1       6.799  -6.056  -3.898  0.00  0.00     0.035 H 
ATOM     19  C   LIG d   1       8.794  -5.749  -4.524  0.00  0.00    -0.067 C 
ATOM     20  C   LIG d   1       7.847  -8.131  -5.648  0.00  0.00    -0.011 C 
ATOM     21  H   LIG d   1       7.149  -6.491  -6.851  0.00  0.00     0.027 H 
ATOM     22  H   LIG d   1       5.931  -7.161  -5.743  0.00  0.00     0.027 H 
ATOM     23  C   LIG d   1       9.309  -7.743  -5.886  0.00  0.00     0.121 C 
ATOM     24  H   LIG d   1       7.552  -8.903  -6.359  0.00  0.00     0.030 H 
ATOM     25  H   LIG d   1       7.726  -8.502  -4.631  0.00  0.00     0.030 H 
ATOM     26  H   LIG d   1       9.443  -7.438  -6.923  0.00  0.00     0.078 H 
ATOM     27  C   LIG d   1       9.669  -6.603  -4.976  0.00  0.00    -0.044 C 
ATOM     28  H   LIG d   1      10.704  -6.478  -4.693  0.00  0.00     0.061 H 
ATOM     29  C   LIG d   1       9.279  -4.644  -3.604  0.00  0.00    -0.031 C 
ATOM     30  C   LIG d   1       8.747  -3.315  -4.146  0.00  0.00    -0.046 C 
ATOM     31  H   LIG d   1      10.369  -4.627  -3.595  0.00  0.00     0.031 H 
ATOM     32  H   LIG d   1       8.905  -4.804  -2.593  0.00  0.00     0.031 H 
ATOM     33  H   LIG d   1       9.183  -3.122  -5.127  0.00  0.00     0.027 H 
ATOM     34  H   LIG d   1       9.018  -2.509  -3.464  0.00  0.00     0.027 H 
ATOM     35  H   LIG d   1       6.772  -3.634  -3.310  0.00  0.00     0.031 H 
ATOM     36  H   LIG d   1       7.074  -1.829  -5.776  0.00  0.00     0.031 H 
ATOM     37  C   LIG d   1       6.934  -0.854  -3.844  0.00  0.00    -0.045 C 
ATOM     38  C   LIG d   1       5.826   0.141  -4.282  0.00  0.00    -0.001 C 
ATOM     39  H   LIG d   1       6.801  -1.146  -2.802  0.00  0.00     0.027 H 
ATOM     40  H   LIG d   1       7.923  -0.425  -4.003  0.00  0.00     0.027 H 
ATOM     41  H   LIG d   1       5.434   0.671  -3.413  0.00  0.00     0.031 H 
ATOM     42  H   LIG d   1       6.226   0.852  -5.005  0.00  0.00     0.031 H 
BRANCH   5  43
ATOM     43  C   LIG d   1       4.668  -2.710  -3.436  0.00  0.00    -0.055 C 
ATOM     44  H   LIG d   1       4.530  -3.788  -3.516  0.00  0.00     0.024 H 
ATOM     45  H   LIG d   1       5.406  -2.494  -2.663  0.00  0.00     0.024 H 
ATOM     46  H   LIG d   1       3.720  -2.241  -3.174  0.00  0.00     0.024 H 
ENDBRANCH   5  43
BRANCH  23  47
ATOM     47  O   LIG d   1      10.152  -8.863  -5.604  0.00  0.00    -0.457 OA
BRANCH  47  48
ATOM     48  C   LIG d   1      11.091  -9.163  -6.516  0.00  0.00     0.304 C 
ATOM     49  O   LIG d   1      12.259  -9.146  -6.207  0.00  0.00    -0.251 OA
BRANCH  48  50
ATOM     50  C   LIG d   1      10.687  -9.521  -7.923  0.00  0.00     0.033 C 
ATOM     51  H   LIG d   1      10.307  -8.634  -8.429  0.00  0.00     0.034 H 
ATOM     52  H   LIG d   1      11.552  -9.905  -8.463  0.00  0.00     0.034 H 
ATOM     53  H   LIG d   1       9.908 -10.284  -7.895  0.00  0.00     0.034 H 
ENDBRANCH  48  50
ENDBRANCH  47  48
ENDBRANCH  23  47
BRANCH   4  54
ATOM     54  O   LIG d   1       3.466  -0.499  -4.256  0.00  0.00    -0.445 OA
BRANCH  54  55
ATOM     55  C   LIG d   1       3.240   0.730  -3.767  0.00  0.00     0.305 C 
ATOM     56  O   LIG d   1       2.793   1.594  -4.484  0.00  0.00    -0.251 OA
BRANCH  55  57
ATOM     57  C   LIG d   1       3.543   1.033  -2.322  0.00  0.00     0.033 C 
ATOM     58  H   LIG d   1       4.401   0.445  -1.999  0.00  0.00     0.034 H 
ATOM     59  H   LIG d   1       3.768   2.094  -2.212  0.00  0.00     0.034 H 
ATOM     60  H   LIG d   1       2.678   0.780  -1.708  0.00  0.00     0.034 H 
ENDBRANCH  55  57
ENDBRANCH  54  55
ENDBRANCH   4  54
ENDBRANCH   1   4
TORSDOF 8
ENDMDL
MODEL 8
REMARK VINA RESULT:      -5.4      5.756      8.736
REMARK  8 active torsions:
REMARK  status: ('A' for Active; 'I' for Inactive)
REMARK    1  A    between atoms: C_1  and  C_2 
REMARK    2  A    between atoms: C_2  and  O_4 
REMARK    3  A    between atoms: O_4  and  C_5 
REMARK    4  A    between atoms: C_15  and  C_33 
REMARK    5  A    between atoms: C_26  and  C_27 
REMARK    6  A    between atoms: C_26  and  O_29 
REMARK    7  A    between atoms: O_29  and  C_30 
REMARK    8  A    between atoms: C_30  and  C_32 
ROOT
ATOM      1  C   LIG d   1       4.356  -1.955  -3.365  0.00  0.00    -0.058 C 
ATOM      2  C   LIG d   1       3.901  -2.008  -2.286  0.00  0.00    -0.115 C 
ATOM      3  H   LIG d   1       3.492  -2.056  -1.319  0.00  0.00     0.123 H 
ENDROOT
BRANCH   1   4
ATOM      4  C   LIG d   1       4.928  -1.889  -4.721  0.00  0.00     0.178 C 
ATOM      5  C   LIG d   1       6.390  -2.323  -4.698  0.00  0.00     0.022 C 
ATOM      6  C   LIG d   1       7.139  -2.110  -3.396  0.00  0.00    -0.043 C 
ATOM      7  C   LIG d   1       6.311  -3.855  -4.935  0.00  0.00    -0.028 C 
ATOM      8  C   LIG d   1       8.572  -2.622  -3.608  0.00  0.00    -0.049 C 
ATOM      9  H   LIG d   1       6.658  -2.671  -2.596  0.00  0.00     0.027 H 
ATOM     10  H   LIG d   1       7.157  -1.049  -3.148  0.00  0.00     0.027 H 
ATOM     11  C   LIG d   1       8.592  -4.087  -4.033  0.00  0.00    -0.031 C 
ATOM     12  H   LIG d   1       9.130  -2.515  -2.677  0.00  0.00     0.027 H 
ATOM     13  H   LIG d   1       9.054  -2.021  -4.380  0.00  0.00     0.027 H 
ATOM     14  C   LIG d   1      10.031  -4.503  -4.351  0.00  0.00    -0.017 C 
ATOM     15  H   LIG d   1       8.213  -4.702  -3.217  0.00  0.00     0.031 H 
ATOM     16  C   LIG d   1       7.718  -4.306  -5.278  0.00  0.00    -0.034 C 
ATOM     17  C   LIG d   1      10.909  -4.313  -3.125  0.00  0.00    -0.043 C 
ATOM     18  H   LIG d   1      10.406  -3.854  -5.143  0.00  0.00     0.035 H 
ATOM     19  C   LIG d   1      10.033  -5.915  -4.860  0.00  0.00    -0.067 C 
ATOM     20  C   LIG d   1      12.182  -5.152  -3.238  0.00  0.00    -0.011 C 
ATOM     21  H   LIG d   1      10.355  -4.617  -2.237  0.00  0.00     0.027 H 
ATOM     22  H   LIG d   1      11.179  -3.261  -3.037  0.00  0.00     0.027 H 
ATOM     23  C   LIG d   1      11.784  -6.631  -3.274  0.00  0.00     0.121 C 
ATOM     24  H   LIG d   1      12.822  -4.965  -2.375  0.00  0.00     0.030 H 
ATOM     25  H   LIG d   1      12.713  -4.892  -4.153  0.00  0.00     0.030 H 
ATOM     26  H   LIG d   1      11.315  -6.906  -2.330  0.00  0.00     0.078 H 
ATOM     27  C   LIG d   1      10.815  -6.851  -4.400  0.00  0.00    -0.044 C 
ATOM     28  H   LIG d   1      10.755  -7.835  -4.841  0.00  0.00     0.061 H 
ATOM     29  C   LIG d   1       9.102  -6.258  -6.009  0.00  0.00    -0.031 C 
ATOM     30  C   LIG d   1       7.693  -5.797  -5.624  0.00  0.00    -0.046 C 
ATOM     31  H   LIG d   1       9.104  -7.336  -6.172  0.00  0.00     0.031 H 
ATOM     32  H   LIG d   1       9.420  -5.747  -6.917  0.00  0.00     0.031 H 
ATOM     33  H   LIG d   1       7.349  -6.365  -4.759  0.00  0.00     0.027 H 
ATOM     34  H   LIG d   1       7.015  -5.965  -6.461  0.00  0.00     0.027 H 
ATOM     35  H   LIG d   1       8.113  -3.727  -6.112  0.00  0.00     0.031 H 
ATOM     36  H   LIG d   1       5.933  -4.359  -4.044  0.00  0.00     0.031 H 
ATOM     37  C   LIG d   1       5.287  -3.942  -6.072  0.00  0.00    -0.045 C 
ATOM     38  C   LIG d   1       4.215  -2.899  -5.654  0.00  0.00    -0.001 C 
ATOM     39  H   LIG d   1       5.743  -3.667  -7.023  0.00  0.00     0.027 H 
ATOM     40  H   LIG d   1       4.854  -4.940  -6.125  0.00  0.00     0.027 H 
ATOM     41  H   LIG d   1       3.830  -2.385  -6.535  0.00  0.00     0.031 H 
ATOM     42  H   LIG d   1       3.402  -3.391  -5.121  0.00  0.00     0.031 H 
BRANCH   5  43
ATOM     43  C   LIG d   1       7.148  -1.655  -5.847  0.00  0.00    -0.055 C 
ATOM     44  H   LIG d   1       7.891  -0.968  -5.443  0.00  0.00     0.024 H 
ATOM     45  H   LIG d   1       7.646  -2.418  -6.446  0.00  0.00     0.024 H 
ATOM     46  H   LIG d   1       6.446  -1.104  -6.474  0.00  0.00     0.024 H 
ENDBRANCH   5  43
BRANCH  23  47
ATOM     47  O   LIG d   1      12.948  -7.434  -3.482  0.00  0.00    -0.457 OA
BRANCH  47  48
ATOM     48  C   LIG d   1      13.877  -7.422  -2.513  0.00  0.00     0.304 C 
ATOM     49  O   LIG d   1      13.553  -7.605  -1.363  0.00  0.00    -0.251 OA
BRANCH  48  50
ATOM     50  C   LIG d   1      15.324  -7.181  -2.860  0.00  0.00     0.033 C 
ATOM     51  H   LIG d   1      15.458  -6.141  -3.156  0.00  0.00     0.034 H 
ATOM     52  H   LIG d   1      15.947  -7.395  -1.992  0.00  0.00     0.034 H 
ATOM     53  H   LIG d   1      15.613  -7.832  -3.685  0.00  0.00     0.034 H 
ENDBRANCH  48  50
ENDBRANCH  47  48
ENDBRANCH  23  47
BRANCH   4  54
ATOM     54  O   LIG d   1       4.813  -0.564  -5.244  0.00  0.00    -0.445 OA
BRANCH  54  55
ATOM     55  C   LIG d   1       3.626  -0.216  -5.763  0.00  0.00     0.305 C 
ATOM     56  O   LIG d   1       3.413  -0.368  -6.943  0.00  0.00    -0.251 OA
BRANCH  55  57
ATOM     57  C   LIG d   1       2.557   0.366  -4.875  0.00  0.00     0.033 C 
ATOM     58  H   LIG d   1       3.005   0.712  -3.944  0.00  0.00     0.034 H 
ATOM     59  H   LIG d   1       2.079   1.205  -5.382  0.00  0.00     0.034 H 
ATOM     60  H   LIG d   1       1.810  -0.398  -4.656  0.00  0.00     0.034 H 
ENDBRANCH  55  57
ENDBRANCH  54  55
ENDBRANCH   4  54
ENDBRANCH   1   4
TORSDOF 8
ENDMDL
MODEL 9
REMARK VINA RESULT:      -5.3      1.802      3.337
REMARK  8 active torsions:
REMARK  status: ('A' for Active; 'I' for Inactive)
REMARK    1  A    between atoms: C_1  and  C_2 
REMARK    2  A    between atoms: C_2  and  O_4 
REMARK    3  A    between atoms: O_4  and  C_5 
REMARK    4  A    between atoms: C_15  and  C_33 
REMARK    5  A    between atoms: C_26  and  C_27 
REMARK    6  A    between atoms: C_26  and  O_29 
REMARK    7  A    between atoms: O_29  and  C_30 
REMARK    8  A    between atoms: C_30  and  C_32 
ROOT
ATOM      1  C   LIG d   1       7.268  -1.270 -13.281  0.00  0.00    -0.058 C 
ATOM      2  C   LIG d   1       8.326  -0.765 -13.298  0.00  0.00    -0.115 C 
ATOM      3  H   LIG d   1       9.274  -0.312 -13.313  0.00  0.00     0.123 H 
ENDROOT
BRANCH   1   4
ATOM      4  C   LIG d   1       5.939  -1.905 -13.260  0.00  0.00     0.178 C 
ATOM      5  C   LIG d   1       5.477  -2.112 -11.821  0.00  0.00     0.022 C 
ATOM      6  C   LIG d   1       6.566  -2.273 -10.777  0.00  0.00    -0.043 C 
ATOM      7  C   LIG d   1       4.722  -0.795 -11.496  0.00  0.00    -0.028 C 
ATOM      8  C   LIG d   1       5.869  -2.459  -9.420  0.00  0.00    -0.049 C 
ATOM      9  H   LIG d   1       7.192  -1.381 -10.754  0.00  0.00     0.027 H 
ATOM     10  H   LIG d   1       7.173  -3.148 -11.006  0.00  0.00     0.027 H 
ATOM     11  C   LIG d   1       4.946  -1.289  -9.093  0.00  0.00    -0.031 C 
ATOM     12  H   LIG d   1       6.627  -2.543  -8.640  0.00  0.00     0.027 H 
ATOM     13  H   LIG d   1       5.283  -3.378  -9.444  0.00  0.00     0.027 H 
ATOM     14  C   LIG d   1       4.187  -1.589  -7.797  0.00  0.00    -0.017 C 
ATOM     15  H   LIG d   1       5.545  -0.388  -8.958  0.00  0.00     0.031 H 
ATOM     16  C   LIG d   1       3.934  -1.058 -10.226  0.00  0.00    -0.034 C 
ATOM     17  C   LIG d   1       5.170  -1.801  -6.658  0.00  0.00    -0.043 C 
ATOM     18  H   LIG d   1       3.625  -2.512  -7.938  0.00  0.00     0.035 H 
ATOM     19  C   LIG d   1       3.212  -0.480  -7.531  0.00  0.00    -0.067 C 
ATOM     20  C   LIG d   1       4.480  -1.610  -5.307  0.00  0.00    -0.011 C 
ATOM     21  H   LIG d   1       5.986  -1.083  -6.749  0.00  0.00     0.027 H 
ATOM     22  H   LIG d   1       5.574  -2.812  -6.715  0.00  0.00     0.027 H 
ATOM     23  C   LIG d   1       3.997  -0.160  -5.212  0.00  0.00     0.121 C 
ATOM     24  H   LIG d   1       5.186  -1.815  -4.502  0.00  0.00     0.030 H 
ATOM     25  H   LIG d   1       3.629  -2.287  -5.231  0.00  0.00     0.030 H 
ATOM     26  H   LIG d   1       4.854   0.512  -5.219  0.00  0.00     0.078 H 
ATOM     27  C   LIG d   1       3.113   0.140  -6.389  0.00  0.00    -0.044 C 
ATOM     28  H   LIG d   1       2.369   0.916  -6.288  0.00  0.00     0.061 H 
ATOM     29  C   LIG d   1       2.255  -0.093  -8.644  0.00  0.00    -0.031 C 
ATOM     30  C   LIG d   1       3.084   0.172  -9.904  0.00  0.00    -0.046 C 
ATOM     31  H   LIG d   1       1.714   0.811  -8.363  0.00  0.00     0.031 H 
ATOM     32  H   LIG d   1       1.549  -0.901  -8.833  0.00  0.00     0.031 H 
ATOM     33  H   LIG d   1       3.735   1.031  -9.736  0.00  0.00     0.027 H 
ATOM     34  H   LIG d   1       2.417   0.382 -10.740  0.00  0.00     0.027 H 
ATOM     35  H   LIG d   1       3.304  -1.939 -10.342  0.00  0.00     0.031 H 
ATOM     36  H   LIG d   1       5.427   0.026 -11.369  0.00  0.00     0.031 H 
ATOM     37  C   LIG d   1       3.889  -0.592 -12.767  0.00  0.00    -0.045 C 
ATOM     38  C   LIG d   1       4.886  -0.966 -13.898  0.00  0.00    -0.001 C 
ATOM     39  H   LIG d   1       3.029  -1.261 -12.774  0.00  0.00     0.027 H 
ATOM     40  H   LIG d   1       3.574   0.447 -12.859  0.00  0.00     0.027 H 
ATOM     41  H   LIG d   1       4.362  -1.484 -14.702  0.00  0.00     0.031 H 
ATOM     42  H   LIG d   1       5.369  -0.068 -14.283  0.00  0.00     0.031 H 
BRANCH   5  43
ATOM     43  C   LIG d   1       4.513  -3.299 -11.751  0.00  0.00    -0.055 C 
ATOM     44  H   LIG d   1       4.953  -4.156 -12.261  0.00  0.00     0.024 H 
ATOM     45  H   LIG d   1       4.326  -3.553 -10.707  0.00  0.00     0.024 H 
ATOM     46  H   LIG d   1       3.572  -3.032 -12.234  0.00  0.00     0.024 H 
ENDBRANCH   5  43
BRANCH  23  47
ATOM     47  O   LIG d   1       3.258   0.019  -4.003  0.00  0.00    -0.457 OA
BRANCH  47  48
ATOM     48  C   LIG d   1       3.698   0.961  -3.153  0.00  0.00     0.304 C 
ATOM     49  O   LIG d   1       3.530   2.130  -3.408  0.00  0.00    -0.251 OA
BRANCH  48  50
ATOM     50  C   LIG d   1       4.402   0.560  -1.883  0.00  0.00     0.033 C 
ATOM     51  H   LIG d   1       5.403   0.200  -2.120  0.00  0.00     0.034 H 
ATOM     52  H   LIG d   1       4.473   1.421  -1.219  0.00  0.00     0.034 H 
ATOM     53  H   LIG d   1       3.839  -0.233  -1.390  0.00  0.00     0.034 H 
ENDBRANCH  48  50
ENDBRANCH  47  48
ENDBRANCH  23  47
BRANCH   4  54
ATOM     54  O   LIG d   1       5.975  -3.154 -13.953  0.00  0.00    -0.445 OA
BRANCH  54  55
ATOM     55  C   LIG d   1       5.583  -3.150 -15.236  0.00  0.00     0.305 C 
ATOM     56  O   LIG d   1       6.336  -2.763 -16.098  0.00  0.00    -0.251 OA
BRANCH  55  57
ATOM     57  C   LIG d   1       4.202  -3.628 -15.603  0.00  0.00     0.033 C 
ATOM     58  H   LIG d   1       3.622  -2.796 -16.003  0.00  0.00     0.034 H 
ATOM     59  H   LIG d   1       4.277  -4.414 -16.356  0.00  0.00     0.034 H 
ATOM     60  H   LIG d   1       3.705  -4.022 -14.716  0.00  0.00     0.034 H 
ENDBRANCH  55  57
ENDBRANCH  54  55
ENDBRANCH   4  54
ENDBRANCH   1   4
TORSDOF 8
ENDMDL
MODEL 10
REMARK VINA RESULT:      -5.2      9.193     11.329
REMARK  8 active torsions:
REMARK  status: ('A' for Active; 'I' for Inactive)
REMARK    1  A    between atoms: C_1  and  C_2 
REMARK    2  A    between atoms: C_2  and  O_4 
REMARK    3  A    between atoms: O_4  and  C_5 
REMARK    4  A    between atoms: C_15  and  C_33 
REMARK    5  A    between atoms: C_26  and  C_27 
REMARK    6  A    between atoms: C_26  and  O_29 
REMARK    7  A    between atoms: O_29  and  C_30 
REMARK    8  A    between atoms: C_30  and  C_32 
ROOT
ATOM      1  C   LIG d   1       5.012  -7.519  -5.377  0.00  0.00    -0.058 C 
ATOM      2  C   LIG d   1       4.726  -6.382  -5.348  0.00  0.00    -0.115 C 
ATOM      3  H   LIG d   1       4.469  -5.364  -5.322  0.00  0.00     0.123 H 
ENDROOT
BRANCH   1   4
ATOM      4  C   LIG d   1       5.371  -8.947  -5.413  0.00  0.00     0.178 C 
ATOM      5  C   LIG d   1       6.732  -9.165  -4.760  0.00  0.00     0.022 C 
ATOM      6  C   LIG d   1       7.697  -7.995  -4.800  0.00  0.00    -0.043 C 
ATOM      7  C   LIG d   1       6.377  -9.414  -3.270  0.00  0.00    -0.028 C 
ATOM      8  C   LIG d   1       8.981  -8.442  -4.084  0.00  0.00    -0.049 C 
ATOM      9  H   LIG d   1       7.263  -7.139  -4.284  0.00  0.00     0.027 H 
ATOM     10  H   LIG d   1       7.920  -7.733  -5.834  0.00  0.00     0.027 H 
ATOM     11  C   LIG d   1       8.704  -8.891  -2.653  0.00  0.00    -0.031 C 
ATOM     12  H   LIG d   1       9.685  -7.609  -4.064  0.00  0.00     0.027 H 
ATOM     13  H   LIG d   1       9.427  -9.269  -4.636  0.00  0.00     0.027 H 
ATOM     14  C   LIG d   1       9.993  -9.442  -2.035  0.00  0.00    -0.017 C 
ATOM     15  H   LIG d   1       8.362  -8.037  -2.069  0.00  0.00     0.031 H 
ATOM     16  C   LIG d   1       7.625  -9.986  -2.624  0.00  0.00    -0.034 C 
ATOM     17  C   LIG d   1      11.068  -8.368  -2.036  0.00  0.00    -0.043 C 
ATOM     18  H   LIG d   1      10.339 -10.270  -2.653  0.00  0.00     0.035 H 
ATOM     19  C   LIG d   1       9.693  -9.971  -0.664  0.00  0.00    -0.067 C 
ATOM     20  C   LIG d   1      12.159  -8.696  -1.017  0.00  0.00    -0.011 C 
ATOM     21  H   LIG d   1      10.617  -7.408  -1.782  0.00  0.00     0.027 H 
ATOM     22  H   LIG d   1      11.511  -8.304  -3.029  0.00  0.00     0.027 H 
ATOM     23  C   LIG d   1      11.533  -8.696   0.380  0.00  0.00     0.121 C 
ATOM     24  H   LIG d   1      12.946  -7.943  -1.067  0.00  0.00     0.030 H 
ATOM     25  H   LIG d   1      12.578  -9.679  -1.233  0.00  0.00     0.030 H 
ATOM     26  H   LIG d   1      11.177  -7.695   0.620  0.00  0.00     0.078 H 
ATOM     27  C   LIG d   1      10.379  -9.658   0.400  0.00  0.00    -0.044 C 
ATOM     28  H   LIG d   1      10.097 -10.102   1.343  0.00  0.00     0.061 H 
ATOM     29  C   LIG d   1       8.554 -10.963  -0.517  0.00  0.00    -0.031 C 
ATOM     30  C   LIG d   1       7.312 -10.351  -1.171  0.00  0.00    -0.046 C 
ATOM     31  H   LIG d   1       8.361 -11.145   0.540  0.00  0.00     0.031 H 
ATOM     32  H   LIG d   1       8.805 -11.901  -1.012  0.00  0.00     0.031 H 
ATOM     33  H   LIG d   1       7.020  -9.453  -0.625  0.00  0.00     0.027 H 
ATOM     34  H   LIG d   1       6.495 -11.072  -1.145  0.00  0.00     0.027 H 
ATOM     35  H   LIG d   1       7.974 -10.861  -3.171  0.00  0.00     0.031 H 
ATOM     36  H   LIG d   1       6.066  -8.485  -2.792  0.00  0.00     0.031 H 
ATOM     37  C   LIG d   1       5.189 -10.376  -3.390  0.00  0.00    -0.045 C 
ATOM     38  C   LIG d   1       4.373  -9.774  -4.565  0.00  0.00    -0.001 C 
ATOM     39  H   LIG d   1       5.531 -11.382  -3.633  0.00  0.00     0.027 H 
ATOM     40  H   LIG d   1       4.601 -10.378  -2.473  0.00  0.00     0.027 H 
ATOM     41  H   LIG d   1       3.942 -10.572  -5.170  0.00  0.00     0.031 H 
ATOM     42  H   LIG d   1       3.584  -9.128  -4.181  0.00  0.00     0.031 H 
BRANCH   5  43
ATOM     43  C   LIG d   1       7.400 -10.408  -5.353  0.00  0.00    -0.055 C 
ATOM     44  H   LIG d   1       6.782 -11.283  -5.155  0.00  0.00     0.024 H 
ATOM     45  H   LIG d   1       7.514 -10.279  -6.430  0.00  0.00     0.024 H 
ATOM     46  H   LIG d   1       8.382 -10.545  -4.899  0.00  0.00     0.024 H 
ENDBRANCH   5  43
BRANCH  23  47
ATOM     47  O   LIG d   1      12.509  -9.101   1.341  0.00  0.00    -0.457 OA
BRANCH  47  48
ATOM     48  C   LIG d   1      12.830  -8.213   2.295  0.00  0.00     0.304 C 
ATOM     49  O   LIG d   1      13.724  -7.422   2.108  0.00  0.00    -0.251 OA
BRANCH  48  50
ATOM     50  C   LIG d   1      12.074  -8.203   3.599  0.00  0.00     0.033 C 
ATOM     51  H   LIG d   1      11.046  -7.887   3.421  0.00  0.00     0.034 H 
ATOM     52  H   LIG d   1      12.077  -9.204   4.029  0.00  0.00     0.034 H 
ATOM     53  H   LIG d   1      12.551  -7.508   4.291  0.00  0.00     0.034 H 
ENDBRANCH  48  50
ENDBRANCH  47  48
ENDBRANCH  23  47
BRANCH   4  54
ATOM     54  O   LIG d   1       5.388  -9.420  -6.761  0.00  0.00    -0.445 OA
BRANCH  54  55
ATOM     55  C   LIG d   1       4.922  -8.587  -7.705  0.00  0.00     0.305 C 
ATOM     56  O   LIG d   1       3.732  -8.466  -7.871  0.00  0.00    -0.251 OA
BRANCH  55  57
ATOM     57  C   LIG d   1       5.885  -7.801  -8.557  0.00  0.00     0.033 C 
ATOM     58  H   LIG d   1       5.388  -7.490  -9.476  0.00  0.00     0.034 H 
ATOM     59  H   LIG d   1       6.221  -6.920  -8.009  0.00  0.00     0.034 H 
ATOM     60  H   LIG d   1       6.745  -8.424  -8.803  0.00  0.00     0.034 H 
ENDBRANCH  55  57
ENDBRANCH  54  55
ENDBRANCH   4  54
ENDBRANCH   1   4
TORSDOF 8
ENDMDL
