MODEL 1
REMARK VINA RESULT:      -7.8      0.000      0.000
REMARK  5 active torsions:
REMARK  status: ('A' for Active; 'I' for Inactive)
REMARK    1  A    between atoms: C_4  and  N_7 
REMARK    2  A    between atoms: N_7  and  C_8 
REMARK    3  A    between atoms: N_7  and  C_14 
REMARK    4  A    between atoms: C_16  and  N_26 
REMARK    5  A    between atoms: C_18  and  N_20 
ROOT
ATOM      1  C   LIG d   1       5.505  -2.381  -5.862  0.00  0.00     0.233 A 
ATOM      2  N   LIG d   1       5.049  -1.543  -6.788  0.00  0.00    -0.180 NA
ATOM      3  C   LIG d   1       4.306  -2.000  -7.791  0.00  0.00     0.224 A 
ATOM      4  N   LIG d   1       4.017  -3.296  -7.867  0.00  0.00    -0.181 NA
ATOM      5  C   LIG d   1       4.471  -4.134  -6.940  0.00  0.00     0.224 A 
ATOM      6  N   LIG d   1       5.210  -3.676  -5.934  0.00  0.00    -0.180 NA
ENDROOT
BRANCH   1   7
ATOM      7  N   LIG d   1       6.278  -1.905  -4.819  0.00  0.00    -0.238 N 
BRANCH   7   8
ATOM      8  C   LIG d   1       7.646  -2.195  -4.772  0.00  0.00     0.042 A 
ATOM      9  C   LIG d   1       8.124  -3.160  -3.896  0.00  0.00    -0.040 A 
ATOM     10  C   LIG d   1       9.475  -3.443  -3.853  0.00  0.00    -0.060 A 
ATOM     11  H   LIG d   1       7.440  -3.690  -3.250  0.00  0.00     0.064 H 
ATOM     12  C   LIG d   1      10.352  -2.766  -4.680  0.00  0.00    -0.062 A 
ATOM     13  H   LIG d   1       9.847  -4.195  -3.172  0.00  0.00     0.062 H 
ATOM     14  C   LIG d   1       9.879  -1.803  -5.554  0.00  0.00    -0.060 A 
ATOM     15  H   LIG d   1      11.408  -2.989  -4.645  0.00  0.00     0.062 H 
ATOM     16  C   LIG d   1       8.529  -1.520  -5.607  0.00  0.00    -0.040 A 
ATOM     17  H   LIG d   1      10.567  -1.277  -6.199  0.00  0.00     0.062 H 
ATOM     18  H   LIG d   1       8.160  -0.771  -6.292  0.00  0.00     0.064 H 
ENDBRANCH   7   8
BRANCH   7  19
ATOM     19  C   LIG d   1       5.692  -1.134  -3.808  0.00  0.00     0.042 A 
ATOM     20  C   LIG d   1       4.832  -1.724  -2.892  0.00  0.00    -0.040 A 
ATOM     21  C   LIG d   1       4.256  -0.959  -1.896  0.00  0.00    -0.060 A 
ATOM     22  H   LIG d   1       4.615  -2.780  -2.956  0.00  0.00     0.064 H 
ATOM     23  C   LIG d   1       4.533   0.393  -1.813  0.00  0.00    -0.062 A 
ATOM     24  H   LIG d   1       3.587  -1.417  -1.183  0.00  0.00     0.062 H 
ATOM     25  C   LIG d   1       5.389   0.984  -2.724  0.00  0.00    -0.060 A 
ATOM     26  H   LIG d   1       4.080   0.989  -1.034  0.00  0.00     0.062 H 
ATOM     27  C   LIG d   1       5.973   0.224  -3.719  0.00  0.00    -0.040 A 
ATOM     28  H   LIG d   1       5.604   2.040  -2.656  0.00  0.00     0.062 H 
ATOM     29  H   LIG d   1       6.645   0.685  -4.428  0.00  0.00     0.064 H 
ENDBRANCH   7  19
ENDBRANCH   1   7
BRANCH   5  30
ATOM     30  N   LIG d   1       4.172  -5.478  -7.018  0.00  0.00    -0.295 NA
ATOM     31  C   LIG d   1       4.228  -5.951  -8.409  0.00  0.00     0.038 C 
ATOM     32  C   LIG d   1       3.831  -7.428  -8.458  0.00  0.00     0.064 C 
ATOM     33  H   LIG d   1       3.538  -5.369  -9.020  0.00  0.00     0.049 H 
ATOM     34  H   LIG d   1       5.241  -5.833  -8.792  0.00  0.00     0.049 H 
ATOM     35  O   LIG d   1       4.693  -8.177  -7.596  0.00  0.00    -0.377 OA
ATOM     36  H   LIG d   1       2.799  -7.540  -8.125  0.00  0.00     0.058 H 
ATOM     37  H   LIG d   1       3.926  -7.798  -9.479  0.00  0.00     0.058 H 
ATOM     38  C   LIG d   1       4.662  -7.744  -6.233  0.00  0.00     0.064 C 
ATOM     39  C   LIG d   1       5.068  -6.269  -6.163  0.00  0.00     0.038 C 
ATOM     40  H   LIG d   1       5.360  -8.342  -5.646  0.00  0.00     0.058 H 
ATOM     41  H   LIG d   1       3.655  -7.864  -5.835  0.00  0.00     0.058 H 
ATOM     42  H   LIG d   1       4.991  -5.920  -5.133  0.00  0.00     0.049 H 
ATOM     43  H   LIG d   1       6.095  -6.156  -6.510  0.00  0.00     0.049 H 
ENDBRANCH   5  30
BRANCH   3  44
ATOM     44  N   LIG d   1       3.834  -1.131  -8.753  0.00  0.00    -0.299 NA
ATOM     45  C   LIG d   1       2.599  -0.453  -8.296  0.00  0.00     0.015 C 
ATOM     46  C   LIG d   1       2.878   0.767  -7.462  0.00  0.00    -0.037 C 
ATOM     47  H   LIG d   1       2.018  -0.157  -9.169  0.00  0.00     0.046 H 
ATOM     48  H   LIG d   1       2.011  -1.156  -7.706  0.00  0.00     0.046 H 
ATOM     49  C   LIG d   1       2.880   2.003  -8.388  0.00  0.00    -0.052 C 
ATOM     50  H   LIG d   1       2.103   0.879  -6.705  0.00  0.00     0.028 H 
ATOM     51  H   LIG d   1       3.850   0.667  -6.979  0.00  0.00     0.028 H 
ATOM     52  C   LIG d   1       4.127   2.129  -9.134  0.00  0.00    -0.052 C 
ATOM     53  H   LIG d   1       2.053   1.918  -9.093  0.00  0.00     0.027 H 
ATOM     54  H   LIG d   1       2.739   2.898  -7.783  0.00  0.00     0.027 H 
ATOM     55  C   LIG d   1       4.382   0.916 -10.053  0.00  0.00    -0.037 C 
ATOM     56  H   LIG d   1       4.085   3.032  -9.744  0.00  0.00     0.027 H 
ATOM     57  H   LIG d   1       4.954   2.217  -8.429  0.00  0.00     0.027 H 
ATOM     58  C   LIG d   1       4.904  -0.218  -9.213  0.00  0.00     0.015 C 
ATOM     59  H   LIG d   1       3.450   0.617 -10.533  0.00  0.00     0.028 H 
ATOM     60  H   LIG d   1       5.120   1.180 -10.812  0.00  0.00     0.028 H 
ATOM     61  H   LIG d   1       5.413   0.195  -8.343  0.00  0.00     0.046 H 
ATOM     62  H   LIG d   1       5.624  -0.788  -9.801  0.00  0.00     0.046 H 
ENDBRANCH   3  44
TORSDOF 5
ENDMDL
MODEL 2
REMARK VINA RESULT:      -7.8      0.021      3.339
REMARK  5 active torsions:
REMARK  status: ('A' for Active; 'I' for Inactive)
REMARK    1  A    between atoms: C_4  and  N_7 
REMARK    2  A    between atoms: N_7  and  C_8 
REMARK    3  A    between atoms: N_7  and  C_14 
REMARK    4  A    between atoms: C_16  and  N_26 
REMARK    5  A    between atoms: C_18  and  N_20 
ROOT
ATOM      1  C   LIG d   1       5.498  -2.376  -5.873  0.00  0.00     0.233 A 
ATOM      2  N   LIG d   1       5.047  -1.536  -6.798  0.00  0.00    -0.180 NA
ATOM      3  C   LIG d   1       4.304  -1.988  -7.804  0.00  0.00     0.224 A 
ATOM      4  N   LIG d   1       4.013  -3.283  -7.884  0.00  0.00    -0.181 NA
ATOM      5  C   LIG d   1       4.464  -4.124  -6.959  0.00  0.00     0.224 A 
ATOM      6  N   LIG d   1       5.201  -3.670  -5.950  0.00  0.00    -0.180 NA
ENDROOT
BRANCH   1   7
ATOM      7  N   LIG d   1       6.270  -1.905  -4.827  0.00  0.00    -0.238 N 
BRANCH   7   8
ATOM      8  C   LIG d   1       5.685  -1.136  -3.815  0.00  0.00     0.042 A 
ATOM      9  C   LIG d   1       5.958   0.222  -3.728  0.00  0.00    -0.040 A 
ATOM     10  C   LIG d   1       5.379   0.979  -2.728  0.00  0.00    -0.060 A 
ATOM     11  H   LIG d   1       6.622   0.688  -4.441  0.00  0.00     0.064 H 
ATOM     12  C   LIG d   1       4.529   0.385  -1.814  0.00  0.00    -0.062 A 
ATOM     13  H   LIG d   1       5.591   2.035  -2.660  0.00  0.00     0.062 H 
ATOM     14  C   LIG d   1       4.254  -0.969  -1.898  0.00  0.00    -0.060 A 
ATOM     15  H   LIG d   1       4.077   0.978  -1.032  0.00  0.00     0.062 H 
ATOM     16  C   LIG d   1       4.825  -1.729  -2.899  0.00  0.00    -0.040 A 
ATOM     17  H   LIG d   1       3.589  -1.429  -1.183  0.00  0.00     0.062 H 
ATOM     18  H   LIG d   1       4.607  -2.785  -2.967  0.00  0.00     0.064 H 
ENDBRANCH   7   8
BRANCH   7  19
ATOM     19  C   LIG d   1       7.638  -2.199  -4.779  0.00  0.00     0.042 A 
ATOM     20  C   LIG d   1       8.522  -1.534  -5.618  0.00  0.00    -0.040 A 
ATOM     21  C   LIG d   1       9.871  -1.825  -5.569  0.00  0.00    -0.060 A 
ATOM     22  H   LIG d   1       8.155  -0.788  -6.308  0.00  0.00     0.064 H 
ATOM     23  C   LIG d   1      10.341  -2.780  -4.686  0.00  0.00    -0.062 A 
ATOM     24  H   LIG d   1      10.559  -1.308  -6.222  0.00  0.00     0.062 H 
ATOM     25  C   LIG d   1       9.464  -3.445  -3.850  0.00  0.00    -0.060 A 
ATOM     26  H   LIG d   1      11.397  -3.007  -4.651  0.00  0.00     0.062 H 
ATOM     27  C   LIG d   1       8.114  -3.154  -3.890  0.00  0.00    -0.040 A 
ATOM     28  H   LIG d   1       9.834  -4.189  -3.161  0.00  0.00     0.062 H 
ATOM     29  H   LIG d   1       7.430  -3.669  -3.233  0.00  0.00     0.064 H 
ENDBRANCH   7  19
ENDBRANCH   1   7
BRANCH   5  30
ATOM     30  N   LIG d   1       4.161  -5.468  -7.041  0.00  0.00    -0.295 NA
ATOM     31  C   LIG d   1       4.217  -5.936  -8.434  0.00  0.00     0.038 C 
ATOM     32  C   LIG d   1       3.817  -7.413  -8.487  0.00  0.00     0.064 C 
ATOM     33  H   LIG d   1       3.527  -5.351  -9.042  0.00  0.00     0.049 H 
ATOM     34  H   LIG d   1       5.230  -5.819  -8.817  0.00  0.00     0.049 H 
ATOM     35  O   LIG d   1       4.677  -8.166  -7.628  0.00  0.00    -0.377 OA
ATOM     36  H   LIG d   1       2.784  -7.523  -8.154  0.00  0.00     0.058 H 
ATOM     37  H   LIG d   1       3.910  -7.779  -9.509  0.00  0.00     0.058 H 
ATOM     38  C   LIG d   1       4.648  -7.737  -6.264  0.00  0.00     0.064 C 
ATOM     39  C   LIG d   1       5.056  -6.263  -6.189  0.00  0.00     0.038 C 
ATOM     40  H   LIG d   1       5.344  -8.338  -5.679  0.00  0.00     0.058 H 
ATOM     41  H   LIG d   1       3.640  -7.856  -5.866  0.00  0.00     0.058 H 
ATOM     42  H   LIG d   1       4.980  -5.917  -5.158  0.00  0.00     0.049 H 
ATOM     43  H   LIG d   1       6.083  -6.151  -6.536  0.00  0.00     0.049 H 
ENDBRANCH   5  30
BRANCH   3  44
ATOM     44  N   LIG d   1       3.837  -1.115  -8.765  0.00  0.00    -0.299 NA
ATOM     45  C   LIG d   1       2.599  -0.441  -8.311  0.00  0.00     0.015 C 
ATOM     46  C   LIG d   1       2.873   0.777  -7.470  0.00  0.00    -0.037 C 
ATOM     47  H   LIG d   1       2.022  -0.141  -9.185  0.00  0.00     0.046 H 
ATOM     48  H   LIG d   1       2.009  -1.146  -7.727  0.00  0.00     0.046 H 
ATOM     49  C   LIG d   1       2.878   2.016  -8.391  0.00  0.00    -0.052 C 
ATOM     50  H   LIG d   1       2.093   0.884  -6.717  0.00  0.00     0.028 H 
ATOM     51  H   LIG d   1       3.842   0.675  -6.983  0.00  0.00     0.028 H 
ATOM     52  C   LIG d   1       4.129   2.147  -9.131  0.00  0.00    -0.052 C 
ATOM     53  H   LIG d   1       2.055   1.933  -9.101  0.00  0.00     0.027 H 
ATOM     54  H   LIG d   1       2.733   2.909  -7.783  0.00  0.00     0.027 H 
ATOM     55  C   LIG d   1       4.389   0.938 -10.054  0.00  0.00    -0.037 C 
ATOM     56  H   LIG d   1       4.089   3.053  -9.737  0.00  0.00     0.027 H 
ATOM     57  H   LIG d   1       4.952   2.232  -8.421  0.00  0.00     0.027 H 
ATOM     58  C   LIG d   1       4.908  -0.199  -9.216  0.00  0.00     0.015 C 
ATOM     59  H   LIG d   1       3.460   0.640 -10.539  0.00  0.00     0.028 H 
ATOM     60  H   LIG d   1       5.131   1.205 -10.807  0.00  0.00     0.028 H 
ATOM     61  H   LIG d   1       5.413   0.210  -8.341  0.00  0.00     0.046 H 
ATOM     62  H   LIG d   1       5.632  -0.766  -9.802  0.00  0.00     0.046 H 
ENDBRANCH   3  44
TORSDOF 5
ENDMDL
MODEL 3
REMARK VINA RESULT:      -7.7      0.819      3.531
REMARK  5 active torsions:
REMARK  status: ('A' for Active; 'I' for Inactive)
REMARK    1  A    between atoms: C_4  and  N_7 
REMARK    2  A    between atoms: N_7  and  C_8 
REMARK    3  A    between atoms: N_7  and  C_14 
REMARK    4  A    between atoms: C_16  and  N_26 
REMARK    5  A    between atoms: C_18  and  N_20 
ROOT
ATOM      1  C   LIG d   1       5.496  -2.324  -5.855  0.00  0.00     0.233 A 
ATOM      2  N   LIG d   1       4.766  -1.438  -6.525  0.00  0.00    -0.180 NA
ATOM      3  C   LIG d   1       4.023  -1.830  -7.555  0.00  0.00     0.224 A 
ATOM      4  N   LIG d   1       4.009  -3.110  -7.915  0.00  0.00    -0.181 NA
ATOM      5  C   LIG d   1       4.739  -3.996  -7.245  0.00  0.00     0.224 A 
ATOM      6  N   LIG d   1       5.477  -3.605  -6.212  0.00  0.00    -0.180 NA
ENDROOT
BRANCH   1   7
ATOM      7  N   LIG d   1       6.269  -1.916  -4.784  0.00  0.00    -0.238 N 
BRANCH   7   8
ATOM      8  C   LIG d   1       5.700  -1.149  -3.761  0.00  0.00     0.042 A 
ATOM      9  C   LIG d   1       4.814  -1.731  -2.866  0.00  0.00    -0.040 A 
ATOM     10  C   LIG d   1       4.254  -0.971  -1.858  0.00  0.00    -0.060 A 
ATOM     11  H   LIG d   1       4.563  -2.778  -2.956  0.00  0.00     0.064 H 
ATOM     12  C   LIG d   1       4.574   0.369  -1.741  0.00  0.00    -0.062 A 
ATOM     13  H   LIG d   1       3.565  -1.424  -1.160  0.00  0.00     0.062 H 
ATOM     14  C   LIG d   1       5.457   0.953  -2.632  0.00  0.00    -0.060 A 
ATOM     15  H   LIG d   1       4.135   0.962  -0.952  0.00  0.00     0.062 H 
ATOM     16  C   LIG d   1       6.025   0.197  -3.638  0.00  0.00    -0.040 A 
ATOM     17  H   LIG d   1       5.705   1.999  -2.537  0.00  0.00     0.062 H 
ATOM     18  H   LIG d   1       6.717   0.652  -4.331  0.00  0.00     0.064 H 
ENDBRANCH   7   8
BRANCH   7  19
ATOM     19  C   LIG d   1       7.622  -2.270  -4.722  0.00  0.00     0.042 A 
ATOM     20  C   LIG d   1       8.053  -3.214  -3.800  0.00  0.00    -0.040 A 
ATOM     21  C   LIG d   1       9.389  -3.561  -3.742  0.00  0.00    -0.060 A 
ATOM     22  H   LIG d   1       7.345  -3.677  -3.129  0.00  0.00     0.064 H 
ATOM     23  C   LIG d   1      10.297  -2.968  -4.601  0.00  0.00    -0.062 A 
ATOM     24  H   LIG d   1       9.725  -4.295  -3.025  0.00  0.00     0.062 H 
ATOM     25  C   LIG d   1       9.871  -2.028  -5.520  0.00  0.00    -0.060 A 
ATOM     26  H   LIG d   1      11.341  -3.241  -4.553  0.00  0.00     0.062 H 
ATOM     27  C   LIG d   1       8.536  -1.680  -5.587  0.00  0.00    -0.040 A 
ATOM     28  H   LIG d   1      10.582  -1.568  -6.190  0.00  0.00     0.062 H 
ATOM     29  H   LIG d   1       8.202  -0.949  -6.309  0.00  0.00     0.064 H 
ENDBRANCH   7  19
ENDBRANCH   1   7
BRANCH   5  30
ATOM     30  N   LIG d   1       4.725  -5.325  -7.618  0.00  0.00    -0.295 NA
ATOM     31  C   LIG d   1       4.611  -6.200  -6.443  0.00  0.00     0.038 C 
ATOM     32  C   LIG d   1       4.661  -7.662  -6.895  0.00  0.00     0.064 C 
ATOM     33  H   LIG d   1       5.438  -6.003  -5.760  0.00  0.00     0.049 H 
ATOM     34  H   LIG d   1       3.666  -6.008  -5.936  0.00  0.00     0.049 H 
ATOM     35  O   LIG d   1       3.621  -7.897  -7.848  0.00  0.00    -0.377 OA
ATOM     36  H   LIG d   1       5.628  -7.869  -7.355  0.00  0.00     0.058 H 
ATOM     37  H   LIG d   1       4.520  -8.315  -6.034  0.00  0.00     0.058 H 
ATOM     38  C   LIG d   1       3.701  -7.061  -9.007  0.00  0.00     0.064 C 
ATOM     39  C   LIG d   1       3.642  -5.593  -8.574  0.00  0.00     0.038 C 
ATOM     40  H   LIG d   1       2.865  -7.279  -9.671  0.00  0.00     0.058 H 
ATOM     41  H   LIG d   1       4.640  -7.250  -9.527  0.00  0.00     0.058 H 
ATOM     42  H   LIG d   1       3.761  -4.952  -9.448  0.00  0.00     0.049 H 
ATOM     43  H   LIG d   1       2.681  -5.391  -8.102  0.00  0.00     0.049 H 
ENDBRANCH   5  30
BRANCH   3  44
ATOM     44  N   LIG d   1       3.266  -0.910  -8.250  0.00  0.00    -0.299 NA
ATOM     45  C   LIG d   1       4.095   0.234  -8.693  0.00  0.00     0.015 C 
ATOM     46  C   LIG d   1       4.805  -0.029  -9.994  0.00  0.00    -0.037 C 
ATOM     47  H   LIG d   1       3.456   1.108  -8.812  0.00  0.00     0.046 H 
ATOM     48  H   LIG d   1       4.839   0.447  -7.925  0.00  0.00     0.046 H 
ATOM     49  C   LIG d   1       3.933   0.518 -11.145  0.00  0.00    -0.052 C 
ATOM     50  H   LIG d   1       5.770   0.477  -9.994  0.00  0.00     0.028 H 
ATOM     51  H   LIG d   1       4.952  -1.101 -10.121  0.00  0.00     0.028 H 
ATOM     52  C   LIG d   1       2.829  -0.377 -11.473  0.00  0.00    -0.052 C 
ATOM     53  H   LIG d   1       3.528   1.487 -10.852  0.00  0.00     0.027 H 
ATOM     54  H   LIG d   1       4.557   0.649 -12.029  0.00  0.00     0.027 H 
ATOM     55  C   LIG d   1       1.870  -0.581 -10.282  0.00  0.00    -0.037 C 
ATOM     56  H   LIG d   1       2.270   0.042 -12.310  0.00  0.00     0.027 H 
ATOM     57  H   LIG d   1       3.235  -1.345 -11.768  0.00  0.00     0.027 H 
ATOM     58  C   LIG d   1       2.494  -1.565  -9.330  0.00  0.00     0.015 C 
ATOM     59  H   LIG d   1       1.711   0.370  -9.773  0.00  0.00     0.028 H 
ATOM     60  H   LIG d   1       0.917  -0.972 -10.641  0.00  0.00     0.028 H 
ATOM     61  H   LIG d   1       3.159  -2.222  -9.889  0.00  0.00     0.046 H 
ATOM     62  H   LIG d   1       1.704  -2.168  -8.881  0.00  0.00     0.046 H 
ENDBRANCH   3  44
TORSDOF 5
ENDMDL
MODEL 4
REMARK VINA RESULT:      -7.5      3.244      5.397
REMARK  5 active torsions:
REMARK  status: ('A' for Active; 'I' for Inactive)
REMARK    1  A    between atoms: C_4  and  N_7 
REMARK    2  A    between atoms: N_7  and  C_8 
REMARK    3  A    between atoms: N_7  and  C_14 
REMARK    4  A    between atoms: C_16  and  N_26 
REMARK    5  A    between atoms: C_18  and  N_20 
ROOT
ATOM      1  C   LIG d   1       5.341  -0.162  -6.672  0.00  0.00     0.233 A 
ATOM      2  N   LIG d   1       4.282  -0.121  -7.474  0.00  0.00    -0.180 NA
ATOM      3  C   LIG d   1       4.326   0.585  -8.600  0.00  0.00     0.224 A 
ATOM      4  N   LIG d   1       5.431   1.250  -8.924  0.00  0.00    -0.181 NA
ATOM      5  C   LIG d   1       6.490   1.209  -8.123  0.00  0.00     0.224 A 
ATOM      6  N   LIG d   1       6.448   0.498  -7.000  0.00  0.00    -0.180 NA
ENDROOT
BRANCH   1   7
ATOM      7  N   LIG d   1       5.295  -0.896  -5.501  0.00  0.00    -0.238 N 
BRANCH   7   8
ATOM      8  C   LIG d   1       5.694  -2.238  -5.500  0.00  0.00     0.042 A 
ATOM      9  C   LIG d   1       4.765  -3.239  -5.750  0.00  0.00    -0.040 A 
ATOM     10  C   LIG d   1       5.162  -4.562  -5.747  0.00  0.00    -0.060 A 
ATOM     11  H   LIG d   1       3.735  -2.984  -5.948  0.00  0.00     0.064 H 
ATOM     12  C   LIG d   1       6.481  -4.890  -5.494  0.00  0.00    -0.062 A 
ATOM     13  H   LIG d   1       4.440  -5.341  -5.942  0.00  0.00     0.062 H 
ATOM     14  C   LIG d   1       7.408  -3.894  -5.244  0.00  0.00    -0.060 A 
ATOM     15  H   LIG d   1       6.789  -5.925  -5.492  0.00  0.00     0.062 H 
ATOM     16  C   LIG d   1       7.020  -2.569  -5.252  0.00  0.00    -0.040 A 
ATOM     17  H   LIG d   1       8.438  -4.154  -5.047  0.00  0.00     0.062 H 
ATOM     18  H   LIG d   1       7.745  -1.792  -5.061  0.00  0.00     0.064 H 
ENDBRANCH   7   8
BRANCH   7  19
ATOM     19  C   LIG d   1       4.850  -0.297  -4.317  0.00  0.00     0.042 A 
ATOM     20  C   LIG d   1       3.525  -0.431  -3.924  0.00  0.00    -0.040 A 
ATOM     21  C   LIG d   1       3.090   0.161  -2.755  0.00  0.00    -0.060 A 
ATOM     22  H   LIG d   1       2.836  -0.999  -4.532  0.00  0.00     0.064 H 
ATOM     23  C   LIG d   1       3.972   0.889  -1.977  0.00  0.00    -0.062 A 
ATOM     24  H   LIG d   1       2.059   0.058  -2.449  0.00  0.00     0.062 H 
ATOM     25  C   LIG d   1       5.292   1.025  -2.365  0.00  0.00    -0.060 A 
ATOM     26  H   LIG d   1       3.628   1.352  -1.063  0.00  0.00     0.062 H 
ATOM     27  C   LIG d   1       5.735   0.430  -3.530  0.00  0.00    -0.040 A 
ATOM     28  H   LIG d   1       5.978   1.592  -1.755  0.00  0.00     0.062 H 
ATOM     29  H   LIG d   1       6.767   0.532  -3.831  0.00  0.00     0.064 H 
ENDBRANCH   7  19
ENDBRANCH   1   7
BRANCH   5  30
ATOM     30  N   LIG d   1       7.637   1.899  -8.458  0.00  0.00    -0.295 NA
ATOM     31  C   LIG d   1       8.561   1.971  -7.317  0.00  0.00     0.038 C 
ATOM     32  C   LIG d   1       9.790   2.795  -7.713  0.00  0.00     0.064 C 
ATOM     33  H   LIG d   1       8.062   2.447  -6.473  0.00  0.00     0.049 H 
ATOM     34  H   LIG d   1       8.872   0.966  -7.036  0.00  0.00     0.049 H 
ATOM     35  O   LIG d   1      10.399   2.209  -8.866  0.00  0.00    -0.377 OA
ATOM     36  H   LIG d   1       9.486   3.817  -7.943  0.00  0.00     0.058 H 
ATOM     37  H   LIG d   1      10.503   2.804  -6.889  0.00  0.00     0.058 H 
ATOM     38  C   LIG d   1       9.527   2.123  -9.998  0.00  0.00     0.064 C 
ATOM     39  C   LIG d   1       8.296   1.293  -9.623  0.00  0.00     0.038 C 
ATOM     40  H   LIG d   1      10.051   1.645 -10.825  0.00  0.00     0.058 H 
ATOM     41  H   LIG d   1       9.215   3.124 -10.293  0.00  0.00     0.058 H 
ATOM     42  H   LIG d   1       7.602   1.273 -10.464  0.00  0.00     0.049 H 
ATOM     43  H   LIG d   1       8.602   0.276  -9.380  0.00  0.00     0.049 H 
ENDBRANCH   5  30
BRANCH   3  44
ATOM     44  N   LIG d   1       3.226   0.628  -9.432  0.00  0.00    -0.299 NA
ATOM     45  C   LIG d   1       3.636   0.785 -10.846  0.00  0.00     0.015 C 
ATOM     46  C   LIG d   1       3.969  -0.526 -11.506  0.00  0.00    -0.037 C 
ATOM     47  H   LIG d   1       2.825   1.260 -11.397  0.00  0.00     0.046 H 
ATOM     48  H   LIG d   1       4.513   1.431 -10.887  0.00  0.00     0.046 H 
ATOM     49  C   LIG d   1       2.705  -1.047 -12.222  0.00  0.00    -0.052 C 
ATOM     50  H   LIG d   1       4.767  -0.377 -12.233  0.00  0.00     0.028 H 
ATOM     51  H   LIG d   1       4.289  -1.245 -10.752  0.00  0.00     0.028 H 
ATOM     52  C   LIG d   1       1.761  -1.662 -11.295  0.00  0.00    -0.052 C 
ATOM     53  H   LIG d   1       2.214  -0.215 -12.725  0.00  0.00     0.027 H 
ATOM     54  H   LIG d   1       3.000  -1.787 -12.967  0.00  0.00     0.027 H 
ATOM     55  C   LIG d   1       1.258  -0.666 -10.229  0.00  0.00    -0.037 C 
ATOM     56  H   LIG d   1       0.907  -2.040 -11.858  0.00  0.00     0.027 H 
ATOM     57  H   LIG d   1       2.251  -2.497 -10.793  0.00  0.00     0.027 H 
ATOM     58  C   LIG d   1       2.322  -0.516  -9.176  0.00  0.00     0.015 C 
ATOM     59  H   LIG d   1       1.065   0.301 -10.694  0.00  0.00     0.028 H 
ATOM     60  H   LIG d   1       0.343  -1.047  -9.774  0.00  0.00     0.028 H 
ATOM     61  H   LIG d   1       2.913  -1.431  -9.140  0.00  0.00     0.046 H 
ATOM     62  H   LIG d   1       1.841  -0.374  -8.208  0.00  0.00     0.046 H 
ENDBRANCH   3  44
TORSDOF 5
ENDMDL
MODEL 5
REMARK VINA RESULT:      -7.4      1.801      5.965
REMARK  5 active torsions:
REMARK  status: ('A' for Active; 'I' for Inactive)
REMARK    1  A    between atoms: C_4  and  N_7 
REMARK    2  A    between atoms: N_7  and  C_8 
REMARK    3  A    between atoms: N_7  and  C_14 
REMARK    4  A    between atoms: C_16  and  N_26 
REMARK    5  A    between atoms: C_18  and  N_20 
ROOT
ATOM      1  C   LIG d   1       5.438  -2.677  -5.653  0.00  0.00     0.233 A 
ATOM      2  N   LIG d   1       5.168  -3.978  -5.636  0.00  0.00    -0.180 NA
ATOM      3  C   LIG d   1       4.393  -4.510  -6.575  0.00  0.00     0.224 A 
ATOM      4  N   LIG d   1       3.887  -3.739  -7.534  0.00  0.00    -0.181 NA
ATOM      5  C   LIG d   1       4.157  -2.438  -7.552  0.00  0.00     0.224 A 
ATOM      6  N   LIG d   1       4.938  -1.907  -6.615  0.00  0.00    -0.180 NA
ENDROOT
BRANCH   1   7
ATOM      7  N   LIG d   1       6.245  -2.124  -4.675  0.00  0.00    -0.238 N 
BRANCH   7   8
ATOM      8  C   LIG d   1       5.695  -1.267  -3.715  0.00  0.00     0.042 A 
ATOM      9  C   LIG d   1       4.811  -1.761  -2.766  0.00  0.00    -0.040 A 
ATOM     10  C   LIG d   1       4.270  -0.911  -1.820  0.00  0.00    -0.060 A 
ATOM     11  H   LIG d   1       4.548  -2.808  -2.764  0.00  0.00     0.064 H 
ATOM     12  C   LIG d   1       4.606   0.429  -1.820  0.00  0.00    -0.062 A 
ATOM     13  H   LIG d   1       3.583  -1.296  -1.081  0.00  0.00     0.062 H 
ATOM     14  C   LIG d   1       5.486   0.925  -2.766  0.00  0.00    -0.060 A 
ATOM     15  H   LIG d   1       4.182   1.092  -1.080  0.00  0.00     0.062 H 
ATOM     16  C   LIG d   1       6.036   0.080  -3.709  0.00  0.00    -0.040 A 
ATOM     17  H   LIG d   1       5.747   1.973  -2.762  0.00  0.00     0.062 H 
ATOM     18  H   LIG d   1       6.726   0.467  -4.445  0.00  0.00     0.064 H 
ENDBRANCH   7   8
BRANCH   7  19
ATOM     19  C   LIG d   1       7.612  -2.423  -4.645  0.00  0.00     0.042 A 
ATOM     20  C   LIG d   1       8.116  -3.282  -3.678  0.00  0.00    -0.040 A 
ATOM     21  C   LIG d   1       9.465  -3.575  -3.651  0.00  0.00    -0.060 A 
ATOM     22  H   LIG d   1       7.453  -3.723  -2.948  0.00  0.00     0.064 H 
ATOM     23  C   LIG d   1      10.315  -3.010  -4.585  0.00  0.00    -0.062 A 
ATOM     24  H   LIG d   1       9.858  -4.243  -2.899  0.00  0.00     0.062 H 
ATOM     25  C   LIG d   1       9.817  -2.153  -5.549  0.00  0.00    -0.060 A 
ATOM     26  H   LIG d   1      11.371  -3.240  -4.561  0.00  0.00     0.062 H 
ATOM     27  C   LIG d   1       8.467  -1.862  -5.585  0.00  0.00    -0.040 A 
ATOM     28  H   LIG d   1      10.483  -1.716  -6.278  0.00  0.00     0.062 H 
ATOM     29  H   LIG d   1       8.077  -1.196  -6.341  0.00  0.00     0.064 H 
ENDBRANCH   7  19
ENDBRANCH   1   7
BRANCH   5  30
ATOM     30  N   LIG d   1       3.633  -1.637  -8.546  0.00  0.00    -0.295 NA
ATOM     31  C   LIG d   1       2.738  -2.406  -9.424  0.00  0.00     0.038 C 
ATOM     32  C   LIG d   1       2.228  -1.497 -10.545  0.00  0.00     0.064 C 
ATOM     33  H   LIG d   1       3.284  -3.245  -9.856  0.00  0.00     0.049 H 
ATOM     34  H   LIG d   1       1.894  -2.779  -8.845  0.00  0.00     0.049 H 
ATOM     35  O   LIG d   1       1.579  -0.359  -9.972  0.00  0.00    -0.377 OA
ATOM     36  H   LIG d   1       3.068  -1.166 -11.157  0.00  0.00     0.058 H 
ATOM     37  H   LIG d   1       1.521  -2.046 -11.166  0.00  0.00     0.058 H 
ATOM     38  C   LIG d   1       2.421   0.413  -9.112  0.00  0.00     0.064 C 
ATOM     39  C   LIG d   1       2.934  -0.478  -7.976  0.00  0.00     0.038 C 
ATOM     40  H   LIG d   1       1.852   1.244  -8.695  0.00  0.00     0.058 H 
ATOM     41  H   LIG d   1       3.267   0.799  -9.680  0.00  0.00     0.058 H 
ATOM     42  H   LIG d   1       3.622   0.091  -7.350  0.00  0.00     0.049 H 
ATOM     43  H   LIG d   1       2.092  -0.820  -7.374  0.00  0.00     0.049 H 
ENDBRANCH   5  30
BRANCH   3  44
ATOM     44  N   LIG d   1       4.112  -5.861  -6.557  0.00  0.00    -0.299 NA
ATOM     45  C   LIG d   1       4.231  -6.446  -7.912  0.00  0.00     0.015 C 
ATOM     46  C   LIG d   1       5.642  -6.838  -8.257  0.00  0.00    -0.037 C 
ATOM     47  H   LIG d   1       3.597  -7.330  -7.970  0.00  0.00     0.046 H 
ATOM     48  H   LIG d   1       3.881  -5.716  -8.642  0.00  0.00     0.046 H 
ATOM     49  C   LIG d   1       5.837  -8.327  -7.900  0.00  0.00    -0.052 C 
ATOM     50  H   LIG d   1       5.813  -6.691  -9.322  0.00  0.00     0.028 H 
ATOM     51  H   LIG d   1       6.342  -6.228  -7.686  0.00  0.00     0.028 H 
ATOM     52  C   LIG d   1       6.045  -8.529  -6.470  0.00  0.00    -0.052 C 
ATOM     53  H   LIG d   1       4.953  -8.884  -8.211  0.00  0.00     0.027 H 
ATOM     54  H   LIG d   1       6.703  -8.710  -8.440  0.00  0.00     0.027 H 
ATOM     55  C   LIG d   1       4.839  -8.052  -5.634  0.00  0.00    -0.037 C 
ATOM     56  H   LIG d   1       6.208  -9.590  -6.283  0.00  0.00     0.027 H 
ATOM     57  H   LIG d   1       6.930  -7.974  -6.160  0.00  0.00     0.027 H 
ATOM     58  C   LIG d   1       4.903  -6.553  -5.515  0.00  0.00     0.015 C 
ATOM     59  H   LIG d   1       3.912  -8.340  -6.129  0.00  0.00     0.028 H 
ATOM     60  H   LIG d   1       4.883  -8.500  -4.640  0.00  0.00     0.028 H 
ATOM     61  H   LIG d   1       5.943  -6.238  -5.596  0.00  0.00     0.046 H 
ATOM     62  H   LIG d   1       4.525  -6.261  -4.535  0.00  0.00     0.046 H 
ENDBRANCH   3  44
TORSDOF 5
ENDMDL
MODEL 6
REMARK VINA RESULT:      -7.4      1.800      5.139
REMARK  5 active torsions:
REMARK  status: ('A' for Active; 'I' for Inactive)
REMARK    1  A    between atoms: C_4  and  N_7 
REMARK    2  A    between atoms: N_7  and  C_8 
REMARK    3  A    between atoms: N_7  and  C_14 
REMARK    4  A    between atoms: C_16  and  N_26 
REMARK    5  A    between atoms: C_18  and  N_20 
ROOT
ATOM      1  C   LIG d   1       5.437  -2.682  -5.658  0.00  0.00     0.233 A 
ATOM      2  N   LIG d   1       5.167  -3.983  -5.641  0.00  0.00    -0.180 NA
ATOM      3  C   LIG d   1       4.391  -4.514  -6.580  0.00  0.00     0.224 A 
ATOM      4  N   LIG d   1       3.885  -3.744  -7.538  0.00  0.00    -0.181 NA
ATOM      5  C   LIG d   1       4.155  -2.442  -7.557  0.00  0.00     0.224 A 
ATOM      6  N   LIG d   1       4.936  -1.912  -6.620  0.00  0.00    -0.180 NA
ENDROOT
BRANCH   1   7
ATOM      7  N   LIG d   1       6.244  -2.129  -4.681  0.00  0.00    -0.238 N 
BRANCH   7   8
ATOM      8  C   LIG d   1       7.612  -2.422  -4.653  0.00  0.00     0.042 A 
ATOM      9  C   LIG d   1       8.468  -1.833  -5.574  0.00  0.00    -0.040 A 
ATOM     10  C   LIG d   1       9.818  -2.126  -5.543  0.00  0.00    -0.060 A 
ATOM     11  H   LIG d   1       8.081  -1.147  -6.311  0.00  0.00     0.064 H 
ATOM     12  C   LIG d   1      10.316  -3.005  -4.600  0.00  0.00    -0.062 A 
ATOM     13  H   LIG d   1      10.485  -1.668  -6.259  0.00  0.00     0.062 H 
ATOM     14  C   LIG d   1       9.464  -3.594  -3.682  0.00  0.00    -0.060 A 
ATOM     15  H   LIG d   1      11.371  -3.232  -4.578  0.00  0.00     0.062 H 
ATOM     16  C   LIG d   1       8.116  -3.301  -3.702  0.00  0.00    -0.040 A 
ATOM     17  H   LIG d   1       9.857  -4.279  -2.945  0.00  0.00     0.062 H 
ATOM     18  H   LIG d   1       7.452  -3.757  -2.982  0.00  0.00     0.064 H 
ENDBRANCH   7   8
BRANCH   7  19
ATOM     19  C   LIG d   1       5.692  -1.275  -3.719  0.00  0.00     0.042 A 
ATOM     20  C   LIG d   1       4.811  -1.773  -2.769  0.00  0.00    -0.040 A 
ATOM     21  C   LIG d   1       4.268  -0.928  -1.821  0.00  0.00    -0.060 A 
ATOM     22  H   LIG d   1       4.550  -2.821  -2.771  0.00  0.00     0.064 H 
ATOM     23  C   LIG d   1       4.601   0.414  -1.818  0.00  0.00    -0.062 A 
ATOM     24  H   LIG d   1       3.582  -1.315  -1.082  0.00  0.00     0.062 H 
ATOM     25  C   LIG d   1       5.478   0.914  -2.763  0.00  0.00    -0.060 A 
ATOM     26  H   LIG d   1       4.175   1.073  -1.076  0.00  0.00     0.062 H 
ATOM     27  C   LIG d   1       6.029   0.073  -3.710  0.00  0.00    -0.040 A 
ATOM     28  H   LIG d   1       5.737   1.962  -2.757  0.00  0.00     0.062 H 
ATOM     29  H   LIG d   1       6.717   0.463  -4.445  0.00  0.00     0.064 H 
ENDBRANCH   7  19
ENDBRANCH   1   7
BRANCH   5  30
ATOM     30  N   LIG d   1       3.631  -1.642  -8.551  0.00  0.00    -0.295 NA
ATOM     31  C   LIG d   1       2.729  -2.408  -9.423  0.00  0.00     0.038 C 
ATOM     32  C   LIG d   1       2.219  -1.500 -10.545  0.00  0.00     0.064 C 
ATOM     33  H   LIG d   1       3.269  -3.251  -9.856  0.00  0.00     0.049 H 
ATOM     34  H   LIG d   1       1.886  -2.777  -8.841  0.00  0.00     0.049 H 
ATOM     35  O   LIG d   1       1.577  -0.358  -9.972  0.00  0.00    -0.377 OA
ATOM     36  H   LIG d   1       3.058  -1.174 -11.161  0.00  0.00     0.058 H 
ATOM     37  H   LIG d   1       1.506  -2.048 -11.162  0.00  0.00     0.058 H 
ATOM     38  C   LIG d   1       2.426   0.412  -9.117  0.00  0.00     0.064 C 
ATOM     39  C   LIG d   1       2.939  -0.478  -7.981  0.00  0.00     0.038 C 
ATOM     40  H   LIG d   1       1.862   1.246  -8.700  0.00  0.00     0.058 H 
ATOM     41  H   LIG d   1       3.271   0.793  -9.690  0.00  0.00     0.058 H 
ATOM     42  H   LIG d   1       3.631   0.090  -7.359  0.00  0.00     0.049 H 
ATOM     43  H   LIG d   1       2.098  -0.815  -7.375  0.00  0.00     0.049 H 
ENDBRANCH   5  30
BRANCH   3  44
ATOM     44  N   LIG d   1       4.109  -5.865  -6.561  0.00  0.00    -0.299 NA
ATOM     45  C   LIG d   1       4.214  -6.448  -7.919  0.00  0.00     0.015 C 
ATOM     46  C   LIG d   1       5.621  -6.839  -8.279  0.00  0.00    -0.037 C 
ATOM     47  H   LIG d   1       3.578  -7.331  -7.972  0.00  0.00     0.046 H 
ATOM     48  H   LIG d   1       3.857  -5.716  -8.643  0.00  0.00     0.046 H 
ATOM     49  C   LIG d   1       5.819  -8.330  -7.927  0.00  0.00    -0.052 C 
ATOM     50  H   LIG d   1       5.781  -6.691  -9.346  0.00  0.00     0.028 H 
ATOM     51  H   LIG d   1       6.327  -6.231  -7.714  0.00  0.00     0.028 H 
ATOM     52  C   LIG d   1       6.042  -8.534  -6.501  0.00  0.00    -0.052 C 
ATOM     53  H   LIG d   1       4.931  -8.885  -8.230  0.00  0.00     0.027 H 
ATOM     54  H   LIG d   1       6.679  -8.711  -8.477  0.00  0.00     0.027 H 
ATOM     55  C   LIG d   1       4.845  -8.058  -5.650  0.00  0.00    -0.037 C 
ATOM     56  H   LIG d   1       6.207  -9.596  -6.316  0.00  0.00     0.027 H 
ATOM     57  H   LIG d   1       6.931  -7.980  -6.199  0.00  0.00     0.027 H 
ATOM     58  C   LIG d   1       4.911  -6.560  -5.530  0.00  0.00     0.015 C 
ATOM     59  H   LIG d   1       3.913  -8.345  -6.136  0.00  0.00     0.028 H 
ATOM     60  H   LIG d   1       4.899  -8.508  -4.658  0.00  0.00     0.028 H 
ATOM     61  H   LIG d   1       5.950  -6.245  -5.620  0.00  0.00     0.046 H 
ATOM     62  H   LIG d   1       4.544  -6.270  -4.545  0.00  0.00     0.046 H 
ENDBRANCH   3  44
TORSDOF 5
ENDMDL
MODEL 7
REMARK VINA RESULT:      -7.3      2.298      6.390
REMARK  5 active torsions:
REMARK  status: ('A' for Active; 'I' for Inactive)
REMARK    1  A    between atoms: C_4  and  N_7 
REMARK    2  A    between atoms: N_7  and  C_8 
REMARK    3  A    between atoms: N_7  and  C_14 
REMARK    4  A    between atoms: C_16  and  N_26 
REMARK    5  A    between atoms: C_18  and  N_20 
ROOT
ATOM      1  C   LIG d   1       4.975  -1.808  -7.420  0.00  0.00     0.233 A 
ATOM      2  N   LIG d   1       4.416  -1.545  -6.243  0.00  0.00    -0.180 NA
ATOM      3  C   LIG d   1       4.977  -1.994  -5.124  0.00  0.00     0.224 A 
ATOM      4  N   LIG d   1       6.098  -2.705  -5.183  0.00  0.00    -0.181 NA
ATOM      5  C   LIG d   1       6.658  -2.968  -6.359  0.00  0.00     0.224 A 
ATOM      6  N   LIG d   1       6.100  -2.514  -7.477  0.00  0.00    -0.180 NA
ENDROOT
BRANCH   1   7
ATOM      7  N   LIG d   1       4.391  -1.342  -8.583  0.00  0.00    -0.238 N 
BRANCH   7   8
ATOM      8  C   LIG d   1       4.233   0.034  -8.785  0.00  0.00     0.042 A 
ATOM      9  C   LIG d   1       2.963   0.593  -8.800  0.00  0.00    -0.040 A 
ATOM     10  C   LIG d   1       2.811   1.952  -9.000  0.00  0.00    -0.060 A 
ATOM     11  H   LIG d   1       2.094  -0.031  -8.654  0.00  0.00     0.064 H 
ATOM     12  C   LIG d   1       3.921   2.753  -9.187  0.00  0.00    -0.062 A 
ATOM     13  H   LIG d   1       1.823   2.388  -9.011  0.00  0.00     0.062 H 
ATOM     14  C   LIG d   1       5.189   2.199  -9.172  0.00  0.00    -0.060 A 
ATOM     15  H   LIG d   1       3.801   3.815  -9.343  0.00  0.00     0.062 H 
ATOM     16  C   LIG d   1       5.348   0.843  -8.967  0.00  0.00    -0.040 A 
ATOM     17  H   LIG d   1       6.054   2.828  -9.318  0.00  0.00     0.062 H 
ATOM     18  H   LIG d   1       6.338   0.411  -8.952  0.00  0.00     0.064 H 
ENDBRANCH   7   8
BRANCH   7  19
ATOM     19  C   LIG d   1       3.957  -2.246  -9.559  0.00  0.00     0.042 A 
ATOM     20  C   LIG d   1       4.545  -2.247 -10.817  0.00  0.00    -0.040 A 
ATOM     21  C   LIG d   1       4.115  -3.142 -11.778  0.00  0.00    -0.060 A 
ATOM     22  H   LIG d   1       5.339  -1.551 -11.044  0.00  0.00     0.064 H 
ATOM     23  C   LIG d   1       3.098  -4.033 -11.489  0.00  0.00    -0.062 A 
ATOM     24  H   LIG d   1       4.571  -3.143 -12.757  0.00  0.00     0.062 H 
ATOM     25  C   LIG d   1       2.511  -4.035 -10.238  0.00  0.00    -0.060 A 
ATOM     26  H   LIG d   1       2.763  -4.731 -12.243  0.00  0.00     0.062 H 
ATOM     27  C   LIG d   1       2.940  -3.147  -9.271  0.00  0.00    -0.040 A 
ATOM     28  H   LIG d   1       1.718  -4.733 -10.015  0.00  0.00     0.062 H 
ATOM     29  H   LIG d   1       2.484  -3.151  -8.292  0.00  0.00     0.064 H 
ENDBRANCH   7  19
ENDBRANCH   1   7
BRANCH   5  30
ATOM     30  N   LIG d   1       7.822  -3.706  -6.421  0.00  0.00    -0.295 NA
ATOM     31  C   LIG d   1       7.833  -4.759  -5.395  0.00  0.00     0.038 C 
ATOM     32  C   LIG d   1       9.164  -5.512  -5.458  0.00  0.00     0.064 C 
ATOM     33  H   LIG d   1       7.718  -4.308  -4.409  0.00  0.00     0.049 H 
ATOM     34  H   LIG d   1       7.013  -5.452  -5.576  0.00  0.00     0.049 H 
ATOM     35  O   LIG d   1       9.347  -6.038  -6.775  0.00  0.00    -0.377 OA
ATOM     36  H   LIG d   1       9.982  -4.830  -5.223  0.00  0.00     0.058 H 
ATOM     37  H   LIG d   1       9.155  -6.330  -4.737  0.00  0.00     0.058 H 
ATOM     38  C   LIG d   1       9.342  -5.040  -7.800  0.00  0.00     0.064 C 
ATOM     39  C   LIG d   1       8.012  -4.282  -7.759  0.00  0.00     0.038 C 
ATOM     40  H   LIG d   1       9.459  -5.517  -8.773  0.00  0.00     0.058 H 
ATOM     41  H   LIG d   1      10.163  -4.343  -7.634  0.00  0.00     0.058 H 
ATOM     42  H   LIG d   1       8.027  -3.483  -8.501  0.00  0.00     0.049 H 
ATOM     43  H   LIG d   1       7.194  -4.968  -7.980  0.00  0.00     0.049 H 
ENDBRANCH   5  30
BRANCH   3  44
ATOM     44  N   LIG d   1       4.395  -1.722  -3.903  0.00  0.00    -0.299 NA
ATOM     45  C   LIG d   1       5.419  -1.354  -2.898  0.00  0.00     0.015 C 
ATOM     46  C   LIG d   1       5.785   0.105  -2.945  0.00  0.00    -0.037 C 
ATOM     47  H   LIG d   1       5.038  -1.588  -1.905  0.00  0.00     0.046 H 
ATOM     48  H   LIG d   1       6.316  -1.947  -3.078  0.00  0.00     0.046 H 
ATOM     49  C   LIG d   1       4.911   0.861  -1.922  0.00  0.00    -0.052 C 
ATOM     50  H   LIG d   1       6.837   0.227  -2.690  0.00  0.00     0.028 H 
ATOM     51  H   LIG d   1       5.603   0.496  -3.946  0.00  0.00     0.028 H 
ATOM     52  C   LIG d   1       3.562   1.102  -2.421  0.00  0.00    -0.052 C 
ATOM     53  H   LIG d   1       4.850   0.274  -1.006  0.00  0.00     0.027 H 
ATOM     54  H   LIG d   1       5.380   1.820  -1.697  0.00  0.00     0.027 H 
ATOM     55  C   LIG d   1       2.811  -0.212  -2.723  0.00  0.00    -0.037 C 
ATOM     56  H   LIG d   1       3.003   1.665  -1.673  0.00  0.00     0.027 H 
ATOM     57  H   LIG d   1       3.622   1.691  -3.335  0.00  0.00     0.027 H 
ATOM     58  C   LIG d   1       3.293  -0.745  -4.045  0.00  0.00     0.015 C 
ATOM     59  H   LIG d   1       3.015  -0.941  -1.939  0.00  0.00     0.028 H 
ATOM     60  H   LIG d   1       1.738  -0.017  -2.776  0.00  0.00     0.028 H 
ATOM     61  H   LIG d   1       3.639   0.090  -4.655  0.00  0.00     0.046 H 
ATOM     62  H   LIG d   1       2.459  -1.227  -4.555  0.00  0.00     0.046 H 
ENDBRANCH   3  44
TORSDOF 5
ENDMDL
MODEL 8
REMARK VINA RESULT:      -7.3      2.300      6.034
REMARK  5 active torsions:
REMARK  status: ('A' for Active; 'I' for Inactive)
REMARK    1  A    between atoms: C_4  and  N_7 
REMARK    2  A    between atoms: N_7  and  C_8 
REMARK    3  A    between atoms: N_7  and  C_14 
REMARK    4  A    between atoms: C_16  and  N_26 
REMARK    5  A    between atoms: C_18  and  N_20 
ROOT
ATOM      1  C   LIG d   1       5.001  -1.815  -7.416  0.00  0.00     0.233 A 
ATOM      2  N   LIG d   1       4.440  -1.558  -6.239  0.00  0.00    -0.180 NA
ATOM      3  C   LIG d   1       5.007  -1.999  -5.121  0.00  0.00     0.224 A 
ATOM      4  N   LIG d   1       6.136  -2.699  -5.179  0.00  0.00    -0.181 NA
ATOM      5  C   LIG d   1       6.698  -2.955  -6.356  0.00  0.00     0.224 A 
ATOM      6  N   LIG d   1       6.135  -2.509  -7.474  0.00  0.00    -0.180 NA
ENDROOT
BRANCH   1   7
ATOM      7  N   LIG d   1       4.412  -1.356  -8.580  0.00  0.00    -0.238 N 
BRANCH   7   8
ATOM      8  C   LIG d   1       3.979  -2.265  -9.552  0.00  0.00     0.042 A 
ATOM      9  C   LIG d   1       4.566  -2.270 -10.810  0.00  0.00    -0.040 A 
ATOM     10  C   LIG d   1       4.136  -3.169 -11.766  0.00  0.00    -0.060 A 
ATOM     11  H   LIG d   1       5.358  -1.574 -11.040  0.00  0.00     0.064 H 
ATOM     12  C   LIG d   1       3.122  -4.061 -11.474  0.00  0.00    -0.062 A 
ATOM     13  H   LIG d   1       4.592  -3.173 -12.745  0.00  0.00     0.062 H 
ATOM     14  C   LIG d   1       2.534  -4.058 -10.221  0.00  0.00    -0.060 A 
ATOM     15  H   LIG d   1       2.786  -4.762 -12.223  0.00  0.00     0.062 H 
ATOM     16  C   LIG d   1       2.964  -3.167  -9.257  0.00  0.00    -0.040 A 
ATOM     17  H   LIG d   1       1.743  -4.757  -9.995  0.00  0.00     0.062 H 
ATOM     18  H   LIG d   1       2.508  -3.168  -8.278  0.00  0.00     0.064 H 
ENDBRANCH   7   8
BRANCH   7  19
ATOM     19  C   LIG d   1       4.248   0.018  -8.785  0.00  0.00     0.042 A 
ATOM     20  C   LIG d   1       2.975   0.574  -8.798  0.00  0.00    -0.040 A 
ATOM     21  C   LIG d   1       2.817   1.931  -9.001  0.00  0.00    -0.060 A 
ATOM     22  H   LIG d   1       2.110  -0.055  -8.648  0.00  0.00     0.064 H 
ATOM     23  C   LIG d   1       3.925   2.736  -9.194  0.00  0.00    -0.062 A 
ATOM     24  H   LIG d   1       1.827   2.363  -9.011  0.00  0.00     0.062 H 
ATOM     25  C   LIG d   1       5.193   2.187  -9.182  0.00  0.00    -0.060 A 
ATOM     26  H   LIG d   1       3.798   3.797  -9.354  0.00  0.00     0.062 H 
ATOM     27  C   LIG d   1       5.359   0.831  -8.974  0.00  0.00    -0.040 A 
ATOM     28  H   LIG d   1       6.056   2.818  -9.331  0.00  0.00     0.062 H 
ATOM     29  H   LIG d   1       6.350   0.403  -8.960  0.00  0.00     0.064 H 
ENDBRANCH   7  19
ENDBRANCH   1   7
BRANCH   5  30
ATOM     30  N   LIG d   1       7.871  -3.680  -6.418  0.00  0.00    -0.295 NA
ATOM     31  C   LIG d   1       7.880  -4.753  -5.412  0.00  0.00     0.038 C 
ATOM     32  C   LIG d   1       9.220  -5.492  -5.474  0.00  0.00     0.064 C 
ATOM     33  H   LIG d   1       7.748  -4.323  -4.419  0.00  0.00     0.049 H 
ATOM     34  H   LIG d   1       7.069  -5.451  -5.618  0.00  0.00     0.049 H 
ATOM     35  O   LIG d   1       9.423  -5.990  -6.799  0.00  0.00    -0.377 OA
ATOM     36  H   LIG d   1      10.027  -4.806  -5.216  0.00  0.00     0.058 H 
ATOM     37  H   LIG d   1       9.210  -6.323  -4.770  0.00  0.00     0.058 H 
ATOM     38  C   LIG d   1       9.420  -4.972  -7.804  0.00  0.00     0.064 C 
ATOM     39  C   LIG d   1       8.082  -4.228  -7.765  0.00  0.00     0.038 C 
ATOM     40  H   LIG d   1       9.555  -5.429  -8.785  0.00  0.00     0.058 H 
ATOM     41  H   LIG d   1      10.232  -4.270  -7.614  0.00  0.00     0.058 H 
ATOM     42  H   LIG d   1       8.098  -3.414  -8.490  0.00  0.00     0.049 H 
ATOM     43  H   LIG d   1       7.275  -4.917  -8.008  0.00  0.00     0.049 H 
ENDBRANCH   5  30
BRANCH   3  44
ATOM     44  N   LIG d   1       4.423  -1.733  -3.899  0.00  0.00    -0.299 NA
ATOM     45  C   LIG d   1       5.443  -1.346  -2.897  0.00  0.00     0.015 C 
ATOM     46  C   LIG d   1       5.786   0.118  -2.949  0.00  0.00    -0.037 C 
ATOM     47  H   LIG d   1       5.067  -1.584  -1.903  0.00  0.00     0.046 H 
ATOM     48  H   LIG d   1       6.348  -1.926  -3.076  0.00  0.00     0.046 H 
ATOM     49  C   LIG d   1       4.902   0.863  -1.926  0.00  0.00    -0.052 C 
ATOM     50  H   LIG d   1       6.836   0.257  -2.695  0.00  0.00     0.028 H 
ATOM     51  H   LIG d   1       5.596   0.503  -3.950  0.00  0.00     0.028 H 
ATOM     52  C   LIG d   1       3.548   1.081  -2.423  0.00  0.00    -0.052 C 
ATOM     53  H   LIG d   1       4.851   0.278  -1.009  0.00  0.00     0.027 H 
ATOM     54  H   LIG d   1       5.355   1.829  -1.705  0.00  0.00     0.027 H 
ATOM     55  C   LIG d   1       2.817  -0.245  -2.721  0.00  0.00    -0.037 C 
ATOM     56  H   LIG d   1       2.981   1.637  -1.676  0.00  0.00     0.027 H 
ATOM     57  H   LIG d   1       3.598   1.669  -3.340  0.00  0.00     0.027 H 
ATOM     58  C   LIG d   1       3.306  -0.774  -4.042  0.00  0.00     0.015 C 
ATOM     59  H   LIG d   1       3.034  -0.968  -1.935  0.00  0.00     0.028 H 
ATOM     60  H   LIG d   1       1.742  -0.067  -2.773  0.00  0.00     0.028 H 
ATOM     61  H   LIG d   1       3.637   0.064  -4.655  0.00  0.00     0.046 H 
ATOM     62  H   LIG d   1       2.479  -1.271  -4.550  0.00  0.00     0.046 H 
ENDBRANCH   3  44
TORSDOF 5
ENDMDL
MODEL 9
REMARK VINA RESULT:      -7.3      3.089      5.828
REMARK  5 active torsions:
REMARK  status: ('A' for Active; 'I' for Inactive)
REMARK    1  A    between atoms: C_4  and  N_7 
REMARK    2  A    between atoms: N_7  and  C_8 
REMARK    3  A    between atoms: N_7  and  C_14 
REMARK    4  A    between atoms: C_16  and  N_26 
REMARK    5  A    between atoms: C_18  and  N_20 
ROOT
ATOM      1  C   LIG d   1       6.956  -1.217  -5.933  0.00  0.00     0.233 A 
ATOM      2  N   LIG d   1       5.990  -1.112  -6.841  0.00  0.00    -0.180 NA
ATOM      3  C   LIG d   1       6.186  -0.393  -7.941  0.00  0.00     0.224 A 
ATOM      4  N   LIG d   1       7.349   0.224  -8.134  0.00  0.00    -0.181 NA
ATOM      5  C   LIG d   1       8.314   0.119  -7.227  0.00  0.00     0.224 A 
ATOM      6  N   LIG d   1       8.121  -0.606  -6.129  0.00  0.00    -0.180 NA
ENDROOT
BRANCH   1   7
ATOM      7  N   LIG d   1       6.752  -1.965  -4.789  0.00  0.00    -0.238 N 
BRANCH   7   8
ATOM      8  C   LIG d   1       5.852  -1.522  -3.813  0.00  0.00     0.042 A 
ATOM      9  C   LIG d   1       4.798  -2.335  -3.418  0.00  0.00    -0.040 A 
ATOM     10  C   LIG d   1       3.912  -1.894  -2.454  0.00  0.00    -0.060 A 
ATOM     11  H   LIG d   1       4.672  -3.311  -3.862  0.00  0.00     0.064 H 
ATOM     12  C   LIG d   1       4.073  -0.645  -1.884  0.00  0.00    -0.062 A 
ATOM     13  H   LIG d   1       3.092  -2.526  -2.147  0.00  0.00     0.062 H 
ATOM     14  C   LIG d   1       5.123   0.167  -2.276  0.00  0.00    -0.060 A 
ATOM     15  H   LIG d   1       3.379  -0.302  -1.131  0.00  0.00     0.062 H 
ATOM     16  C   LIG d   1       6.016  -0.270  -3.234  0.00  0.00    -0.040 A 
ATOM     17  H   LIG d   1       5.246   1.142  -1.828  0.00  0.00     0.062 H 
ATOM     18  H   LIG d   1       6.837   0.363  -3.536  0.00  0.00     0.064 H 
ENDBRANCH   7   8
BRANCH   7  19
ATOM     19  C   LIG d   1       7.446  -3.167  -4.607  0.00  0.00     0.042 A 
ATOM     20  C   LIG d   1       7.156  -4.266  -5.405  0.00  0.00    -0.040 A 
ATOM     21  C   LIG d   1       7.843  -5.450  -5.222  0.00  0.00    -0.060 A 
ATOM     22  H   LIG d   1       6.396  -4.195  -6.168  0.00  0.00     0.064 H 
ATOM     23  C   LIG d   1       8.817  -5.543  -4.244  0.00  0.00    -0.062 A 
ATOM     24  H   LIG d   1       7.619  -6.306  -5.842  0.00  0.00     0.062 H 
ATOM     25  C   LIG d   1       9.107  -4.451  -3.447  0.00  0.00    -0.060 A 
ATOM     26  H   LIG d   1       9.352  -6.471  -4.103  0.00  0.00     0.062 H 
ATOM     27  C   LIG d   1       8.428  -3.262  -3.629  0.00  0.00    -0.040 A 
ATOM     28  H   LIG d   1       9.868  -4.526  -2.686  0.00  0.00     0.062 H 
ATOM     29  H   LIG d   1       8.658  -2.408  -3.010  0.00  0.00     0.064 H 
ENDBRANCH   7  19
ENDBRANCH   1   7
BRANCH   5  30
ATOM     30  N   LIG d   1       9.521   0.757  -7.426  0.00  0.00    -0.295 NA
ATOM     31  C   LIG d   1      10.191   1.030  -6.146  0.00  0.00     0.038 C 
ATOM     32  C   LIG d   1      11.493   1.791  -6.409  0.00  0.00     0.064 C 
ATOM     33  H   LIG d   1       9.538   1.634  -5.515  0.00  0.00     0.049 H 
ATOM     34  H   LIG d   1      10.414   0.089  -5.644  0.00  0.00     0.049 H 
ATOM     35  O   LIG d   1      12.314   1.029  -7.297  0.00  0.00    -0.377 OA
ATOM     36  H   LIG d   1      11.266   2.757  -6.862  0.00  0.00     0.058 H 
ATOM     37  H   LIG d   1      12.020   1.947  -5.468  0.00  0.00     0.058 H 
ATOM     38  C   LIG d   1      11.694   0.745  -8.555  0.00  0.00     0.064 C 
ATOM     39  C   LIG d   1      10.393  -0.026  -8.312  0.00  0.00     0.038 C 
ATOM     40  H   LIG d   1      12.366   0.143  -9.164  0.00  0.00     0.058 H 
ATOM     41  H   LIG d   1      11.472   1.679  -9.070  0.00  0.00     0.058 H 
ATOM     42  H   LIG d   1       9.888  -0.194  -9.264  0.00  0.00     0.049 H 
ATOM     43  H   LIG d   1      10.619  -0.985  -7.846  0.00  0.00     0.049 H 
ENDBRANCH   5  30
BRANCH   3  44
ATOM     44  N   LIG d   1       5.184  -0.284  -8.883  0.00  0.00    -0.299 NA
ATOM     45  C   LIG d   1       3.852  -0.229  -8.237  0.00  0.00     0.015 C 
ATOM     46  C   LIG d   1       3.471   1.161  -7.805  0.00  0.00    -0.037 C 
ATOM     47  H   LIG d   1       3.105  -0.595  -8.940  0.00  0.00     0.046 H 
ATOM     48  H   LIG d   1       3.860  -0.879  -7.363  0.00  0.00     0.046 H 
ATOM     49  C   LIG d   1       2.642   1.814  -8.932  0.00  0.00    -0.052 C 
ATOM     50  H   LIG d   1       2.875   1.111  -6.894  0.00  0.00     0.028 H 
ATOM     51  H   LIG d   1       4.371   1.748  -7.622  0.00  0.00     0.028 H 
ATOM     52  C   LIG d   1       3.480   2.297 -10.023  0.00  0.00    -0.052 C 
ATOM     53  H   LIG d   1       1.939   1.079  -9.324  0.00  0.00     0.027 H 
ATOM     54  H   LIG d   1       2.082   2.653  -8.518  0.00  0.00     0.027 H 
ATOM     55  C   LIG d   1       4.276   1.158 -10.694  0.00  0.00    -0.037 C 
ATOM     56  H   LIG d   1       2.847   2.775 -10.771  0.00  0.00     0.027 H 
ATOM     57  H   LIG d   1       4.181   3.033  -9.631  0.00  0.00     0.027 H 
ATOM     58  C   LIG d   1       5.458   0.825  -9.825  0.00  0.00     0.015 C 
ATOM     59  H   LIG d   1       3.640   0.279 -10.800  0.00  0.00     0.028 H 
ATOM     60  H   LIG d   1       4.624   1.483 -11.676  0.00  0.00     0.028 H 
ATOM     61  H   LIG d   1       5.736   1.711  -9.254  0.00  0.00     0.046 H 
ATOM     62  H   LIG d   1       6.296   0.545 -10.463  0.00  0.00     0.046 H 
ENDBRANCH   3  44
TORSDOF 5
ENDMDL
MODEL 10
REMARK VINA RESULT:      -7.3      4.245      8.260
REMARK  5 active torsions:
REMARK  status: ('A' for Active; 'I' for Inactive)
REMARK    1  A    between atoms: C_4  and  N_7 
REMARK    2  A    between atoms: N_7  and  C_8 
REMARK    3  A    between atoms: N_7  and  C_14 
REMARK    4  A    between atoms: C_16  and  N_26 
REMARK    5  A    between atoms: C_18  and  N_20 
ROOT
ATOM      1  C   LIG d   1       6.831   0.701  -6.892  0.00  0.00     0.233 A 
ATOM      2  N   LIG d   1       6.323   0.170  -5.785  0.00  0.00    -0.180 NA
ATOM      3  C   LIG d   1       6.831   0.490  -4.599  0.00  0.00     0.224 A 
ATOM      4  N   LIG d   1       7.848   1.343  -4.521  0.00  0.00    -0.181 NA
ATOM      5  C   LIG d   1       8.356   1.875  -5.628  0.00  0.00     0.224 A 
ATOM      6  N   LIG d   1       7.844   1.559  -6.813  0.00  0.00    -0.180 NA
ENDROOT
BRANCH   1   7
ATOM      7  N   LIG d   1       6.303   0.368  -8.126  0.00  0.00    -0.238 N 
BRANCH   7   8
ATOM      8  C   LIG d   1       5.057   0.873  -8.514  0.00  0.00     0.042 A 
ATOM      9  C   LIG d   1       3.909   0.116  -8.321  0.00  0.00    -0.040 A 
ATOM     10  C   LIG d   1       2.681   0.618  -8.706  0.00  0.00    -0.060 A 
ATOM     11  H   LIG d   1       3.975  -0.862  -7.870  0.00  0.00     0.064 H 
ATOM     12  C   LIG d   1       2.594   1.871  -9.283  0.00  0.00    -0.062 A 
ATOM     13  H   LIG d   1       1.787   0.030  -8.556  0.00  0.00     0.062 H 
ATOM     14  C   LIG d   1       3.736   2.627  -9.477  0.00  0.00    -0.060 A 
ATOM     15  H   LIG d   1       1.633   2.261  -9.583  0.00  0.00     0.062 H 
ATOM     16  C   LIG d   1       4.966   2.135  -9.089  0.00  0.00    -0.040 A 
ATOM     17  H   LIG d   1       3.664   3.606  -9.927  0.00  0.00     0.062 H 
ATOM     18  H   LIG d   1       5.857   2.727  -9.236  0.00  0.00     0.064 H 
ENDBRANCH   7   8
BRANCH   7  19
ATOM     19  C   LIG d   1       7.014  -0.476  -8.987  0.00  0.00     0.042 A 
ATOM     20  C   LIG d   1       7.617   0.041 -10.127  0.00  0.00    -0.040 A 
ATOM     21  C   LIG d   1       8.318  -0.794 -10.974  0.00  0.00    -0.060 A 
ATOM     22  H   LIG d   1       7.538   1.094 -10.350  0.00  0.00     0.064 H 
ATOM     23  C   LIG d   1       8.419  -2.144 -10.690  0.00  0.00    -0.062 A 
ATOM     24  H   LIG d   1       8.787  -0.394 -11.861  0.00  0.00     0.062 H 
ATOM     25  C   LIG d   1       7.820  -2.662  -9.556  0.00  0.00    -0.060 A 
ATOM     26  H   LIG d   1       8.968  -2.795 -11.355  0.00  0.00     0.062 H 
ATOM     27  C   LIG d   1       7.122  -1.831  -8.702  0.00  0.00    -0.040 A 
ATOM     28  H   LIG d   1       7.902  -3.715  -9.336  0.00  0.00     0.062 H 
ATOM     29  H   LIG d   1       6.658  -2.234  -7.814  0.00  0.00     0.064 H 
ENDBRANCH   7  19
ENDBRANCH   1   7
BRANCH   5  30
ATOM     30  N   LIG d   1       9.411   2.761  -5.547  0.00  0.00    -0.295 NA
ATOM     31  C   LIG d   1       9.604   3.467  -6.822  0.00  0.00     0.038 C 
ATOM     32  C   LIG d   1      10.819   4.392  -6.708  0.00  0.00     0.064 C 
ATOM     33  H   LIG d   1       9.773   2.743  -7.619  0.00  0.00     0.049 H 
ATOM     34  H   LIG d   1       8.717   4.058  -7.048  0.00  0.00     0.049 H 
ATOM     35  O   LIG d   1      10.626   5.292  -5.614  0.00  0.00    -0.377 OA
ATOM     36  H   LIG d   1      11.716   3.797  -6.535  0.00  0.00     0.058 H 
ATOM     37  H   LIG d   1      10.932   4.960  -7.632  0.00  0.00     0.058 H 
ATOM     38  C   LIG d   1      10.435   4.638  -4.356  0.00  0.00     0.064 C 
ATOM     39  C   LIG d   1       9.216   3.715  -4.447  0.00  0.00     0.038 C 
ATOM     40  H   LIG d   1      10.270   5.384  -3.579  0.00  0.00     0.058 H 
ATOM     41  H   LIG d   1      11.320   4.049  -4.114  0.00  0.00     0.058 H 
ATOM     42  H   LIG d   1       9.102   3.171  -3.509  0.00  0.00     0.049 H 
ATOM     43  H   LIG d   1       8.323   4.309  -4.635  0.00  0.00     0.049 H 
ENDBRANCH   5  30
BRANCH   3  44
ATOM     44  N   LIG d   1       6.304  -0.062  -3.450  0.00  0.00    -0.299 NA
ATOM     45  C   LIG d   1       5.497   0.931  -2.706  0.00  0.00     0.015 C 
ATOM     46  C   LIG d   1       4.079   1.020  -3.203  0.00  0.00    -0.037 C 
ATOM     47  H   LIG d   1       5.483   0.655  -1.652  0.00  0.00     0.046 H 
ATOM     48  H   LIG d   1       5.965   1.910  -2.805  0.00  0.00     0.046 H 
ATOM     49  C   LIG d   1       3.201   0.080  -2.348  0.00  0.00    -0.052 C 
ATOM     50  H   LIG d   1       3.721   2.044  -3.106  0.00  0.00     0.028 H 
ATOM     51  H   LIG d   1       4.037   0.714  -4.248  0.00  0.00     0.028 H 
ATOM     52  C   LIG d   1       3.338  -1.316  -2.747  0.00  0.00    -0.052 C 
ATOM     53  H   LIG d   1       3.492   0.179  -1.302  0.00  0.00     0.027 H 
ATOM     54  H   LIG d   1       2.158   0.377  -2.455  0.00  0.00     0.027 H 
ATOM     55  C   LIG d   1       4.785  -1.829  -2.584  0.00  0.00    -0.037 C 
ATOM     56  H   LIG d   1       2.675  -1.926  -2.134  0.00  0.00     0.027 H 
ATOM     57  H   LIG d   1       3.046  -1.415  -3.793  0.00  0.00     0.027 H 
ATOM     58  C   LIG d   1       5.602  -1.331  -3.745  0.00  0.00     0.015 C 
ATOM     59  H   LIG d   1       5.204  -1.451  -1.652  0.00  0.00     0.028 H 
ATOM     60  H   LIG d   1       4.787  -2.920  -2.575  0.00  0.00     0.028 H 
ATOM     61  H   LIG d   1       4.943  -1.179  -4.599  0.00  0.00     0.046 H 
ATOM     62  H   LIG d   1       6.341  -2.089  -4.005  0.00  0.00     0.046 H 
ENDBRANCH   3  44
TORSDOF 5
ENDMDL
