MODEL 1
REMARK VINA RESULT:      -6.6      0.000      0.000
REMARK  7 active torsions:
REMARK  status: ('A' for Active; 'I' for Inactive)
REMARK    1  A    between atoms: C_1  and  C_2 
REMARK    2  A    between atoms: C_4  and  O_23 
REMARK    3  A    between atoms: C_5  and  C_20 
REMARK    4  A    between atoms: C_11  and  C_12 
REMARK    5  A    between atoms: C_20  and  N_42 
REMARK    6  A    between atoms: C_21  and  N_42 
REMARK    7  A    between atoms: C_22  and  N_42 
ROOT
ATOM      1  C   LIG d   1       5.233  -1.327  -3.019  0.00  0.00    -0.033 A 
ATOM      2  C   LIG d   1       6.526  -1.755  -2.905  0.00  0.00    -0.016 A 
ATOM      3  C   LIG d   1       7.359  -1.765  -4.020  0.00  0.00     0.129 A 
ATOM      4  C   LIG d   1       6.890  -1.341  -5.254  0.00  0.00     0.081 A 
ATOM      5  C   LIG d   1       5.580  -0.903  -5.386  0.00  0.00     0.151 A 
ATOM      6  C   LIG d   1       4.748  -0.898  -4.254  0.00  0.00     0.071 A 
ATOM      7  C   LIG d   1       3.439  -0.389  -4.702  0.00  0.00     0.232 A 
ATOM      8  O   LIG d   1       2.433  -0.227  -4.033  0.00  0.00    -0.283 OA
ATOM      9  C   LIG d   1       3.617  -0.128  -6.138  0.00  0.00     0.176 A 
ATOM     10  C   LIG d   1       2.674   0.350  -6.989  0.00  0.00    -0.006 C 
ATOM     11  O   LIG d   1       4.894  -0.448  -6.457  0.00  0.00    -0.451 OA
ATOM     12  H   LIG d   1       6.901  -2.087  -1.949  0.00  0.00     0.066 H 
ATOM     13  H   LIG d   1       1.661   0.496  -6.645  0.00  0.00     0.066 H 
ENDROOT
BRANCH   4  14
ATOM     14  C   LIG d   1       7.805  -1.355  -6.452  0.00  0.00     0.001 C 
ATOM     15  H   LIG d   1       8.287  -2.329  -6.529  0.00  0.00     0.087 H 
ATOM     16  H   LIG d   1       7.223  -1.165  -7.354  0.00  0.00     0.087 H 
BRANCH  14  17
ATOM     17  N   LIG d   1       8.841  -0.317  -6.274  0.00  0.00     0.234 N 
ATOM     18  H   LIG d   1       8.985  -0.157  -5.270  0.00  0.00     0.203 HD
BRANCH  17  19
ATOM     19  C   LIG d   1      10.115  -0.765  -6.876  0.00  0.00    -0.043 C 
ATOM     20  H   LIG d   1      10.105  -1.843  -7.031  0.00  0.00     0.078 H 
ATOM     21  H   LIG d   1      10.252  -0.259  -7.831  0.00  0.00     0.078 H 
ATOM     22  H   LIG d   1      10.934  -0.502  -6.205  0.00  0.00     0.078 H 
ENDBRANCH  17  19
BRANCH  17  23
ATOM     23  C   LIG d   1       8.403   0.947  -6.903  0.00  0.00    -0.043 C 
ATOM     24  H   LIG d   1       7.335   1.077  -6.727  0.00  0.00     0.078 H 
ATOM     25  H   LIG d   1       8.949   1.775  -6.453  0.00  0.00     0.078 H 
ATOM     26  H   LIG d   1       8.594   0.926  -7.976  0.00  0.00     0.078 H 
ENDBRANCH  17  23
ENDBRANCH  14  17
ENDBRANCH   4  14
BRANCH   3  27
ATOM     27  O   LIG d   1       8.641  -2.192  -3.898  0.00  0.00    -0.506 OA
ATOM     28  H   LIG d   1       8.854  -2.552  -3.025  0.00  0.00     0.292 HD
ENDBRANCH   3  27
BRANCH   1  29
ATOM     29  C   LIG d   1       4.332  -1.319  -1.810  0.00  0.00    -0.039 C 
ATOM     30  H   LIG d   1       4.834  -0.814  -0.985  0.00  0.00     0.028 H 
ATOM     31  H   LIG d   1       3.408  -0.793  -2.050  0.00  0.00     0.028 H 
ATOM     32  H   LIG d   1       4.101  -2.345  -1.522  0.00  0.00     0.028 H 
ENDBRANCH   1  29
BRANCH  10  33
ATOM     33  C   LIG d   1       3.031   0.666  -8.379  0.00  0.00     0.014 A 
ATOM     34  C   LIG d   1       2.982  -0.331  -9.363  0.00  0.00     0.131 A 
ATOM     35  C   LIG d   1       3.316  -0.022 -10.669  0.00  0.00    -0.026 A 
ATOM     36  F   LIG d   1       2.607  -1.587  -9.038  0.00  0.00    -0.205 F 
ATOM     37  C   LIG d   1       3.704   1.264 -11.000  0.00  0.00    -0.059 A 
ATOM     38  H   LIG d   1       3.277  -0.787 -11.429  0.00  0.00     0.065 H 
ATOM     39  C   LIG d   1       3.758   2.252 -10.032  0.00  0.00    -0.061 A 
ATOM     40  H   LIG d   1       3.967   1.497 -12.022  0.00  0.00     0.062 H 
ATOM     41  C   LIG d   1       3.425   1.963  -8.727  0.00  0.00    -0.052 A 
ATOM     42  H   LIG d   1       4.063   3.252 -10.301  0.00  0.00     0.062 H 
ATOM     43  H   LIG d   1       3.469   2.737  -7.973  0.00  0.00     0.062 H 
ENDBRANCH  10  33
TORSDOF 7
ENDMDL
MODEL 2
REMARK VINA RESULT:      -6.5      2.461      5.616
REMARK  7 active torsions:
REMARK  status: ('A' for Active; 'I' for Inactive)
REMARK    1  A    between atoms: C_1  and  C_2 
REMARK    2  A    between atoms: C_4  and  O_23 
REMARK    3  A    between atoms: C_5  and  C_20 
REMARK    4  A    between atoms: C_11  and  C_12 
REMARK    5  A    between atoms: C_20  and  N_42 
REMARK    6  A    between atoms: C_21  and  N_42 
REMARK    7  A    between atoms: C_22  and  N_42 
ROOT
ATOM      1  C   LIG d   1       4.658   0.159 -10.057  0.00  0.00    -0.033 A 
ATOM      2  C   LIG d   1       5.951   0.264 -10.486  0.00  0.00    -0.016 A 
ATOM      3  C   LIG d   1       6.991   0.319  -9.561  0.00  0.00     0.129 A 
ATOM      4  C   LIG d   1       6.728   0.268  -8.201  0.00  0.00     0.081 A 
ATOM      5  C   LIG d   1       5.419   0.160  -7.750  0.00  0.00     0.151 A 
ATOM      6  C   LIG d   1       4.379   0.106  -8.692  0.00  0.00     0.071 A 
ATOM      7  C   LIG d   1       3.127  -0.005  -7.922  0.00  0.00     0.232 A 
ATOM      8  O   LIG d   1       1.989  -0.078  -8.354  0.00  0.00    -0.283 OA
ATOM      9  C   LIG d   1       3.557  -0.001  -6.515  0.00  0.00     0.176 A 
ATOM     10  C   LIG d   1       2.747  -0.079  -5.429  0.00  0.00    -0.006 C 
ATOM     11  O   LIG d   1       4.908   0.092  -6.502  0.00  0.00    -0.451 OA
ATOM     12  H   LIG d   1       6.167   0.305 -11.542  0.00  0.00     0.066 H 
ATOM     13  H   LIG d   1       1.675  -0.070  -5.553  0.00  0.00     0.066 H 
ENDROOT
BRANCH   4  14
ATOM     14  C   LIG d   1       7.864   0.326  -7.213  0.00  0.00     0.001 C 
ATOM     15  H   LIG d   1       7.785  -0.510  -6.518  0.00  0.00     0.087 H 
ATOM     16  H   LIG d   1       8.813   0.267  -7.746  0.00  0.00     0.087 H 
BRANCH  14  17
ATOM     17  N   LIG d   1       7.773   1.592  -6.455  0.00  0.00     0.234 N 
ATOM     18  H   LIG d   1       6.865   2.032  -6.648  0.00  0.00     0.203 HD
BRANCH  17  19
ATOM     19  C   LIG d   1       7.879   1.324  -5.006  0.00  0.00    -0.043 C 
ATOM     20  H   LIG d   1       8.922   1.207  -4.714  0.00  0.00     0.078 H 
ATOM     21  H   LIG d   1       7.437   2.156  -4.457  0.00  0.00     0.078 H 
ATOM     22  H   LIG d   1       7.333   0.407  -4.776  0.00  0.00     0.078 H 
ENDBRANCH  17  19
BRANCH  17  23
ATOM     23  C   LIG d   1       8.851   2.512  -6.878  0.00  0.00    -0.043 C 
ATOM     24  H   LIG d   1       9.797   2.158  -6.468  0.00  0.00     0.078 H 
ATOM     25  H   LIG d   1       8.905   2.516  -7.966  0.00  0.00     0.078 H 
ATOM     26  H   LIG d   1       8.654   3.522  -6.520  0.00  0.00     0.078 H 
ENDBRANCH  17  23
ENDBRANCH  14  17
ENDBRANCH   4  14
BRANCH   3  27
ATOM     27  O   LIG d   1       8.272   0.425  -9.996  0.00  0.00    -0.506 OA
ATOM     28  H   LIG d   1       8.605  -0.371 -10.434  0.00  0.00     0.292 HD
ENDBRANCH   3  27
BRANCH   1  29
ATOM     29  C   LIG d   1       3.533   0.101 -11.060  0.00  0.00    -0.039 C 
ATOM     30  H   LIG d   1       3.248  -0.937 -11.226  0.00  0.00     0.028 H 
ATOM     31  H   LIG d   1       2.677   0.657 -10.678  0.00  0.00     0.028 H 
ATOM     32  H   LIG d   1       3.863   0.542 -12.001  0.00  0.00     0.028 H 
ENDBRANCH   1  29
BRANCH  10  33
ATOM     33  C   LIG d   1       3.330  -0.176  -4.084  0.00  0.00     0.014 A 
ATOM     34  C   LIG d   1       3.503   0.977  -3.307  0.00  0.00     0.131 A 
ATOM     35  C   LIG d   1       4.049   0.875  -2.040  0.00  0.00    -0.026 A 
ATOM     36  F   LIG d   1       3.134   2.183  -3.790  0.00  0.00    -0.205 F 
ATOM     37  C   LIG d   1       4.430  -0.359  -1.546  0.00  0.00    -0.059 A 
ATOM     38  H   LIG d   1       4.181   1.762  -1.438  0.00  0.00     0.065 H 
ATOM     39  C   LIG d   1       4.267  -1.502  -2.312  0.00  0.00    -0.061 A 
ATOM     40  H   LIG d   1       4.860  -0.431  -0.558  0.00  0.00     0.062 H 
ATOM     41  C   LIG d   1       3.721  -1.419  -3.574  0.00  0.00    -0.052 A 
ATOM     42  H   LIG d   1       4.568  -2.461  -1.917  0.00  0.00     0.062 H 
ATOM     43  H   LIG d   1       3.595  -2.313  -4.168  0.00  0.00     0.062 H 
ENDBRANCH  10  33
TORSDOF 7
ENDMDL
MODEL 3
REMARK VINA RESULT:      -6.5      2.948      6.268
REMARK  7 active torsions:
REMARK  status: ('A' for Active; 'I' for Inactive)
REMARK    1  A    between atoms: C_1  and  C_2 
REMARK    2  A    between atoms: C_4  and  O_23 
REMARK    3  A    between atoms: C_5  and  C_20 
REMARK    4  A    between atoms: C_11  and  C_12 
REMARK    5  A    between atoms: C_20  and  N_42 
REMARK    6  A    between atoms: C_21  and  N_42 
REMARK    7  A    between atoms: C_22  and  N_42 
ROOT
ATOM      1  C   LIG d   1       9.489   2.798  -6.578  0.00  0.00    -0.033 A 
ATOM      2  C   LIG d   1       9.370   2.734  -7.938  0.00  0.00    -0.016 A 
ATOM      3  C   LIG d   1       8.331   2.009  -8.515  0.00  0.00     0.129 A 
ATOM      4  C   LIG d   1       7.408   1.347  -7.721  0.00  0.00     0.081 A 
ATOM      5  C   LIG d   1       7.514   1.403  -6.338  0.00  0.00     0.151 A 
ATOM      6  C   LIG d   1       8.567   2.137  -5.767  0.00  0.00     0.071 A 
ATOM      7  C   LIG d   1       8.417   2.011  -4.306  0.00  0.00     0.232 A 
ATOM      8  O   LIG d   1       9.124   2.497  -3.439  0.00  0.00    -0.283 OA
ATOM      9  C   LIG d   1       7.229   1.163  -4.128  0.00  0.00     0.176 A 
ATOM     10  C   LIG d   1       6.698   0.764  -2.945  0.00  0.00    -0.006 C 
ATOM     11  O   LIG d   1       6.758   0.857  -5.361  0.00  0.00    -0.451 OA
ATOM     12  H   LIG d   1      10.084   3.245  -8.566  0.00  0.00     0.066 H 
ATOM     13  H   LIG d   1       7.201   1.002  -2.020  0.00  0.00     0.066 H 
ENDROOT
BRANCH   4  14
ATOM     14  C   LIG d   1       6.287   0.568  -8.359  0.00  0.00     0.001 C 
ATOM     15  H   LIG d   1       6.444   0.521  -9.437  0.00  0.00     0.087 H 
ATOM     16  H   LIG d   1       6.269  -0.443  -7.951  0.00  0.00     0.087 H 
BRANCH  14  17
ATOM     17  N   LIG d   1       5.009   1.259  -8.088  0.00  0.00     0.234 N 
ATOM     18  H   LIG d   1       5.116   1.841  -7.249  0.00  0.00     0.203 HD
BRANCH  17  19
ATOM     19  C   LIG d   1       4.650   2.126  -9.230  0.00  0.00    -0.043 C 
ATOM     20  H   LIG d   1       5.538   2.610  -9.637  0.00  0.00     0.078 H 
ATOM     21  H   LIG d   1       4.180   1.518 -10.003  0.00  0.00     0.078 H 
ATOM     22  H   LIG d   1       3.947   2.887  -8.888  0.00  0.00     0.078 H 
ENDBRANCH  17  19
BRANCH  17  23
ATOM     23  C   LIG d   1       3.939   0.267  -7.852  0.00  0.00    -0.043 C 
ATOM     24  H   LIG d   1       3.069   0.538  -8.449  0.00  0.00     0.078 H 
ATOM     25  H   LIG d   1       4.296  -0.717  -8.155  0.00  0.00     0.078 H 
ATOM     26  H   LIG d   1       3.664   0.245  -6.798  0.00  0.00     0.078 H 
ENDBRANCH  17  23
ENDBRANCH  14  17
ENDBRANCH   4  14
BRANCH   3  27
ATOM     27  O   LIG d   1       8.221   1.950  -9.866  0.00  0.00    -0.506 OA
ATOM     28  H   LIG d   1       8.856   1.353 -10.286  0.00  0.00     0.292 HD
ENDBRANCH   3  27
BRANCH   1  29
ATOM     29  C   LIG d   1      10.616   3.583  -5.956  0.00  0.00    -0.039 C 
ATOM     30  H   LIG d   1      11.384   2.896  -5.600  0.00  0.00     0.028 H 
ATOM     31  H   LIG d   1      11.045   4.254  -6.700  0.00  0.00     0.028 H 
ATOM     32  H   LIG d   1      10.233   4.166  -5.118  0.00  0.00     0.028 H 
ENDBRANCH   1  29
BRANCH  10  33
ATOM     33  C   LIG d   1       5.439   0.008  -2.923  0.00  0.00     0.014 A 
ATOM     34  C   LIG d   1       4.211   0.684  -2.917  0.00  0.00     0.131 A 
ATOM     35  C   LIG d   1       3.031  -0.037  -2.900  0.00  0.00    -0.026 A 
ATOM     36  F   LIG d   1       4.180   2.034  -2.931  0.00  0.00    -0.205 F 
ATOM     37  C   LIG d   1       3.063  -1.420  -2.881  0.00  0.00    -0.059 A 
ATOM     38  H   LIG d   1       2.084   0.482  -2.898  0.00  0.00     0.065 H 
ATOM     39  C   LIG d   1       4.273  -2.094  -2.883  0.00  0.00    -0.061 A 
ATOM     40  H   LIG d   1       2.137  -1.976  -2.865  0.00  0.00     0.062 H 
ATOM     41  C   LIG d   1       5.458  -1.391  -2.903  0.00  0.00    -0.052 A 
ATOM     42  H   LIG d   1       4.286  -3.173  -2.867  0.00  0.00     0.062 H 
ATOM     43  H   LIG d   1       6.400  -1.921  -2.904  0.00  0.00     0.062 H 
ENDBRANCH  10  33
TORSDOF 7
ENDMDL
MODEL 4
REMARK VINA RESULT:      -6.3      1.401      1.987
REMARK  7 active torsions:
REMARK  status: ('A' for Active; 'I' for Inactive)
REMARK    1  A    between atoms: C_1  and  C_2 
REMARK    2  A    between atoms: C_4  and  O_23 
REMARK    3  A    between atoms: C_5  and  C_20 
REMARK    4  A    between atoms: C_11  and  C_12 
REMARK    5  A    between atoms: C_20  and  N_42 
REMARK    6  A    between atoms: C_21  and  N_42 
REMARK    7  A    between atoms: C_22  and  N_42 
ROOT
ATOM      1  C   LIG d   1       5.102  -0.988  -3.149  0.00  0.00    -0.033 A 
ATOM      2  C   LIG d   1       6.372  -1.460  -2.972  0.00  0.00    -0.016 A 
ATOM      3  C   LIG d   1       7.200  -1.667  -4.072  0.00  0.00     0.129 A 
ATOM      4  C   LIG d   1       6.749  -1.396  -5.355  0.00  0.00     0.081 A 
ATOM      5  C   LIG d   1       5.462  -0.915  -5.552  0.00  0.00     0.151 A 
ATOM      6  C   LIG d   1       4.635  -0.711  -4.434  0.00  0.00     0.071 A 
ATOM      7  C   LIG d   1       3.352  -0.204  -4.954  0.00  0.00     0.232 A 
ATOM      8  O   LIG d   1       2.358   0.101  -4.317  0.00  0.00    -0.283 OA
ATOM      9  C   LIG d   1       3.538  -0.155  -6.412  0.00  0.00     0.176 A 
ATOM     10  C   LIG d   1       2.617   0.247  -7.325  0.00  0.00    -0.006 C 
ATOM     11  O   LIG d   1       4.796  -0.579  -6.678  0.00  0.00    -0.451 OA
ATOM     12  H   LIG d   1       6.733  -1.674  -1.978  0.00  0.00     0.066 H 
ATOM     13  H   LIG d   1       1.615   0.491  -7.008  0.00  0.00     0.066 H 
ENDROOT
BRANCH   4  14
ATOM     14  C   LIG d   1       7.658  -1.622  -6.535  0.00  0.00     0.001 C 
ATOM     15  H   LIG d   1       7.860  -0.671  -7.026  0.00  0.00     0.087 H 
ATOM     16  H   LIG d   1       8.596  -2.060  -6.192  0.00  0.00     0.087 H 
BRANCH  14  17
ATOM     17  N   LIG d   1       6.983  -2.525  -7.491  0.00  0.00     0.234 N 
ATOM     18  H   LIG d   1       5.969  -2.368  -7.440  0.00  0.00     0.203 HD
BRANCH  17  19
ATOM     19  C   LIG d   1       7.443  -2.241  -8.867  0.00  0.00    -0.043 C 
ATOM     20  H   LIG d   1       6.723  -2.612  -9.595  0.00  0.00     0.078 H 
ATOM     21  H   LIG d   1       7.561  -1.164  -8.986  0.00  0.00     0.078 H 
ATOM     22  H   LIG d   1       8.405  -2.731  -9.025  0.00  0.00     0.078 H 
ENDBRANCH  17  19
BRANCH  17  23
ATOM     23  C   LIG d   1       7.269  -3.933  -7.144  0.00  0.00    -0.043 C 
ATOM     24  H   LIG d   1       7.197  -4.540  -8.046  0.00  0.00     0.078 H 
ATOM     25  H   LIG d   1       8.279  -3.999  -6.741  0.00  0.00     0.078 H 
ATOM     26  H   LIG d   1       6.557  -4.296  -6.403  0.00  0.00     0.078 H 
ENDBRANCH  17  23
ENDBRANCH  14  17
ENDBRANCH   4  14
BRANCH   3  27
ATOM     27  O   LIG d   1       8.459  -2.137  -3.886  0.00  0.00    -0.506 OA
ATOM     28  H   LIG d   1       8.699  -2.862  -4.479  0.00  0.00     0.292 HD
ENDBRANCH   3  27
BRANCH   1  29
ATOM     29  C   LIG d   1       4.206  -0.766  -1.957  0.00  0.00    -0.039 C 
ATOM     30  H   LIG d   1       4.420  -1.517  -1.197  0.00  0.00     0.028 H 
ATOM     31  H   LIG d   1       4.388   0.228  -1.547  0.00  0.00     0.028 H 
ATOM     32  H   LIG d   1       3.164  -0.847  -2.266  0.00  0.00     0.028 H 
ENDBRANCH   1  29
BRANCH  10  33
ATOM     33  C   LIG d   1       2.985   0.349  -8.743  0.00  0.00     0.014 A 
ATOM     34  C   LIG d   1       3.445   1.565  -9.266  0.00  0.00     0.131 A 
ATOM     35  C   LIG d   1       3.793   1.649 -10.602  0.00  0.00    -0.026 A 
ATOM     36  F   LIG d   1       3.551   2.650  -8.469  0.00  0.00    -0.205 F 
ATOM     37  C   LIG d   1       3.680   0.539 -11.420  0.00  0.00    -0.059 A 
ATOM     38  H   LIG d   1       4.150   2.585 -11.007  0.00  0.00     0.065 H 
ATOM     39  C   LIG d   1       3.223  -0.664 -10.910  0.00  0.00    -0.061 A 
ATOM     40  H   LIG d   1       3.951   0.614 -12.463  0.00  0.00     0.062 H 
ATOM     41  C   LIG d   1       2.875  -0.767  -9.581  0.00  0.00    -0.052 A 
ATOM     42  H   LIG d   1       3.138  -1.524 -11.557  0.00  0.00     0.062 H 
ATOM     43  H   LIG d   1       2.518  -1.708  -9.187  0.00  0.00     0.062 H 
ENDBRANCH  10  33
TORSDOF 7
ENDMDL
MODEL 5
REMARK VINA RESULT:      -6.0      3.577      6.207
REMARK  7 active torsions:
REMARK  status: ('A' for Active; 'I' for Inactive)
REMARK    1  A    between atoms: C_1  and  C_2 
REMARK    2  A    between atoms: C_4  and  O_23 
REMARK    3  A    between atoms: C_5  and  C_20 
REMARK    4  A    between atoms: C_11  and  C_12 
REMARK    5  A    between atoms: C_20  and  N_42 
REMARK    6  A    between atoms: C_21  and  N_42 
REMARK    7  A    between atoms: C_22  and  N_42 
ROOT
ATOM      1  C   LIG d   1       4.317  -5.098  -8.122  0.00  0.00    -0.033 A 
ATOM      2  C   LIG d   1       4.219  -4.613  -9.395  0.00  0.00    -0.016 A 
ATOM      3  C   LIG d   1       4.185  -3.239  -9.619  0.00  0.00     0.129 A 
ATOM      4  C   LIG d   1       4.251  -2.350  -8.557  0.00  0.00     0.081 A 
ATOM      5  C   LIG d   1       4.351  -2.828  -7.257  0.00  0.00     0.151 A 
ATOM      6  C   LIG d   1       4.385  -4.216  -7.044  0.00  0.00     0.071 A 
ATOM      7  C   LIG d   1       4.494  -4.410  -5.586  0.00  0.00     0.232 A 
ATOM      8  O   LIG d   1       4.551  -5.464  -4.977  0.00  0.00    -0.283 OA
ATOM      9  C   LIG d   1       4.510  -3.048  -5.033  0.00  0.00     0.176 A 
ATOM     10  C   LIG d   1       4.595  -2.717  -3.719  0.00  0.00    -0.006 C 
ATOM     11  O   LIG d   1       4.430  -2.183  -6.072  0.00  0.00    -0.451 OA
ATOM     12  H   LIG d   1       4.167  -5.295 -10.230  0.00  0.00     0.066 H 
ATOM     13  H   LIG d   1       4.574  -3.490  -2.966  0.00  0.00     0.066 H 
ENDROOT
BRANCH   4  14
ATOM     14  C   LIG d   1       4.215  -0.866  -8.814  0.00  0.00     0.001 C 
ATOM     15  H   LIG d   1       5.043  -0.387  -8.293  0.00  0.00     0.087 H 
ATOM     16  H   LIG d   1       4.304  -0.681  -9.885  0.00  0.00     0.087 H 
BRANCH  14  17
ATOM     17  N   LIG d   1       2.941  -0.323  -8.298  0.00  0.00     0.234 N 
ATOM     18  H   LIG d   1       2.677  -0.839  -7.451  0.00  0.00     0.203 HD
BRANCH  17  19
ATOM     19  C   LIG d   1       3.101   1.107  -7.958  0.00  0.00    -0.043 C 
ATOM     20  H   LIG d   1       3.246   1.700  -8.861  0.00  0.00     0.078 H 
ATOM     21  H   LIG d   1       2.208   1.450  -7.436  0.00  0.00     0.078 H 
ATOM     22  H   LIG d   1       3.968   1.220  -7.306  0.00  0.00     0.078 H 
ENDBRANCH  17  19
BRANCH  17  23
ATOM     23  C   LIG d   1       1.876  -0.484  -9.311  0.00  0.00    -0.043 C 
ATOM     24  H   LIG d   1       0.936  -0.122  -8.895  0.00  0.00     0.078 H 
ATOM     25  H   LIG d   1       2.134   0.102 -10.192  0.00  0.00     0.078 H 
ATOM     26  H   LIG d   1       1.770  -1.532  -9.590  0.00  0.00     0.078 H 
ENDBRANCH  17  23
ENDBRANCH  14  17
ENDBRANCH   4  14
BRANCH   3  27
ATOM     27  O   LIG d   1       4.086  -2.766 -10.887  0.00  0.00    -0.506 OA
ATOM     28  H   LIG d   1       4.505  -3.331 -11.551  0.00  0.00     0.292 HD
ENDBRANCH   3  27
BRANCH   1  29
ATOM     29  C   LIG d   1       4.353  -6.586  -7.883  0.00  0.00    -0.039 C 
ATOM     30  H   LIG d   1       4.809  -7.082  -8.739  0.00  0.00     0.028 H 
ATOM     31  H   LIG d   1       4.938  -6.796  -6.987  0.00  0.00     0.028 H 
ATOM     32  H   LIG d   1       3.336  -6.957  -7.748  0.00  0.00     0.028 H 
ENDBRANCH   1  29
BRANCH  10  33
ATOM     33  C   LIG d   1       4.714  -1.308  -3.323  0.00  0.00     0.014 A 
ATOM     34  C   LIG d   1       3.591  -0.610  -2.858  0.00  0.00     0.131 A 
ATOM     35  C   LIG d   1       3.714   0.716  -2.483  0.00  0.00    -0.026 A 
ATOM     36  F   LIG d   1       2.394  -1.230  -2.771  0.00  0.00    -0.205 F 
ATOM     37  C   LIG d   1       4.939   1.352  -2.575  0.00  0.00    -0.059 A 
ATOM     38  H   LIG d   1       2.851   1.255  -2.121  0.00  0.00     0.065 H 
ATOM     39  C   LIG d   1       6.051   0.669  -3.039  0.00  0.00    -0.061 A 
ATOM     40  H   LIG d   1       5.027   2.389  -2.284  0.00  0.00     0.062 H 
ATOM     41  C   LIG d   1       5.947  -0.653  -3.412  0.00  0.00    -0.052 A 
ATOM     42  H   LIG d   1       7.002   1.176  -3.108  0.00  0.00     0.062 H 
ATOM     43  H   LIG d   1       6.817  -1.182  -3.774  0.00  0.00     0.062 H 
ENDBRANCH  10  33
TORSDOF 7
ENDMDL
MODEL 6
REMARK VINA RESULT:      -5.8      3.192      6.205
REMARK  7 active torsions:
REMARK  status: ('A' for Active; 'I' for Inactive)
REMARK    1  A    between atoms: C_1  and  C_2 
REMARK    2  A    between atoms: C_4  and  O_23 
REMARK    3  A    between atoms: C_5  and  C_20 
REMARK    4  A    between atoms: C_11  and  C_12 
REMARK    5  A    between atoms: C_20  and  N_42 
REMARK    6  A    between atoms: C_21  and  N_42 
REMARK    7  A    between atoms: C_22  and  N_42 
ROOT
ATOM      1  C   LIG d   1       3.594  -1.017 -10.112  0.00  0.00    -0.033 A 
ATOM      2  C   LIG d   1       4.203  -2.103 -10.675  0.00  0.00    -0.016 A 
ATOM      3  C   LIG d   1       4.870  -3.024  -9.871  0.00  0.00     0.129 A 
ATOM      4  C   LIG d   1       4.922  -2.853  -8.497  0.00  0.00     0.081 A 
ATOM      5  C   LIG d   1       4.307  -1.755  -7.910  0.00  0.00     0.151 A 
ATOM      6  C   LIG d   1       3.638  -0.832  -8.730  0.00  0.00     0.071 A 
ATOM      7  C   LIG d   1       3.096   0.205  -7.834  0.00  0.00     0.232 A 
ATOM      8  O   LIG d   1       2.448   1.192  -8.140  0.00  0.00    -0.283 OA
ATOM      9  C   LIG d   1       3.519  -0.212  -6.489  0.00  0.00     0.176 A 
ATOM     10  C   LIG d   1       3.256   0.439  -5.327  0.00  0.00    -0.006 C 
ATOM     11  O   LIG d   1       4.214  -1.367  -6.619  0.00  0.00    -0.451 OA
ATOM     12  H   LIG d   1       4.169  -2.246 -11.744  0.00  0.00     0.066 H 
ATOM     13  H   LIG d   1       2.759   1.397  -5.347  0.00  0.00     0.066 H 
ENDROOT
BRANCH   4  14
ATOM     14  C   LIG d   1       5.645  -3.859  -7.640  0.00  0.00     0.001 C 
ATOM     15  H   LIG d   1       5.815  -4.769  -8.214  0.00  0.00     0.087 H 
ATOM     16  H   LIG d   1       6.603  -3.444  -7.323  0.00  0.00     0.087 H 
BRANCH  14  17
ATOM     17  N   LIG d   1       4.805  -4.178  -6.466  0.00  0.00     0.234 N 
ATOM     18  H   LIG d   1       4.186  -3.382  -6.272  0.00  0.00     0.203 HD
BRANCH  17  19
ATOM     19  C   LIG d   1       3.979  -5.372  -6.745  0.00  0.00    -0.043 C 
ATOM     20  H   LIG d   1       4.344  -6.230  -6.182  0.00  0.00     0.078 H 
ATOM     21  H   LIG d   1       2.947  -5.163  -6.464  0.00  0.00     0.078 H 
ATOM     22  H   LIG d   1       4.026  -5.592  -7.813  0.00  0.00     0.078 H 
ENDBRANCH  17  19
BRANCH  17  23
ATOM     23  C   LIG d   1       5.660  -4.422  -5.285  0.00  0.00    -0.043 C 
ATOM     24  H   LIG d   1       6.662  -4.684  -5.623  0.00  0.00     0.078 H 
ATOM     25  H   LIG d   1       5.705  -3.513  -4.687  0.00  0.00     0.078 H 
ATOM     26  H   LIG d   1       5.256  -5.235  -4.682  0.00  0.00     0.078 H 
ENDBRANCH  17  23
ENDBRANCH  14  17
ENDBRANCH   4  14
BRANCH   3  27
ATOM     27  O   LIG d   1       5.473  -4.099 -10.439  0.00  0.00    -0.506 OA
ATOM     28  H   LIG d   1       5.545  -4.864  -9.852  0.00  0.00     0.292 HD
ENDBRANCH   3  27
BRANCH   1  29
ATOM     29  C   LIG d   1       2.874  -0.020 -10.985  0.00  0.00    -0.039 C 
ATOM     30  H   LIG d   1       2.103  -0.531 -11.561  0.00  0.00     0.028 H 
ATOM     31  H   LIG d   1       2.413   0.744 -10.358  0.00  0.00     0.028 H 
ATOM     32  H   LIG d   1       3.585   0.448 -11.665  0.00  0.00     0.028 H 
ENDBRANCH   1  29
BRANCH  10  33
ATOM     33  C   LIG d   1       3.649  -0.160  -4.045  0.00  0.00     0.014 A 
ATOM     34  C   LIG d   1       4.089   0.655  -2.993  0.00  0.00     0.131 A 
ATOM     35  C   LIG d   1       4.453   0.083  -1.788  0.00  0.00    -0.026 A 
ATOM     36  F   LIG d   1       4.153   1.995  -3.153  0.00  0.00    -0.205 F 
ATOM     37  C   LIG d   1       4.391  -1.290  -1.625  0.00  0.00    -0.059 A 
ATOM     38  H   LIG d   1       4.790   0.708  -0.974  0.00  0.00     0.065 H 
ATOM     39  C   LIG d   1       3.961  -2.101  -2.662  0.00  0.00    -0.061 A 
ATOM     40  H   LIG d   1       4.680  -1.730  -0.682  0.00  0.00     0.062 H 
ATOM     41  C   LIG d   1       3.591  -1.547  -3.868  0.00  0.00    -0.052 A 
ATOM     42  H   LIG d   1       3.917  -3.171  -2.524  0.00  0.00     0.062 H 
ATOM     43  H   LIG d   1       3.257  -2.183  -4.675  0.00  0.00     0.062 H 
ENDBRANCH  10  33
TORSDOF 7
ENDMDL
MODEL 7
REMARK VINA RESULT:      -5.7      3.551      5.029
REMARK  7 active torsions:
REMARK  status: ('A' for Active; 'I' for Inactive)
REMARK    1  A    between atoms: C_1  and  C_2 
REMARK    2  A    between atoms: C_4  and  O_23 
REMARK    3  A    between atoms: C_5  and  C_20 
REMARK    4  A    between atoms: C_11  and  C_12 
REMARK    5  A    between atoms: C_20  and  N_42 
REMARK    6  A    between atoms: C_21  and  N_42 
REMARK    7  A    between atoms: C_22  and  N_42 
ROOT
ATOM      1  C   LIG d   1       7.252  -5.391  -5.980  0.00  0.00    -0.033 A 
ATOM      2  C   LIG d   1       8.564  -5.175  -6.293  0.00  0.00    -0.016 A 
ATOM      3  C   LIG d   1       9.155  -3.945  -6.018  0.00  0.00     0.129 A 
ATOM      4  C   LIG d   1       8.422  -2.928  -5.424  0.00  0.00     0.081 A 
ATOM      5  C   LIG d   1       7.088  -3.132  -5.099  0.00  0.00     0.151 A 
ATOM      6  C   LIG d   1       6.503  -4.378  -5.381  0.00  0.00     0.071 A 
ATOM      7  C   LIG d   1       5.102  -4.291  -4.929  0.00  0.00     0.232 A 
ATOM      8  O   LIG d   1       4.244  -5.155  -4.991  0.00  0.00    -0.283 OA
ATOM      9  C   LIG d   1       4.971  -2.928  -4.395  0.00  0.00     0.176 A 
ATOM     10  C   LIG d   1       3.849  -2.379  -3.865  0.00  0.00    -0.006 C 
ATOM     11  O   LIG d   1       6.174  -2.320  -4.525  0.00  0.00    -0.451 OA
ATOM     12  H   LIG d   1       9.144  -5.959  -6.755  0.00  0.00     0.066 H 
ATOM     13  H   LIG d   1       2.920  -2.928  -3.883  0.00  0.00     0.066 H 
ENDROOT
BRANCH   4  14
ATOM     14  C   LIG d   1       9.075  -1.603  -5.130  0.00  0.00     0.001 C 
ATOM     15  H   LIG d   1       9.085  -1.433  -4.054  0.00  0.00     0.087 H 
ATOM     16  H   LIG d   1      10.099  -1.611  -5.505  0.00  0.00     0.087 H 
BRANCH  14  17
ATOM     17  N   LIG d   1       8.294  -0.531  -5.781  0.00  0.00     0.234 N 
ATOM     18  H   LIG d   1       7.346  -0.877  -5.972  0.00  0.00     0.203 HD
BRANCH  17  19
ATOM     19  C   LIG d   1       8.205   0.644  -4.889  0.00  0.00    -0.043 C 
ATOM     20  H   LIG d   1       7.237   0.672  -4.388  0.00  0.00     0.078 H 
ATOM     21  H   LIG d   1       8.999   0.585  -4.145  0.00  0.00     0.078 H 
ATOM     22  H   LIG d   1       8.331   1.550  -5.484  0.00  0.00     0.078 H 
ENDBRANCH  17  19
BRANCH  17  23
ATOM     23  C   LIG d   1       8.931  -0.146  -7.059  0.00  0.00    -0.043 C 
ATOM     24  H   LIG d   1       8.227  -0.322  -7.872  0.00  0.00     0.078 H 
ATOM     25  H   LIG d   1       9.186   0.912  -7.022  0.00  0.00     0.078 H 
ATOM     26  H   LIG d   1       9.834  -0.733  -7.227  0.00  0.00     0.078 H 
ENDBRANCH  17  23
ENDBRANCH  14  17
ENDBRANCH   4  14
BRANCH   3  27
ATOM     27  O   LIG d   1      10.458  -3.739  -6.333  0.00  0.00    -0.506 OA
ATOM     28  H   LIG d   1      10.605  -2.991  -6.929  0.00  0.00     0.292 HD
ENDBRANCH   3  27
BRANCH   1  29
ATOM     29  C   LIG d   1       6.614  -6.724  -6.280  0.00  0.00    -0.039 C 
ATOM     30  H   LIG d   1       5.880  -6.958  -5.510  0.00  0.00     0.028 H 
ATOM     31  H   LIG d   1       6.121  -6.680  -7.251  0.00  0.00     0.028 H 
ATOM     32  H   LIG d   1       7.382  -7.498  -6.297  0.00  0.00     0.028 H 
ENDBRANCH   1  29
BRANCH  10  33
ATOM     33  C   LIG d   1       3.898  -1.038  -3.267  0.00  0.00     0.014 A 
ATOM     34  C   LIG d   1       3.319   0.051  -3.932  0.00  0.00     0.131 A 
ATOM     35  C   LIG d   1       3.368   1.309  -3.359  0.00  0.00    -0.026 A 
ATOM     36  F   LIG d   1       2.713  -0.127  -5.126  0.00  0.00    -0.205 F 
ATOM     37  C   LIG d   1       3.992   1.492  -2.139  0.00  0.00    -0.059 A 
ATOM     38  H   LIG d   1       2.920   2.150  -3.868  0.00  0.00     0.065 H 
ATOM     39  C   LIG d   1       4.571   0.420  -1.479  0.00  0.00    -0.061 A 
ATOM     40  H   LIG d   1       4.030   2.478  -1.699  0.00  0.00     0.062 H 
ATOM     41  C   LIG d   1       4.528  -0.840  -2.033  0.00  0.00    -0.052 A 
ATOM     42  H   LIG d   1       5.056   0.574  -0.527  0.00  0.00     0.062 H 
ATOM     43  H   LIG d   1       4.981  -1.674  -1.515  0.00  0.00     0.062 H 
ENDBRANCH  10  33
TORSDOF 7
ENDMDL
MODEL 8
REMARK VINA RESULT:      -5.4      4.083      5.777
REMARK  7 active torsions:
REMARK  status: ('A' for Active; 'I' for Inactive)
REMARK    1  A    between atoms: C_1  and  C_2 
REMARK    2  A    between atoms: C_4  and  O_23 
REMARK    3  A    between atoms: C_5  and  C_20 
REMARK    4  A    between atoms: C_11  and  C_12 
REMARK    5  A    between atoms: C_20  and  N_42 
REMARK    6  A    between atoms: C_21  and  N_42 
REMARK    7  A    between atoms: C_22  and  N_42 
ROOT
ATOM      1  C   LIG d   1       6.797  -6.469  -6.245  0.00  0.00    -0.033 A 
ATOM      2  C   LIG d   1       8.147  -6.680  -6.271  0.00  0.00    -0.016 A 
ATOM      3  C   LIG d   1       9.011  -5.744  -5.709  0.00  0.00     0.129 A 
ATOM      4  C   LIG d   1       8.515  -4.592  -5.118  0.00  0.00     0.081 A 
ATOM      5  C   LIG d   1       7.146  -4.364  -5.084  0.00  0.00     0.151 A 
ATOM      6  C   LIG d   1       6.284  -5.315  -5.654  0.00  0.00     0.071 A 
ATOM      7  C   LIG d   1       4.915  -4.802  -5.465  0.00  0.00     0.232 A 
ATOM      8  O   LIG d   1       3.869  -5.321  -5.815  0.00  0.00    -0.283 OA
ATOM      9  C   LIG d   1       5.094  -3.520  -4.768  0.00  0.00     0.176 A 
ATOM     10  C   LIG d   1       4.108  -2.672  -4.382  0.00  0.00    -0.006 C 
ATOM     11  O   LIG d   1       6.423  -3.341  -4.577  0.00  0.00    -0.451 OA
ATOM     12  H   LIG d   1       8.545  -7.574  -6.728  0.00  0.00     0.066 H 
ATOM     13  H   LIG d   1       3.084  -2.876  -4.656  0.00  0.00     0.066 H 
ENDROOT
BRANCH   4  14
ATOM     14  C   LIG d   1       9.462  -3.589  -4.512  0.00  0.00     0.001 C 
ATOM     15  H   LIG d   1      10.108  -3.183  -5.290  0.00  0.00     0.087 H 
ATOM     16  H   LIG d   1       8.890  -2.780  -4.057  0.00  0.00     0.087 H 
BRANCH  14  17
ATOM     17  N   LIG d   1      10.295  -4.270  -3.499  0.00  0.00     0.234 N 
ATOM     18  H   LIG d   1      10.404  -5.256  -3.765  0.00  0.00     0.203 HD
BRANCH  17  19
ATOM     19  C   LIG d   1      11.630  -3.639  -3.436  0.00  0.00    -0.043 C 
ATOM     20  H   LIG d   1      12.078  -3.591  -4.428  0.00  0.00     0.078 H 
ATOM     21  H   LIG d   1      11.528  -2.632  -3.032  0.00  0.00     0.078 H 
ATOM     22  H   LIG d   1      12.269  -4.231  -2.778  0.00  0.00     0.078 H 
ENDBRANCH  17  19
BRANCH  17  23
ATOM     23  C   LIG d   1       9.640  -4.198  -2.176  0.00  0.00    -0.043 C 
ATOM     24  H   LIG d   1       8.631  -3.806  -2.303  0.00  0.00     0.078 H 
ATOM     25  H   LIG d   1       9.590  -5.200  -1.751  0.00  0.00     0.078 H 
ATOM     26  H   LIG d   1      10.201  -3.546  -1.506  0.00  0.00     0.078 H 
ENDBRANCH  17  23
ENDBRANCH  14  17
ENDBRANCH   4  14
BRANCH   3  27
ATOM     27  O   LIG d   1      10.350  -5.961  -5.739  0.00  0.00    -0.506 OA
ATOM     28  H   LIG d   1      10.619  -6.676  -6.333  0.00  0.00     0.292 HD
ENDBRANCH   3  27
BRANCH   1  29
ATOM     29  C   LIG d   1       5.864  -7.484  -6.856  0.00  0.00    -0.039 C 
ATOM     30  H   LIG d   1       5.734  -8.319  -6.168  0.00  0.00     0.028 H 
ATOM     31  H   LIG d   1       4.897  -7.018  -7.048  0.00  0.00     0.028 H 
ATOM     32  H   LIG d   1       6.285  -7.848  -7.793  0.00  0.00     0.028 H 
ENDBRANCH   1  29
BRANCH  10  33
ATOM     33  C   LIG d   1       4.433  -1.477  -3.592  0.00  0.00     0.014 A 
ATOM     34  C   LIG d   1       4.983  -0.349  -4.216  0.00  0.00     0.131 A 
ATOM     35  C   LIG d   1       5.283   0.773  -3.464  0.00  0.00    -0.026 A 
ATOM     36  F   LIG d   1       5.216  -0.355  -5.546  0.00  0.00    -0.205 F 
ATOM     37  C   LIG d   1       5.048   0.778  -2.101  0.00  0.00    -0.059 A 
ATOM     38  H   LIG d   1       5.704   1.644  -3.943  0.00  0.00     0.065 H 
ATOM     39  C   LIG d   1       4.509  -0.336  -1.478  0.00  0.00    -0.061 A 
ATOM     40  H   LIG d   1       5.287   1.656  -1.520  0.00  0.00     0.062 H 
ATOM     41  C   LIG d   1       4.201  -1.460  -2.212  0.00  0.00    -0.052 A 
ATOM     42  H   LIG d   1       4.330  -0.321  -0.413  0.00  0.00     0.062 H 
ATOM     43  H   LIG d   1       3.781  -2.327  -1.722  0.00  0.00     0.062 H 
ENDBRANCH  10  33
TORSDOF 7
ENDMDL
MODEL 9
REMARK VINA RESULT:      -5.3      8.702     11.564
REMARK  7 active torsions:
REMARK  status: ('A' for Active; 'I' for Inactive)
REMARK    1  A    between atoms: C_1  and  C_2 
REMARK    2  A    between atoms: C_4  and  O_23 
REMARK    3  A    between atoms: C_5  and  C_20 
REMARK    4  A    between atoms: C_11  and  C_12 
REMARK    5  A    between atoms: C_20  and  N_42 
REMARK    6  A    between atoms: C_21  and  N_42 
REMARK    7  A    between atoms: C_22  and  N_42 
ROOT
ATOM      1  C   LIG d   1       9.393   7.428  -7.879  0.00  0.00    -0.033 A 
ATOM      2  C   LIG d   1       9.353   8.755  -8.204  0.00  0.00    -0.016 A 
ATOM      3  C   LIG d   1       9.656   9.719  -7.246  0.00  0.00     0.129 A 
ATOM      4  C   LIG d   1      10.002   9.346  -5.957  0.00  0.00     0.081 A 
ATOM      5  C   LIG d   1      10.047   8.003  -5.610  0.00  0.00     0.151 A 
ATOM      6  C   LIG d   1       9.739   7.039  -6.585  0.00  0.00     0.071 A 
ATOM      7  C   LIG d   1       9.872   5.726  -5.928  0.00  0.00     0.232 A 
ATOM      8  O   LIG d   1       9.693   4.625  -6.420  0.00  0.00    -0.283 OA
ATOM      9  C   LIG d   1      10.263   6.042  -4.546  0.00  0.00     0.176 A 
ATOM     10  C   LIG d   1      10.498   5.147  -3.554  0.00  0.00    -0.006 C 
ATOM     11  O   LIG d   1      10.349   7.390  -4.445  0.00  0.00    -0.451 OA
ATOM     12  H   LIG d   1       9.086   9.056  -9.206  0.00  0.00     0.066 H 
ATOM     13  H   LIG d   1      10.322   4.096  -3.724  0.00  0.00     0.066 H 
ENDROOT
BRANCH   4  14
ATOM     14  C   LIG d   1      10.329  10.400  -4.931  0.00  0.00     0.001 C 
ATOM     15  H   LIG d   1      11.322  10.215  -4.523  0.00  0.00     0.087 H 
ATOM     16  H   LIG d   1      10.308  11.384  -5.402  0.00  0.00     0.087 H 
BRANCH  14  17
ATOM     17  N   LIG d   1       9.337  10.327  -3.837  0.00  0.00     0.234 N 
ATOM     18  H   LIG d   1       8.689   9.554  -4.027  0.00  0.00     0.203 HD
BRANCH  17  19
ATOM     19  C   LIG d   1      10.021  10.076  -2.551  0.00  0.00    -0.043 C 
ATOM     20  H   LIG d   1       9.359   9.552  -1.862  0.00  0.00     0.078 H 
ATOM     21  H   LIG d   1      10.910   9.473  -2.733  0.00  0.00     0.078 H 
ATOM     22  H   LIG d   1      10.314  11.032  -2.115  0.00  0.00     0.078 H 
ENDBRANCH  17  19
BRANCH  17  23
ATOM     23  C   LIG d   1       8.572  11.590  -3.765  0.00  0.00    -0.043 C 
ATOM     24  H   LIG d   1       9.084  12.347  -4.358  0.00  0.00     0.078 H 
ATOM     25  H   LIG d   1       7.575  11.423  -4.170  0.00  0.00     0.078 H 
ATOM     26  H   LIG d   1       8.493  11.930  -2.732  0.00  0.00     0.078 H 
ENDBRANCH  17  23
ENDBRANCH  14  17
ENDBRANCH   4  14
BRANCH   3  27
ATOM     27  O   LIG d   1       9.613  11.034  -7.579  0.00  0.00    -0.506 OA
ATOM     28  H   LIG d   1       8.783  11.308  -7.992  0.00  0.00     0.292 HD
ENDBRANCH   3  27
BRANCH   1  29
ATOM     29  C   LIG d   1       9.063   6.387  -8.918  0.00  0.00    -0.039 C 
ATOM     30  H   LIG d   1       9.397   6.730  -9.896  0.00  0.00     0.028 H 
ATOM     31  H   LIG d   1       9.569   5.453  -8.668  0.00  0.00     0.028 H 
ATOM     32  H   LIG d   1       7.986   6.222  -8.938  0.00  0.00     0.028 H 
ENDBRANCH   1  29
BRANCH  10  33
ATOM     33  C   LIG d   1      10.990   5.608  -2.250  0.00  0.00     0.014 A 
ATOM     34  C   LIG d   1      10.164   6.373  -1.415  0.00  0.00     0.131 A 
ATOM     35  C   LIG d   1      10.636   6.799  -0.187  0.00  0.00    -0.026 A 
ATOM     36  F   LIG d   1       8.911   6.689  -1.806  0.00  0.00    -0.205 F 
ATOM     37  C   LIG d   1      11.921   6.479   0.212  0.00  0.00    -0.059 A 
ATOM     38  H   LIG d   1      10.000   7.386   0.460  0.00  0.00     0.065 H 
ATOM     39  C   LIG d   1      12.744   5.728  -0.610  0.00  0.00    -0.061 A 
ATOM     40  H   LIG d   1      12.284   6.818   1.172  0.00  0.00     0.062 H 
ATOM     41  C   LIG d   1      12.289   5.291  -1.835  0.00  0.00    -0.052 A 
ATOM     42  H   LIG d   1      13.746   5.484  -0.289  0.00  0.00     0.062 H 
ATOM     43  H   LIG d   1      12.935   4.706  -2.474  0.00  0.00     0.062 H 
ENDBRANCH  10  33
TORSDOF 7
ENDMDL
MODEL 10
REMARK VINA RESULT:      -5.2      3.562      5.497
REMARK  7 active torsions:
REMARK  status: ('A' for Active; 'I' for Inactive)
REMARK    1  A    between atoms: C_1  and  C_2 
REMARK    2  A    between atoms: C_4  and  O_23 
REMARK    3  A    between atoms: C_5  and  C_20 
REMARK    4  A    between atoms: C_11  and  C_12 
REMARK    5  A    between atoms: C_20  and  N_42 
REMARK    6  A    between atoms: C_21  and  N_42 
REMARK    7  A    between atoms: C_22  and  N_42 
ROOT
ATOM      1  C   LIG d   1      10.514  -2.328  -5.459  0.00  0.00    -0.033 A 
ATOM      2  C   LIG d   1      11.335  -1.389  -6.016  0.00  0.00    -0.016 A 
ATOM      3  C   LIG d   1      10.918  -0.065  -6.113  0.00  0.00     0.129 A 
ATOM      4  C   LIG d   1       9.670   0.317  -5.646  0.00  0.00     0.081 A 
ATOM      5  C   LIG d   1       8.824  -0.624  -5.076  0.00  0.00     0.151 A 
ATOM      6  C   LIG d   1       9.255  -1.958  -4.985  0.00  0.00     0.071 A 
ATOM      7  C   LIG d   1       8.158  -2.707  -4.346  0.00  0.00     0.232 A 
ATOM      8  O   LIG d   1       8.122  -3.897  -4.080  0.00  0.00    -0.283 OA
ATOM      9  C   LIG d   1       7.114  -1.700  -4.107  0.00  0.00     0.176 A 
ATOM     10  C   LIG d   1       5.902  -1.920  -3.537  0.00  0.00    -0.006 C 
ATOM     11  O   LIG d   1       7.583  -0.511  -4.556  0.00  0.00    -0.451 OA
ATOM     12  H   LIG d   1      12.309  -1.675  -6.383  0.00  0.00     0.066 H 
ATOM     13  H   LIG d   1       5.598  -2.925  -3.287  0.00  0.00     0.066 H 
ENDROOT
BRANCH   4  14
ATOM     14  C   LIG d   1       9.233   1.755  -5.755  0.00  0.00     0.001 C 
ATOM     15  H   LIG d   1       9.397   2.108  -6.773  0.00  0.00     0.087 H 
ATOM     16  H   LIG d   1       8.173   1.832  -5.510  0.00  0.00     0.087 H 
BRANCH  14  17
ATOM     17  N   LIG d   1      10.041   2.572  -4.825  0.00  0.00     0.234 N 
ATOM     18  H   LIG d   1      10.953   2.120  -4.691  0.00  0.00     0.203 HD
BRANCH  17  19
ATOM     19  C   LIG d   1      10.252   3.921  -5.390  0.00  0.00    -0.043 C 
ATOM     20  H   LIG d   1       9.651   4.657  -4.857  0.00  0.00     0.078 H 
ATOM     21  H   LIG d   1      11.307   4.181  -5.304  0.00  0.00     0.078 H 
ATOM     22  H   LIG d   1       9.965   3.912  -6.442  0.00  0.00     0.078 H 
ENDBRANCH  17  19
BRANCH  17  23
ATOM     23  C   LIG d   1       9.357   2.673  -3.519  0.00  0.00    -0.043 C 
ATOM     24  H   LIG d   1       8.510   1.988  -3.510  0.00  0.00     0.078 H 
ATOM     25  H   LIG d   1      10.057   2.396  -2.731  0.00  0.00     0.078 H 
ATOM     26  H   LIG d   1       9.004   3.691  -3.350  0.00  0.00     0.078 H 
ENDBRANCH  17  23
ENDBRANCH  14  17
ENDBRANCH   4  14
BRANCH   3  27
ATOM     27  O   LIG d   1      11.741   0.861  -6.669  0.00  0.00    -0.506 OA
ATOM     28  H   LIG d   1      11.285   1.511  -7.221  0.00  0.00     0.292 HD
ENDBRANCH   3  27
BRANCH   1  29
ATOM     29  C   LIG d   1      10.967  -3.762  -5.357  0.00  0.00    -0.039 C 
ATOM     30  H   LIG d   1      11.644  -3.870  -4.510  0.00  0.00     0.028 H 
ATOM     31  H   LIG d   1      10.100  -4.408  -5.214  0.00  0.00     0.028 H 
ATOM     32  H   LIG d   1      11.484  -4.046  -6.274  0.00  0.00     0.028 H 
ENDBRANCH   1  29
BRANCH  10  33
ATOM     33  C   LIG d   1       5.004  -0.791  -3.261  0.00  0.00     0.014 A 
ATOM     34  C   LIG d   1       4.028  -0.422  -4.197  0.00  0.00     0.131 A 
ATOM     35  C   LIG d   1       3.184   0.640  -3.927  0.00  0.00    -0.026 A 
ATOM     36  F   LIG d   1       3.909  -1.103  -5.358  0.00  0.00    -0.205 F 
ATOM     37  C   LIG d   1       3.309   1.340  -2.740  0.00  0.00    -0.059 A 
ATOM     38  H   LIG d   1       2.430   0.925  -4.645  0.00  0.00     0.065 H 
ATOM     39  C   LIG d   1       4.274   0.983  -1.813  0.00  0.00    -0.061 A 
ATOM     40  H   LIG d   1       2.648   2.170  -2.537  0.00  0.00     0.062 H 
ATOM     41  C   LIG d   1       5.120  -0.075  -2.064  0.00  0.00    -0.052 A 
ATOM     42  H   LIG d   1       4.362   1.536  -0.890  0.00  0.00     0.062 H 
ATOM     43  H   LIG d   1       5.872  -0.350  -1.339  0.00  0.00     0.062 H 
ENDBRANCH  10  33
TORSDOF 7
ENDMDL
