MODEL 1
REMARK VINA RESULT:      -8.2      0.000      0.000
REMARK  6 active torsions:
REMARK  status: ('A' for Active; 'I' for Inactive)
REMARK    1  A    between atoms: C_4  and  C_7 
REMARK    2  A    between atoms: C_12  and  O_13 
REMARK    3  A    between atoms: C_14  and  C_19 
REMARK    4  A    between atoms: C_19  and  N_20 
REMARK    5  A    between atoms: N_20  and  C_21 
REMARK    6  A    between atoms: C_25  and  C_27 
ROOT
ATOM      1  C   LIG d   1      10.611   7.175  -1.943  0.00  0.00     0.027 A 
ATOM      2  C   LIG d   1      10.576   7.421  -3.312  0.00  0.00    -0.007 A 
ATOM      3  C   LIG d   1      10.243   6.402  -4.189  0.00  0.00     0.140 A 
ATOM      4  C   LIG d   1       9.938   5.123  -3.688  0.00  0.00     0.026 A 
ATOM      5  C   LIG d   1       9.980   4.878  -2.311  0.00  0.00    -0.009 A 
ATOM      6  C   LIG d   1      10.311   5.898  -1.444  0.00  0.00     0.125 A 
ATOM      7  C   LIG d   1       9.593   4.054  -4.630  0.00  0.00    -0.013 A 
ATOM      8  C   LIG d   1       9.573   4.349  -5.955  0.00  0.00     0.028 A 
ATOM      9  C   LIG d   1       9.885   5.656  -6.389  0.00  0.00     0.338 A 
ATOM     10  O   LIG d   1       9.863   5.907  -7.580  0.00  0.00    -0.245 OA
ATOM     11  O   LIG d   1      10.205   6.628  -5.521  0.00  0.00    -0.422 OA
ATOM     12  H   LIG d   1      10.808   8.406  -3.689  0.00  0.00     0.066 H 
ATOM     13  H   LIG d   1       9.749   3.895  -1.928  0.00  0.00     0.066 H 
ATOM     14  H   LIG d   1       9.319   3.587  -6.676  0.00  0.00     0.069 H 
ENDROOT
BRANCH   7  15
ATOM     15  C   LIG d   1       9.264   2.668  -4.141  0.00  0.00     0.035 C 
ATOM     16  H   LIG d   1       9.344   2.637  -3.055  0.00  0.00     0.051 H 
ATOM     17  H   LIG d   1       9.962   1.954  -4.579  0.00  0.00     0.051 H 
BRANCH  15  18
ATOM     18  N   LIG d   1       7.897   2.321  -4.540  0.00  0.00    -0.340 N 
ATOM     19  H   LIG d   1       7.392   2.921  -5.111  0.00  0.00     0.146 HD
BRANCH  18  20
ATOM     20  C   LIG d   1       7.322   1.128  -4.097  0.00  0.00     0.028 A 
ATOM     21  C   LIG d   1       6.215   1.158  -3.258  0.00  0.00    -0.029 A 
ATOM     22  C   LIG d   1       5.644  -0.023  -2.827  0.00  0.00     0.057 A 
ATOM     23  H   LIG d   1       5.798   2.106  -2.948  0.00  0.00     0.064 H 
ATOM     24  C   LIG d   1       6.181  -1.235  -3.219  0.00  0.00    -0.050 A 
ATOM     25  C   LIG d   1       7.284  -1.269  -4.054  0.00  0.00    -0.059 A 
ATOM     26  H   LIG d   1       5.736  -2.158  -2.877  0.00  0.00     0.062 H 
ATOM     27  C   LIG d   1       7.855  -0.091  -4.493  0.00  0.00    -0.041 A 
ATOM     28  H   LIG d   1       7.698  -2.218  -4.362  0.00  0.00     0.062 H 
ATOM     29  H   LIG d   1       8.716  -0.119  -5.145  0.00  0.00     0.064 H 
BRANCH  22  30
ATOM     30  C   LIG d   1       4.440   0.010  -1.923  0.00  0.00     0.417 C 
ATOM     31  F   LIG d   1       3.282   0.162  -2.694  0.00  0.00    -0.166 F 
ATOM     32  F   LIG d   1       4.364  -1.186  -1.201  0.00  0.00    -0.166 F 
ATOM     33  F   LIG d   1       4.553   1.084  -1.034  0.00  0.00    -0.166 F 
ENDBRANCH  22  30
ENDBRANCH  18  20
ENDBRANCH  15  18
ENDBRANCH   7  15
BRANCH   6  34
ATOM     34  O   LIG d   1      10.349   5.666  -0.106  0.00  0.00    -0.506 OA
ATOM     35  H   LIG d   1      10.060   6.418   0.430  0.00  0.00     0.292 HD
ENDBRANCH   6  34
BRANCH   1  36
ATOM     36  C   LIG d   1      10.968   8.267  -1.007  0.00  0.00    -0.014 A 
ATOM     37  C   LIG d   1      12.292   8.437  -0.603  0.00  0.00    -0.054 A 
ATOM     38  C   LIG d   1      12.619   9.456   0.269  0.00  0.00    -0.061 A 
ATOM     39  H   LIG d   1      13.060   7.773  -0.972  0.00  0.00     0.062 H 
ATOM     40  C   LIG d   1      11.636  10.307   0.741  0.00  0.00    -0.062 A 
ATOM     41  H   LIG d   1      13.644   9.589   0.583  0.00  0.00     0.062 H 
ATOM     42  C   LIG d   1      10.321  10.143   0.344  0.00  0.00    -0.061 A 
ATOM     43  H   LIG d   1      11.897  11.104   1.423  0.00  0.00     0.062 H 
ATOM     44  C   LIG d   1       9.984   9.132  -0.532  0.00  0.00    -0.054 A 
ATOM     45  H   LIG d   1       9.559  10.811   0.716  0.00  0.00     0.062 H 
ATOM     46  H   LIG d   1       8.957   9.008  -0.845  0.00  0.00     0.062 H 
ENDBRANCH   1  36
TORSDOF 6
ENDMDL
MODEL 2
REMARK VINA RESULT:      -8.2      7.681     10.911
REMARK  6 active torsions:
REMARK  status: ('A' for Active; 'I' for Inactive)
REMARK    1  A    between atoms: C_4  and  C_7 
REMARK    2  A    between atoms: C_12  and  O_13 
REMARK    3  A    between atoms: C_14  and  C_19 
REMARK    4  A    between atoms: C_19  and  N_20 
REMARK    5  A    between atoms: N_20  and  C_21 
REMARK    6  A    between atoms: C_25  and  C_27 
ROOT
ATOM      1  C   LIG d   1       5.846  -2.541  -4.107  0.00  0.00     0.027 A 
ATOM      2  C   LIG d   1       4.880  -3.185  -4.873  0.00  0.00    -0.007 A 
ATOM      3  C   LIG d   1       5.202  -4.343  -5.562  0.00  0.00     0.140 A 
ATOM      4  C   LIG d   1       6.507  -4.864  -5.477  0.00  0.00     0.026 A 
ATOM      5  C   LIG d   1       7.477  -4.210  -4.710  0.00  0.00    -0.009 A 
ATOM      6  C   LIG d   1       7.148  -3.058  -4.027  0.00  0.00     0.125 A 
ATOM      7  C   LIG d   1       6.833  -6.087  -6.216  0.00  0.00    -0.013 A 
ATOM      8  C   LIG d   1       5.853  -6.675  -6.949  0.00  0.00     0.028 A 
ATOM      9  C   LIG d   1       4.563  -6.102  -6.984  0.00  0.00     0.338 A 
ATOM     10  O   LIG d   1       3.693  -6.639  -7.644  0.00  0.00    -0.245 OA
ATOM     11  O   LIG d   1       4.272  -4.979  -6.310  0.00  0.00    -0.422 OA
ATOM     12  H   LIG d   1       3.880  -2.783  -4.930  0.00  0.00     0.066 H 
ATOM     13  H   LIG d   1       8.479  -4.608  -4.649  0.00  0.00     0.066 H 
ATOM     14  H   LIG d   1       6.058  -7.579  -7.502  0.00  0.00     0.069 H 
ENDROOT
BRANCH   7  15
ATOM     15  C   LIG d   1       8.218  -6.678  -6.161  0.00  0.00     0.035 C 
ATOM     16  H   LIG d   1       8.811  -6.146  -5.419  0.00  0.00     0.051 H 
ATOM     17  H   LIG d   1       8.691  -6.587  -7.139  0.00  0.00     0.051 H 
BRANCH  15  18
ATOM     18  N   LIG d   1       8.130  -8.094  -5.793  0.00  0.00    -0.340 N 
ATOM     19  H   LIG d   1       8.163  -8.776  -6.481  0.00  0.00     0.146 HD
BRANCH  18  20
ATOM     20  C   LIG d   1       7.996  -8.459  -4.451  0.00  0.00     0.028 A 
ATOM     21  C   LIG d   1       6.967  -9.305  -4.059  0.00  0.00    -0.029 A 
ATOM     22  C   LIG d   1       6.842  -9.670  -2.733  0.00  0.00     0.057 A 
ATOM     23  H   LIG d   1       6.268  -9.682  -4.793  0.00  0.00     0.064 H 
ATOM     24  C   LIG d   1       7.731  -9.184  -1.794  0.00  0.00    -0.050 A 
ATOM     25  C   LIG d   1       8.758  -8.340  -2.180  0.00  0.00    -0.059 A 
ATOM     26  H   LIG d   1       7.629  -9.466  -0.757  0.00  0.00     0.062 H 
ATOM     27  C   LIG d   1       8.892  -7.977  -3.506  0.00  0.00    -0.041 A 
ATOM     28  H   LIG d   1       9.454  -7.966  -1.445  0.00  0.00     0.062 H 
ATOM     29  H   LIG d   1       9.693  -7.318  -3.807  0.00  0.00     0.064 H 
BRANCH  22  30
ATOM     30  C   LIG d   1       5.729 -10.593  -2.309  0.00  0.00     0.417 C 
ATOM     31  F   LIG d   1       5.826 -10.839  -0.934  0.00  0.00    -0.166 F 
ATOM     32  F   LIG d   1       4.495  -9.999  -2.589  0.00  0.00    -0.166 F 
ATOM     33  F   LIG d   1       5.834 -11.801  -3.007  0.00  0.00    -0.166 F 
ENDBRANCH  22  30
ENDBRANCH  18  20
ENDBRANCH  15  18
ENDBRANCH   7  15
BRANCH   6  34
ATOM     34  O   LIG d   1       8.085  -2.422  -3.277  0.00  0.00    -0.506 OA
ATOM     35  H   LIG d   1       8.984  -2.498  -3.627  0.00  0.00     0.292 HD
ENDBRANCH   6  34
BRANCH   1  36
ATOM     36  C   LIG d   1       5.498  -1.302  -3.372  0.00  0.00    -0.014 A 
ATOM     37  C   LIG d   1       6.034  -0.078  -3.771  0.00  0.00    -0.054 A 
ATOM     38  C   LIG d   1       5.706   1.072  -3.083  0.00  0.00    -0.061 A 
ATOM     39  H   LIG d   1       6.704  -0.031  -4.617  0.00  0.00     0.062 H 
ATOM     40  C   LIG d   1       4.848   1.013  -2.000  0.00  0.00    -0.062 A 
ATOM     41  H   LIG d   1       6.121   2.021  -3.391  0.00  0.00     0.062 H 
ATOM     42  C   LIG d   1       4.313  -0.199  -1.599  0.00  0.00    -0.061 A 
ATOM     43  H   LIG d   1       4.594   1.916  -1.464  0.00  0.00     0.062 H 
ATOM     44  C   LIG d   1       4.629  -1.355  -2.283  0.00  0.00    -0.054 A 
ATOM     45  H   LIG d   1       3.644  -0.238  -0.753  0.00  0.00     0.062 H 
ATOM     46  H   LIG d   1       4.207  -2.299  -1.972  0.00  0.00     0.062 H 
ENDBRANCH   1  36
TORSDOF 6
ENDMDL
MODEL 3
REMARK VINA RESULT:      -8.0      3.826      5.939
REMARK  6 active torsions:
REMARK  status: ('A' for Active; 'I' for Inactive)
REMARK    1  A    between atoms: C_4  and  C_7 
REMARK    2  A    between atoms: C_12  and  O_13 
REMARK    3  A    between atoms: C_14  and  C_19 
REMARK    4  A    between atoms: C_19  and  N_20 
REMARK    5  A    between atoms: N_20  and  C_21 
REMARK    6  A    between atoms: C_25  and  C_27 
ROOT
ATOM      1  C   LIG d   1       8.740   2.071  -6.030  0.00  0.00     0.027 A 
ATOM      2  C   LIG d   1       8.160   2.307  -7.271  0.00  0.00    -0.007 A 
ATOM      3  C   LIG d   1       7.247   1.403  -7.790  0.00  0.00     0.140 A 
ATOM      4  C   LIG d   1       6.909   0.253  -7.054  0.00  0.00     0.026 A 
ATOM      5  C   LIG d   1       7.500   0.017  -5.808  0.00  0.00    -0.009 A 
ATOM      6  C   LIG d   1       8.407   0.922  -5.298  0.00  0.00     0.125 A 
ATOM      7  C   LIG d   1       5.945  -0.696  -7.620  0.00  0.00    -0.013 A 
ATOM      8  C   LIG d   1       5.409  -0.417  -8.835  0.00  0.00     0.028 A 
ATOM      9  C   LIG d   1       5.788   0.760  -9.517  0.00  0.00     0.338 A 
ATOM     10  O   LIG d   1       5.299   0.998 -10.606  0.00  0.00    -0.245 OA
ATOM     11  O   LIG d   1       6.675   1.621  -8.996  0.00  0.00    -0.422 OA
ATOM     12  H   LIG d   1       8.420   3.194  -7.829  0.00  0.00     0.066 H 
ATOM     13  H   LIG d   1       7.243  -0.869  -5.245  0.00  0.00     0.066 H 
ATOM     14  H   LIG d   1       4.693  -1.092  -9.279  0.00  0.00     0.069 H 
ENDROOT
BRANCH   7  15
ATOM     15  C   LIG d   1       5.558  -1.944  -6.871  0.00  0.00     0.035 C 
ATOM     16  H   LIG d   1       6.334  -2.190  -6.147  0.00  0.00     0.051 H 
ATOM     17  H   LIG d   1       5.441  -2.768  -7.575  0.00  0.00     0.051 H 
BRANCH  15  18
ATOM     18  N   LIG d   1       4.290  -1.719  -6.170  0.00  0.00    -0.340 N 
ATOM     19  H   LIG d   1       3.460  -1.687  -6.670  0.00  0.00     0.146 HD
BRANCH  18  20
ATOM     20  C   LIG d   1       4.279  -1.550  -4.783  0.00  0.00     0.028 A 
ATOM     21  C   LIG d   1       4.381  -0.277  -4.237  0.00  0.00    -0.029 A 
ATOM     22  C   LIG d   1       4.363  -0.113  -2.866  0.00  0.00     0.057 A 
ATOM     23  H   LIG d   1       4.469   0.584  -4.884  0.00  0.00     0.064 H 
ATOM     24  C   LIG d   1       4.257  -1.214  -2.038  0.00  0.00    -0.050 A 
ATOM     25  C   LIG d   1       4.155  -2.484  -2.578  0.00  0.00    -0.059 A 
ATOM     26  H   LIG d   1       4.248  -1.084  -0.966  0.00  0.00     0.062 H 
ATOM     27  C   LIG d   1       4.167  -2.654  -3.949  0.00  0.00    -0.041 A 
ATOM     28  H   LIG d   1       4.068  -3.341  -1.929  0.00  0.00     0.062 H 
ATOM     29  H   LIG d   1       4.088  -3.645  -4.371  0.00  0.00     0.064 H 
BRANCH  22  30
ATOM     30  C   LIG d   1       4.466   1.268  -2.272  0.00  0.00     0.417 C 
ATOM     31  F   LIG d   1       5.500   1.970  -2.903  0.00  0.00    -0.166 F 
ATOM     32  F   LIG d   1       3.259   1.949  -2.460  0.00  0.00    -0.166 F 
ATOM     33  F   LIG d   1       4.738   1.168  -0.904  0.00  0.00    -0.166 F 
ENDBRANCH  22  30
ENDBRANCH  18  20
ENDBRANCH  15  18
ENDBRANCH   7  15
BRANCH   6  34
ATOM     34  O   LIG d   1       8.980   0.699  -4.086  0.00  0.00    -0.506 OA
ATOM     35  H   LIG d   1       8.957  -0.227  -3.806  0.00  0.00     0.292 HD
ENDBRANCH   6  34
BRANCH   1  36
ATOM     36  C   LIG d   1       9.717   3.040  -5.477  0.00  0.00    -0.014 A 
ATOM     37  C   LIG d   1       9.279   4.095  -4.677  0.00  0.00    -0.054 A 
ATOM     38  C   LIG d   1      10.194   4.993  -4.165  0.00  0.00    -0.061 A 
ATOM     39  H   LIG d   1       8.228   4.208  -4.458  0.00  0.00     0.062 H 
ATOM     40  C   LIG d   1      11.541   4.848  -4.444  0.00  0.00    -0.062 A 
ATOM     41  H   LIG d   1       9.856   5.811  -3.545  0.00  0.00     0.062 H 
ATOM     42  C   LIG d   1      11.980   3.804  -5.238  0.00  0.00    -0.061 A 
ATOM     43  H   LIG d   1      12.253   5.554  -4.041  0.00  0.00     0.062 H 
ATOM     44  C   LIG d   1      11.076   2.896  -5.750  0.00  0.00    -0.054 A 
ATOM     45  H   LIG d   1      13.033   3.696  -5.452  0.00  0.00     0.062 H 
ATOM     46  H   LIG d   1      11.422   2.078  -6.365  0.00  0.00     0.062 H 
ENDBRANCH   1  36
TORSDOF 6
ENDMDL
MODEL 4
REMARK VINA RESULT:      -8.0      9.238     11.131
REMARK  6 active torsions:
REMARK  status: ('A' for Active; 'I' for Inactive)
REMARK    1  A    between atoms: C_4  and  C_7 
REMARK    2  A    between atoms: C_12  and  O_13 
REMARK    3  A    between atoms: C_14  and  C_19 
REMARK    4  A    between atoms: C_19  and  N_20 
REMARK    5  A    between atoms: N_20  and  C_21 
REMARK    6  A    between atoms: C_25  and  C_27 
ROOT
ATOM      1  C   LIG d   1       5.390  -2.740  -4.656  0.00  0.00     0.027 A 
ATOM      2  C   LIG d   1       6.655  -2.495  -4.133  0.00  0.00    -0.007 A 
ATOM      3  C   LIG d   1       7.635  -3.472  -4.208  0.00  0.00     0.140 A 
ATOM      4  C   LIG d   1       7.343  -4.706  -4.819  0.00  0.00     0.026 A 
ATOM      5  C   LIG d   1       6.068  -4.950  -5.339  0.00  0.00    -0.009 A 
ATOM      6  C   LIG d   1       5.098  -3.972  -5.261  0.00  0.00     0.125 A 
ATOM      7  C   LIG d   1       8.390  -5.730  -4.885  0.00  0.00    -0.013 A 
ATOM      8  C   LIG d   1       9.607  -5.439  -4.358  0.00  0.00     0.028 A 
ATOM      9  C   LIG d   1       9.832  -4.178  -3.766  0.00  0.00     0.338 A 
ATOM     10  O   LIG d   1      10.928  -3.929  -3.298  0.00  0.00    -0.245 OA
ATOM     11  O   LIG d   1       8.868  -3.246  -3.703  0.00  0.00    -0.422 OA
ATOM     12  H   LIG d   1       6.872  -1.545  -3.670  0.00  0.00     0.066 H 
ATOM     13  H   LIG d   1       5.844  -5.899  -5.804  0.00  0.00     0.066 H 
ATOM     14  H   LIG d   1      10.401  -6.169  -4.394  0.00  0.00     0.069 H 
ENDROOT
BRANCH   7  15
ATOM     15  C   LIG d   1       8.123  -7.068  -5.523  0.00  0.00     0.035 C 
ATOM     16  H   LIG d   1       8.619  -7.114  -6.492  0.00  0.00     0.051 H 
ATOM     17  H   LIG d   1       7.049  -7.199  -5.657  0.00  0.00     0.051 H 
BRANCH  15  18
ATOM     18  N   LIG d   1       8.640  -8.133  -4.659  0.00  0.00    -0.340 N 
ATOM     19  H   LIG d   1       9.576  -8.382  -4.706  0.00  0.00     0.146 HD
BRANCH  18  20
ATOM     20  C   LIG d   1       7.785  -8.789  -3.771  0.00  0.00     0.028 A 
ATOM     21  C   LIG d   1       6.511  -9.161  -4.179  0.00  0.00    -0.029 A 
ATOM     22  C   LIG d   1       5.670  -9.816  -3.300  0.00  0.00     0.057 A 
ATOM     23  H   LIG d   1       6.180  -8.944  -5.184  0.00  0.00     0.064 H 
ATOM     24  C   LIG d   1       6.091 -10.089  -2.013  0.00  0.00    -0.050 A 
ATOM     25  C   LIG d   1       7.359  -9.720  -1.602  0.00  0.00    -0.059 A 
ATOM     26  H   LIG d   1       5.430 -10.597  -1.326  0.00  0.00     0.062 H 
ATOM     27  C   LIG d   1       8.207  -9.070  -2.478  0.00  0.00    -0.041 A 
ATOM     28  H   LIG d   1       7.687  -9.939  -0.597  0.00  0.00     0.062 H 
ATOM     29  H   LIG d   1       9.197  -8.782  -2.158  0.00  0.00     0.064 H 
BRANCH  22  30
ATOM     30  C   LIG d   1       4.290 -10.226  -3.744  0.00  0.00     0.417 C 
ATOM     31  F   LIG d   1       4.150  -9.985  -5.116  0.00  0.00    -0.166 F 
ATOM     32  F   LIG d   1       4.102 -11.589  -3.490  0.00  0.00    -0.166 F 
ATOM     33  F   LIG d   1       3.334  -9.485  -3.041  0.00  0.00    -0.166 F 
ENDBRANCH  22  30
ENDBRANCH  18  20
ENDBRANCH  15  18
ENDBRANCH   7  15
BRANCH   6  34
ATOM     34  O   LIG d   1       3.859  -4.203  -5.769  0.00  0.00    -0.506 OA
ATOM     35  H   LIG d   1       3.649  -5.141  -5.877  0.00  0.00     0.292 HD
ENDBRANCH   6  34
BRANCH   1  36
ATOM     36  C   LIG d   1       4.343  -1.693  -4.575  0.00  0.00    -0.014 A 
ATOM     37  C   LIG d   1       4.125  -0.836  -5.653  0.00  0.00    -0.054 A 
ATOM     38  C   LIG d   1       3.149   0.137  -5.571  0.00  0.00    -0.061 A 
ATOM     39  H   LIG d   1       4.718  -0.934  -6.551  0.00  0.00     0.062 H 
ATOM     40  C   LIG d   1       2.389   0.261  -4.423  0.00  0.00    -0.062 A 
ATOM     41  H   LIG d   1       2.980   0.801  -6.406  0.00  0.00     0.062 H 
ATOM     42  C   LIG d   1       2.601  -0.585  -3.350  0.00  0.00    -0.061 A 
ATOM     43  H   LIG d   1       1.626   1.025  -4.364  0.00  0.00     0.062 H 
ATOM     44  C   LIG d   1       3.570  -1.565  -3.422  0.00  0.00    -0.054 A 
ATOM     45  H   LIG d   1       2.004  -0.482  -2.456  0.00  0.00     0.062 H 
ATOM     46  H   LIG d   1       3.731  -2.229  -2.585  0.00  0.00     0.062 H 
ENDBRANCH   1  36
TORSDOF 6
ENDMDL
MODEL 5
REMARK VINA RESULT:      -7.7      2.162      3.546
REMARK  6 active torsions:
REMARK  status: ('A' for Active; 'I' for Inactive)
REMARK    1  A    between atoms: C_4  and  C_7 
REMARK    2  A    between atoms: C_12  and  O_13 
REMARK    3  A    between atoms: C_14  and  C_19 
REMARK    4  A    between atoms: C_19  and  N_20 
REMARK    5  A    between atoms: N_20  and  C_21 
REMARK    6  A    between atoms: C_25  and  C_27 
ROOT
ATOM      1  C   LIG d   1      10.198   4.107  -4.016  0.00  0.00     0.027 A 
ATOM      2  C   LIG d   1       9.713   4.124  -5.319  0.00  0.00    -0.007 A 
ATOM      3  C   LIG d   1       9.182   2.970  -5.874  0.00  0.00     0.140 A 
ATOM      4  C   LIG d   1       9.133   1.789  -5.111  0.00  0.00     0.026 A 
ATOM      5  C   LIG d   1       9.627   1.775  -3.802  0.00  0.00    -0.009 A 
ATOM      6  C   LIG d   1      10.153   2.928  -3.257  0.00  0.00     0.125 A 
ATOM      7  C   LIG d   1       8.574   0.576  -5.715  0.00  0.00    -0.013 A 
ATOM      8  C   LIG d   1       8.115   0.648  -6.990  0.00  0.00     0.028 A 
ATOM      9  C   LIG d   1       8.189   1.868  -7.696  0.00  0.00     0.338 A 
ATOM     10  O   LIG d   1       7.773   1.919  -8.840  0.00  0.00    -0.245 OA
ATOM     11  O   LIG d   1       8.707   2.973  -7.140  0.00  0.00    -0.422 OA
ATOM     12  H   LIG d   1       9.750   5.035  -5.897  0.00  0.00     0.066 H 
ATOM     13  H   LIG d   1       9.593   0.867  -3.219  0.00  0.00     0.066 H 
ATOM     14  H   LIG d   1       7.692  -0.226  -7.464  0.00  0.00     0.069 H 
ENDROOT
BRANCH   7  15
ATOM     15  C   LIG d   1       8.506  -0.714  -4.940  0.00  0.00     0.035 C 
ATOM     16  H   LIG d   1       8.516  -0.497  -3.872  0.00  0.00     0.051 H 
ATOM     17  H   LIG d   1       9.364  -1.336  -5.193  0.00  0.00     0.051 H 
BRANCH  15  18
ATOM     18  N   LIG d   1       7.271  -1.424  -5.282  0.00  0.00    -0.340 N 
ATOM     19  H   LIG d   1       7.196  -1.883  -6.133  0.00  0.00     0.146 HD
BRANCH  18  20
ATOM     20  C   LIG d   1       6.202  -1.440  -4.382  0.00  0.00     0.028 A 
ATOM     21  C   LIG d   1       5.808  -0.269  -3.749  0.00  0.00    -0.029 A 
ATOM     22  C   LIG d   1       4.747  -0.286  -2.865  0.00  0.00     0.057 A 
ATOM     23  H   LIG d   1       6.329   0.656  -3.950  0.00  0.00     0.064 H 
ATOM     24  C   LIG d   1       4.084  -1.470  -2.602  0.00  0.00    -0.050 A 
ATOM     25  C   LIG d   1       4.473  -2.640  -3.232  0.00  0.00    -0.059 A 
ATOM     26  H   LIG d   1       3.258  -1.483  -1.907  0.00  0.00     0.062 H 
ATOM     27  C   LIG d   1       5.530  -2.627  -4.120  0.00  0.00    -0.041 A 
ATOM     28  H   LIG d   1       3.950  -3.562  -3.028  0.00  0.00     0.062 H 
ATOM     29  H   LIG d   1       5.834  -3.540  -4.612  0.00  0.00     0.064 H 
BRANCH  22  30
ATOM     30  C   LIG d   1       4.315   0.985  -2.182  0.00  0.00     0.417 C 
ATOM     31  F   LIG d   1       2.917   1.050  -2.158  0.00  0.00    -0.166 F 
ATOM     32  F   LIG d   1       4.805   1.002  -0.872  0.00  0.00    -0.166 F 
ATOM     33  F   LIG d   1       4.821   2.085  -2.883  0.00  0.00    -0.166 F 
ENDBRANCH  22  30
ENDBRANCH  18  20
ENDBRANCH  15  18
ENDBRANCH   7  15
BRANCH   6  34
ATOM     34  O   LIG d   1      10.630   2.921  -1.985  0.00  0.00    -0.506 OA
ATOM     35  H   LIG d   1      10.705   3.800  -1.589  0.00  0.00     0.292 HD
ENDBRANCH   6  34
BRANCH   1  36
ATOM     36  C   LIG d   1      10.765   5.343  -3.425  0.00  0.00    -0.014 A 
ATOM     37  C   LIG d   1       9.944   6.222  -2.720  0.00  0.00    -0.054 A 
ATOM     38  C   LIG d   1      10.478   7.371  -2.172  0.00  0.00    -0.061 A 
ATOM     39  H   LIG d   1       8.893   6.004  -2.602  0.00  0.00     0.062 H 
ATOM     40  C   LIG d   1      11.825   7.650  -2.321  0.00  0.00    -0.062 A 
ATOM     41  H   LIG d   1       9.843   8.052  -1.625  0.00  0.00     0.062 H 
ATOM     42  C   LIG d   1      12.644   6.782  -3.020  0.00  0.00    -0.061 A 
ATOM     43  H   LIG d   1      12.238   8.550  -1.890  0.00  0.00     0.062 H 
ATOM     44  C   LIG d   1      12.123   5.627  -3.567  0.00  0.00    -0.054 A 
ATOM     45  H   LIG d   1      13.694   7.006  -3.133  0.00  0.00     0.062 H 
ATOM     46  H   LIG d   1      12.765   4.948  -4.108  0.00  0.00     0.062 H 
ENDBRANCH   1  36
TORSDOF 6
ENDMDL
MODEL 6
REMARK VINA RESULT:      -7.7      8.243     10.721
REMARK  6 active torsions:
REMARK  status: ('A' for Active; 'I' for Inactive)
REMARK    1  A    between atoms: C_4  and  C_7 
REMARK    2  A    between atoms: C_12  and  O_13 
REMARK    3  A    between atoms: C_14  and  C_19 
REMARK    4  A    between atoms: C_19  and  N_20 
REMARK    5  A    between atoms: N_20  and  C_21 
REMARK    6  A    between atoms: C_25  and  C_27 
ROOT
ATOM      1  C   LIG d   1       5.305  -2.119  -4.048  0.00  0.00     0.027 A 
ATOM      2  C   LIG d   1       4.475  -3.163  -4.441  0.00  0.00    -0.007 A 
ATOM      3  C   LIG d   1       5.023  -4.310  -4.993  0.00  0.00     0.140 A 
ATOM      4  C   LIG d   1       6.418  -4.412  -5.148  0.00  0.00     0.026 A 
ATOM      5  C   LIG d   1       7.248  -3.356  -4.756  0.00  0.00    -0.009 A 
ATOM      6  C   LIG d   1       6.695  -2.218  -4.207  0.00  0.00     0.125 A 
ATOM      7  C   LIG d   1       6.980  -5.630  -5.739  0.00  0.00    -0.013 A 
ATOM      8  C   LIG d   1       6.125  -6.619  -6.106  0.00  0.00     0.028 A 
ATOM      9  C   LIG d   1       4.736  -6.453  -5.916  0.00  0.00     0.338 A 
ATOM     10  O   LIG d   1       3.981  -7.348  -6.248  0.00  0.00    -0.245 OA
ATOM     11  O   LIG d   1       4.227  -5.333  -5.379  0.00  0.00    -0.422 OA
ATOM     12  H   LIG d   1       3.406  -3.080  -4.315  0.00  0.00     0.066 H 
ATOM     13  H   LIG d   1       8.318  -3.434  -4.880  0.00  0.00     0.066 H 
ATOM     14  H   LIG d   1       6.506  -7.531  -6.540  0.00  0.00     0.069 H 
ENDROOT
BRANCH   7  15
ATOM     15  C   LIG d   1       8.466  -5.782  -5.930  0.00  0.00     0.035 C 
ATOM     16  H   LIG d   1       8.978  -4.918  -5.506  0.00  0.00     0.051 H 
ATOM     17  H   LIG d   1       8.690  -5.851  -6.995  0.00  0.00     0.051 H 
BRANCH  15  18
ATOM     18  N   LIG d   1       8.923  -7.000  -5.256  0.00  0.00    -0.340 N 
ATOM     19  H   LIG d   1       8.955  -7.839  -5.741  0.00  0.00     0.146 HD
BRANCH  18  20
ATOM     20  C   LIG d   1       9.312  -6.952  -3.915  0.00  0.00     0.028 A 
ATOM     21  C   LIG d   1       9.330  -8.113  -3.154  0.00  0.00    -0.029 A 
ATOM     22  C   LIG d   1       9.721  -8.064  -1.830  0.00  0.00     0.057 A 
ATOM     23  H   LIG d   1       9.043  -9.056  -3.599  0.00  0.00     0.064 H 
ATOM     24  C   LIG d   1      10.082  -6.858  -1.260  0.00  0.00    -0.050 A 
ATOM     25  C   LIG d   1      10.066  -5.699  -2.015  0.00  0.00    -0.059 A 
ATOM     26  H   LIG d   1      10.383  -6.821  -0.223  0.00  0.00     0.062 H 
ATOM     27  C   LIG d   1       9.681  -5.743  -3.340  0.00  0.00    -0.041 A 
ATOM     28  H   LIG d   1      10.353  -4.759  -1.567  0.00  0.00     0.062 H 
ATOM     29  H   LIG d   1       9.668  -4.838  -3.930  0.00  0.00     0.064 H 
BRANCH  22  30
ATOM     30  C   LIG d   1       9.748  -9.325  -1.006  0.00  0.00     0.417 C 
ATOM     31  F   LIG d   1      10.425  -9.083   0.194  0.00  0.00    -0.166 F 
ATOM     32  F   LIG d   1       8.438  -9.729  -0.728  0.00  0.00    -0.166 F 
ATOM     33  F   LIG d   1      10.406 -10.334  -1.718  0.00  0.00    -0.166 F 
ENDBRANCH  22  30
ENDBRANCH  18  20
ENDBRANCH  15  18
ENDBRANCH   7  15
BRANCH   6  34
ATOM     34  O   LIG d   1       7.498  -1.192  -3.820  0.00  0.00    -0.506 OA
ATOM     35  H   LIG d   1       8.272  -1.471  -3.311  0.00  0.00     0.292 HD
ENDBRANCH   6  34
BRANCH   1  36
ATOM     36  C   LIG d   1       4.716  -0.893  -3.458  0.00  0.00    -0.014 A 
ATOM     37  C   LIG d   1       5.038  -0.521  -2.153  0.00  0.00    -0.054 A 
ATOM     38  C   LIG d   1       4.488   0.622  -1.609  0.00  0.00    -0.061 A 
ATOM     39  H   LIG d   1       5.718  -1.125  -1.570  0.00  0.00     0.062 H 
ATOM     40  C   LIG d   1       3.619   1.397  -2.355  0.00  0.00    -0.062 A 
ATOM     41  H   LIG d   1       4.737   0.911  -0.598  0.00  0.00     0.062 H 
ATOM     42  C   LIG d   1       3.295   1.032  -3.649  0.00  0.00    -0.061 A 
ATOM     43  H   LIG d   1       3.190   2.291  -1.925  0.00  0.00     0.062 H 
ATOM     44  C   LIG d   1       3.843  -0.105  -4.206  0.00  0.00    -0.054 A 
ATOM     45  H   LIG d   1       2.615   1.641  -4.227  0.00  0.00     0.062 H 
ATOM     46  H   LIG d   1       3.594  -0.386  -5.219  0.00  0.00     0.062 H 
ENDBRANCH   1  36
TORSDOF 6
ENDMDL
MODEL 7
REMARK VINA RESULT:      -7.6      4.957      7.535
REMARK  6 active torsions:
REMARK  status: ('A' for Active; 'I' for Inactive)
REMARK    1  A    between atoms: C_4  and  C_7 
REMARK    2  A    between atoms: C_12  and  O_13 
REMARK    3  A    between atoms: C_14  and  C_19 
REMARK    4  A    between atoms: C_19  and  N_20 
REMARK    5  A    between atoms: N_20  and  C_21 
REMARK    6  A    between atoms: C_25  and  C_27 
ROOT
ATOM      1  C   LIG d   1       7.994   1.548  -4.455  0.00  0.00     0.027 A 
ATOM      2  C   LIG d   1       7.186   1.038  -3.445  0.00  0.00    -0.007 A 
ATOM      3  C   LIG d   1       6.321  -0.011  -3.716  0.00  0.00     0.140 A 
ATOM      4  C   LIG d   1       6.272  -0.557  -5.012  0.00  0.00     0.026 A 
ATOM      5  C   LIG d   1       7.082  -0.037  -6.026  0.00  0.00    -0.009 A 
ATOM      6  C   LIG d   1       7.940   1.007  -5.749  0.00  0.00     0.125 A 
ATOM      7  C   LIG d   1       5.348  -1.663  -5.282  0.00  0.00    -0.013 A 
ATOM      8  C   LIG d   1       4.582  -2.123  -4.260  0.00  0.00     0.028 A 
ATOM      9  C   LIG d   1       4.687  -1.533  -2.982  0.00  0.00     0.338 A 
ATOM     10  O   LIG d   1       3.994  -1.955  -2.074  0.00  0.00    -0.245 OA
ATOM     11  O   LIG d   1       5.531  -0.517  -2.742  0.00  0.00    -0.422 OA
ATOM     12  H   LIG d   1       7.232   1.459  -2.453  0.00  0.00     0.066 H 
ATOM     13  H   LIG d   1       7.040  -0.454  -7.021  0.00  0.00     0.066 H 
ATOM     14  H   LIG d   1       3.894  -2.939  -4.423  0.00  0.00     0.069 H 
ENDROOT
BRANCH   7  15
ATOM     15  C   LIG d   1       5.255  -2.275  -6.655  0.00  0.00     0.035 C 
ATOM     16  H   LIG d   1       5.604  -3.307  -6.617  0.00  0.00     0.051 H 
ATOM     17  H   LIG d   1       5.874  -1.706  -7.349  0.00  0.00     0.051 H 
BRANCH  15  18
ATOM     18  N   LIG d   1       3.862  -2.248  -7.108  0.00  0.00    -0.340 N 
ATOM     19  H   LIG d   1       3.198  -2.802  -6.669  0.00  0.00     0.146 HD
BRANCH  18  20
ATOM     20  C   LIG d   1       3.490  -1.423  -8.173  0.00  0.00     0.028 A 
ATOM     21  C   LIG d   1       3.738  -0.059  -8.117  0.00  0.00    -0.029 A 
ATOM     22  C   LIG d   1       3.376   0.753  -9.174  0.00  0.00     0.057 A 
ATOM     23  H   LIG d   1       4.219   0.368  -7.248  0.00  0.00     0.064 H 
ATOM     24  C   LIG d   1       2.755   0.209 -10.282  0.00  0.00    -0.050 A 
ATOM     25  C   LIG d   1       2.506  -1.151 -10.343  0.00  0.00    -0.059 A 
ATOM     26  H   LIG d   1       2.468   0.845 -11.106  0.00  0.00     0.062 H 
ATOM     27  C   LIG d   1       2.871  -1.968  -9.291  0.00  0.00    -0.041 A 
ATOM     28  H   LIG d   1       2.025  -1.573 -11.212  0.00  0.00     0.062 H 
ATOM     29  H   LIG d   1       2.676  -3.029  -9.338  0.00  0.00     0.064 H 
BRANCH  22  30
ATOM     30  C   LIG d   1       3.651   2.232  -9.116  0.00  0.00     0.417 C 
ATOM     31  F   LIG d   1       3.326   2.816 -10.346  0.00  0.00    -0.166 F 
ATOM     32  F   LIG d   1       2.876   2.813  -8.107  0.00  0.00    -0.166 F 
ATOM     33  F   LIG d   1       5.007   2.444  -8.843  0.00  0.00    -0.166 F 
ENDBRANCH  22  30
ENDBRANCH  18  20
ENDBRANCH  15  18
ENDBRANCH   7  15
BRANCH   6  34
ATOM     34  O   LIG d   1       8.733   1.513  -6.730  0.00  0.00    -0.506 OA
ATOM     35  H   LIG d   1       8.364   2.290  -7.171  0.00  0.00     0.292 HD
ENDBRANCH   6  34
BRANCH   1  36
ATOM     36  C   LIG d   1       8.917   2.671  -4.164  0.00  0.00    -0.014 A 
ATOM     37  C   LIG d   1       9.978   2.492  -3.276  0.00  0.00    -0.054 A 
ATOM     38  C   LIG d   1      10.834   3.540  -3.009  0.00  0.00    -0.061 A 
ATOM     39  H   LIG d   1      10.129   1.534  -2.800  0.00  0.00     0.062 H 
ATOM     40  C   LIG d   1      10.642   4.766  -3.619  0.00  0.00    -0.062 A 
ATOM     41  H   LIG d   1      11.656   3.402  -2.322  0.00  0.00     0.062 H 
ATOM     42  C   LIG d   1       9.591   4.950  -4.499  0.00  0.00    -0.061 A 
ATOM     43  H   LIG d   1      11.315   5.585  -3.406  0.00  0.00     0.062 H 
ATOM     44  C   LIG d   1       8.732   3.908  -4.779  0.00  0.00    -0.054 A 
ATOM     45  H   LIG d   1       9.446   5.910  -4.972  0.00  0.00     0.062 H 
ATOM     46  H   LIG d   1       7.914   4.051  -5.471  0.00  0.00     0.062 H 
ENDBRANCH   1  36
TORSDOF 6
ENDMDL
MODEL 8
REMARK VINA RESULT:      -7.6      7.588     11.057
REMARK  6 active torsions:
REMARK  status: ('A' for Active; 'I' for Inactive)
REMARK    1  A    between atoms: C_4  and  C_7 
REMARK    2  A    between atoms: C_12  and  O_13 
REMARK    3  A    between atoms: C_14  and  C_19 
REMARK    4  A    between atoms: C_19  and  N_20 
REMARK    5  A    between atoms: N_20  and  C_21 
REMARK    6  A    between atoms: C_25  and  C_27 
ROOT
ATOM      1  C   LIG d   1       5.691  -2.468  -4.230  0.00  0.00     0.027 A 
ATOM      2  C   LIG d   1       4.705  -2.988  -5.062  0.00  0.00    -0.007 A 
ATOM      3  C   LIG d   1       4.955  -4.137  -5.796  0.00  0.00     0.140 A 
ATOM      4  C   LIG d   1       6.206  -4.772  -5.691  0.00  0.00     0.026 A 
ATOM      5  C   LIG d   1       7.197  -4.242  -4.858  0.00  0.00    -0.009 A 
ATOM      6  C   LIG d   1       6.940  -3.099  -4.130  0.00  0.00     0.125 A 
ATOM      7  C   LIG d   1       6.456  -5.983  -6.479  0.00  0.00    -0.013 A 
ATOM      8  C   LIG d   1       5.459  -6.448  -7.274  0.00  0.00     0.028 A 
ATOM      9  C   LIG d   1       4.225  -5.764  -7.326  0.00  0.00     0.338 A 
ATOM     10  O   LIG d   1       3.339  -6.192  -8.043  0.00  0.00    -0.245 OA
ATOM     11  O   LIG d   1       4.005  -4.653  -6.607  0.00  0.00    -0.422 OA
ATOM     12  H   LIG d   1       3.746  -2.498  -5.134  0.00  0.00     0.066 H 
ATOM     13  H   LIG d   1       8.159  -4.728  -4.782  0.00  0.00     0.066 H 
ATOM     14  H   LIG d   1       5.608  -7.340  -7.864  0.00  0.00     0.069 H 
ENDROOT
BRANCH   7  15
ATOM     15  C   LIG d   1       7.782  -6.694  -6.404  0.00  0.00     0.035 C 
ATOM     16  H   LIG d   1       8.578  -5.965  -6.260  0.00  0.00     0.051 H 
ATOM     17  H   LIG d   1       7.953  -7.242  -7.331  0.00  0.00     0.051 H 
BRANCH  15  18
ATOM     18  N   LIG d   1       7.770  -7.632  -5.279  0.00  0.00    -0.340 N 
ATOM     19  H   LIG d   1       8.297  -7.445  -4.487  0.00  0.00     0.146 HD
BRANCH  18  20
ATOM     20  C   LIG d   1       7.000  -8.796  -5.348  0.00  0.00     0.028 A 
ATOM     21  C   LIG d   1       6.051  -9.062  -4.369  0.00  0.00    -0.029 A 
ATOM     22  C   LIG d   1       5.287 -10.210  -4.444  0.00  0.00     0.057 A 
ATOM     23  H   LIG d   1       5.907  -8.368  -3.553  0.00  0.00     0.064 H 
ATOM     24  C   LIG d   1       5.474 -11.100  -5.484  0.00  0.00    -0.050 A 
ATOM     25  C   LIG d   1       6.419 -10.839  -6.461  0.00  0.00    -0.059 A 
ATOM     26  H   LIG d   1       4.879 -11.999  -5.538  0.00  0.00     0.062 H 
ATOM     27  C   LIG d   1       7.182  -9.690  -6.395  0.00  0.00    -0.041 A 
ATOM     28  H   LIG d   1       6.559 -11.534  -7.275  0.00  0.00     0.062 H 
ATOM     29  H   LIG d   1       7.919  -9.486  -7.157  0.00  0.00     0.064 H 
BRANCH  22  30
ATOM     30  C   LIG d   1       4.253 -10.495  -3.386  0.00  0.00     0.417 C 
ATOM     31  F   LIG d   1       4.892 -10.859  -2.196  0.00  0.00    -0.166 F 
ATOM     32  F   LIG d   1       3.479  -9.351  -3.168  0.00  0.00    -0.166 F 
ATOM     33  F   LIG d   1       3.427 -11.542  -3.812  0.00  0.00    -0.166 F 
ENDBRANCH  22  30
ENDBRANCH  18  20
ENDBRANCH  15  18
ENDBRANCH   7  15
BRANCH   6  34
ATOM     34  O   LIG d   1       7.898  -2.583  -3.316  0.00  0.00    -0.506 OA
ATOM     35  H   LIG d   1       8.414  -3.252  -2.845  0.00  0.00     0.292 HD
ENDBRANCH   6  34
BRANCH   1  36
ATOM     36  C   LIG d   1       5.421  -1.239  -3.446  0.00  0.00    -0.014 A 
ATOM     37  C   LIG d   1       4.610  -1.297  -2.313  0.00  0.00    -0.054 A 
ATOM     38  C   LIG d   1       4.363  -0.149  -1.587  0.00  0.00    -0.061 A 
ATOM     39  H   LIG d   1       4.178  -2.237  -2.004  0.00  0.00     0.062 H 
ATOM     40  C   LIG d   1       4.917   1.055  -1.982  0.00  0.00    -0.062 A 
ATOM     41  H   LIG d   1       3.735  -0.193  -0.709  0.00  0.00     0.062 H 
ATOM     42  C   LIG d   1       5.721   1.118  -3.105  0.00  0.00    -0.061 A 
ATOM     43  H   LIG d   1       4.720   1.951  -1.410  0.00  0.00     0.062 H 
ATOM     44  C   LIG d   1       5.981  -0.023  -3.836  0.00  0.00    -0.054 A 
ATOM     45  H   LIG d   1       6.150   2.062  -3.408  0.00  0.00     0.062 H 
ATOM     46  H   LIG d   1       6.613   0.027  -4.710  0.00  0.00     0.062 H 
ENDBRANCH   1  36
TORSDOF 6
ENDMDL
MODEL 9
REMARK VINA RESULT:      -7.5      7.914      9.814
REMARK  6 active torsions:
REMARK  status: ('A' for Active; 'I' for Inactive)
REMARK    1  A    between atoms: C_4  and  C_7 
REMARK    2  A    between atoms: C_12  and  O_13 
REMARK    3  A    between atoms: C_14  and  C_19 
REMARK    4  A    between atoms: C_19  and  N_20 
REMARK    5  A    between atoms: N_20  and  C_21 
REMARK    6  A    between atoms: C_25  and  C_27 
ROOT
ATOM      1  C   LIG d   1       7.378  -2.080  -4.387  0.00  0.00     0.027 A 
ATOM      2  C   LIG d   1       6.906  -1.285  -3.348  0.00  0.00    -0.007 A 
ATOM      3  C   LIG d   1       5.702  -0.613  -3.484  0.00  0.00     0.140 A 
ATOM      4  C   LIG d   1       4.960  -0.745  -4.673  0.00  0.00     0.026 A 
ATOM      5  C   LIG d   1       5.441  -1.541  -5.717  0.00  0.00    -0.009 A 
ATOM      6  C   LIG d   1       6.640  -2.207  -5.574  0.00  0.00     0.125 A 
ATOM      7  C   LIG d   1       3.691  -0.023  -4.802  0.00  0.00    -0.013 A 
ATOM      8  C   LIG d   1       3.277   0.739  -3.757  0.00  0.00     0.028 A 
ATOM      9  C   LIG d   1       4.068   0.821  -2.591  0.00  0.00     0.338 A 
ATOM     10  O   LIG d   1       3.685   1.508  -1.661  0.00  0.00    -0.245 OA
ATOM     11  O   LIG d   1       5.232   0.162  -2.481  0.00  0.00    -0.422 OA
ATOM     12  H   LIG d   1       7.478  -1.192  -2.438  0.00  0.00     0.066 H 
ATOM     13  H   LIG d   1       4.873  -1.639  -6.631  0.00  0.00     0.066 H 
ATOM     14  H   LIG d   1       2.345   1.280  -3.817  0.00  0.00     0.069 H 
ENDROOT
BRANCH   7  15
ATOM     15  C   LIG d   1       2.865  -0.129  -6.057  0.00  0.00     0.035 C 
ATOM     16  H   LIG d   1       1.807  -0.143  -5.797  0.00  0.00     0.051 H 
ATOM     17  H   LIG d   1       3.123  -1.047  -6.586  0.00  0.00     0.051 H 
BRANCH  15  18
ATOM     18  N   LIG d   1       3.141   1.024  -6.920  0.00  0.00    -0.340 N 
ATOM     19  H   LIG d   1       3.288   1.898  -6.527  0.00  0.00     0.146 HD
BRANCH  18  20
ATOM     20  C   LIG d   1       3.189   0.863  -8.307  0.00  0.00     0.028 A 
ATOM     21  C   LIG d   1       2.453  -0.145  -8.916  0.00  0.00    -0.029 A 
ATOM     22  C   LIG d   1       2.497  -0.298 -10.288  0.00  0.00     0.057 A 
ATOM     23  H   LIG d   1       1.842  -0.806  -8.318  0.00  0.00     0.064 H 
ATOM     24  C   LIG d   1       3.283   0.544 -11.053  0.00  0.00    -0.050 A 
ATOM     25  C   LIG d   1       4.018   1.549 -10.450  0.00  0.00    -0.059 A 
ATOM     26  H   LIG d   1       3.320   0.420 -12.125  0.00  0.00     0.062 H 
ATOM     27  C   LIG d   1       3.973   1.710  -9.079  0.00  0.00    -0.041 A 
ATOM     28  H   LIG d   1       4.627   2.207 -11.051  0.00  0.00     0.062 H 
ATOM     29  H   LIG d   1       4.546   2.494  -8.608  0.00  0.00     0.064 H 
BRANCH  22  30
ATOM     30  C   LIG d   1       1.694  -1.386 -10.950  0.00  0.00     0.417 C 
ATOM     31  F   LIG d   1       1.118  -2.203  -9.970  0.00  0.00    -0.166 F 
ATOM     32  F   LIG d   1       0.685  -0.814 -11.732  0.00  0.00    -0.166 F 
ATOM     33  F   LIG d   1       2.533  -2.156 -11.764  0.00  0.00    -0.166 F 
ENDBRANCH  22  30
ENDBRANCH  18  20
ENDBRANCH  15  18
ENDBRANCH   7  15
BRANCH   6  34
ATOM     34  O   LIG d   1       7.109  -2.986  -6.584  0.00  0.00    -0.506 OA
ATOM     35  H   LIG d   1       7.640  -3.737  -6.286  0.00  0.00     0.292 HD
ENDBRANCH   6  34
BRANCH   1  36
ATOM     36  C   LIG d   1       8.667  -2.797  -4.239  0.00  0.00    -0.014 A 
ATOM     37  C   LIG d   1       8.751  -3.923  -3.420  0.00  0.00    -0.054 A 
ATOM     38  C   LIG d   1       9.954  -4.587  -3.287  0.00  0.00    -0.061 A 
ATOM     39  H   LIG d   1       7.877  -4.275  -2.892  0.00  0.00     0.062 H 
ATOM     40  C   LIG d   1      11.073  -4.137  -3.964  0.00  0.00    -0.062 A 
ATOM     41  H   LIG d   1      10.020  -5.459  -2.653  0.00  0.00     0.062 H 
ATOM     42  C   LIG d   1      10.995  -3.021  -4.777  0.00  0.00    -0.061 A 
ATOM     43  H   LIG d   1      12.013  -4.661  -3.856  0.00  0.00     0.062 H 
ATOM     44  C   LIG d   1       9.797  -2.353  -4.923  0.00  0.00    -0.054 A 
ATOM     45  H   LIG d   1      11.873  -2.676  -5.302  0.00  0.00     0.062 H 
ATOM     46  H   LIG d   1       9.737  -1.484  -5.562  0.00  0.00     0.062 H 
ENDBRANCH   1  36
TORSDOF 6
ENDMDL
MODEL 10
REMARK VINA RESULT:      -7.5      7.621     12.048
REMARK  6 active torsions:
REMARK  status: ('A' for Active; 'I' for Inactive)
REMARK    1  A    between atoms: C_4  and  C_7 
REMARK    2  A    between atoms: C_12  and  O_13 
REMARK    3  A    between atoms: C_14  and  C_19 
REMARK    4  A    between atoms: C_19  and  N_20 
REMARK    5  A    between atoms: N_20  and  C_21 
REMARK    6  A    between atoms: C_25  and  C_27 
ROOT
ATOM      1  C   LIG d   1       3.536  -1.353 -12.387  0.00  0.00     0.027 A 
ATOM      2  C   LIG d   1       3.806  -0.006 -12.169  0.00  0.00    -0.007 A 
ATOM      3  C   LIG d   1       3.794   0.501 -10.880  0.00  0.00     0.140 A 
ATOM      4  C   LIG d   1       3.512  -0.353  -9.797  0.00  0.00     0.026 A 
ATOM      5  C   LIG d   1       3.235  -1.705 -10.022  0.00  0.00    -0.009 A 
ATOM      6  C   LIG d   1       3.250  -2.203 -11.308  0.00  0.00     0.125 A 
ATOM      7  C   LIG d   1       3.497   0.202  -8.440  0.00  0.00    -0.013 A 
ATOM      8  C   LIG d   1       3.768   1.523  -8.284  0.00  0.00     0.028 A 
ATOM      9  C   LIG d   1       4.049   2.321  -9.414  0.00  0.00     0.338 A 
ATOM     10  O   LIG d   1       4.290   3.504  -9.260  0.00  0.00    -0.245 OA
ATOM     11  O   LIG d   1       4.055   1.809 -10.654  0.00  0.00    -0.422 OA
ATOM     12  H   LIG d   1       4.026   0.642 -13.003  0.00  0.00     0.066 H 
ATOM     13  H   LIG d   1       3.015  -2.359  -9.190  0.00  0.00     0.066 H 
ATOM     14  H   LIG d   1       3.770   1.963  -7.298  0.00  0.00     0.069 H 
ENDROOT
BRANCH   7  15
ATOM     15  C   LIG d   1       3.195  -0.672  -7.251  0.00  0.00     0.035 C 
ATOM     16  H   LIG d   1       4.127  -0.975  -6.776  0.00  0.00     0.051 H 
ATOM     17  H   LIG d   1       2.649  -1.556  -7.580  0.00  0.00     0.051 H 
BRANCH  15  18
ATOM     18  N   LIG d   1       2.378   0.076  -6.291  0.00  0.00    -0.340 N 
ATOM     19  H   LIG d   1       1.512   0.422  -6.558  0.00  0.00     0.146 HD
BRANCH  18  20
ATOM     20  C   LIG d   1       2.847   0.292  -4.993  0.00  0.00     0.028 A 
ATOM     21  C   LIG d   1       3.389  -0.759  -4.265  0.00  0.00    -0.029 A 
ATOM     22  C   LIG d   1       3.859  -0.541  -2.985  0.00  0.00     0.057 A 
ATOM     23  H   LIG d   1       3.447  -1.746  -4.703  0.00  0.00     0.064 H 
ATOM     24  C   LIG d   1       3.778   0.719  -2.423  0.00  0.00    -0.050 A 
ATOM     25  C   LIG d   1       3.239   1.769  -3.145  0.00  0.00    -0.059 A 
ATOM     26  H   LIG d   1       4.142   0.886  -1.420  0.00  0.00     0.062 H 
ATOM     27  C   LIG d   1       2.774   1.558  -4.428  0.00  0.00    -0.041 A 
ATOM     28  H   LIG d   1       3.183   2.753  -2.705  0.00  0.00     0.062 H 
ATOM     29  H   LIG d   1       2.353   2.378  -4.992  0.00  0.00     0.064 H 
BRANCH  22  30
ATOM     30  C   LIG d   1       4.452  -1.680  -2.197  0.00  0.00     0.417 C 
ATOM     31  F   LIG d   1       4.694  -1.262  -0.884  0.00  0.00    -0.166 F 
ATOM     32  F   LIG d   1       3.559  -2.757  -2.187  0.00  0.00    -0.166 F 
ATOM     33  F   LIG d   1       5.656  -2.079  -2.789  0.00  0.00    -0.166 F 
ENDBRANCH  22  30
ENDBRANCH  18  20
ENDBRANCH  15  18
ENDBRANCH   7  15
BRANCH   6  34
ATOM     34  O   LIG d   1       2.987  -3.517 -11.530  0.00  0.00    -0.506 OA
ATOM     35  H   LIG d   1       2.791  -3.727 -12.454  0.00  0.00     0.292 HD
ENDBRANCH   6  34
BRANCH   1  36
ATOM     36  C   LIG d   1       3.550  -1.893 -13.767  0.00  0.00    -0.014 A 
ATOM     37  C   LIG d   1       2.360  -2.003 -14.487  0.00  0.00    -0.054 A 
ATOM     38  C   LIG d   1       2.379  -2.507 -15.772  0.00  0.00    -0.061 A 
ATOM     39  H   LIG d   1       1.427  -1.694 -14.040  0.00  0.00     0.062 H 
ATOM     40  C   LIG d   1       3.574  -2.901 -16.345  0.00  0.00    -0.062 A 
ATOM     41  H   LIG d   1       1.458  -2.592 -16.330  0.00  0.00     0.062 H 
ATOM     42  C   LIG d   1       4.757  -2.795 -15.636  0.00  0.00    -0.061 A 
ATOM     43  H   LIG d   1       3.584  -3.295 -17.352  0.00  0.00     0.062 H 
ATOM     44  C   LIG d   1       4.752  -2.287 -14.353  0.00  0.00    -0.054 A 
ATOM     45  H   LIG d   1       5.687  -3.105 -16.090  0.00  0.00     0.062 H 
ATOM     46  H   LIG d   1       5.677  -2.200 -13.802  0.00  0.00     0.062 H 
ENDBRANCH   1  36
TORSDOF 6
ENDMDL
