MODEL 1
REMARK VINA RESULT:      -6.8      0.000      0.000
REMARK  4 active torsions:
REMARK  status: ('A' for Active; 'I' for Inactive)
REMARK    1  A    between atoms: C_1  and  C_2 
REMARK       I    between atoms: C_2  and  N_4 
REMARK    2  A    between atoms: C_12  and  O_13 
REMARK    3  A    between atoms: N_16  and  C_17 
REMARK    4  A    between atoms: C_17  and  C_18 
ROOT
ATOM      1  C   LIG d   1       7.057  -0.122  -4.699  0.00  0.00     0.049 C 
ATOM      2  H   LIG d   1       6.085   0.308  -4.933  0.00  0.00     0.051 H 
ATOM      3  H   LIG d   1       7.389  -0.743  -5.532  0.00  0.00     0.051 H 
ENDROOT
BRANCH   1   4
ATOM      4  N   LIG d   1       8.028   0.953  -4.476  0.00  0.00    -0.274 NA
ATOM      5  C   LIG d   1       8.419   1.696  -5.472  0.00  0.00     0.170 A 
ATOM      6  C   LIG d   1       9.347   2.843  -5.679  0.00  0.00     0.227 A 
ATOM      7  C   LIG d   1       8.151   1.790  -6.920  0.00  0.00     0.147 A 
ATOM      8  N   LIG d   1      10.130   3.546  -4.910  0.00  0.00    -0.224 N 
ATOM      9  C   LIG d   1       9.006   2.857  -7.115  0.00  0.00     0.012 A 
ATOM     10  C   LIG d   1      10.927   4.650  -5.464  0.00  0.00     0.161 C 
ATOM     11  C   LIG d   1      10.232   3.249  -3.475  0.00  0.00     0.161 C 
ATOM     12  C   LIG d   1      10.608   5.927  -4.675  0.00  0.00     0.074 C 
ATOM     13  H   LIG d   1      10.672   4.795  -6.513  0.00  0.00     0.104 H 
ATOM     14  H   LIG d   1      11.987   4.418  -5.371  0.00  0.00     0.104 H 
ATOM     15  N   LIG d   1      10.710   5.630  -3.239  0.00  0.00    -0.290 N 
ATOM     16  H   LIG d   1       9.598   6.259  -4.909  0.00  0.00     0.053 H 
ATOM     17  H   LIG d   1      11.322   6.707  -4.938  0.00  0.00     0.053 H 
ATOM     18  C   LIG d   1      11.520   6.357  -2.444  0.00  0.00     0.213 C 
ATOM     19  C   LIG d   1       9.918   4.522  -2.687  0.00  0.00     0.074 C 
ATOM     20  O   LIG d   1      11.600   6.100  -1.262  0.00  0.00    -0.276 OA
ATOM     21  H   LIG d   1      10.176   4.375  -1.638  0.00  0.00     0.053 H 
ATOM     22  H   LIG d   1       8.856   4.752  -2.776  0.00  0.00     0.053 H 
ATOM     23  H   LIG d   1       9.518   2.469  -3.210  0.00  0.00     0.104 H 
ATOM     24  H   LIG d   1      11.243   2.917  -3.240  0.00  0.00     0.104 H 
ATOM     25  O   LIG d   1       9.377   3.606  -8.180  0.00  0.00    -0.867 OA
BRANCH  18  26
ATOM     26  C   LIG d   1      12.327   7.490  -3.025  0.00  0.00     0.012 C 
ATOM     27  H   LIG d   1      12.871   7.994  -2.228  0.00  0.00     0.032 H 
ATOM     28  H   LIG d   1      13.034   7.095  -3.755  0.00  0.00     0.032 H 
ATOM     29  H   LIG d   1      11.658   8.199  -3.514  0.00  0.00     0.032 H 
ENDBRANCH  18  26
BRANCH   7  30
ATOM     30  O   LIG d   1       7.350   1.088  -7.757  0.00  0.00    -0.505 OA
ATOM     31  H   LIG d   1       7.247   1.488  -8.631  0.00  0.00     0.292 HD
ENDBRANCH   7  30
ENDBRANCH   1   4
BRANCH   1  32
ATOM     32  C   LIG d   1       6.947  -0.979  -3.437  0.00  0.00     0.022 C 
ATOM     33  H   LIG d   1       7.688  -0.649  -2.709  0.00  0.00     0.037 H 
ATOM     34  C   LIG d   1       5.543  -0.828  -2.840  0.00  0.00    -0.016 C 
ATOM     35  N   LIG d   1       4.535  -1.289  -3.799  0.00  0.00     0.238 N 
ATOM     36  H   LIG d   1       5.472  -1.416  -1.925  0.00  0.00     0.085 H 
ATOM     37  C   LIG d   1       5.320   0.653  -2.517  0.00  0.00    -0.009 C 
ATOM     38  C   LIG d   1       4.745  -2.710  -4.110  0.00  0.00    -0.032 C 
ATOM     39  C   LIG d   1       3.188  -1.144  -3.228  0.00  0.00    -0.032 C 
ATOM     40  H   LIG d   1       4.603  -0.745  -4.645  0.00  0.00     0.204 HD
ATOM     41  C   LIG d   1       6.113  -2.909  -4.766  0.00  0.00    -0.012 C 
ATOM     42  H   LIG d   1       3.966  -3.050  -4.791  0.00  0.00     0.081 H 
ATOM     43  H   LIG d   1       4.699  -3.293  -3.190  0.00  0.00     0.081 H 
ATOM     44  C   LIG d   1       7.201  -2.445  -3.793  0.00  0.00    -0.039 C 
ATOM     45  H   LIG d   1       6.166  -2.321  -5.682  0.00  0.00     0.032 H 
ATOM     46  H   LIG d   1       6.256  -3.964  -4.999  0.00  0.00     0.032 H 
ATOM     47  H   LIG d   1       8.179  -2.543  -4.265  0.00  0.00     0.027 H 
ATOM     48  H   LIG d   1       7.166  -3.052  -2.889  0.00  0.00     0.027 H 
ATOM     49  C   LIG d   1       2.891   0.325  -2.946  0.00  0.00    -0.012 C 
ATOM     50  H   LIG d   1       2.453  -1.528  -3.935  0.00  0.00     0.081 H 
ATOM     51  H   LIG d   1       3.125  -1.711  -2.299  0.00  0.00     0.081 H 
ATOM     52  C   LIG d   1       3.918   0.851  -1.937  0.00  0.00    -0.043 C 
ATOM     53  H   LIG d   1       1.888   0.423  -2.530  0.00  0.00     0.032 H 
ATOM     54  H   LIG d   1       2.963   0.898  -3.871  0.00  0.00     0.032 H 
ATOM     55  H   LIG d   1       3.829   0.299  -1.002  0.00  0.00     0.027 H 
ATOM     56  H   LIG d   1       3.743   1.912  -1.757  0.00  0.00     0.027 H 
ATOM     57  H   LIG d   1       6.062   0.983  -1.790  0.00  0.00     0.032 H 
ATOM     58  H   LIG d   1       5.421   1.241  -3.429  0.00  0.00     0.032 H 
ENDBRANCH   1  32
TORSDOF 4
ENDMDL
MODEL 2
REMARK VINA RESULT:      -6.5      5.037     10.223
REMARK  4 active torsions:
REMARK  status: ('A' for Active; 'I' for Inactive)
REMARK    1  A    between atoms: C_1  and  C_2 
REMARK       I    between atoms: C_2  and  N_4 
REMARK    2  A    between atoms: C_12  and  O_13 
REMARK    3  A    between atoms: N_16  and  C_17 
REMARK    4  A    between atoms: C_17  and  C_18 
ROOT
ATOM      1  C   LIG d   1       4.563  -2.560  -4.669  0.00  0.00     0.049 C 
ATOM      2  H   LIG d   1       5.242  -1.985  -5.297  0.00  0.00     0.051 H 
ATOM      3  H   LIG d   1       3.544  -2.196  -4.808  0.00  0.00     0.051 H 
ENDROOT
BRANCH   1   4
ATOM      4  N   LIG d   1       4.630  -3.975  -5.044  0.00  0.00    -0.274 NA
ATOM      5  C   LIG d   1       4.337  -4.343  -6.259  0.00  0.00     0.170 A 
ATOM      6  C   LIG d   1       4.277  -5.617  -7.029  0.00  0.00     0.227 A 
ATOM      7  C   LIG d   1       3.907  -3.691  -7.512  0.00  0.00     0.147 A 
ATOM      8  N   LIG d   1       4.506  -6.871  -6.757  0.00  0.00    -0.224 N 
ATOM      9  C   LIG d   1       3.856  -4.869  -8.230  0.00  0.00     0.012 A 
ATOM     10  C   LIG d   1       4.350  -7.902  -7.793  0.00  0.00     0.161 C 
ATOM     11  C   LIG d   1       4.924  -7.279  -5.409  0.00  0.00     0.161 C 
ATOM     12  C   LIG d   1       5.664  -8.686  -7.904  0.00  0.00     0.074 C 
ATOM     13  H   LIG d   1       4.125  -7.429  -8.749  0.00  0.00     0.104 H 
ATOM     14  H   LIG d   1       3.542  -8.578  -7.517  0.00  0.00     0.104 H 
ATOM     15  N   LIG d   1       6.082  -9.094  -6.556  0.00  0.00    -0.290 N 
ATOM     16  H   LIG d   1       6.431  -8.054  -8.350  0.00  0.00     0.053 H 
ATOM     17  H   LIG d   1       5.510  -9.570  -8.523  0.00  0.00     0.053 H 
ATOM     18  C   LIG d   1       6.319 -10.391  -6.275  0.00  0.00     0.213 C 
ATOM     19  C   LIG d   1       6.232  -8.065  -5.518  0.00  0.00     0.074 C 
ATOM     20  O   LIG d   1       6.660 -10.717  -5.157  0.00  0.00    -0.276 OA
ATOM     21  H   LIG d   1       6.454  -8.538  -4.562  0.00  0.00     0.053 H 
ATOM     22  H   LIG d   1       7.041  -7.387  -5.791  0.00  0.00     0.053 H 
ATOM     23  H   LIG d   1       5.078  -6.395  -4.789  0.00  0.00     0.104 H 
ATOM     24  H   LIG d   1       4.157  -7.912  -4.963  0.00  0.00     0.104 H 
ATOM     25  O   LIG d   1       3.549  -5.200  -9.506  0.00  0.00    -0.867 OA
BRANCH  18  26
ATOM     26  C   LIG d   1       6.161 -11.436  -7.349  0.00  0.00     0.012 C 
ATOM     27  H   LIG d   1       7.118 -11.926  -7.524  0.00  0.00     0.032 H 
ATOM     28  H   LIG d   1       5.427 -12.176  -7.031  0.00  0.00     0.032 H 
ATOM     29  H   LIG d   1       5.821 -10.961  -8.270  0.00  0.00     0.032 H 
ENDBRANCH  18  26
BRANCH   7  30
ATOM     30  O   LIG d   1       3.660  -2.400  -7.841  0.00  0.00    -0.505 OA
ATOM     31  H   LIG d   1       2.720  -2.186  -7.914  0.00  0.00     0.292 HD
ENDBRANCH   7  30
ENDBRANCH   1   4
BRANCH   1  32
ATOM     32  C   LIG d   1       4.965  -2.402  -3.202  0.00  0.00     0.022 C 
ATOM     33  H   LIG d   1       5.520  -3.284  -2.881  0.00  0.00     0.037 H 
ATOM     34  C   LIG d   1       5.850  -1.160  -3.048  0.00  0.00    -0.016 C 
ATOM     35  N   LIG d   1       5.111   0.038  -3.453  0.00  0.00     0.238 N 
ATOM     36  H   LIG d   1       6.160  -1.062  -2.008  0.00  0.00     0.085 H 
ATOM     37  C   LIG d   1       7.084  -1.341  -3.937  0.00  0.00    -0.009 C 
ATOM     38  C   LIG d   1       3.926   0.216  -2.602  0.00  0.00    -0.032 C 
ATOM     39  C   LIG d   1       5.958   1.231  -3.307  0.00  0.00    -0.032 C 
ATOM     40  H   LIG d   1       4.823  -0.054  -4.416  0.00  0.00     0.204 HD
ATOM     41  C   LIG d   1       2.977  -0.972  -2.764  0.00  0.00    -0.012 C 
ATOM     42  H   LIG d   1       3.410   1.132  -2.887  0.00  0.00     0.081 H 
ATOM     43  H   LIG d   1       4.238   0.288  -1.559  0.00  0.00     0.081 H 
ATOM     44  C   LIG d   1       3.709  -2.251  -2.343  0.00  0.00    -0.039 C 
ATOM     45  H   LIG d   1       2.671  -1.054  -3.807  0.00  0.00     0.032 H 
ATOM     46  H   LIG d   1       2.100  -0.828  -2.134  0.00  0.00     0.032 H 
ATOM     47  H   LIG d   1       3.056  -3.111  -2.494  0.00  0.00     0.027 H 
ATOM     48  H   LIG d   1       3.990  -2.182  -1.293  0.00  0.00     0.027 H 
ATOM     49  C   LIG d   1       7.174   1.129  -4.222  0.00  0.00    -0.012 C 
ATOM     50  H   LIG d   1       5.383   2.118  -3.572  0.00  0.00     0.081 H 
ATOM     51  H   LIG d   1       6.290   1.314  -2.272  0.00  0.00     0.081 H 
ATOM     52  C   LIG d   1       7.986  -0.109  -3.828  0.00  0.00    -0.043 C 
ATOM     53  H   LIG d   1       7.791   2.020  -4.111  0.00  0.00     0.032 H 
ATOM     54  H   LIG d   1       6.846   1.036  -5.258  0.00  0.00     0.032 H 
ATOM     55  H   LIG d   1       8.338  -0.005  -2.802  0.00  0.00     0.027 H 
ATOM     56  H   LIG d   1       8.836  -0.218  -4.500  0.00  0.00     0.027 H 
ATOM     57  H   LIG d   1       7.637  -2.224  -3.616  0.00  0.00     0.032 H 
ATOM     58  H   LIG d   1       6.769  -1.468  -4.973  0.00  0.00     0.032 H 
ENDBRANCH   1  32
TORSDOF 4
ENDMDL
MODEL 3
REMARK VINA RESULT:      -6.4      5.233      9.139
REMARK  4 active torsions:
REMARK  status: ('A' for Active; 'I' for Inactive)
REMARK    1  A    between atoms: C_1  and  C_2 
REMARK       I    between atoms: C_2  and  N_4 
REMARK    2  A    between atoms: C_12  and  O_13 
REMARK    3  A    between atoms: N_16  and  C_17 
REMARK    4  A    between atoms: C_17  and  C_18 
ROOT
ATOM      1  C   LIG d   1       3.693   0.033  -5.435  0.00  0.00     0.049 C 
ATOM      2  H   LIG d   1       4.778   0.124  -5.444  0.00  0.00     0.051 H 
ATOM      3  H   LIG d   1       3.254   0.956  -5.056  0.00  0.00     0.051 H 
ENDROOT
BRANCH   1   4
ATOM      4  N   LIG d   1       3.210  -0.214  -6.796  0.00  0.00    -0.274 NA
ATOM      5  C   LIG d   1       3.972   0.058  -7.817  0.00  0.00     0.170 A 
ATOM      6  C   LIG d   1       3.881  -0.035  -9.302  0.00  0.00     0.227 A 
ATOM      7  C   LIG d   1       5.325   0.602  -8.042  0.00  0.00     0.147 A 
ATOM      8  N   LIG d   1       2.974  -0.437 -10.146  0.00  0.00    -0.224 N 
ATOM      9  C   LIG d   1       5.247   0.513  -9.418  0.00  0.00     0.012 A 
ATOM     10  C   LIG d   1       3.229  -0.395 -11.594  0.00  0.00     0.161 C 
ATOM     11  C   LIG d   1       1.678  -0.940  -9.670  0.00  0.00     0.161 C 
ATOM     12  C   LIG d   1       3.006  -1.798 -12.171  0.00  0.00     0.074 C 
ATOM     13  H   LIG d   1       4.257  -0.084 -11.775  0.00  0.00     0.104 H 
ATOM     14  H   LIG d   1       2.543   0.308 -12.065  0.00  0.00     0.104 H 
ATOM     15  N   LIG d   1       1.710  -2.302 -11.694  0.00  0.00    -0.290 N 
ATOM     16  H   LIG d   1       3.802  -2.462 -11.836  0.00  0.00     0.053 H 
ATOM     17  H   LIG d   1       3.001  -1.749 -13.259  0.00  0.00     0.053 H 
ATOM     18  C   LIG d   1       0.772  -2.718 -12.568  0.00  0.00     0.213 C 
ATOM     19  C   LIG d   1       1.453  -2.338 -10.247  0.00  0.00     0.074 C 
ATOM     20  O   LIG d   1      -0.295  -3.127 -12.163  0.00  0.00    -0.276 OA
ATOM     21  H   LIG d   1       0.423  -2.646 -10.066  0.00  0.00     0.053 H 
ATOM     22  H   LIG d   1       2.137  -3.042  -9.773  0.00  0.00     0.053 H 
ATOM     23  H   LIG d   1       1.682  -0.990  -8.581  0.00  0.00     0.104 H 
ATOM     24  H   LIG d   1       0.881  -0.277 -10.005  0.00  0.00     0.104 H 
ATOM     25  O   LIG d   1       6.078   0.805 -10.446  0.00  0.00    -0.867 OA
BRANCH  18  26
ATOM     26  C   LIG d   1       1.050  -2.674 -14.049  0.00  0.00     0.012 C 
ATOM     27  H   LIG d   1       0.901  -1.660 -14.417  0.00  0.00     0.032 H 
ATOM     28  H   LIG d   1       2.079  -2.981 -14.235  0.00  0.00     0.032 H 
ATOM     29  H   LIG d   1       0.370  -3.352 -14.565  0.00  0.00     0.032 H 
ENDBRANCH  18  26
BRANCH   7  30
ATOM     30  O   LIG d   1       6.298   1.029  -7.201  0.00  0.00    -0.505 OA
ATOM     31  H   LIG d   1       6.034   1.769  -6.638  0.00  0.00     0.292 HD
ENDBRANCH   7  30
ENDBRANCH   1   4
BRANCH   1  32
ATOM     32  C   LIG d   1       3.286  -1.132  -4.531  0.00  0.00     0.022 C 
ATOM     33  H   LIG d   1       2.646  -1.817  -5.088  0.00  0.00     0.037 H 
ATOM     34  C   LIG d   1       4.542  -1.876  -4.063  0.00  0.00    -0.016 C 
ATOM     35  N   LIG d   1       5.403  -0.976  -3.292  0.00  0.00     0.238 N 
ATOM     36  H   LIG d   1       4.252  -2.723  -3.442  0.00  0.00     0.085 H 
ATOM     37  C   LIG d   1       5.287  -2.380  -5.303  0.00  0.00    -0.009 C 
ATOM     38  C   LIG d   1       4.692  -0.491  -2.100  0.00  0.00    -0.032 C 
ATOM     39  C   LIG d   1       6.609  -1.687  -2.843  0.00  0.00    -0.032 C 
ATOM     40  H   LIG d   1       5.670  -0.191  -3.868  0.00  0.00     0.204 HD
ATOM     41  C   LIG d   1       3.458   0.313  -2.514  0.00  0.00    -0.012 C 
ATOM     42  H   LIG d   1       5.357   0.144  -1.516  0.00  0.00     0.081 H 
ATOM     43  H   LIG d   1       4.381  -1.341  -1.493  0.00  0.00     0.081 H 
ATOM     44  C   LIG d   1       2.523  -0.595  -3.319  0.00  0.00    -0.039 C 
ATOM     45  H   LIG d   1       3.764   1.160  -3.129  0.00  0.00     0.032 H 
ATOM     46  H   LIG d   1       2.942   0.673  -1.624  0.00  0.00     0.032 H 
ATOM     47  H   LIG d   1       1.659  -0.022  -3.656  0.00  0.00     0.027 H 
ATOM     48  H   LIG d   1       2.195  -1.426  -2.696  0.00  0.00     0.027 H 
ATOM     49  C   LIG d   1       7.422  -2.156  -4.045  0.00  0.00    -0.012 C 
ATOM     50  H   LIG d   1       7.219  -1.017  -2.237  0.00  0.00     0.081 H 
ATOM     51  H   LIG d   1       6.318  -2.550  -2.243  0.00  0.00     0.081 H 
ATOM     52  C   LIG d   1       6.562  -3.112  -4.879  0.00  0.00    -0.043 C 
ATOM     53  H   LIG d   1       8.316  -2.676  -3.701  0.00  0.00     0.032 H 
ATOM     54  H   LIG d   1       7.707  -1.297  -4.653  0.00  0.00     0.032 H 
ATOM     55  H   LIG d   1       6.300  -3.985  -4.281  0.00  0.00     0.027 H 
ATOM     56  H   LIG d   1       7.116  -3.424  -5.764  0.00  0.00     0.027 H 
ATOM     57  H   LIG d   1       4.646  -3.063  -5.860  0.00  0.00     0.032 H 
ATOM     58  H   LIG d   1       5.550  -1.533  -5.936  0.00  0.00     0.032 H 
ENDBRANCH   1  32
TORSDOF 4
ENDMDL
MODEL 4
REMARK VINA RESULT:      -6.3      4.976      9.855
REMARK  4 active torsions:
REMARK  status: ('A' for Active; 'I' for Inactive)
REMARK    1  A    between atoms: C_1  and  C_2 
REMARK       I    between atoms: C_2  and  N_4 
REMARK    2  A    between atoms: C_12  and  O_13 
REMARK    3  A    between atoms: N_16  and  C_17 
REMARK    4  A    between atoms: C_17  and  C_18 
ROOT
ATOM      1  C   LIG d   1       7.538  -2.074  -4.206  0.00  0.00     0.049 C 
ATOM      2  H   LIG d   1       7.215  -1.980  -3.170  0.00  0.00     0.051 H 
ATOM      3  H   LIG d   1       8.590  -1.797  -4.284  0.00  0.00     0.051 H 
ENDROOT
BRANCH   1   4
ATOM      4  N   LIG d   1       7.364  -3.459  -4.649  0.00  0.00    -0.274 NA
ATOM      5  C   LIG d   1       8.212  -4.375  -4.274  0.00  0.00     0.170 A 
ATOM      6  C   LIG d   1       8.401  -5.838  -4.484  0.00  0.00     0.227 A 
ATOM      7  C   LIG d   1       9.433  -4.445  -3.447  0.00  0.00     0.147 A 
ATOM      8  N   LIG d   1       7.763  -6.766  -5.140  0.00  0.00    -0.224 N 
ATOM      9  C   LIG d   1       9.608  -5.802  -3.634  0.00  0.00     0.012 A 
ATOM     10  C   LIG d   1       8.241  -8.156  -5.123  0.00  0.00     0.161 C 
ATOM     11  C   LIG d   1       6.554  -6.441  -5.909  0.00  0.00     0.161 C 
ATOM     12  C   LIG d   1       7.098  -9.061  -4.645  0.00  0.00     0.074 C 
ATOM     13  H   LIG d   1       9.087  -8.245  -4.442  0.00  0.00     0.104 H 
ATOM     14  H   LIG d   1       8.544  -8.450  -6.128  0.00  0.00     0.104 H 
ATOM     15  N   LIG d   1       5.888  -8.735  -5.414  0.00  0.00    -0.290 N 
ATOM     16  H   LIG d   1       6.914  -8.889  -3.585  0.00  0.00     0.053 H 
ATOM     17  H   LIG d   1       7.365 -10.104  -4.808  0.00  0.00     0.053 H 
ATOM     18  C   LIG d   1       5.228  -9.695  -6.092  0.00  0.00     0.213 C 
ATOM     19  C   LIG d   1       5.415  -7.344  -5.435  0.00  0.00     0.074 C 
ATOM     20  O   LIG d   1       4.234  -9.414  -6.727  0.00  0.00    -0.276 OA
ATOM     21  H   LIG d   1       4.570  -7.255  -6.119  0.00  0.00     0.053 H 
ATOM     22  H   LIG d   1       5.109  -7.047  -4.432  0.00  0.00     0.053 H 
ATOM     23  H   LIG d   1       6.286  -5.397  -5.746  0.00  0.00     0.104 H 
ATOM     24  H   LIG d   1       6.737  -6.614  -6.969  0.00  0.00     0.104 H 
ATOM     25  O   LIG d   1      10.511  -6.718  -3.213  0.00  0.00    -0.867 OA
BRANCH  18  26
ATOM     26  C   LIG d   1       5.727 -11.117  -6.062  0.00  0.00     0.012 C 
ATOM     27  H   LIG d   1       6.776 -11.141  -6.354  0.00  0.00     0.032 H 
ATOM     28  H   LIG d   1       5.620 -11.518  -5.054  0.00  0.00     0.032 H 
ATOM     29  H   LIG d   1       5.142 -11.721  -6.756  0.00  0.00     0.032 H 
ENDBRANCH  18  26
BRANCH   7  30
ATOM     30  O   LIG d   1      10.127  -3.514  -2.749  0.00  0.00    -0.505 OA
ATOM     31  H   LIG d   1       9.584  -2.789  -2.413  0.00  0.00     0.292 HD
ENDBRANCH   7  30
ENDBRANCH   1   4
BRANCH   1  32
ATOM     32  C   LIG d   1       6.700  -1.148  -5.088  0.00  0.00     0.022 C 
ATOM     33  H   LIG d   1       6.220  -1.732  -5.874  0.00  0.00     0.037 H 
ATOM     34  C   LIG d   1       5.626  -0.464  -4.234  0.00  0.00    -0.016 C 
ATOM     35  N   LIG d   1       6.256   0.345  -3.187  0.00  0.00     0.238 N 
ATOM     36  H   LIG d   1       5.011   0.175  -4.867  0.00  0.00     0.085 H 
ATOM     37  C   LIG d   1       4.755  -1.554  -3.602  0.00  0.00    -0.009 C 
ATOM     38  C   LIG d   1       7.092   1.393  -3.789  0.00  0.00    -0.032 C 
ATOM     39  C   LIG d   1       5.227   1.001  -2.365  0.00  0.00    -0.032 C 
ATOM     40  H   LIG d   1       6.826  -0.247  -2.602  0.00  0.00     0.204 HD
ATOM     41  C   LIG d   1       8.220   0.762  -4.607  0.00  0.00    -0.012 C 
ATOM     42  H   LIG d   1       7.520   2.011  -3.001  0.00  0.00     0.081 H 
ATOM     43  H   LIG d   1       6.478   2.015  -4.442  0.00  0.00     0.081 H 
ATOM     44  C   LIG d   1       7.605  -0.091  -5.722  0.00  0.00    -0.039 C 
ATOM     45  H   LIG d   1       8.830   0.132  -3.960  0.00  0.00     0.032 H 
ATOM     46  H   LIG d   1       8.837   1.546  -5.044  0.00  0.00     0.032 H 
ATOM     47  H   LIG d   1       8.399  -0.580  -6.287  0.00  0.00     0.027 H 
ATOM     48  H   LIG d   1       7.019   0.544  -6.386  0.00  0.00     0.027 H 
ATOM     49  C   LIG d   1       4.369  -0.045  -1.662  0.00  0.00    -0.012 C 
ATOM     50  H   LIG d   1       5.709   1.631  -1.618  0.00  0.00     0.081 H 
ATOM     51  H   LIG d   1       4.595   1.619  -3.003  0.00  0.00     0.081 H 
ATOM     52  C   LIG d   1       3.681  -0.912  -2.721  0.00  0.00    -0.043 C 
ATOM     53  H   LIG d   1       3.615   0.451  -1.051  0.00  0.00     0.032 H 
ATOM     54  H   LIG d   1       4.999  -0.672  -1.030  0.00  0.00     0.032 H 
ATOM     55  H   LIG d   1       3.029  -0.292  -3.335  0.00  0.00     0.027 H 
ATOM     56  H   LIG d   1       3.096  -1.691  -2.232  0.00  0.00     0.027 H 
ATOM     57  H   LIG d   1       4.277  -2.139  -4.388  0.00  0.00     0.032 H 
ATOM     58  H   LIG d   1       5.379  -2.208  -2.993  0.00  0.00     0.032 H 
ENDBRANCH   1  32
TORSDOF 4
ENDMDL
MODEL 5
REMARK VINA RESULT:      -6.2      6.091      9.465
REMARK  4 active torsions:
REMARK  status: ('A' for Active; 'I' for Inactive)
REMARK    1  A    between atoms: C_1  and  C_2 
REMARK       I    between atoms: C_2  and  N_4 
REMARK    2  A    between atoms: C_12  and  O_13 
REMARK    3  A    between atoms: N_16  and  C_17 
REMARK    4  A    between atoms: C_17  and  C_18 
ROOT
ATOM      1  C   LIG d   1       5.239  -2.582  -6.155  0.00  0.00     0.049 C 
ATOM      2  H   LIG d   1       4.286  -2.707  -5.642  0.00  0.00     0.051 H 
ATOM      3  H   LIG d   1       5.913  -3.390  -5.870  0.00  0.00     0.051 H 
ENDROOT
BRANCH   1   4
ATOM      4  N   LIG d   1       5.023  -2.616  -7.604  0.00  0.00    -0.274 NA
ATOM      5  C   LIG d   1       4.270  -3.541  -8.130  0.00  0.00     0.170 A 
ATOM      6  C   LIG d   1       3.807  -3.926  -9.493  0.00  0.00     0.227 A 
ATOM      7  C   LIG d   1       3.484  -4.695  -7.653  0.00  0.00     0.147 A 
ATOM      8  N   LIG d   1       3.991  -3.459 -10.695  0.00  0.00    -0.224 N 
ATOM      9  C   LIG d   1       3.047  -5.052  -8.914  0.00  0.00     0.012 A 
ATOM     10  C   LIG d   1       3.353  -4.104 -11.853  0.00  0.00     0.161 C 
ATOM     11  C   LIG d   1       4.838  -2.280 -10.919  0.00  0.00     0.161 C 
ATOM     12  C   LIG d   1       2.537  -3.050 -12.612  0.00  0.00     0.074 C 
ATOM     13  H   LIG d   1       2.693  -4.901 -11.511  0.00  0.00     0.104 H 
ATOM     14  H   LIG d   1       4.119  -4.515 -12.509  0.00  0.00     0.104 H 
ATOM     15  N   LIG d   1       3.384  -1.870 -12.834  0.00  0.00    -0.290 N 
ATOM     16  H   LIG d   1       1.665  -2.767 -12.022  0.00  0.00     0.053 H 
ATOM     17  H   LIG d   1       2.216  -3.456 -13.570  0.00  0.00     0.053 H 
ATOM     18  C   LIG d   1       3.574  -1.388 -14.079  0.00  0.00     0.213 C 
ATOM     19  C   LIG d   1       4.026  -1.230 -11.678  0.00  0.00     0.074 C 
ATOM     20  O   LIG d   1       4.280  -0.416 -14.252  0.00  0.00    -0.276 OA
ATOM     21  H   LIG d   1       4.688  -0.434 -12.021  0.00  0.00     0.053 H 
ATOM     22  H   LIG d   1       3.263  -0.815 -11.020  0.00  0.00     0.053 H 
ATOM     23  H   LIG d   1       5.159  -1.872  -9.960  0.00  0.00     0.104 H 
ATOM     24  H   LIG d   1       5.710  -2.561 -11.509  0.00  0.00     0.104 H 
ATOM     25  O   LIG d   1       2.253  -6.028  -9.412  0.00  0.00    -0.867 OA
BRANCH  18  26
ATOM     26  C   LIG d   1       2.910  -2.055 -15.255  0.00  0.00     0.012 C 
ATOM     27  H   LIG d   1       3.572  -2.818 -15.662  0.00  0.00     0.032 H 
ATOM     28  H   LIG d   1       1.978  -2.518 -14.932  0.00  0.00     0.032 H 
ATOM     29  H   LIG d   1       2.698  -1.311 -16.023  0.00  0.00     0.032 H 
ENDBRANCH  18  26
BRANCH   7  30
ATOM     30  O   LIG d   1       3.264  -5.214  -6.421  0.00  0.00    -0.505 OA
ATOM     31  H   LIG d   1       3.395  -6.170  -6.368  0.00  0.00     0.292 HD
ENDBRANCH   7  30
ENDBRANCH   1   4
BRANCH   1  32
ATOM     32  C   LIG d   1       5.857  -1.239  -5.764  0.00  0.00     0.022 C 
ATOM     33  H   LIG d   1       5.914  -0.596  -6.642  0.00  0.00     0.037 H 
ATOM     34  C   LIG d   1       4.985  -0.568  -4.697  0.00  0.00    -0.016 C 
ATOM     35  N   LIG d   1       4.917  -1.409  -3.499  0.00  0.00     0.238 N 
ATOM     36  H   LIG d   1       5.409   0.402  -4.437  0.00  0.00     0.085 H 
ATOM     37  C   LIG d   1       3.582  -0.374  -5.282  0.00  0.00    -0.009 C 
ATOM     38  C   LIG d   1       6.261  -1.596  -2.934  0.00  0.00    -0.032 C 
ATOM     39  C   LIG d   1       4.079  -0.768  -2.475  0.00  0.00    -0.032 C 
ATOM     40  H   LIG d   1       4.524  -2.306  -3.741  0.00  0.00     0.204 HD
ATOM     41  C   LIG d   1       7.159  -2.319  -3.940  0.00  0.00    -0.012 C 
ATOM     42  H   LIG d   1       6.191  -2.188  -2.023  0.00  0.00     0.081 H 
ATOM     43  H   LIG d   1       6.693  -0.623  -2.699  0.00  0.00     0.081 H 
ATOM     44  C   LIG d   1       7.264  -1.468  -5.210  0.00  0.00    -0.039 C 
ATOM     45  H   LIG d   1       6.725  -3.289  -4.184  0.00  0.00     0.032 H 
ATOM     46  H   LIG d   1       8.150  -2.458  -3.509  0.00  0.00     0.032 H 
ATOM     47  H   LIG d   1       7.868  -1.992  -5.951  0.00  0.00     0.027 H 
ATOM     48  H   LIG d   1       7.724  -0.510  -4.970  0.00  0.00     0.027 H 
ATOM     49  C   LIG d   1       2.651  -0.608  -2.986  0.00  0.00    -0.012 C 
ATOM     50  H   LIG d   1       4.071  -1.384  -1.576  0.00  0.00     0.081 H 
ATOM     51  H   LIG d   1       4.489   0.214  -2.235  0.00  0.00     0.081 H 
ATOM     52  C   LIG d   1       2.671   0.276  -4.238  0.00  0.00    -0.043 C 
ATOM     53  H   LIG d   1       2.038  -0.139  -2.218  0.00  0.00     0.032 H 
ATOM     54  H   LIG d   1       2.241  -1.587  -3.237  0.00  0.00     0.032 H 
ATOM     55  H   LIG d   1       3.055   1.263  -3.983  0.00  0.00     0.027 H 
ATOM     56  H   LIG d   1       1.661   0.365  -4.639  0.00  0.00     0.027 H 
ATOM     57  H   LIG d   1       3.640   0.267  -6.161  0.00  0.00     0.032 H 
ATOM     58  H   LIG d   1       3.172  -1.343  -5.567  0.00  0.00     0.032 H 
ENDBRANCH   1  32
TORSDOF 4
ENDMDL
MODEL 6
REMARK VINA RESULT:      -6.1      3.600      4.172
REMARK  4 active torsions:
REMARK  status: ('A' for Active; 'I' for Inactive)
REMARK    1  A    between atoms: C_1  and  C_2 
REMARK       I    between atoms: C_2  and  N_4 
REMARK    2  A    between atoms: C_12  and  O_13 
REMARK    3  A    between atoms: N_16  and  C_17 
REMARK    4  A    between atoms: C_17  and  C_18 
ROOT
ATOM      1  C   LIG d   1       7.302  -0.601  -4.734  0.00  0.00     0.049 C 
ATOM      2  H   LIG d   1       6.869   0.392  -4.623  0.00  0.00     0.051 H 
ATOM      3  H   LIG d   1       6.897  -1.076  -5.629  0.00  0.00     0.051 H 
ENDROOT
BRANCH   1   4
ATOM      4  N   LIG d   1       8.757  -0.490  -4.859  0.00  0.00    -0.274 NA
ATOM      5  C   LIG d   1       9.326   0.682  -4.829  0.00  0.00     0.170 A 
ATOM      6  C   LIG d   1      10.711   1.225  -4.918  0.00  0.00     0.227 A 
ATOM      7  C   LIG d   1       8.898   2.088  -4.696  0.00  0.00     0.147 A 
ATOM      8  N   LIG d   1      11.898   0.706  -5.059  0.00  0.00    -0.224 N 
ATOM      9  C   LIG d   1      10.181   2.595  -4.771  0.00  0.00     0.012 A 
ATOM     10  C   LIG d   1      13.090   1.566  -5.101  0.00  0.00     0.161 C 
ATOM     11  C   LIG d   1      12.069  -0.748  -5.180  0.00  0.00     0.161 C 
ATOM     12  C   LIG d   1      14.070   1.095  -4.018  0.00  0.00     0.074 C 
ATOM     13  H   LIG d   1      12.803   2.599  -4.909  0.00  0.00     0.104 H 
ATOM     14  H   LIG d   1      13.561   1.489  -6.080  0.00  0.00     0.104 H 
ATOM     15  N   LIG d   1      14.240  -0.360  -4.139  0.00  0.00    -0.290 N 
ATOM     16  H   LIG d   1      13.671   1.336  -3.034  0.00  0.00     0.053 H 
ATOM     17  H   LIG d   1      15.032   1.589  -4.157  0.00  0.00     0.053 H 
ATOM     18  C   LIG d   1      15.468  -0.896  -4.286  0.00  0.00     0.213 C 
ATOM     19  C   LIG d   1      13.048  -1.218  -4.104  0.00  0.00     0.074 C 
ATOM     20  O   LIG d   1      15.596  -2.098  -4.389  0.00  0.00    -0.276 OA
ATOM     21  H   LIG d   1      13.335  -2.252  -4.298  0.00  0.00     0.053 H 
ATOM     22  H   LIG d   1      12.575  -1.145  -3.125  0.00  0.00     0.053 H 
ATOM     23  H   LIG d   1      11.107  -1.243  -5.042  0.00  0.00     0.104 H 
ATOM     24  H   LIG d   1      12.468  -0.990  -6.165  0.00  0.00     0.104 H 
ATOM     25  O   LIG d   1      10.726   3.834  -4.728  0.00  0.00    -0.867 OA
BRANCH  18  26
ATOM     26  C   LIG d   1      16.682  -0.003  -4.321  0.00  0.00     0.012 C 
ATOM     27  H   LIG d   1      16.636   0.705  -3.494  0.00  0.00     0.032 H 
ATOM     28  H   LIG d   1      17.582  -0.610  -4.231  0.00  0.00     0.032 H 
ATOM     29  H   LIG d   1      16.704   0.542  -5.265  0.00  0.00     0.032 H 
ENDBRANCH  18  26
BRANCH   7  30
ATOM     30  O   LIG d   1       7.685   2.672  -4.546  0.00  0.00    -0.505 OA
ATOM     31  H   LIG d   1       7.289   2.975  -5.374  0.00  0.00     0.292 HD
ENDBRANCH   7  30
ENDBRANCH   1   4
BRANCH   1  32
ATOM     32  C   LIG d   1       6.959  -1.449  -3.508  0.00  0.00     0.022 C 
ATOM     33  H   LIG d   1       7.714  -1.293  -2.737  0.00  0.00     0.037 H 
ATOM     34  C   LIG d   1       5.587  -1.030  -2.968  0.00  0.00    -0.016 C 
ATOM     35  N   LIG d   1       4.555  -1.254  -3.984  0.00  0.00     0.238 N 
ATOM     36  H   LIG d   1       5.353  -1.613  -2.077  0.00  0.00     0.085 H 
ATOM     37  C   LIG d   1       5.651   0.457  -2.605  0.00  0.00    -0.009 C 
ATOM     38  C   LIG d   1       4.490  -2.681  -4.334  0.00  0.00    -0.032 C 
ATOM     39  C   LIG d   1       3.238  -0.852  -3.468  0.00  0.00    -0.032 C 
ATOM     40  H   LIG d   1       4.773  -0.715  -4.808  0.00  0.00     0.204 HD
ATOM     41  C   LIG d   1       5.820  -3.137  -4.936  0.00  0.00    -0.012 C 
ATOM     42  H   LIG d   1       3.692  -2.839  -5.059  0.00  0.00     0.081 H 
ATOM     43  H   LIG d   1       4.282  -3.264  -3.437  0.00  0.00     0.081 H 
ATOM     44  C   LIG d   1       6.930  -2.926  -3.901  0.00  0.00    -0.039 C 
ATOM     45  H   LIG d   1       6.036  -2.549  -5.829  0.00  0.00     0.032 H 
ATOM     46  H   LIG d   1       5.759  -4.193  -5.198  0.00  0.00     0.032 H 
ATOM     47  H   LIG d   1       7.890  -3.209  -4.333  0.00  0.00     0.027 H 
ATOM     48  H   LIG d   1       6.728  -3.536  -3.021  0.00  0.00     0.027 H 
ATOM     49  C   LIG d   1       3.230   0.639  -3.150  0.00  0.00    -0.012 C 
ATOM     50  H   LIG d   1       2.476  -1.063  -4.218  0.00  0.00     0.081 H 
ATOM     51  H   LIG d   1       3.017  -1.417  -2.562  0.00  0.00     0.081 H 
ATOM     52  C   LIG d   1       4.290   0.921  -2.080  0.00  0.00    -0.043 C 
ATOM     53  H   LIG d   1       2.248   0.927  -2.775  0.00  0.00     0.032 H 
ATOM     54  H   LIG d   1       3.461   1.207  -4.051  0.00  0.00     0.032 H 
ATOM     55  H   LIG d   1       4.046   0.376  -1.169  0.00  0.00     0.027 H 
ATOM     56  H   LIG d   1       4.324   1.990  -1.872  0.00  0.00     0.027 H 
ATOM     57  H   LIG d   1       6.408   0.611  -1.836  0.00  0.00     0.032 H 
ATOM     58  H   LIG d   1       5.913   1.035  -3.492  0.00  0.00     0.032 H 
ENDBRANCH   1  32
TORSDOF 4
ENDMDL
MODEL 7
REMARK VINA RESULT:      -5.9      4.648      7.742
REMARK  4 active torsions:
REMARK  status: ('A' for Active; 'I' for Inactive)
REMARK    1  A    between atoms: C_1  and  C_2 
REMARK       I    between atoms: C_2  and  N_4 
REMARK    2  A    between atoms: C_12  and  O_13 
REMARK    3  A    between atoms: N_16  and  C_17 
REMARK    4  A    between atoms: C_17  and  C_18 
ROOT
ATOM      1  C   LIG d   1      10.267   4.673  -2.682  0.00  0.00     0.049 C 
ATOM      2  H   LIG d   1      11.118   4.247  -2.153  0.00  0.00     0.051 H 
ATOM      3  H   LIG d   1       9.361   4.132  -2.406  0.00  0.00     0.051 H 
ENDROOT
BRANCH   1   4
ATOM      4  N   LIG d   1      10.121   6.085  -2.320  0.00  0.00    -0.274 NA
ATOM      5  C   LIG d   1      10.472   6.494  -1.134  0.00  0.00     0.170 A 
ATOM      6  C   LIG d   1      10.491   7.782  -0.386  0.00  0.00     0.227 A 
ATOM      7  C   LIG d   1      11.034   5.896   0.093  0.00  0.00     0.147 A 
ATOM      8  N   LIG d   1      10.153   9.011  -0.657  0.00  0.00    -0.224 N 
ATOM      9  C   LIG d   1      11.059   7.089   0.788  0.00  0.00     0.012 A 
ATOM     10  C   LIG d   1      10.319  10.071   0.349  0.00  0.00     0.161 C 
ATOM     11  C   LIG d   1       9.600   9.362  -1.971  0.00  0.00     0.161 C 
ATOM     12  C   LIG d   1      11.172  11.192  -0.258  0.00  0.00     0.074 C 
ATOM     13  H   LIG d   1      10.819   9.666   1.228  0.00  0.00     0.104 H 
ATOM     14  H   LIG d   1       9.342  10.464   0.629  0.00  0.00     0.104 H 
ATOM     15  N   LIG d   1      10.619  11.543  -1.574  0.00  0.00    -0.290 N 
ATOM     16  H   LIG d   1      12.199  10.849  -0.373  0.00  0.00     0.053 H 
ATOM     17  H   LIG d   1      11.146  12.065   0.394  0.00  0.00     0.053 H 
ATOM     18  C   LIG d   1      10.269  12.815  -1.854  0.00  0.00     0.213 C 
ATOM     19  C   LIG d   1      10.448  10.483  -2.577  0.00  0.00     0.074 C 
ATOM     20  O   LIG d   1       9.809  13.092  -2.941  0.00  0.00    -0.276 OA
ATOM     21  H   LIG d   1       9.944  10.887  -3.455  0.00  0.00     0.053 H 
ATOM     22  H   LIG d   1      11.423  10.088  -2.860  0.00  0.00     0.053 H 
ATOM     23  H   LIG d   1       9.626   8.490  -2.625  0.00  0.00     0.104 H 
ATOM     24  H   LIG d   1       8.573   9.706  -1.857  0.00  0.00     0.104 H 
ATOM     25  O   LIG d   1      11.444   7.467   2.030  0.00  0.00    -0.867 OA
BRANCH  18  26
ATOM     26  C   LIG d   1      10.450  13.892  -0.815  0.00  0.00     0.012 C 
ATOM     27  H   LIG d   1      11.470  14.270  -0.857  0.00  0.00     0.032 H 
ATOM     28  H   LIG d   1       9.752  14.706  -1.010  0.00  0.00     0.032 H 
ATOM     29  H   LIG d   1      10.256  13.477   0.175  0.00  0.00     0.032 H 
ENDBRANCH  18  26
BRANCH   7  30
ATOM     30  O   LIG d   1      11.400   4.633   0.418  0.00  0.00    -0.505 OA
ATOM     31  H   LIG d   1      12.005   4.581   1.170  0.00  0.00     0.292 HD
ENDBRANCH   7  30
ENDBRANCH   1   4
BRANCH   1  32
ATOM     32  C   LIG d   1      10.491   4.554  -4.191  0.00  0.00     0.022 C 
ATOM     33  H   LIG d   1      10.905   5.488  -4.570  0.00  0.00     0.037 H 
ATOM     34  C   LIG d   1      11.473   3.411  -4.471  0.00  0.00    -0.016 C 
ATOM     35  N   LIG d   1      10.921   2.143  -3.987  0.00  0.00     0.238 N 
ATOM     36  H   LIG d   1      11.656   3.343  -5.543  0.00  0.00     0.085 H 
ATOM     37  C   LIG d   1      12.786   3.722  -3.745  0.00  0.00    -0.009 C 
ATOM     38  C   LIG d   1       9.662   1.839  -4.682  0.00  0.00    -0.032 C 
ATOM     39  C   LIG d   1      11.862   1.044  -4.254  0.00  0.00    -0.032 C 
ATOM     40  H   LIG d   1      10.752   2.206  -2.995  0.00  0.00     0.204 HD
ATOM     41  C   LIG d   1       8.623   2.923  -4.386  0.00  0.00    -0.012 C 
ATOM     42  H   LIG d   1       9.284   0.876  -4.343  0.00  0.00     0.081 H 
ATOM     43  H   LIG d   1       9.842   1.798  -5.756  0.00  0.00     0.081 H 
ATOM     44  C   LIG d   1       9.158   4.270  -4.883  0.00  0.00    -0.039 C 
ATOM     45  H   LIG d   1       8.447   2.974  -3.311  0.00  0.00     0.032 H 
ATOM     46  H   LIG d   1       7.692   2.686  -4.900  0.00  0.00     0.032 H 
ATOM     47  H   LIG d   1       8.444   5.058  -4.640  0.00  0.00     0.027 H 
ATOM     48  H   LIG d   1       9.307   4.228  -5.962  0.00  0.00     0.027 H 
ATOM     49  C   LIG d   1      13.168   1.275  -3.501  0.00  0.00    -0.012 C 
ATOM     50  H   LIG d   1      11.422   0.103  -3.927  0.00  0.00     0.081 H 
ATOM     51  H   LIG d   1      12.065   0.994  -5.324  0.00  0.00     0.081 H 
ATOM     52  C   LIG d   1      13.789   2.591  -3.983  0.00  0.00    -0.043 C 
ATOM     53  H   LIG d   1      13.855   0.453  -3.700  0.00  0.00     0.032 H 
ATOM     54  H   LIG d   1      12.969   1.336  -2.431  0.00  0.00     0.032 H 
ATOM     55  H   LIG d   1      14.016   2.521  -5.046  0.00  0.00     0.027 H 
ATOM     56  H   LIG d   1      14.703   2.790  -3.423  0.00  0.00     0.027 H 
ATOM     57  H   LIG d   1      13.198   4.657  -4.124  0.00  0.00     0.032 H 
ATOM     58  H   LIG d   1      12.595   3.817  -2.676  0.00  0.00     0.032 H 
ENDBRANCH   1  32
TORSDOF 4
ENDMDL
MODEL 8
REMARK VINA RESULT:      -5.9      4.898      7.675
REMARK  4 active torsions:
REMARK  status: ('A' for Active; 'I' for Inactive)
REMARK    1  A    between atoms: C_1  and  C_2 
REMARK       I    between atoms: C_2  and  N_4 
REMARK    2  A    between atoms: C_12  and  O_13 
REMARK    3  A    between atoms: N_16  and  C_17 
REMARK    4  A    between atoms: C_17  and  C_18 
ROOT
ATOM      1  C   LIG d   1      11.031   5.190  -3.641  0.00  0.00     0.049 C 
ATOM      2  H   LIG d   1      11.603   5.338  -4.556  0.00  0.00     0.051 H 
ATOM      3  H   LIG d   1      11.601   4.564  -2.953  0.00  0.00     0.051 H 
ENDROOT
BRANCH   1   4
ATOM      4  N   LIG d   1      10.766   6.488  -3.015  0.00  0.00    -0.274 NA
ATOM      5  C   LIG d   1      10.877   6.623  -1.723  0.00  0.00     0.170 A 
ATOM      6  C   LIG d   1      10.708   7.714  -0.722  0.00  0.00     0.227 A 
ATOM      7  C   LIG d   1      11.226   5.767  -0.573  0.00  0.00     0.147 A 
ATOM      8  N   LIG d   1      10.378   8.973  -0.778  0.00  0.00    -0.224 N 
ATOM      9  C   LIG d   1      11.076   6.777   0.357  0.00  0.00     0.012 A 
ATOM     10  C   LIG d   1      10.314   9.784   0.447  0.00  0.00     0.161 C 
ATOM     11  C   LIG d   1      10.063   9.608  -2.065  0.00  0.00     0.161 C 
ATOM     12  C   LIG d   1      11.220  11.010   0.270  0.00  0.00     0.074 C 
ATOM     13  H   LIG d   1      10.660   9.194   1.295  0.00  0.00     0.104 H 
ATOM     14  H   LIG d   1       9.288  10.108   0.617  0.00  0.00     0.104 H 
ATOM     15  N   LIG d   1      10.905  11.644  -1.017  0.00  0.00    -0.290 N 
ATOM     16  H   LIG d   1      12.263  10.698   0.278  0.00  0.00     0.053 H 
ATOM     17  H   LIG d   1      11.040  11.716   1.080  0.00  0.00     0.053 H 
ATOM     18  C   LIG d   1      10.563  12.947  -1.074  0.00  0.00     0.213 C 
ATOM     19  C   LIG d   1      10.963  10.832  -2.241  0.00  0.00     0.074 C 
ATOM     20  O   LIG d   1      10.301  13.459  -2.142  0.00  0.00    -0.276 OA
ATOM     21  H   LIG d   1      10.614  11.422  -3.089  0.00  0.00     0.053 H 
ATOM     22  H   LIG d   1      11.988  10.507  -2.415  0.00  0.00     0.053 H 
ATOM     23  H   LIG d   1      10.242   8.902  -2.876  0.00  0.00     0.104 H 
ATOM     24  H   LIG d   1       9.019   9.921  -2.073  0.00  0.00     0.104 H 
ATOM     25  O   LIG d   1      11.211   6.869   1.701  0.00  0.00    -0.867 OA
BRANCH  18  26
ATOM     26  C   LIG d   1      10.508  13.767   0.189  0.00  0.00     0.012 C 
ATOM     27  H   LIG d   1      11.520  14.003   0.515  0.00  0.00     0.032 H 
ATOM     28  H   LIG d   1       9.963  14.692  -0.002  0.00  0.00     0.032 H 
ATOM     29  H   LIG d   1       9.998  13.199   0.968  0.00  0.00     0.032 H 
ENDBRANCH  18  26
BRANCH   7  30
ATOM     30  O   LIG d   1      11.575   4.463  -0.467  0.00  0.00    -0.505 OA
ATOM     31  H   LIG d   1      11.835   4.056  -1.305  0.00  0.00     0.292 HD
ENDBRANCH   7  30
ENDBRANCH   1   4
BRANCH   1  32
ATOM     32  C   LIG d   1       9.704   4.505  -3.974  0.00  0.00     0.022 C 
ATOM     33  H   LIG d   1       8.879   5.170  -3.719  0.00  0.00     0.037 H 
ATOM     34  C   LIG d   1       9.658   4.186  -5.472  0.00  0.00    -0.016 C 
ATOM     35  N   LIG d   1      10.748   3.273  -5.827  0.00  0.00     0.238 N 
ATOM     36  H   LIG d   1       8.702   3.723  -5.715  0.00  0.00     0.085 H 
ATOM     37  C   LIG d   1       9.802   5.501  -6.244  0.00  0.00    -0.009 C 
ATOM     38  C   LIG d   1      10.612   2.009  -5.090  0.00  0.00    -0.032 C 
ATOM     39  C   LIG d   1      10.706   2.967  -7.265  0.00  0.00    -0.032 C 
ATOM     40  H   LIG d   1      11.632   3.703  -5.601  0.00  0.00     0.204 HD
ATOM     41  C   LIG d   1      10.713   2.264  -3.585  0.00  0.00    -0.012 C 
ATOM     42  H   LIG d   1      11.404   1.326  -5.393  0.00  0.00     0.081 H 
ATOM     43  H   LIG d   1       9.644   1.561  -5.315  0.00  0.00     0.081 H 
ATOM     44  C   LIG d   1       9.583   3.211  -3.167  0.00  0.00    -0.039 C 
ATOM     45  H   LIG d   1      11.676   2.721  -3.356  0.00  0.00     0.032 H 
ATOM     46  H   LIG d   1      10.617   1.321  -3.048  0.00  0.00     0.032 H 
ATOM     47  H   LIG d   1       9.669   3.434  -2.103  0.00  0.00     0.027 H 
ATOM     48  H   LIG d   1       8.620   2.743  -3.369  0.00  0.00     0.027 H 
ATOM     49  C   LIG d   1      10.909   4.239  -8.081  0.00  0.00    -0.012 C 
ATOM     50  H   LIG d   1      11.496   2.256  -7.506  0.00  0.00     0.081 H 
ATOM     51  H   LIG d   1       9.739   2.528  -7.513  0.00  0.00     0.081 H 
ATOM     52  C   LIG d   1       9.782   5.223  -7.749  0.00  0.00    -0.043 C 
ATOM     53  H   LIG d   1      10.882   4.000  -9.144  0.00  0.00     0.032 H 
ATOM     54  H   LIG d   1      11.870   4.687  -7.829  0.00  0.00     0.032 H 
ATOM     55  H   LIG d   1       8.822   4.789  -8.026  0.00  0.00     0.027 H 
ATOM     56  H   LIG d   1       9.937   6.154  -8.294  0.00  0.00     0.027 H 
ATOM     57  H   LIG d   1       8.978   6.166  -5.987  0.00  0.00     0.032 H 
ATOM     58  H   LIG d   1      10.747   5.976  -5.976  0.00  0.00     0.032 H 
ENDBRANCH   1  32
TORSDOF 4
ENDMDL
MODEL 9
REMARK VINA RESULT:      -5.9      5.979     10.313
REMARK  4 active torsions:
REMARK  status: ('A' for Active; 'I' for Inactive)
REMARK    1  A    between atoms: C_1  and  C_2 
REMARK       I    between atoms: C_2  and  N_4 
REMARK    2  A    between atoms: C_12  and  O_13 
REMARK    3  A    between atoms: N_16  and  C_17 
REMARK    4  A    between atoms: C_17  and  C_18 
ROOT
ATOM      1  C   LIG d   1       4.967  -2.611  -5.761  0.00  0.00     0.049 C 
ATOM      2  H   LIG d   1       4.225  -2.587  -4.964  0.00  0.00     0.051 H 
ATOM      3  H   LIG d   1       5.703  -3.388  -5.548  0.00  0.00     0.051 H 
ENDROOT
BRANCH   1   4
ATOM      4  N   LIG d   1       4.307  -2.902  -7.036  0.00  0.00    -0.274 NA
ATOM      5  C   LIG d   1       4.090  -4.136  -7.392  0.00  0.00     0.170 A 
ATOM      6  C   LIG d   1       3.479  -4.847  -8.551  0.00  0.00     0.227 A 
ATOM      7  C   LIG d   1       4.339  -5.481  -6.837  0.00  0.00     0.147 A 
ATOM      8  N   LIG d   1       2.917  -4.477  -9.667  0.00  0.00    -0.224 N 
ATOM      9  C   LIG d   1       3.767  -6.143  -7.906  0.00  0.00     0.012 A 
ATOM     10  C   LIG d   1       2.398  -5.478 -10.610  0.00  0.00     0.161 C 
ATOM     11  C   LIG d   1       2.790  -3.053 -10.005  0.00  0.00     0.161 C 
ATOM     12  C   LIG d   1       0.921  -5.170 -10.888  0.00  0.00     0.074 C 
ATOM     13  H   LIG d   1       2.488  -6.473 -10.174  0.00  0.00     0.104 H 
ATOM     14  H   LIG d   1       2.963  -5.431 -11.540  0.00  0.00     0.104 H 
ATOM     15  N   LIG d   1       0.795  -3.745 -11.226  0.00  0.00    -0.290 N 
ATOM     16  H   LIG d   1       0.328  -5.389 -10.001  0.00  0.00     0.053 H 
ATOM     17  H   LIG d   1       0.573  -5.776 -11.724  0.00  0.00     0.053 H 
ATOM     18  C   LIG d   1       0.213  -3.363 -12.380  0.00  0.00     0.213 C 
ATOM     19  C   LIG d   1       1.319  -2.745 -10.285  0.00  0.00     0.074 C 
ATOM     20  O   LIG d   1       0.119  -2.185 -12.651  0.00  0.00    -0.276 OA
ATOM     21  H   LIG d   1       1.231  -1.750 -10.723  0.00  0.00     0.053 H 
ATOM     22  H   LIG d   1       0.754  -2.788  -9.354  0.00  0.00     0.053 H 
ATOM     23  H   LIG d   1       3.139  -2.445  -9.169  0.00  0.00     0.104 H 
ATOM     24  H   LIG d   1       3.383  -2.832 -10.892  0.00  0.00     0.104 H 
ATOM     25  O   LIG d   1       3.559  -7.441  -8.228  0.00  0.00    -0.867 OA
BRANCH  18  26
ATOM     26  C   LIG d   1      -0.319  -4.401 -13.335  0.00  0.00     0.012 C 
ATOM     27  H   LIG d   1       0.460  -4.674 -14.046  0.00  0.00     0.032 H 
ATOM     28  H   LIG d   1      -0.627  -5.284 -12.777  0.00  0.00     0.032 H 
ATOM     29  H   LIG d   1      -1.175  -3.993 -13.873  0.00  0.00     0.032 H 
ENDBRANCH  18  26
BRANCH   7  30
ATOM     30  O   LIG d   1       4.914  -5.911  -5.688  0.00  0.00    -0.505 OA
ATOM     31  H   LIG d   1       5.576  -6.605  -5.815  0.00  0.00     0.292 HD
ENDBRANCH   7  30
ENDBRANCH   1   4
BRANCH   1  32
ATOM     32  C   LIG d   1       5.668  -1.255  -5.848  0.00  0.00     0.022 C 
ATOM     33  H   LIG d   1       5.475  -0.808  -6.823  0.00  0.00     0.037 H 
ATOM     34  C   LIG d   1       5.129  -0.332  -4.749  0.00  0.00    -0.016 C 
ATOM     35  N   LIG d   1       5.401  -0.906  -3.429  0.00  0.00     0.238 N 
ATOM     36  H   LIG d   1       5.607   0.644  -4.827  0.00  0.00     0.085 H 
ATOM     37  C   LIG d   1       3.618  -0.181  -4.954  0.00  0.00    -0.009 C 
ATOM     38  C   LIG d   1       6.850  -1.052  -3.229  0.00  0.00    -0.032 C 
ATOM     39  C   LIG d   1       4.883  -0.023  -2.374  0.00  0.00    -0.032 C 
ATOM     40  H   LIG d   1       4.959  -1.810  -3.358  0.00  0.00     0.204 HD
ATOM     41  C   LIG d   1       7.431  -2.014  -4.266  0.00  0.00    -0.012 C 
ATOM     42  H   LIG d   1       7.040  -1.441  -2.229  0.00  0.00     0.081 H 
ATOM     43  H   LIG d   1       7.329  -0.078  -3.333  0.00  0.00     0.081 H 
ATOM     44  C   LIG d   1       7.174  -1.447  -5.666  0.00  0.00    -0.039 C 
ATOM     45  H   LIG d   1       6.948  -2.987  -4.171  0.00  0.00     0.032 H 
ATOM     46  H   LIG d   1       8.504  -2.120  -4.105  0.00  0.00     0.032 H 
ATOM     47  H   LIG d   1       7.548  -2.145  -6.416  0.00  0.00     0.027 H 
ATOM     48  H   LIG d   1       7.682  -0.489  -5.770  0.00  0.00     0.027 H 
ATOM     49  C   LIG d   1       3.369   0.111  -2.495  0.00  0.00    -0.012 C 
ATOM     50  H   LIG d   1       5.129  -0.442  -1.399  0.00  0.00     0.081 H 
ATOM     51  H   LIG d   1       5.343   0.962  -2.469  0.00  0.00     0.081 H 
ATOM     52  C   LIG d   1       3.036   0.719  -3.862  0.00  0.00    -0.043 C 
ATOM     53  H   LIG d   1       2.995   0.762  -1.705  0.00  0.00     0.032 H 
ATOM     54  H   LIG d   1       2.906  -0.873  -2.411  0.00  0.00     0.032 H 
ATOM     55  H   LIG d   1       3.473   1.714  -3.937  0.00  0.00     0.027 H 
ATOM     56  H   LIG d   1       1.954   0.783  -3.979  0.00  0.00     0.027 H 
ATOM     57  H   LIG d   1       3.426   0.264  -5.930  0.00  0.00     0.032 H 
ATOM     58  H   LIG d   1       3.146  -1.162  -4.904  0.00  0.00     0.032 H 
ENDBRANCH   1  32
TORSDOF 4
ENDMDL
MODEL 10
REMARK VINA RESULT:      -5.9      4.674      8.644
REMARK  4 active torsions:
REMARK  status: ('A' for Active; 'I' for Inactive)
REMARK    1  A    between atoms: C_1  and  C_2 
REMARK       I    between atoms: C_2  and  N_4 
REMARK    2  A    between atoms: C_12  and  O_13 
REMARK    3  A    between atoms: N_16  and  C_17 
REMARK    4  A    between atoms: C_17  and  C_18 
ROOT
ATOM      1  C   LIG d   1       9.542   6.756  -2.591  0.00  0.00     0.049 C 
ATOM      2  H   LIG d   1       9.322   6.005  -1.834  0.00  0.00     0.051 H 
ATOM      3  H   LIG d   1       8.682   6.869  -3.252  0.00  0.00     0.051 H 
ENDROOT
BRANCH   1   4
ATOM      4  N   LIG d   1       9.829   8.038  -1.941  0.00  0.00    -0.274 NA
ATOM      5  C   LIG d   1      10.326   8.061  -0.737  0.00  0.00     0.170 A 
ATOM      6  C   LIG d   1      10.747   9.096   0.250  0.00  0.00     0.227 A 
ATOM      7  C   LIG d   1      10.731   7.076   0.285  0.00  0.00     0.147 A 
ATOM      8  N   LIG d   1      10.774  10.398   0.265  0.00  0.00    -0.224 N 
ATOM      9  C   LIG d   1      11.128   8.032   1.200  0.00  0.00     0.012 A 
ATOM     10  C   LIG d   1      11.278  11.122   1.442  0.00  0.00     0.161 C 
ATOM     11  C   LIG d   1      10.302  11.170  -0.892  0.00  0.00     0.161 C 
ATOM     12  C   LIG d   1      12.399  12.067   0.992  0.00  0.00     0.074 C 
ATOM     13  H   LIG d   1      11.669  10.411   2.169  0.00  0.00     0.104 H 
ATOM     14  H   LIG d   1      10.470  11.700   1.888  0.00  0.00     0.104 H 
ATOM     15  N   LIG d   1      11.927  12.839  -0.167  0.00  0.00    -0.290 N 
ATOM     16  H   LIG d   1      13.277  11.486   0.711  0.00  0.00     0.053 H 
ATOM     17  H   LIG d   1      12.653  12.747   1.805  0.00  0.00     0.053 H 
ATOM     18  C   LIG d   1      11.955  14.186  -0.150  0.00  0.00     0.213 C 
ATOM     19  C   LIG d   1      11.418  12.115  -1.340  0.00  0.00     0.074 C 
ATOM     20  O   LIG d   1      11.558  14.813  -1.110  0.00  0.00    -0.276 OA
ATOM     21  H   LIG d   1      11.024  12.827  -2.066  0.00  0.00     0.053 H 
ATOM     22  H   LIG d   1      12.225  11.537  -1.791  0.00  0.00     0.053 H 
ATOM     23  H   LIG d   1      10.048  10.491  -1.707  0.00  0.00     0.104 H 
ATOM     24  H   LIG d   1       9.425  11.752  -0.612  0.00  0.00     0.104 H 
ATOM     25  O   LIG d   1      11.650   8.004   2.448  0.00  0.00    -0.867 OA
BRANCH  18  26
ATOM     26  C   LIG d   1      12.479  14.914   1.061  0.00  0.00     0.012 C 
ATOM     27  H   LIG d   1      13.111  15.742   0.742  0.00  0.00     0.032 H 
ATOM     28  H   LIG d   1      11.643  15.300   1.644  0.00  0.00     0.032 H 
ATOM     29  H   LIG d   1      13.062  14.226   1.673  0.00  0.00     0.032 H 
ENDBRANCH  18  26
BRANCH   7  30
ATOM     30  O   LIG d   1      10.723   5.722   0.313  0.00  0.00    -0.505 OA
ATOM     31  H   LIG d   1      10.236   5.347   1.059  0.00  0.00     0.292 HD
ENDBRANCH   7  30
ENDBRANCH   1   4
BRANCH   1  32
ATOM     32  C   LIG d   1      10.758   6.317  -3.408  0.00  0.00     0.022 C 
ATOM     33  H   LIG d   1      11.651   6.363  -2.784  0.00  0.00     0.037 H 
ATOM     34  C   LIG d   1      10.552   4.878  -3.895  0.00  0.00    -0.016 C 
ATOM     35  N   LIG d   1       9.368   4.803  -4.755  0.00  0.00     0.238 N 
ATOM     36  H   LIG d   1      11.429   4.554  -4.454  0.00  0.00     0.085 H 
ATOM     37  C   LIG d   1      10.365   3.982  -2.667  0.00  0.00    -0.009 C 
ATOM     38  C   LIG d   1       9.544   5.661  -5.936  0.00  0.00    -0.032 C 
ATOM     39  C   LIG d   1       9.167   3.423  -5.223  0.00  0.00    -0.032 C 
ATOM     40  H   LIG d   1       8.556   5.104  -4.238  0.00  0.00     0.204 HD
ATOM     41  C   LIG d   1       9.695   7.121  -5.508  0.00  0.00    -0.012 C 
ATOM     42  H   LIG d   1       8.675   5.563  -6.586  0.00  0.00     0.081 H 
ATOM     43  H   LIG d   1      10.437   5.350  -6.479  0.00  0.00     0.081 H 
ATOM     44  C   LIG d   1      10.929   7.248  -4.609  0.00  0.00    -0.039 C 
ATOM     45  H   LIG d   1       8.808   7.433  -4.957  0.00  0.00     0.032 H 
ATOM     46  H   LIG d   1       9.818   7.749  -6.390  0.00  0.00     0.032 H 
ATOM     47  H   LIG d   1      11.024   8.278  -4.263  0.00  0.00     0.027 H 
ATOM     48  H   LIG d   1      11.819   6.964  -5.169  0.00  0.00     0.027 H 
ATOM     49  C   LIG d   1       8.913   2.497  -4.038  0.00  0.00    -0.012 C 
ATOM     50  H   LIG d   1       8.309   3.390  -5.894  0.00  0.00     0.081 H 
ATOM     51  H   LIG d   1      10.056   3.090  -5.759  0.00  0.00     0.081 H 
ATOM     52  C   LIG d   1      10.133   2.536  -3.112  0.00  0.00    -0.043 C 
ATOM     53  H   LIG d   1       8.759   1.479  -4.396  0.00  0.00     0.032 H 
ATOM     54  H   LIG d   1       8.031   2.833  -3.493  0.00  0.00     0.032 H 
ATOM     55  H   LIG d   1      11.011   2.174  -3.646  0.00  0.00     0.027 H 
ATOM     56  H   LIG d   1       9.949   1.910  -2.238  0.00  0.00     0.027 H 
ATOM     57  H   LIG d   1      11.257   4.030  -2.042  0.00  0.00     0.032 H 
ATOM     58  H   LIG d   1       9.503   4.327  -2.095  0.00  0.00     0.032 H 
ENDBRANCH   1  32
TORSDOF 4
ENDMDL
