MODEL 1
REMARK VINA RESULT:      -7.2      0.000      0.000
REMARK  6 active torsions:
REMARK  status: ('A' for Active; 'I' for Inactive)
REMARK    1  A    between atoms: C_1  and  C_2 
REMARK    2  A    between atoms: C_2  and  C_5 
REMARK    3  A    between atoms: N_3  and  O_4 
REMARK    4  A    between atoms: C_8  and  O_11 
REMARK    5  A    between atoms: O_11  and  C_12 
REMARK    6  A    between atoms: C_12  and  C_13 
ROOT
ATOM      1  C   LIG d   1       3.157   0.236  -9.812  0.00  0.00    -0.001 A 
ATOM      2  C   LIG d   1       3.160  -0.754  -8.827  0.00  0.00    -0.049 A 
ATOM      3  C   LIG d   1       3.051  -0.403  -7.500  0.00  0.00    -0.019 A 
ATOM      4  C   LIG d   1       2.937   0.934  -7.140  0.00  0.00     0.121 A 
ATOM      5  C   LIG d   1       2.933   1.922  -8.116  0.00  0.00    -0.019 A 
ATOM      6  C   LIG d   1       3.048   1.580  -9.445  0.00  0.00    -0.049 A 
ATOM      7  H   LIG d   1       3.248  -1.794  -9.106  0.00  0.00     0.062 H 
ATOM      8  H   LIG d   1       3.053  -1.168  -6.737  0.00  0.00     0.065 H 
ATOM      9  H   LIG d   1       2.844   2.960  -7.833  0.00  0.00     0.065 H 
ATOM     10  H   LIG d   1       3.049   2.349 -10.204  0.00  0.00     0.062 H 
ENDROOT
BRANCH   4  11
ATOM     11  O   LIG d   1       2.829   1.276  -5.829  0.00  0.00    -0.487 OA
BRANCH  11  12
ATOM     12  C   LIG d   1       2.130   0.368  -4.977  0.00  0.00     0.115 C 
ATOM     13  H   LIG d   1       1.193   0.821  -4.652  0.00  0.00     0.075 H 
ATOM     14  H   LIG d   1       1.918  -0.552  -5.522  0.00  0.00     0.075 H 
BRANCH  12  15
ATOM     15  C   LIG d   1       2.980   0.053  -3.773  0.00  0.00    -0.010 A 
ATOM     16  C   LIG d   1       3.563   1.078  -3.052  0.00  0.00    -0.055 A 
ATOM     17  C   LIG d   1       4.340   0.789  -1.945  0.00  0.00    -0.061 A 
ATOM     18  H   LIG d   1       3.410   2.105  -3.352  0.00  0.00     0.062 H 
ATOM     19  C   LIG d   1       4.540  -0.524  -1.565  0.00  0.00    -0.062 A 
ATOM     20  H   LIG d   1       4.792   1.590  -1.379  0.00  0.00     0.062 H 
ATOM     21  C   LIG d   1       3.961  -1.550  -2.289  0.00  0.00    -0.061 A 
ATOM     22  H   LIG d   1       5.149  -0.750  -0.702  0.00  0.00     0.062 H 
ATOM     23  C   LIG d   1       3.181  -1.261  -3.394  0.00  0.00    -0.055 A 
ATOM     24  H   LIG d   1       4.117  -2.576  -1.992  0.00  0.00     0.062 H 
ATOM     25  H   LIG d   1       2.728  -2.062  -3.959  0.00  0.00     0.062 H 
ENDBRANCH  12  15
ENDBRANCH  11  12
ENDBRANCH   4  11
BRANCH   1  26
ATOM     26  C   LIG d   1       3.274  -0.135 -11.235  0.00  0.00     0.084 C 
ATOM     27  N   LIG d   1       4.283   0.279 -11.931  0.00  0.00    -0.092 NA
BRANCH  26  28
ATOM     28  C   LIG d   1       2.218  -0.998 -11.878  0.00  0.00    -0.019 C 
ATOM     29  H   LIG d   1       2.666  -1.935 -12.208  0.00  0.00     0.029 H 
ATOM     30  H   LIG d   1       1.430  -1.207 -11.154  0.00  0.00     0.029 H 
ATOM     31  H   LIG d   1       1.795  -0.475 -12.735  0.00  0.00     0.029 H 
ENDBRANCH  26  28
BRANCH  27  32
ATOM     32  O   LIG d   1       4.396  -0.078 -13.297  0.00  0.00    -0.409 OA
ATOM     33  H   LIG d   1       5.271  -0.403 -13.547  0.00  0.00     0.328 HD
ENDBRANCH  27  32
ENDBRANCH   1  26
TORSDOF 6
ENDMDL
MODEL 2
REMARK VINA RESULT:      -7.1      0.061      1.603
REMARK  6 active torsions:
REMARK  status: ('A' for Active; 'I' for Inactive)
REMARK    1  A    between atoms: C_1  and  C_2 
REMARK    2  A    between atoms: C_2  and  C_5 
REMARK    3  A    between atoms: N_3  and  O_4 
REMARK    4  A    between atoms: C_8  and  O_11 
REMARK    5  A    between atoms: O_11  and  C_12 
REMARK    6  A    between atoms: C_12  and  C_13 
ROOT
ATOM      1  C   LIG d   1       3.178   0.225  -9.800  0.00  0.00    -0.001 A 
ATOM      2  C   LIG d   1       2.997   1.560  -9.430  0.00  0.00    -0.049 A 
ATOM      3  C   LIG d   1       2.892   1.894  -8.098  0.00  0.00    -0.019 A 
ATOM      4  C   LIG d   1       2.966   0.907  -7.123  0.00  0.00     0.121 A 
ATOM      5  C   LIG d   1       3.146  -0.421  -7.488  0.00  0.00    -0.019 A 
ATOM      6  C   LIG d   1       3.246  -0.766  -8.818  0.00  0.00    -0.049 A 
ATOM      7  H   LIG d   1       2.940   2.328 -10.187  0.00  0.00     0.062 H 
ATOM      8  H   LIG d   1       2.752   2.926  -7.810  0.00  0.00     0.065 H 
ATOM      9  H   LIG d   1       3.203  -1.187  -6.728  0.00  0.00     0.065 H 
ATOM     10  H   LIG d   1       3.381  -1.799  -9.101  0.00  0.00     0.062 H 
ENDROOT
BRANCH   4  11
ATOM     11  O   LIG d   1       2.862   1.241  -5.811  0.00  0.00    -0.487 OA
BRANCH  11  12
ATOM     12  C   LIG d   1       2.152   0.335  -4.965  0.00  0.00     0.115 C 
ATOM     13  H   LIG d   1       1.221   0.798  -4.636  0.00  0.00     0.075 H 
ATOM     14  H   LIG d   1       1.928  -0.578  -5.518  0.00  0.00     0.075 H 
BRANCH  12  15
ATOM     15  C   LIG d   1       2.997  -0.001  -3.764  0.00  0.00    -0.010 A 
ATOM     16  C   LIG d   1       3.188  -1.320  -3.400  0.00  0.00    -0.055 A 
ATOM     17  C   LIG d   1       3.967  -1.628  -2.300  0.00  0.00    -0.061 A 
ATOM     18  H   LIG d   1       2.731  -2.111  -3.976  0.00  0.00     0.062 H 
ATOM     19  C   LIG d   1       4.547  -0.616  -1.558  0.00  0.00    -0.062 A 
ATOM     20  H   LIG d   1       4.120  -2.659  -2.018  0.00  0.00     0.062 H 
ATOM     21  C   LIG d   1       4.352   0.704  -1.919  0.00  0.00    -0.061 A 
ATOM     22  H   LIG d   1       5.153  -0.856  -0.697  0.00  0.00     0.062 H 
ATOM     23  C   LIG d   1       3.576   1.012  -3.021  0.00  0.00    -0.055 A 
ATOM     24  H   LIG d   1       4.805   1.495  -1.341  0.00  0.00     0.062 H 
ATOM     25  H   LIG d   1       3.424   2.043  -3.304  0.00  0.00     0.062 H 
ENDBRANCH  12  15
ENDBRANCH  11  12
ENDBRANCH   4  11
BRANCH   1  26
ATOM     26  C   LIG d   1       3.291  -0.137 -11.226  0.00  0.00     0.084 C 
ATOM     27  N   LIG d   1       4.296   0.285 -11.924  0.00  0.00    -0.092 NA
BRANCH  26  28
ATOM     28  C   LIG d   1       2.235  -0.999 -11.870  0.00  0.00    -0.019 C 
ATOM     29  H   LIG d   1       2.713  -1.812 -12.416  0.00  0.00     0.029 H 
ATOM     30  H   LIG d   1       1.584  -1.412 -11.100  0.00  0.00     0.029 H 
ATOM     31  H   LIG d   1       1.645  -0.395 -12.560  0.00  0.00     0.029 H 
ENDBRANCH  26  28
BRANCH  27  32
ATOM     32  O   LIG d   1       4.405  -0.064 -13.291  0.00  0.00    -0.409 OA
ATOM     33  H   LIG d   1       4.080   0.614 -13.898  0.00  0.00     0.328 HD
ENDBRANCH  27  32
ENDBRANCH   1  26
TORSDOF 6
ENDMDL
MODEL 3
REMARK VINA RESULT:      -6.3      1.692      1.889
REMARK  6 active torsions:
REMARK  status: ('A' for Active; 'I' for Inactive)
REMARK    1  A    between atoms: C_1  and  C_2 
REMARK    2  A    between atoms: C_2  and  C_5 
REMARK    3  A    between atoms: N_3  and  O_4 
REMARK    4  A    between atoms: C_8  and  O_11 
REMARK    5  A    between atoms: O_11  and  C_12 
REMARK    6  A    between atoms: C_12  and  C_13 
ROOT
ATOM      1  C   LIG d   1       3.053  -1.847  -9.209  0.00  0.00    -0.001 A 
ATOM      2  C   LIG d   1       3.920  -2.107  -8.145  0.00  0.00    -0.049 A 
ATOM      3  C   LIG d   1       4.003  -1.221  -7.095  0.00  0.00    -0.019 A 
ATOM      4  C   LIG d   1       3.227  -0.069  -7.091  0.00  0.00     0.121 A 
ATOM      5  C   LIG d   1       2.363   0.194  -8.147  0.00  0.00    -0.019 A 
ATOM      6  C   LIG d   1       2.278  -0.684  -9.205  0.00  0.00    -0.049 A 
ATOM      7  H   LIG d   1       4.523  -3.003  -8.147  0.00  0.00     0.062 H 
ATOM      8  H   LIG d   1       4.673  -1.422  -6.271  0.00  0.00     0.065 H 
ATOM      9  H   LIG d   1       1.761   1.090  -8.142  0.00  0.00     0.065 H 
ATOM     10  H   LIG d   1       1.610  -0.477 -10.028  0.00  0.00     0.062 H 
ENDROOT
BRANCH   4  11
ATOM     11  O   LIG d   1       3.311   0.803  -6.053  0.00  0.00    -0.487 OA
BRANCH  11  12
ATOM     12  C   LIG d   1       2.399   0.613  -4.970  0.00  0.00     0.115 C 
ATOM     13  H   LIG d   1       1.905   1.557  -4.741  0.00  0.00     0.075 H 
ATOM     14  H   LIG d   1       1.651  -0.129  -5.252  0.00  0.00     0.075 H 
BRANCH  12  15
ATOM     15  C   LIG d   1       3.151   0.132  -3.757  0.00  0.00    -0.010 A 
ATOM     16  C   LIG d   1       3.772   1.043  -2.923  0.00  0.00    -0.055 A 
ATOM     17  C   LIG d   1       4.460   0.601  -1.807  0.00  0.00    -0.061 A 
ATOM     18  H   LIG d   1       3.718   2.099  -3.141  0.00  0.00     0.062 H 
ATOM     19  C   LIG d   1       4.534  -0.751  -1.531  0.00  0.00    -0.062 A 
ATOM     20  H   LIG d   1       4.941   1.313  -1.153  0.00  0.00     0.062 H 
ATOM     21  C   LIG d   1       3.917  -1.662  -2.368  0.00  0.00    -0.061 A 
ATOM     22  H   LIG d   1       5.073  -1.096  -0.661  0.00  0.00     0.062 H 
ATOM     23  C   LIG d   1       3.227  -1.221  -3.481  0.00  0.00    -0.055 A 
ATOM     24  H   LIG d   1       3.975  -2.718  -2.153  0.00  0.00     0.062 H 
ATOM     25  H   LIG d   1       2.744  -1.933  -4.135  0.00  0.00     0.062 H 
ENDBRANCH  12  15
ENDBRANCH  11  12
ENDBRANCH   4  11
BRANCH   1  26
ATOM     26  C   LIG d   1       2.961  -2.794 -10.337  0.00  0.00     0.084 C 
ATOM     27  N   LIG d   1       3.982  -2.981 -11.110  0.00  0.00    -0.092 NA
BRANCH  26  28
ATOM     28  C   LIG d   1       1.678  -3.543 -10.589  0.00  0.00    -0.019 C 
ATOM     29  H   LIG d   1       1.795  -4.580 -10.276  0.00  0.00     0.029 H 
ATOM     30  H   LIG d   1       0.870  -3.082 -10.021  0.00  0.00     0.029 H 
ATOM     31  H   LIG d   1       1.440  -3.509 -11.652  0.00  0.00     0.029 H 
ENDBRANCH  26  28
BRANCH  27  32
ATOM     32  O   LIG d   1       3.894  -3.890 -12.192  0.00  0.00    -0.409 OA
ATOM     33  H   LIG d   1       3.817  -4.816 -11.923  0.00  0.00     0.328 HD
ENDBRANCH  27  32
ENDBRANCH   1  26
TORSDOF 6
ENDMDL
MODEL 4
REMARK VINA RESULT:      -6.0      5.838      7.136
REMARK  6 active torsions:
REMARK  status: ('A' for Active; 'I' for Inactive)
REMARK    1  A    between atoms: C_1  and  C_2 
REMARK    2  A    between atoms: C_2  and  C_5 
REMARK    3  A    between atoms: N_3  and  O_4 
REMARK    4  A    between atoms: C_8  and  O_11 
REMARK    5  A    between atoms: O_11  and  C_12 
REMARK    6  A    between atoms: C_12  and  C_13 
ROOT
ATOM      1  C   LIG d   1       5.596  -6.582  -5.668  0.00  0.00    -0.001 A 
ATOM      2  C   LIG d   1       4.581  -5.626  -5.582  0.00  0.00    -0.049 A 
ATOM      3  C   LIG d   1       4.901  -4.301  -5.387  0.00  0.00    -0.019 A 
ATOM      4  C   LIG d   1       6.231  -3.914  -5.276  0.00  0.00     0.121 A 
ATOM      5  C   LIG d   1       7.243  -4.862  -5.361  0.00  0.00    -0.019 A 
ATOM      6  C   LIG d   1       6.932  -6.190  -5.550  0.00  0.00    -0.049 A 
ATOM      7  H   LIG d   1       3.547  -5.926  -5.669  0.00  0.00     0.062 H 
ATOM      8  H   LIG d   1       4.117  -3.561  -5.320  0.00  0.00     0.065 H 
ATOM      9  H   LIG d   1       8.275  -4.557  -5.274  0.00  0.00     0.065 H 
ATOM     10  H   LIG d   1       7.719  -6.927  -5.611  0.00  0.00     0.062 H 
ENDROOT
BRANCH   4  11
ATOM     11  O   LIG d   1       6.542  -2.606  -5.083  0.00  0.00    -0.487 OA
BRANCH  11  12
ATOM     12  C   LIG d   1       7.028  -2.238  -3.791  0.00  0.00     0.115 C 
ATOM     13  H   LIG d   1       7.096  -3.125  -3.161  0.00  0.00     0.075 H 
ATOM     14  H   LIG d   1       8.015  -1.786  -3.889  0.00  0.00     0.075 H 
BRANCH  12  15
ATOM     15  C   LIG d   1       6.083  -1.247  -3.162  0.00  0.00    -0.010 A 
ATOM     16  C   LIG d   1       4.942  -1.692  -2.520  0.00  0.00    -0.055 A 
ATOM     17  C   LIG d   1       4.077  -0.782  -1.939  0.00  0.00    -0.061 A 
ATOM     18  H   LIG d   1       4.729  -2.749  -2.468  0.00  0.00     0.062 H 
ATOM     19  C   LIG d   1       4.347   0.571  -2.010  0.00  0.00    -0.062 A 
ATOM     20  H   LIG d   1       3.189  -1.130  -1.433  0.00  0.00     0.062 H 
ATOM     21  C   LIG d   1       5.485   1.016  -2.657  0.00  0.00    -0.061 A 
ATOM     22  H   LIG d   1       3.670   1.281  -1.559  0.00  0.00     0.062 H 
ATOM     23  C   LIG d   1       6.352   0.107  -3.234  0.00  0.00    -0.055 A 
ATOM     24  H   LIG d   1       5.697   2.073  -2.712  0.00  0.00     0.062 H 
ATOM     25  H   LIG d   1       7.241   0.454  -3.739  0.00  0.00     0.062 H 
ENDBRANCH  12  15
ENDBRANCH  11  12
ENDBRANCH   4  11
BRANCH   1  26
ATOM     26  C   LIG d   1       5.257  -8.003  -5.877  0.00  0.00     0.084 C 
ATOM     27  N   LIG d   1       4.371  -8.575  -5.126  0.00  0.00    -0.092 NA
BRANCH  26  28
ATOM     28  C   LIG d   1       5.944  -8.789  -6.964  0.00  0.00    -0.019 C 
ATOM     29  H   LIG d   1       5.349  -8.745  -7.876  0.00  0.00     0.029 H 
ATOM     30  H   LIG d   1       6.930  -8.364  -7.153  0.00  0.00     0.029 H 
ATOM     31  H   LIG d   1       6.050  -9.828  -6.649  0.00  0.00     0.029 H 
ENDBRANCH  26  28
BRANCH  27  32
ATOM     32  O   LIG d   1       4.046  -9.938  -5.327  0.00  0.00    -0.409 OA
ATOM     33  H   LIG d   1       4.800 -10.537  -5.254  0.00  0.00     0.328 HD
ENDBRANCH  27  32
ENDBRANCH   1  26
TORSDOF 6
ENDMDL
MODEL 5
REMARK VINA RESULT:      -5.9      2.431      2.806
REMARK  6 active torsions:
REMARK  status: ('A' for Active; 'I' for Inactive)
REMARK    1  A    between atoms: C_1  and  C_2 
REMARK    2  A    between atoms: C_2  and  C_5 
REMARK    3  A    between atoms: N_3  and  O_4 
REMARK    4  A    between atoms: C_8  and  O_11 
REMARK    5  A    between atoms: O_11  and  C_12 
REMARK    6  A    between atoms: C_12  and  C_13 
ROOT
ATOM      1  C   LIG d   1       2.268  -1.454  -9.449  0.00  0.00    -0.001 A 
ATOM      2  C   LIG d   1       3.242  -2.221  -8.806  0.00  0.00    -0.049 A 
ATOM      3  C   LIG d   1       4.020  -1.656  -7.821  0.00  0.00    -0.019 A 
ATOM      4  C   LIG d   1       3.839  -0.326  -7.466  0.00  0.00     0.121 A 
ATOM      5  C   LIG d   1       2.871   0.441  -8.103  0.00  0.00    -0.019 A 
ATOM      6  C   LIG d   1       2.092  -0.114  -9.094  0.00  0.00    -0.049 A 
ATOM      7  H   LIG d   1       3.383  -3.256  -9.081  0.00  0.00     0.062 H 
ATOM      8  H   LIG d   1       4.774  -2.249  -7.323  0.00  0.00     0.065 H 
ATOM      9  H   LIG d   1       2.733   1.475  -7.825  0.00  0.00     0.065 H 
ATOM     10  H   LIG d   1       1.343   0.484  -9.592  0.00  0.00     0.062 H 
ENDROOT
BRANCH   4  11
ATOM     11  O   LIG d   1       4.609   0.228  -6.493  0.00  0.00    -0.487 OA
BRANCH  11  12
ATOM     12  C   LIG d   1       5.520  -0.639  -5.815  0.00  0.00     0.115 C 
ATOM     13  H   LIG d   1       5.541  -1.608  -6.315  0.00  0.00     0.075 H 
ATOM     14  H   LIG d   1       6.518  -0.201  -5.831  0.00  0.00     0.075 H 
BRANCH  12  15
ATOM     15  C   LIG d   1       5.074  -0.820  -4.388  0.00  0.00    -0.010 A 
ATOM     16  C   LIG d   1       4.462  -1.997  -3.999  0.00  0.00    -0.055 A 
ATOM     17  C   LIG d   1       4.056  -2.165  -2.688  0.00  0.00    -0.061 A 
ATOM     18  H   LIG d   1       4.304  -2.787  -4.719  0.00  0.00     0.062 H 
ATOM     19  C   LIG d   1       4.252  -1.152  -1.769  0.00  0.00    -0.062 A 
ATOM     20  H   LIG d   1       3.582  -3.086  -2.383  0.00  0.00     0.062 H 
ATOM     21  C   LIG d   1       4.859   0.027  -2.159  0.00  0.00    -0.061 A 
ATOM     22  H   LIG d   1       3.932  -1.281  -0.745  0.00  0.00     0.062 H 
ATOM     23  C   LIG d   1       5.269   0.194  -3.468  0.00  0.00    -0.055 A 
ATOM     24  H   LIG d   1       5.013   0.819  -1.440  0.00  0.00     0.062 H 
ATOM     25  H   LIG d   1       5.744   1.115  -3.773  0.00  0.00     0.062 H 
ENDBRANCH  12  15
ENDBRANCH  11  12
ENDBRANCH   4  11
BRANCH   1  26
ATOM     26  C   LIG d   1       1.431  -2.055 -10.506  0.00  0.00     0.084 C 
ATOM     27  N   LIG d   1       1.000  -3.268 -10.377  0.00  0.00    -0.092 NA
BRANCH  26  28
ATOM     28  C   LIG d   1       1.077  -1.255 -11.733  0.00  0.00    -0.019 C 
ATOM     29  H   LIG d   1       0.943  -1.929 -12.579  0.00  0.00     0.029 H 
ATOM     30  H   LIG d   1       0.153  -0.706 -11.555  0.00  0.00     0.029 H 
ATOM     31  H   LIG d   1       1.882  -0.553 -11.952  0.00  0.00     0.029 H 
ENDBRANCH  26  28
BRANCH  27  32
ATOM     32  O   LIG d   1       0.196  -3.845 -11.390  0.00  0.00    -0.409 OA
ATOM     33  H   LIG d   1       0.015  -3.254 -12.133  0.00  0.00     0.328 HD
ENDBRANCH  27  32
ENDBRANCH   1  26
TORSDOF 6
ENDMDL
MODEL 6
REMARK VINA RESULT:      -5.6      5.833      7.731
REMARK  6 active torsions:
REMARK  status: ('A' for Active; 'I' for Inactive)
REMARK    1  A    between atoms: C_1  and  C_2 
REMARK    2  A    between atoms: C_2  and  C_5 
REMARK    3  A    between atoms: N_3  and  O_4 
REMARK    4  A    between atoms: C_8  and  O_11 
REMARK    5  A    between atoms: O_11  and  C_12 
REMARK    6  A    between atoms: C_12  and  C_13 
ROOT
ATOM      1  C   LIG d   1       8.833  -4.598  -4.158  0.00  0.00    -0.001 A 
ATOM      2  C   LIG d   1       8.608  -3.354  -3.563  0.00  0.00    -0.049 A 
ATOM      3  C   LIG d   1       7.431  -2.682  -3.803  0.00  0.00    -0.019 A 
ATOM      4  C   LIG d   1       6.467  -3.237  -4.635  0.00  0.00     0.121 A 
ATOM      5  C   LIG d   1       6.687  -4.474  -5.229  0.00  0.00    -0.019 A 
ATOM      6  C   LIG d   1       7.864  -5.151  -4.999  0.00  0.00    -0.049 A 
ATOM      7  H   LIG d   1       9.356  -2.922  -2.916  0.00  0.00     0.062 H 
ATOM      8  H   LIG d   1       7.256  -1.720  -3.343  0.00  0.00     0.065 H 
ATOM      9  H   LIG d   1       5.935  -4.903  -5.875  0.00  0.00     0.065 H 
ATOM     10  H   LIG d   1       8.036  -6.111  -5.464  0.00  0.00     0.062 H 
ENDROOT
BRANCH   4  11
ATOM     11  O   LIG d   1       5.307  -2.570  -4.869  0.00  0.00    -0.487 OA
BRANCH  11  12
ATOM     12  C   LIG d   1       4.326  -2.590  -3.830  0.00  0.00     0.115 C 
ATOM     13  H   LIG d   1       3.386  -2.976  -4.225  0.00  0.00     0.075 H 
ATOM     14  H   LIG d   1       4.670  -3.232  -3.019  0.00  0.00     0.075 H 
BRANCH  12  15
ATOM     15  C   LIG d   1       4.116  -1.192  -3.311  0.00  0.00    -0.010 A 
ATOM     16  C   LIG d   1       4.665  -0.815  -2.099  0.00  0.00    -0.055 A 
ATOM     17  C   LIG d   1       4.476   0.470  -1.624  0.00  0.00    -0.061 A 
ATOM     18  H   LIG d   1       5.245  -1.523  -1.526  0.00  0.00     0.062 H 
ATOM     19  C   LIG d   1       3.728   1.374  -2.355  0.00  0.00    -0.062 A 
ATOM     20  H   LIG d   1       4.908   0.765  -0.680  0.00  0.00     0.062 H 
ATOM     21  C   LIG d   1       3.175   0.995  -3.564  0.00  0.00    -0.061 A 
ATOM     22  H   LIG d   1       3.578   2.376  -1.983  0.00  0.00     0.062 H 
ATOM     23  C   LIG d   1       3.367  -0.288  -4.042  0.00  0.00    -0.055 A 
ATOM     24  H   LIG d   1       2.591   1.701  -4.136  0.00  0.00     0.062 H 
ATOM     25  H   LIG d   1       2.936  -0.583  -4.986  0.00  0.00     0.062 H 
ENDBRANCH  12  15
ENDBRANCH  11  12
ENDBRANCH   4  11
BRANCH   1  26
ATOM     26  C   LIG d   1      10.093  -5.323  -3.904  0.00  0.00     0.084 C 
ATOM     27  N   LIG d   1      10.581  -5.371  -2.706  0.00  0.00    -0.092 NA
BRANCH  26  28
ATOM     28  C   LIG d   1      10.811  -6.007  -5.039  0.00  0.00    -0.019 C 
ATOM     29  H   LIG d   1      10.460  -7.035  -5.124  0.00  0.00     0.029 H 
ATOM     30  H   LIG d   1      10.610  -5.476  -5.969  0.00  0.00     0.029 H 
ATOM     31  H   LIG d   1      11.884  -6.004  -4.843  0.00  0.00     0.029 H 
ENDBRANCH  26  28
BRANCH  27  32
ATOM     32  O   LIG d   1      11.789  -6.067  -2.462  0.00  0.00    -0.409 OA
ATOM     33  H   LIG d   1      12.565  -5.495  -2.387  0.00  0.00     0.328 HD
ENDBRANCH  27  32
ENDBRANCH   1  26
TORSDOF 6
ENDMDL
MODEL 7
REMARK VINA RESULT:      -5.5      5.204      6.734
REMARK  6 active torsions:
REMARK  status: ('A' for Active; 'I' for Inactive)
REMARK    1  A    between atoms: C_1  and  C_2 
REMARK    2  A    between atoms: C_2  and  C_5 
REMARK    3  A    between atoms: N_3  and  O_4 
REMARK    4  A    between atoms: C_8  and  O_11 
REMARK    5  A    between atoms: O_11  and  C_12 
REMARK    6  A    between atoms: C_12  and  C_13 
ROOT
ATOM      1  C   LIG d   1       7.525  -5.183  -5.371  0.00  0.00    -0.001 A 
ATOM      2  C   LIG d   1       7.673  -3.938  -4.754  0.00  0.00    -0.049 A 
ATOM      3  C   LIG d   1       6.560  -3.196  -4.427  0.00  0.00    -0.019 A 
ATOM      4  C   LIG d   1       5.290  -3.684  -4.711  0.00  0.00     0.121 A 
ATOM      5  C   LIG d   1       5.138  -4.921  -5.324  0.00  0.00    -0.019 A 
ATOM      6  C   LIG d   1       6.246  -5.667  -5.659  0.00  0.00    -0.049 A 
ATOM      7  H   LIG d   1       8.660  -3.559  -4.533  0.00  0.00     0.062 H 
ATOM      8  H   LIG d   1       6.674  -2.234  -3.950  0.00  0.00     0.065 H 
ATOM      9  H   LIG d   1       4.149  -5.297  -5.543  0.00  0.00     0.065 H 
ATOM     10  H   LIG d   1       6.127  -6.626  -6.140  0.00  0.00     0.062 H 
ENDROOT
BRANCH   4  11
ATOM     11  O   LIG d   1       4.194  -2.949  -4.387  0.00  0.00    -0.487 OA
BRANCH  11  12
ATOM     12  C   LIG d   1       4.024  -2.609  -3.010  0.00  0.00     0.115 C 
ATOM     13  H   LIG d   1       3.115  -3.075  -2.630  0.00  0.00     0.075 H 
ATOM     14  H   LIG d   1       4.881  -2.967  -2.439  0.00  0.00     0.075 H 
BRANCH  12  15
ATOM     15  C   LIG d   1       3.917  -1.113  -2.870  0.00  0.00    -0.010 A 
ATOM     16  C   LIG d   1       3.201  -0.382  -3.799  0.00  0.00    -0.055 A 
ATOM     17  C   LIG d   1       3.100   0.991  -3.669  0.00  0.00    -0.061 A 
ATOM     18  H   LIG d   1       2.718  -0.883  -4.625  0.00  0.00     0.062 H 
ATOM     19  C   LIG d   1       3.724   1.633  -2.615  0.00  0.00    -0.062 A 
ATOM     20  H   LIG d   1       2.537   1.562  -4.391  0.00  0.00     0.062 H 
ATOM     21  C   LIG d   1       4.444   0.902  -1.689  0.00  0.00    -0.061 A 
ATOM     22  H   LIG d   1       3.647   2.706  -2.515  0.00  0.00     0.062 H 
ATOM     23  C   LIG d   1       4.542  -0.471  -1.817  0.00  0.00    -0.055 A 
ATOM     24  H   LIG d   1       4.931   1.403  -0.866  0.00  0.00     0.062 H 
ATOM     25  H   LIG d   1       5.104  -1.042  -1.093  0.00  0.00     0.062 H 
ENDBRANCH  12  15
ENDBRANCH  11  12
ENDBRANCH   4  11
BRANCH   1  26
ATOM     26  C   LIG d   1       8.715  -5.981  -5.722  0.00  0.00     0.084 C 
ATOM     27  N   LIG d   1       9.104  -6.054  -6.954  0.00  0.00    -0.092 NA
BRANCH  26  28
ATOM     28  C   LIG d   1       9.477  -6.710  -4.646  0.00  0.00    -0.019 C 
ATOM     29  H   LIG d   1       9.224  -7.770  -4.676  0.00  0.00     0.029 H 
ATOM     30  H   LIG d   1      10.547  -6.587  -4.811  0.00  0.00     0.029 H 
ATOM     31  H   LIG d   1       9.211  -6.300  -3.671  0.00  0.00     0.029 H 
ENDBRANCH  26  28
BRANCH  27  32
ATOM     32  O   LIG d   1      10.247  -6.819  -7.291  0.00  0.00    -0.409 OA
ATOM     33  H   LIG d   1      11.076  -6.323  -7.260  0.00  0.00     0.328 HD
ENDBRANCH  27  32
ENDBRANCH   1  26
TORSDOF 6
ENDMDL
MODEL 8
REMARK VINA RESULT:      -5.4      6.450      8.349
REMARK  6 active torsions:
REMARK  status: ('A' for Active; 'I' for Inactive)
REMARK    1  A    between atoms: C_1  and  C_2 
REMARK    2  A    between atoms: C_2  and  C_5 
REMARK    3  A    between atoms: N_3  and  O_4 
REMARK    4  A    between atoms: C_8  and  O_11 
REMARK    5  A    between atoms: O_11  and  C_12 
REMARK    6  A    between atoms: C_12  and  C_13 
ROOT
ATOM      1  C   LIG d   1      10.155   4.855  -4.001  0.00  0.00    -0.001 A 
ATOM      2  C   LIG d   1       9.221   4.440  -4.952  0.00  0.00    -0.049 A 
ATOM      3  C   LIG d   1       8.674   3.179  -4.874  0.00  0.00    -0.019 A 
ATOM      4  C   LIG d   1       9.051   2.318  -3.850  0.00  0.00     0.121 A 
ATOM      5  C   LIG d   1       9.980   2.727  -2.902  0.00  0.00    -0.019 A 
ATOM      6  C   LIG d   1      10.536   3.985  -2.976  0.00  0.00    -0.049 A 
ATOM      7  H   LIG d   1       8.926   5.109  -5.748  0.00  0.00     0.062 H 
ATOM      8  H   LIG d   1       7.951   2.857  -5.609  0.00  0.00     0.065 H 
ATOM      9  H   LIG d   1      10.271   2.055  -2.107  0.00  0.00     0.065 H 
ATOM     10  H   LIG d   1      11.262   4.300  -2.241  0.00  0.00     0.062 H 
ENDROOT
BRANCH   4  11
ATOM     11  O   LIG d   1       8.510   1.074  -3.776  0.00  0.00    -0.487 OA
BRANCH  11  12
ATOM     12  C   LIG d   1       7.282   0.858  -4.474  0.00  0.00     0.115 C 
ATOM     13  H   LIG d   1       6.940   1.799  -4.907  0.00  0.00     0.075 H 
ATOM     14  H   LIG d   1       7.440   0.129  -5.269  0.00  0.00     0.075 H 
BRANCH  12  15
ATOM     15  C   LIG d   1       6.243   0.339  -3.515  0.00  0.00    -0.010 A 
ATOM     16  C   LIG d   1       5.506   1.224  -2.749  0.00  0.00    -0.055 A 
ATOM     17  C   LIG d   1       4.550   0.747  -1.872  0.00  0.00    -0.061 A 
ATOM     18  H   LIG d   1       5.676   2.287  -2.839  0.00  0.00     0.062 H 
ATOM     19  C   LIG d   1       4.337  -0.613  -1.753  0.00  0.00    -0.062 A 
ATOM     20  H   LIG d   1       3.971   1.438  -1.278  0.00  0.00     0.062 H 
ATOM     21  C   LIG d   1       5.077  -1.498  -2.515  0.00  0.00    -0.061 A 
ATOM     22  H   LIG d   1       3.592  -0.985  -1.066  0.00  0.00     0.062 H 
ATOM     23  C   LIG d   1       6.031  -1.022  -3.395  0.00  0.00    -0.055 A 
ATOM     24  H   LIG d   1       4.911  -2.560  -2.423  0.00  0.00     0.062 H 
ATOM     25  H   LIG d   1       6.609  -1.712  -3.991  0.00  0.00     0.062 H 
ENDBRANCH  12  15
ENDBRANCH  11  12
ENDBRANCH   4  11
BRANCH   1  26
ATOM     26  C   LIG d   1      10.743   6.206  -4.081  0.00  0.00     0.084 C 
ATOM     27  N   LIG d   1       9.983   7.249  -3.985  0.00  0.00    -0.092 NA
BRANCH  26  28
ATOM     28  C   LIG d   1      12.229   6.371  -4.274  0.00  0.00    -0.019 C 
ATOM     29  H   LIG d   1      12.614   5.538  -4.861  0.00  0.00     0.029 H 
ATOM     30  H   LIG d   1      12.425   7.307  -4.797  0.00  0.00     0.029 H 
ATOM     31  H   LIG d   1      12.721   6.389  -3.301  0.00  0.00     0.029 H 
ENDBRANCH  26  28
BRANCH  27  32
ATOM     32  O   LIG d   1      10.547   8.545  -4.061  0.00  0.00    -0.409 OA
ATOM     33  H   LIG d   1       9.926   9.228  -4.350  0.00  0.00     0.328 HD
ENDBRANCH  27  32
ENDBRANCH   1  26
TORSDOF 6
ENDMDL
MODEL 9
REMARK VINA RESULT:      -5.3     11.523     13.261
REMARK  6 active torsions:
REMARK  status: ('A' for Active; 'I' for Inactive)
REMARK    1  A    between atoms: C_1  and  C_2 
REMARK    2  A    between atoms: C_2  and  C_5 
REMARK    3  A    between atoms: N_3  and  O_4 
REMARK    4  A    between atoms: C_8  and  O_11 
REMARK    5  A    between atoms: O_11  and  C_12 
REMARK    6  A    between atoms: C_12  and  C_13 
ROOT
ATOM      1  C   LIG d   1       5.565 -10.295  -2.848  0.00  0.00    -0.001 A 
ATOM      2  C   LIG d   1       6.490  -9.531  -3.564  0.00  0.00    -0.049 A 
ATOM      3  C   LIG d   1       7.749  -9.316  -3.048  0.00  0.00    -0.019 A 
ATOM      4  C   LIG d   1       8.100  -9.857  -1.818  0.00  0.00     0.121 A 
ATOM      5  C   LIG d   1       7.183 -10.617  -1.103  0.00  0.00    -0.019 A 
ATOM      6  C   LIG d   1       5.920 -10.832  -1.608  0.00  0.00    -0.049 A 
ATOM      7  H   LIG d   1       6.218  -9.111  -4.521  0.00  0.00     0.062 H 
ATOM      8  H   LIG d   1       8.465  -8.726  -3.602  0.00  0.00     0.065 H 
ATOM      9  H   LIG d   1       7.459 -11.037  -0.146  0.00  0.00     0.065 H 
ATOM     10  H   LIG d   1       5.206 -11.420  -1.049  0.00  0.00     0.062 H 
ENDROOT
BRANCH   4  11
ATOM     11  O   LIG d   1       9.343  -9.643  -1.313  0.00  0.00    -0.487 OA
BRANCH  11  12
ATOM     12  C   LIG d   1      10.028 -10.775  -0.774  0.00  0.00     0.115 C 
ATOM     13  H   LIG d   1       9.373 -11.646  -0.806  0.00  0.00     0.075 H 
ATOM     14  H   LIG d   1      10.923 -10.972  -1.364  0.00  0.00     0.075 H 
BRANCH  12  15
ATOM     15  C   LIG d   1      10.419 -10.493   0.653  0.00  0.00    -0.010 A 
ATOM     16  C   LIG d   1      10.665  -9.194   1.059  0.00  0.00    -0.055 A 
ATOM     17  C   LIG d   1      11.020  -8.936   2.370  0.00  0.00    -0.061 A 
ATOM     18  H   LIG d   1      10.575  -8.382   0.353  0.00  0.00     0.062 H 
ATOM     19  C   LIG d   1      11.140  -9.976   3.272  0.00  0.00    -0.062 A 
ATOM     20  H   LIG d   1      11.207  -7.921   2.688  0.00  0.00     0.062 H 
ATOM     21  C   LIG d   1      10.900 -11.275   2.865  0.00  0.00    -0.061 A 
ATOM     22  H   LIG d   1      11.421  -9.774   4.295  0.00  0.00     0.062 H 
ATOM     23  C   LIG d   1      10.541 -11.534   1.556  0.00  0.00    -0.055 A 
ATOM     24  H   LIG d   1      10.993 -12.088   3.570  0.00  0.00     0.062 H 
ATOM     25  H   LIG d   1      10.353 -12.549   1.237  0.00  0.00     0.062 H 
ENDBRANCH  12  15
ENDBRANCH  11  12
ENDBRANCH   4  11
BRANCH   1  26
ATOM     26  C   LIG d   1       4.215 -10.528  -3.396  0.00  0.00     0.084 C 
ATOM     27  N   LIG d   1       3.190  -9.951  -2.858  0.00  0.00    -0.092 NA
BRANCH  26  28
ATOM     28  C   LIG d   1       4.031 -11.437  -4.584  0.00  0.00    -0.019 C 
ATOM     29  H   LIG d   1       3.710 -12.420  -4.243  0.00  0.00     0.029 H 
ATOM     30  H   LIG d   1       3.277 -11.018  -5.249  0.00  0.00     0.029 H 
ATOM     31  H   LIG d   1       4.977 -11.529  -5.120  0.00  0.00     0.029 H 
ENDBRANCH  26  28
BRANCH  27  32
ATOM     32  O   LIG d   1       1.895 -10.173  -3.385  0.00  0.00    -0.409 OA
ATOM     33  H   LIG d   1       1.507  -9.400  -3.815  0.00  0.00     0.328 HD
ENDBRANCH  27  32
ENDBRANCH   1  26
TORSDOF 6
ENDMDL
