MODEL 1
REMARK VINA RESULT:      -6.2      0.000      0.000
REMARK  6 active torsions:
REMARK  status: ('A' for Active; 'I' for Inactive)
REMARK    1  A    between atoms: C_1  and  O_2 
REMARK    2  A    between atoms: O_2  and  C_3 
REMARK    3  A    between atoms: C_7  and  C_9 
REMARK    4  A    between atoms: C_16  and  O_20 
REMARK    5  A    between atoms: O_20  and  C_21 
REMARK    6  A    between atoms: C_21  and  C_22 
ROOT
ATOM      1  C   LIG d   1       6.616  -1.819  -4.057  0.00  0.00    -0.008 C 
ATOM      2  C   LIG d   1       6.488  -3.090  -4.511  0.00  0.00     0.176 A 
ATOM      3  C   LIG d   1       7.571  -3.944  -5.024  0.00  0.00     0.232 A 
ATOM      4  O   LIG d   1       8.753  -3.666  -5.131  0.00  0.00    -0.283 OA
ATOM      5  C   LIG d   1       6.905  -5.210  -5.382  0.00  0.00     0.068 A 
ATOM      6  C   LIG d   1       7.367  -6.414  -5.916  0.00  0.00    -0.044 A 
ATOM      7  C   LIG d   1       6.493  -7.437  -6.144  0.00  0.00    -0.019 A 
ATOM      8  C   LIG d   1       5.141  -7.283  -5.845  0.00  0.00     0.125 A 
ATOM      9  C   LIG d   1       4.668  -6.092  -5.320  0.00  0.00     0.023 A 
ATOM     10  C   LIG d   1       5.546  -5.042  -5.076  0.00  0.00     0.143 A 
ATOM     11  O   LIG d   1       5.340  -3.805  -4.574  0.00  0.00    -0.451 OA
ATOM     12  H   LIG d   1       7.596  -1.373  -3.971  0.00  0.00     0.066 H 
ATOM     13  H   LIG d   1       8.415  -6.535  -6.148  0.00  0.00     0.063 H 
ATOM     14  H   LIG d   1       6.849  -8.369  -6.558  0.00  0.00     0.065 H 
ATOM     15  H   LIG d   1       3.617  -5.981  -5.095  0.00  0.00     0.069 H 
ENDROOT
BRANCH   1  16
ATOM     16  C   LIG d   1       5.422  -1.048  -3.681  0.00  0.00    -0.018 A 
ATOM     17  C   LIG d   1       5.069  -0.913  -2.334  0.00  0.00    -0.054 A 
ATOM     18  C   LIG d   1       3.950  -0.185  -1.986  0.00  0.00    -0.058 A 
ATOM     19  H   LIG d   1       5.672  -1.376  -1.568  0.00  0.00     0.062 H 
ATOM     20  C   LIG d   1       3.170   0.405  -2.965  0.00  0.00    -0.020 A 
ATOM     21  H   LIG d   1       3.680  -0.077  -0.946  0.00  0.00     0.062 H 
ATOM     22  C   LIG d   1       3.509   0.272  -4.305  0.00  0.00     0.121 A 
ATOM     23  H   LIG d   1       2.294   0.971  -2.685  0.00  0.00     0.065 H 
ATOM     24  C   LIG d   1       4.631  -0.450  -4.668  0.00  0.00    -0.013 A 
ATOM     25  H   LIG d   1       4.895  -0.554  -5.710  0.00  0.00     0.066 H 
BRANCH  22  26
ATOM     26  O   LIG d   1       2.737   0.854  -5.261  0.00  0.00    -0.495 OA
BRANCH  26  27
ATOM     27  C   LIG d   1       2.793   0.291  -6.573  0.00  0.00     0.079 C 
ATOM     28  H   LIG d   1       2.494   1.041  -7.304  0.00  0.00     0.066 H 
ATOM     29  H   LIG d   1       3.811  -0.039  -6.784  0.00  0.00     0.066 H 
ATOM     30  H   LIG d   1       2.116  -0.562  -6.631  0.00  0.00     0.066 H 
ENDBRANCH  26  27
ENDBRANCH  22  26
ENDBRANCH   1  16
BRANCH   8  31
ATOM     31  O   LIG d   1       4.280  -8.306  -6.075  0.00  0.00    -0.486 OA
BRANCH  31  32
ATOM     32  C   LIG d   1       4.687  -9.607  -5.644  0.00  0.00     0.129 C 
ATOM     33  H   LIG d   1       5.760  -9.722  -5.803  0.00  0.00     0.076 H 
ATOM     34  H   LIG d   1       4.151 -10.364  -6.217  0.00  0.00     0.076 H 
BRANCH  32  35
ATOM     35  C   LIG d   1       4.374  -9.771  -4.180  0.00  0.00     0.079 C 
ATOM     36  O   LIG d   1       3.225  -9.836  -3.810  0.00  0.00    -0.546 OA
ATOM     37  O   LIG d   1       5.372  -9.845  -3.285  0.00  0.00    -0.546 OA
ENDBRANCH  32  35
ENDBRANCH  31  32
ENDBRANCH   8  31
TORSDOF 6
ENDMDL
MODEL 2
REMARK VINA RESULT:      -6.1      5.466      8.154
REMARK  6 active torsions:
REMARK  status: ('A' for Active; 'I' for Inactive)
REMARK    1  A    between atoms: C_1  and  O_2 
REMARK    2  A    between atoms: O_2  and  C_3 
REMARK    3  A    between atoms: C_7  and  C_9 
REMARK    4  A    between atoms: C_16  and  O_20 
REMARK    5  A    between atoms: O_20  and  C_21 
REMARK    6  A    between atoms: C_21  and  C_22 
ROOT
ATOM      1  C   LIG d   1       9.997   2.752  -4.168  0.00  0.00    -0.008 C 
ATOM      2  C   LIG d   1       8.927   1.928  -4.055  0.00  0.00     0.176 A 
ATOM      3  C   LIG d   1       8.831   0.551  -4.566  0.00  0.00     0.232 A 
ATOM      4  O   LIG d   1       9.681  -0.081  -5.170  0.00  0.00    -0.283 OA
ATOM      5  C   LIG d   1       7.478   0.109  -4.184  0.00  0.00     0.068 A 
ATOM      6  C   LIG d   1       6.775  -1.083  -4.370  0.00  0.00    -0.044 A 
ATOM      7  C   LIG d   1       5.502  -1.204  -3.892  0.00  0.00    -0.019 A 
ATOM      8  C   LIG d   1       4.903  -0.141  -3.220  0.00  0.00     0.125 A 
ATOM      9  C   LIG d   1       5.586   1.049  -3.033  0.00  0.00     0.023 A 
ATOM     10  C   LIG d   1       6.885   1.186  -3.507  0.00  0.00     0.143 A 
ATOM     11  O   LIG d   1       7.751   2.221  -3.451  0.00  0.00    -0.451 OA
ATOM     12  H   LIG d   1      10.918   2.385  -4.596  0.00  0.00     0.066 H 
ATOM     13  H   LIG d   1       7.239  -1.908  -4.892  0.00  0.00     0.063 H 
ATOM     14  H   LIG d   1       4.957  -2.125  -4.037  0.00  0.00     0.065 H 
ATOM     15  H   LIG d   1       5.112   1.868  -2.513  0.00  0.00     0.069 H 
ENDROOT
BRANCH   1  16
ATOM     16  C   LIG d   1       9.905   4.145  -3.706  0.00  0.00    -0.018 A 
ATOM     17  C   LIG d   1       9.472   5.148  -4.582  0.00  0.00    -0.054 A 
ATOM     18  C   LIG d   1       9.382   6.453  -4.142  0.00  0.00    -0.058 A 
ATOM     19  H   LIG d   1       9.207   4.900  -5.598  0.00  0.00     0.062 H 
ATOM     20  C   LIG d   1       9.727   6.775  -2.842  0.00  0.00    -0.020 A 
ATOM     21  H   LIG d   1       9.045   7.225  -4.816  0.00  0.00     0.062 H 
ATOM     22  C   LIG d   1      10.162   5.788  -1.967  0.00  0.00     0.121 A 
ATOM     23  H   LIG d   1       9.657   7.798  -2.506  0.00  0.00     0.065 H 
ATOM     24  C   LIG d   1      10.252   4.475  -2.392  0.00  0.00    -0.013 A 
ATOM     25  H   LIG d   1      10.591   3.707  -1.712  0.00  0.00     0.066 H 
BRANCH  22  26
ATOM     26  O   LIG d   1      10.499   6.113  -0.690  0.00  0.00    -0.495 OA
BRANCH  26  27
ATOM     27  C   LIG d   1      11.728   5.584  -0.189  0.00  0.00     0.079 C 
ATOM     28  H   LIG d   1      12.202   4.974  -0.957  0.00  0.00     0.066 H 
ATOM     29  H   LIG d   1      12.392   6.405   0.085  0.00  0.00     0.066 H 
ATOM     30  H   LIG d   1      11.528   4.971   0.690  0.00  0.00     0.066 H 
ENDBRANCH  26  27
ENDBRANCH  22  26
ENDBRANCH   1  16
BRANCH   8  31
ATOM     31  O   LIG d   1       3.637  -0.272  -2.748  0.00  0.00    -0.486 OA
BRANCH  31  32
ATOM     32  C   LIG d   1       2.617  -0.575  -3.702  0.00  0.00     0.129 C 
ATOM     33  H   LIG d   1       1.642  -0.544  -3.214  0.00  0.00     0.076 H 
ATOM     34  H   LIG d   1       2.786  -1.571  -4.111  0.00  0.00     0.076 H 
BRANCH  32  35
ATOM     35  C   LIG d   1       2.654   0.438  -4.816  0.00  0.00     0.079 C 
ATOM     36  O   LIG d   1       2.791   0.074  -5.960  0.00  0.00    -0.546 OA
ATOM     37  O   LIG d   1       2.535   1.747  -4.538  0.00  0.00    -0.546 OA
ENDBRANCH  32  35
ENDBRANCH  31  32
ENDBRANCH   8  31
TORSDOF 6
ENDMDL
MODEL 3
REMARK VINA RESULT:      -6.1      6.213      8.749
REMARK  6 active torsions:
REMARK  status: ('A' for Active; 'I' for Inactive)
REMARK    1  A    between atoms: C_1  and  O_2 
REMARK    2  A    between atoms: O_2  and  C_3 
REMARK    3  A    between atoms: C_7  and  C_9 
REMARK    4  A    between atoms: C_16  and  O_20 
REMARK    5  A    between atoms: O_20  and  C_21 
REMARK    6  A    between atoms: C_21  and  C_22 
ROOT
ATOM      1  C   LIG d   1      10.240   4.333  -4.341  0.00  0.00    -0.008 C 
ATOM      2  C   LIG d   1       9.383   3.290  -4.471  0.00  0.00     0.176 A 
ATOM      3  C   LIG d   1       9.234   2.428  -5.654  0.00  0.00     0.232 A 
ATOM      4  O   LIG d   1       9.844   2.495  -6.708  0.00  0.00    -0.283 OA
ATOM      5  C   LIG d   1       8.183   1.465  -5.280  0.00  0.00     0.068 A 
ATOM      6  C   LIG d   1       7.584   0.397  -5.950  0.00  0.00    -0.044 A 
ATOM      7  C   LIG d   1       6.611  -0.335  -5.332  0.00  0.00    -0.019 A 
ATOM      8  C   LIG d   1       6.216  -0.019  -4.034  0.00  0.00     0.125 A 
ATOM      9  C   LIG d   1       6.797   1.042  -3.360  0.00  0.00     0.023 A 
ATOM     10  C   LIG d   1       7.793   1.793  -3.972  0.00  0.00     0.143 A 
ATOM     11  O   LIG d   1       8.507   2.853  -3.535  0.00  0.00    -0.451 OA
ATOM     12  H   LIG d   1      10.957   4.542  -5.121  0.00  0.00     0.066 H 
ATOM     13  H   LIG d   1       7.890   0.151  -6.957  0.00  0.00     0.063 H 
ATOM     14  H   LIG d   1       6.147  -1.161  -5.850  0.00  0.00     0.065 H 
ATOM     15  H   LIG d   1       6.481   1.281  -2.355  0.00  0.00     0.069 H 
ENDROOT
BRANCH   1  16
ATOM     16  C   LIG d   1      10.195   5.176  -3.138  0.00  0.00    -0.018 A 
ATOM     17  C   LIG d   1       9.448   6.359  -3.138  0.00  0.00    -0.054 A 
ATOM     18  C   LIG d   1       9.405   7.145  -2.004  0.00  0.00    -0.058 A 
ATOM     19  H   LIG d   1       8.904   6.656  -4.021  0.00  0.00     0.062 H 
ATOM     20  C   LIG d   1      10.106   6.772  -0.871  0.00  0.00    -0.020 A 
ATOM     21  H   LIG d   1       8.825   8.055  -2.003  0.00  0.00     0.062 H 
ATOM     22  C   LIG d   1      10.855   5.602  -0.863  0.00  0.00     0.121 A 
ATOM     23  H   LIG d   1      10.069   7.393   0.011  0.00  0.00     0.065 H 
ATOM     24  C   LIG d   1      10.902   4.802  -1.991  0.00  0.00    -0.013 A 
ATOM     25  H   LIG d   1      11.484   3.893  -1.985  0.00  0.00     0.066 H 
BRANCH  22  26
ATOM     26  O   LIG d   1      11.540   5.243   0.254  0.00  0.00    -0.495 OA
BRANCH  26  27
ATOM     27  C   LIG d   1      11.109   5.813   1.491  0.00  0.00     0.079 C 
ATOM     28  H   LIG d   1      11.366   5.141   2.310  0.00  0.00     0.066 H 
ATOM     29  H   LIG d   1      11.604   6.774   1.641  0.00  0.00     0.066 H 
ATOM     30  H   LIG d   1      10.029   5.960   1.467  0.00  0.00     0.066 H 
ENDBRANCH  26  27
ENDBRANCH  22  26
ENDBRANCH   1  16
BRANCH   8  31
ATOM     31  O   LIG d   1       5.248  -0.753  -3.429  0.00  0.00    -0.486 OA
BRANCH  31  32
ATOM     32  C   LIG d   1       3.928  -0.657  -3.967  0.00  0.00     0.129 C 
ATOM     33  H   LIG d   1       3.330  -1.499  -3.614  0.00  0.00     0.076 H 
ATOM     34  H   LIG d   1       3.976  -0.677  -5.055  0.00  0.00     0.076 H 
BRANCH  32  35
ATOM     35  C   LIG d   1       3.294   0.633  -3.516  0.00  0.00     0.079 C 
ATOM     36  O   LIG d   1       3.169   0.866  -2.337  0.00  0.00    -0.546 OA
ATOM     37  O   LIG d   1       2.868   1.526  -4.425  0.00  0.00    -0.546 OA
ENDBRANCH  32  35
ENDBRANCH  31  32
ENDBRANCH   8  31
TORSDOF 6
ENDMDL
MODEL 4
REMARK VINA RESULT:      -6.0      4.188      6.376
REMARK  6 active torsions:
REMARK  status: ('A' for Active; 'I' for Inactive)
REMARK    1  A    between atoms: C_1  and  O_2 
REMARK    2  A    between atoms: O_2  and  C_3 
REMARK    3  A    between atoms: C_7  and  C_9 
REMARK    4  A    between atoms: C_16  and  O_20 
REMARK    5  A    between atoms: O_20  and  C_21 
REMARK    6  A    between atoms: C_21  and  C_22 
ROOT
ATOM      1  C   LIG d   1       2.772   0.406  -6.855  0.00  0.00    -0.008 C 
ATOM      2  C   LIG d   1       3.727  -0.159  -6.075  0.00  0.00     0.176 A 
ATOM      3  C   LIG d   1       3.626  -0.426  -4.631  0.00  0.00     0.232 A 
ATOM      4  O   LIG d   1       2.685  -0.191  -3.893  0.00  0.00    -0.283 OA
ATOM      5  C   LIG d   1       4.919  -1.039  -4.278  0.00  0.00     0.068 A 
ATOM      6  C   LIG d   1       5.453  -1.518  -3.081  0.00  0.00    -0.044 A 
ATOM      7  C   LIG d   1       6.711  -2.047  -3.060  0.00  0.00    -0.019 A 
ATOM      8  C   LIG d   1       7.463  -2.111  -4.231  0.00  0.00     0.125 A 
ATOM      9  C   LIG d   1       6.948  -1.634  -5.425  0.00  0.00     0.023 A 
ATOM     10  C   LIG d   1       5.666  -1.099  -5.464  0.00  0.00     0.143 A 
ATOM     11  O   LIG d   1       4.947  -0.581  -6.484  0.00  0.00    -0.451 OA
ATOM     12  H   LIG d   1       1.799   0.628  -6.441  0.00  0.00     0.066 H 
ATOM     13  H   LIG d   1       4.871  -1.469  -2.172  0.00  0.00     0.063 H 
ATOM     14  H   LIG d   1       7.126  -2.417  -2.134  0.00  0.00     0.065 H 
ATOM     15  H   LIG d   1       7.541  -1.685  -6.327  0.00  0.00     0.069 H 
ENDROOT
BRANCH   1  16
ATOM     16  C   LIG d   1       3.060   0.715  -8.263  0.00  0.00    -0.018 A 
ATOM     17  C   LIG d   1       3.621   1.948  -8.610  0.00  0.00    -0.054 A 
ATOM     18  C   LIG d   1       3.894   2.231  -9.933  0.00  0.00    -0.058 A 
ATOM     19  H   LIG d   1       3.843   2.676  -7.845  0.00  0.00     0.062 H 
ATOM     20  C   LIG d   1       3.606   1.303 -10.918  0.00  0.00    -0.020 A 
ATOM     21  H   LIG d   1       4.331   3.181 -10.200  0.00  0.00     0.062 H 
ATOM     22  C   LIG d   1       3.044   0.078 -10.583  0.00  0.00     0.121 A 
ATOM     23  H   LIG d   1       3.820   1.533 -11.951  0.00  0.00     0.065 H 
ATOM     24  C   LIG d   1       2.770  -0.221  -9.261  0.00  0.00    -0.013 A 
ATOM     25  H   LIG d   1       2.333  -1.174  -9.001  0.00  0.00     0.066 H 
BRANCH  22  26
ATOM     26  O   LIG d   1       2.764  -0.828 -11.557  0.00  0.00    -0.495 OA
BRANCH  26  27
ATOM     27  C   LIG d   1       1.391  -1.181 -11.741  0.00  0.00     0.079 C 
ATOM     28  H   LIG d   1       0.787  -0.275 -11.792  0.00  0.00     0.066 H 
ATOM     29  H   LIG d   1       1.281  -1.744 -12.668  0.00  0.00     0.066 H 
ATOM     30  H   LIG d   1       1.058  -1.793 -10.902  0.00  0.00     0.066 H 
ENDBRANCH  26  27
ENDBRANCH  22  26
ENDBRANCH   1  16
BRANCH   8  31
ATOM     31  O   LIG d   1       8.713  -2.638  -4.200  0.00  0.00    -0.486 OA
BRANCH  31  32
ATOM     32  C   LIG d   1       8.826  -4.020  -3.854  0.00  0.00     0.129 C 
ATOM     33  H   LIG d   1       9.107  -4.594  -4.738  0.00  0.00     0.076 H 
ATOM     34  H   LIG d   1       7.869  -4.380  -3.476  0.00  0.00     0.076 H 
BRANCH  32  35
ATOM     35  C   LIG d   1       9.880  -4.187  -2.791  0.00  0.00     0.079 C 
ATOM     36  O   LIG d   1      11.029  -3.899  -3.028  0.00  0.00    -0.546 OA
ATOM     37  O   LIG d   1       9.543  -4.656  -1.579  0.00  0.00    -0.546 OA
ENDBRANCH  32  35
ENDBRANCH  31  32
ENDBRANCH   8  31
TORSDOF 6
ENDMDL
MODEL 5
REMARK VINA RESULT:      -6.0      6.317      8.711
REMARK  6 active torsions:
REMARK  status: ('A' for Active; 'I' for Inactive)
REMARK    1  A    between atoms: C_1  and  O_2 
REMARK    2  A    between atoms: O_2  and  C_3 
REMARK    3  A    between atoms: C_7  and  C_9 
REMARK    4  A    between atoms: C_16  and  O_20 
REMARK    5  A    between atoms: O_20  and  C_21 
REMARK    6  A    between atoms: C_21  and  C_22 
ROOT
ATOM      1  C   LIG d   1      10.425   4.389  -4.213  0.00  0.00    -0.008 C 
ATOM      2  C   LIG d   1       9.537   3.387  -4.424  0.00  0.00     0.176 A 
ATOM      3  C   LIG d   1       9.276   2.710  -5.705  0.00  0.00     0.232 A 
ATOM      4  O   LIG d   1       9.803   2.927  -6.783  0.00  0.00    -0.283 OA
ATOM      5  C   LIG d   1       8.236   1.715  -5.393  0.00  0.00     0.068 A 
ATOM      6  C   LIG d   1       7.562   0.764  -6.161  0.00  0.00    -0.044 A 
ATOM      7  C   LIG d   1       6.625  -0.041  -5.581  0.00  0.00    -0.019 A 
ATOM      8  C   LIG d   1       6.339   0.084  -4.223  0.00  0.00     0.125 A 
ATOM      9  C   LIG d   1       6.996   1.026  -3.449  0.00  0.00     0.023 A 
ATOM     10  C   LIG d   1       7.958   1.849  -4.024  0.00  0.00     0.143 A 
ATOM     11  O   LIG d   1       8.727   2.825  -3.495  0.00  0.00    -0.451 OA
ATOM     12  H   LIG d   1      11.083   4.704  -5.009  0.00  0.00     0.066 H 
ATOM     13  H   LIG d   1       7.783   0.666  -7.215  0.00  0.00     0.063 H 
ATOM     14  H   LIG d   1       6.102  -0.776  -6.175  0.00  0.00     0.065 H 
ATOM     15  H   LIG d   1       6.765   1.118  -2.398  0.00  0.00     0.069 H 
ENDROOT
BRANCH   1  16
ATOM     16  C   LIG d   1      10.494   5.045  -2.899  0.00  0.00    -0.018 A 
ATOM     17  C   LIG d   1      11.410   4.601  -1.939  0.00  0.00    -0.054 A 
ATOM     18  C   LIG d   1      11.474   5.225  -0.710  0.00  0.00    -0.058 A 
ATOM     19  H   LIG d   1      12.068   3.774  -2.161  0.00  0.00     0.062 H 
ATOM     20  C   LIG d   1      10.629   6.280  -0.419  0.00  0.00    -0.020 A 
ATOM     21  H   LIG d   1      12.184   4.884   0.029  0.00  0.00     0.062 H 
ATOM     22  C   LIG d   1       9.713   6.725  -1.364  0.00  0.00     0.121 A 
ATOM     23  H   LIG d   1      10.683   6.761   0.546  0.00  0.00     0.065 H 
ATOM     24  C   LIG d   1       9.642   6.114  -2.602  0.00  0.00    -0.013 A 
ATOM     25  H   LIG d   1       8.929   6.459  -3.337  0.00  0.00     0.066 H 
BRANCH  22  26
ATOM     26  O   LIG d   1       8.886   7.764  -1.070  0.00  0.00    -0.495 OA
BRANCH  26  27
ATOM     27  C   LIG d   1       9.501   9.011  -0.745  0.00  0.00     0.079 C 
ATOM     28  H   LIG d   1       9.331   9.723  -1.552  0.00  0.00     0.066 H 
ATOM     29  H   LIG d   1       9.071   9.399   0.179  0.00  0.00     0.066 H 
ATOM     30  H   LIG d   1      10.574   8.864  -0.611  0.00  0.00     0.066 H 
ENDBRANCH  26  27
ENDBRANCH  22  26
ENDBRANCH   1  16
BRANCH   8  31
ATOM     31  O   LIG d   1       5.406  -0.721  -3.655  0.00  0.00    -0.486 OA
BRANCH  31  32
ATOM     32  C   LIG d   1       4.101  -0.713  -4.237  0.00  0.00     0.129 C 
ATOM     33  H   LIG d   1       3.567  -1.618  -3.944  0.00  0.00     0.076 H 
ATOM     34  H   LIG d   1       4.187  -0.678  -5.323  0.00  0.00     0.076 H 
BRANCH  32  35
ATOM     35  C   LIG d   1       3.343   0.496  -3.755  0.00  0.00     0.079 C 
ATOM     36  O   LIG d   1       3.193   0.683  -2.571  0.00  0.00    -0.546 OA
ATOM     37  O   LIG d   1       2.835   1.367  -4.642  0.00  0.00    -0.546 OA
ENDBRANCH  32  35
ENDBRANCH  31  32
ENDBRANCH   8  31
TORSDOF 6
ENDMDL
MODEL 6
REMARK VINA RESULT:      -6.0      3.648      6.254
REMARK  6 active torsions:
REMARK  status: ('A' for Active; 'I' for Inactive)
REMARK    1  A    between atoms: C_1  and  O_2 
REMARK    2  A    between atoms: O_2  and  C_3 
REMARK    3  A    between atoms: C_7  and  C_9 
REMARK    4  A    between atoms: C_16  and  O_20 
REMARK    5  A    between atoms: O_20  and  C_21 
REMARK    6  A    between atoms: C_21  and  C_22 
ROOT
ATOM      1  C   LIG d   1       4.878  -2.727  -3.832  0.00  0.00    -0.008 C 
ATOM      2  C   LIG d   1       4.672  -2.923  -5.158  0.00  0.00     0.176 A 
ATOM      3  C   LIG d   1       4.727  -4.212  -5.867  0.00  0.00     0.232 A 
ATOM      4  O   LIG d   1       4.965  -5.311  -5.397  0.00  0.00    -0.283 OA
ATOM      5  C   LIG d   1       4.434  -3.874  -7.271  0.00  0.00     0.068 A 
ATOM      6  C   LIG d   1       4.335  -4.637  -8.435  0.00  0.00    -0.044 A 
ATOM      7  C   LIG d   1       4.041  -4.031  -9.623  0.00  0.00    -0.019 A 
ATOM      8  C   LIG d   1       3.838  -2.654  -9.675  0.00  0.00     0.125 A 
ATOM      9  C   LIG d   1       3.939  -1.884  -8.528  0.00  0.00     0.023 A 
ATOM     10  C   LIG d   1       4.231  -2.486  -7.310  0.00  0.00     0.143 A 
ATOM     11  O   LIG d   1       4.377  -1.968  -6.071  0.00  0.00    -0.451 OA
ATOM     12  H   LIG d   1       5.024  -3.574  -3.178  0.00  0.00     0.066 H 
ATOM     13  H   LIG d   1       4.492  -5.705  -8.397  0.00  0.00     0.063 H 
ATOM     14  H   LIG d   1       3.966  -4.620 -10.525  0.00  0.00     0.065 H 
ATOM     15  H   LIG d   1       3.783  -0.816  -8.580  0.00  0.00     0.069 H 
ENDROOT
BRANCH   1  16
ATOM     16  C   LIG d   1       4.902  -1.363  -3.285  0.00  0.00    -0.018 A 
ATOM     17  C   LIG d   1       3.833  -0.897  -2.512  0.00  0.00    -0.054 A 
ATOM     18  C   LIG d   1       3.863   0.383  -1.997  0.00  0.00    -0.058 A 
ATOM     19  H   LIG d   1       2.987  -1.539  -2.317  0.00  0.00     0.062 H 
ATOM     20  C   LIG d   1       4.942   1.210  -2.250  0.00  0.00    -0.020 A 
ATOM     21  H   LIG d   1       3.039   0.740  -1.397  0.00  0.00     0.062 H 
ATOM     22  C   LIG d   1       6.007   0.759  -3.020  0.00  0.00     0.121 A 
ATOM     23  H   LIG d   1       4.957   2.211  -1.845  0.00  0.00     0.065 H 
ATOM     24  C   LIG d   1       5.992  -0.524  -3.538  0.00  0.00    -0.013 A 
ATOM     25  H   LIG d   1       6.819  -0.875  -4.137  0.00  0.00     0.066 H 
BRANCH  22  26
ATOM     26  O   LIG d   1       7.063   1.578  -3.263  0.00  0.00    -0.495 OA
BRANCH  26  27
ATOM     27  C   LIG d   1       7.907   1.240  -4.366  0.00  0.00     0.079 C 
ATOM     28  H   LIG d   1       8.863   1.752  -4.263  0.00  0.00     0.066 H 
ATOM     29  H   LIG d   1       8.071   0.162  -4.381  0.00  0.00     0.066 H 
ATOM     30  H   LIG d   1       7.429   1.548  -5.297  0.00  0.00     0.066 H 
ENDBRANCH  26  27
ENDBRANCH  22  26
ENDBRANCH   1  16
BRANCH   8  31
ATOM     31  O   LIG d   1       3.546  -2.061 -10.860  0.00  0.00    -0.486 OA
BRANCH  31  32
ATOM     32  C   LIG d   1       2.913  -0.781 -10.808  0.00  0.00     0.129 C 
ATOM     33  H   LIG d   1       2.763  -0.493  -9.767  0.00  0.00     0.076 H 
ATOM     34  H   LIG d   1       1.949  -0.832 -11.314  0.00  0.00     0.076 H 
BRANCH  32  35
ATOM     35  C   LIG d   1       3.785   0.239 -11.491  0.00  0.00     0.079 C 
ATOM     36  O   LIG d   1       4.340  -0.037 -12.529  0.00  0.00    -0.546 OA
ATOM     37  O   LIG d   1       3.947   1.456 -10.947  0.00  0.00    -0.546 OA
ENDBRANCH  32  35
ENDBRANCH  31  32
ENDBRANCH   8  31
TORSDOF 6
ENDMDL
MODEL 7
REMARK VINA RESULT:      -5.7      3.710      6.079
REMARK  6 active torsions:
REMARK  status: ('A' for Active; 'I' for Inactive)
REMARK    1  A    between atoms: C_1  and  O_2 
REMARK    2  A    between atoms: O_2  and  C_3 
REMARK    3  A    between atoms: C_7  and  C_9 
REMARK    4  A    between atoms: C_16  and  O_20 
REMARK    5  A    between atoms: O_20  and  C_21 
REMARK    6  A    between atoms: C_21  and  C_22 
ROOT
ATOM      1  C   LIG d   1       7.724   1.974  -3.929  0.00  0.00    -0.008 C 
ATOM      2  C   LIG d   1       6.901   0.907  -3.787  0.00  0.00     0.176 A 
ATOM      3  C   LIG d   1       5.798   0.781  -2.820  0.00  0.00     0.232 A 
ATOM      4  O   LIG d   1       5.436   1.599  -1.991  0.00  0.00    -0.283 OA
ATOM      5  C   LIG d   1       5.231  -0.554  -3.077  0.00  0.00     0.068 A 
ATOM      6  C   LIG d   1       4.177  -1.270  -2.508  0.00  0.00    -0.044 A 
ATOM      7  C   LIG d   1       3.875  -2.520  -2.967  0.00  0.00    -0.019 A 
ATOM      8  C   LIG d   1       4.617  -3.082  -4.003  0.00  0.00     0.125 A 
ATOM      9  C   LIG d   1       5.669  -2.386  -4.574  0.00  0.00     0.023 A 
ATOM     10  C   LIG d   1       5.985  -1.110  -4.122  0.00  0.00     0.143 A 
ATOM     11  O   LIG d   1       6.942  -0.238  -4.508  0.00  0.00    -0.451 OA
ATOM     12  H   LIG d   1       7.547   2.872  -3.356  0.00  0.00     0.066 H 
ATOM     13  H   LIG d   1       3.600  -0.835  -1.704  0.00  0.00     0.063 H 
ATOM     14  H   LIG d   1       3.060  -3.075  -2.526  0.00  0.00     0.065 H 
ATOM     15  H   LIG d   1       6.241  -2.832  -5.374  0.00  0.00     0.069 H 
ENDROOT
BRANCH   1  16
ATOM     16  C   LIG d   1       8.857   1.909  -4.864  0.00  0.00    -0.018 A 
ATOM     17  C   LIG d   1       8.663   2.186  -6.222  0.00  0.00    -0.054 A 
ATOM     18  C   LIG d   1       9.731   2.128  -7.094  0.00  0.00    -0.058 A 
ATOM     19  H   LIG d   1       7.681   2.446  -6.586  0.00  0.00     0.062 H 
ATOM     20  C   LIG d   1      10.990   1.788  -6.633  0.00  0.00    -0.020 A 
ATOM     21  H   LIG d   1       9.582   2.346  -8.141  0.00  0.00     0.062 H 
ATOM     22  C   LIG d   1      11.191   1.507  -5.288  0.00  0.00     0.121 A 
ATOM     23  H   LIG d   1      11.820   1.743  -7.322  0.00  0.00     0.065 H 
ATOM     24  C   LIG d   1      10.131   1.567  -4.401  0.00  0.00    -0.013 A 
ATOM     25  H   LIG d   1      10.287   1.347  -3.355  0.00  0.00     0.066 H 
BRANCH  22  26
ATOM     26  O   LIG d   1      12.432   1.174  -4.843  0.00  0.00    -0.495 OA
BRANCH  26  27
ATOM     27  C   LIG d   1      12.553  -0.049  -4.113  0.00  0.00     0.079 C 
ATOM     28  H   LIG d   1      12.291  -0.886  -4.760  0.00  0.00     0.066 H 
ATOM     29  H   LIG d   1      13.581  -0.165  -3.766  0.00  0.00     0.066 H 
ATOM     30  H   LIG d   1      11.880  -0.028  -3.255  0.00  0.00     0.066 H 
ENDBRANCH  26  27
ENDBRANCH  22  26
ENDBRANCH   1  16
BRANCH   8  31
ATOM     31  O   LIG d   1       4.310  -4.325  -4.452  0.00  0.00    -0.486 OA
BRANCH  31  32
ATOM     32  C   LIG d   1       5.163  -4.883  -5.454  0.00  0.00     0.129 C 
ATOM     33  H   LIG d   1       6.114  -5.169  -5.002  0.00  0.00     0.076 H 
ATOM     34  H   LIG d   1       5.340  -4.144  -6.235  0.00  0.00     0.076 H 
BRANCH  32  35
ATOM     35  C   LIG d   1       4.506  -6.099  -6.053  0.00  0.00     0.079 C 
ATOM     36  O   LIG d   1       3.869  -6.000  -7.074  0.00  0.00    -0.546 OA
ATOM     37  O   LIG d   1       4.629  -7.294  -5.451  0.00  0.00    -0.546 OA
ENDBRANCH  32  35
ENDBRANCH  31  32
ENDBRANCH   8  31
TORSDOF 6
ENDMDL
MODEL 8
REMARK VINA RESULT:      -5.7      2.103      7.877
REMARK  6 active torsions:
REMARK  status: ('A' for Active; 'I' for Inactive)
REMARK    1  A    between atoms: C_1  and  O_2 
REMARK    2  A    between atoms: O_2  and  C_3 
REMARK    3  A    between atoms: C_7  and  C_9 
REMARK    4  A    between atoms: C_16  and  O_20 
REMARK    5  A    between atoms: O_20  and  C_21 
REMARK    6  A    between atoms: C_21  and  C_22 
ROOT
ATOM      1  C   LIG d   1       6.039  -6.405  -6.658  0.00  0.00    -0.008 C 
ATOM      2  C   LIG d   1       5.648  -5.160  -6.291  0.00  0.00     0.176 A 
ATOM      3  C   LIG d   1       5.728  -3.944  -7.116  0.00  0.00     0.232 A 
ATOM      4  O   LIG d   1       6.151  -3.842  -8.255  0.00  0.00    -0.283 OA
ATOM      5  C   LIG d   1       5.182  -2.878  -6.258  0.00  0.00     0.068 A 
ATOM      6  C   LIG d   1       4.982  -1.509  -6.445  0.00  0.00    -0.044 A 
ATOM      7  C   LIG d   1       4.442  -0.756  -5.443  0.00  0.00    -0.019 A 
ATOM      8  C   LIG d   1       4.088  -1.351  -4.234  0.00  0.00     0.125 A 
ATOM      9  C   LIG d   1       4.285  -2.707  -4.032  0.00  0.00     0.023 A 
ATOM     10  C   LIG d   1       4.829  -3.489  -5.044  0.00  0.00     0.143 A 
ATOM     11  O   LIG d   1       5.112  -4.808  -5.098  0.00  0.00    -0.451 OA
ATOM     12  H   LIG d   1       6.376  -6.590  -7.667  0.00  0.00     0.066 H 
ATOM     13  H   LIG d   1       5.256  -1.047  -7.382  0.00  0.00     0.063 H 
ATOM     14  H   LIG d   1       4.288   0.303  -5.586  0.00  0.00     0.065 H 
ATOM     15  H   LIG d   1       4.011  -3.158  -3.089  0.00  0.00     0.069 H 
ENDROOT
BRANCH   1  16
ATOM     16  C   LIG d   1       6.004  -7.504  -5.682  0.00  0.00    -0.018 A 
ATOM     17  C   LIG d   1       7.175  -7.900  -5.027  0.00  0.00    -0.054 A 
ATOM     18  C   LIG d   1       7.135  -8.929  -4.108  0.00  0.00    -0.058 A 
ATOM     19  H   LIG d   1       8.108  -7.399  -5.238  0.00  0.00     0.062 H 
ATOM     20  C   LIG d   1       5.944  -9.577  -3.839  0.00  0.00    -0.020 A 
ATOM     21  H   LIG d   1       8.039  -9.230  -3.600  0.00  0.00     0.062 H 
ATOM     22  C   LIG d   1       4.776  -9.195  -4.488  0.00  0.00     0.121 A 
ATOM     23  H   LIG d   1       5.921 -10.383  -3.121  0.00  0.00     0.065 H 
ATOM     24  C   LIG d   1       4.800  -8.162  -5.407  0.00  0.00    -0.013 A 
ATOM     25  H   LIG d   1       3.893  -7.865  -5.912  0.00  0.00     0.066 H 
BRANCH  22  26
ATOM     26  O   LIG d   1       3.609  -9.838  -4.219  0.00  0.00    -0.495 OA
BRANCH  26  27
ATOM     27  C   LIG d   1       3.656 -11.264  -4.141  0.00  0.00     0.079 C 
ATOM     28  H   LIG d   1       3.356 -11.584  -3.143  0.00  0.00     0.066 H 
ATOM     29  H   LIG d   1       2.977 -11.691  -4.879  0.00  0.00     0.066 H 
ATOM     30  H   LIG d   1       4.672 -11.606  -4.341  0.00  0.00     0.066 H 
ENDBRANCH  26  27
ENDBRANCH  22  26
ENDBRANCH   1  16
BRANCH   8  31
ATOM     31  O   LIG d   1       3.551  -0.594  -3.243  0.00  0.00    -0.486 OA
BRANCH  31  32
ATOM     32  C   LIG d   1       3.734   0.820  -3.336  0.00  0.00     0.129 C 
ATOM     33  H   LIG d   1       2.831   1.326  -2.991  0.00  0.00     0.076 H 
ATOM     34  H   LIG d   1       3.930   1.095  -4.372  0.00  0.00     0.076 H 
BRANCH  32  35
ATOM     35  C   LIG d   1       4.900   1.233  -2.477  0.00  0.00     0.079 C 
ATOM     36  O   LIG d   1       4.803   1.208  -1.273  0.00  0.00    -0.546 OA
ATOM     37  O   LIG d   1       6.048   1.629  -3.050  0.00  0.00    -0.546 OA
ENDBRANCH  32  35
ENDBRANCH  31  32
ENDBRANCH   8  31
TORSDOF 6
ENDMDL
MODEL 9
REMARK VINA RESULT:      -5.5      5.093      7.318
REMARK  6 active torsions:
REMARK  status: ('A' for Active; 'I' for Inactive)
REMARK    1  A    between atoms: C_1  and  O_2 
REMARK    2  A    between atoms: O_2  and  C_3 
REMARK    3  A    between atoms: C_7  and  C_9 
REMARK    4  A    between atoms: C_16  and  O_20 
REMARK    5  A    between atoms: O_20  and  C_21 
REMARK    6  A    between atoms: C_21  and  C_22 
ROOT
ATOM      1  C   LIG d   1       3.727   0.445  -7.821  0.00  0.00    -0.008 C 
ATOM      2  C   LIG d   1       3.137  -0.247  -8.827  0.00  0.00     0.176 A 
ATOM      3  C   LIG d   1       3.090   0.148 -10.244  0.00  0.00     0.232 A 
ATOM      4  O   LIG d   1       3.564   1.147 -10.756  0.00  0.00    -0.283 OA
ATOM      5  C   LIG d   1       2.340  -0.935 -10.905  0.00  0.00     0.068 A 
ATOM      6  C   LIG d   1       1.956  -1.162 -12.227  0.00  0.00    -0.044 A 
ATOM      7  C   LIG d   1       1.250  -2.285 -12.549  0.00  0.00    -0.019 A 
ATOM      8  C   LIG d   1       0.913  -3.206 -11.560  0.00  0.00     0.125 A 
ATOM      9  C   LIG d   1       1.282  -2.992 -10.243  0.00  0.00     0.023 A 
ATOM     10  C   LIG d   1       2.007  -1.857  -9.900  0.00  0.00     0.143 A 
ATOM     11  O   LIG d   1       2.483  -1.427  -8.711  0.00  0.00    -0.451 OA
ATOM     12  H   LIG d   1       4.296   1.336  -8.041  0.00  0.00     0.066 H 
ATOM     13  H   LIG d   1       2.217  -0.448 -12.996  0.00  0.00     0.063 H 
ATOM     14  H   LIG d   1       0.951  -2.460 -13.572  0.00  0.00     0.065 H 
ATOM     15  H   LIG d   1       1.013  -3.710  -9.482  0.00  0.00     0.069 H 
ENDROOT
BRANCH   1  16
ATOM     16  C   LIG d   1       3.593  -0.019  -6.433  0.00  0.00    -0.018 A 
ATOM     17  C   LIG d   1       2.558   0.468  -5.627  0.00  0.00    -0.054 A 
ATOM     18  C   LIG d   1       2.434   0.025  -4.325  0.00  0.00    -0.058 A 
ATOM     19  H   LIG d   1       1.856   1.186  -6.023  0.00  0.00     0.062 H 
ATOM     20  C   LIG d   1       3.334  -0.890  -3.812  0.00  0.00    -0.020 A 
ATOM     21  H   LIG d   1       1.632   0.398  -3.705  0.00  0.00     0.062 H 
ATOM     22  C   LIG d   1       4.368  -1.376  -4.603  0.00  0.00     0.121 A 
ATOM     23  H   LIG d   1       3.232  -1.230  -2.792  0.00  0.00     0.065 H 
ATOM     24  C   LIG d   1       4.501  -0.945  -5.910  0.00  0.00    -0.013 A 
ATOM     25  H   LIG d   1       5.305  -1.322  -6.525  0.00  0.00     0.066 H 
BRANCH  22  26
ATOM     26  O   LIG d   1       5.249  -2.276  -4.090  0.00  0.00    -0.495 OA
BRANCH  26  27
ATOM     27  C   LIG d   1       6.292  -1.762  -3.261  0.00  0.00     0.079 C 
ATOM     28  H   LIG d   1       5.861  -1.343  -2.352  0.00  0.00     0.066 H 
ATOM     29  H   LIG d   1       6.979  -2.568  -2.999  0.00  0.00     0.066 H 
ATOM     30  H   LIG d   1       6.834  -0.983  -3.798  0.00  0.00     0.066 H 
ENDBRANCH  26  27
ENDBRANCH  22  26
ENDBRANCH   1  16
BRANCH   8  31
ATOM     31  O   LIG d   1       0.210  -4.320 -11.889  0.00  0.00    -0.486 OA
BRANCH  31  32
ATOM     32  C   LIG d   1      -1.179  -4.150 -12.177  0.00  0.00     0.129 C 
ATOM     33  H   LIG d   1      -1.389  -4.520 -13.182  0.00  0.00     0.076 H 
ATOM     34  H   LIG d   1      -1.436  -3.093 -12.118  0.00  0.00     0.076 H 
BRANCH  32  35
ATOM     35  C   LIG d   1      -1.997  -4.923 -11.176  0.00  0.00     0.079 C 
ATOM     36  O   LIG d   1      -1.595  -5.061 -10.045  0.00  0.00    -0.546 OA
ATOM     37  O   LIG d   1      -3.174  -5.458 -11.540  0.00  0.00    -0.546 OA
ENDBRANCH  32  35
ENDBRANCH  31  32
ENDBRANCH   8  31
TORSDOF 6
ENDMDL
MODEL 10
REMARK VINA RESULT:      -5.4      4.053      7.647
REMARK  6 active torsions:
REMARK  status: ('A' for Active; 'I' for Inactive)
REMARK    1  A    between atoms: C_1  and  O_2 
REMARK    2  A    between atoms: O_2  and  C_3 
REMARK    3  A    between atoms: C_7  and  C_9 
REMARK    4  A    between atoms: C_16  and  O_20 
REMARK    5  A    between atoms: O_20  and  C_21 
REMARK    6  A    between atoms: C_21  and  C_22 
ROOT
ATOM      1  C   LIG d   1       3.419  -3.717  -9.022  0.00  0.00    -0.008 C 
ATOM      2  C   LIG d   1       3.930  -3.171  -7.891  0.00  0.00     0.176 A 
ATOM      3  C   LIG d   1       4.327  -3.901  -6.675  0.00  0.00     0.232 A 
ATOM      4  O   LIG d   1       4.267  -5.101  -6.473  0.00  0.00    -0.283 OA
ATOM      5  C   LIG d   1       4.810  -2.854  -5.757  0.00  0.00     0.068 A 
ATOM      6  C   LIG d   1       5.320  -2.884  -4.459  0.00  0.00    -0.044 A 
ATOM      7  C   LIG d   1       5.697  -1.723  -3.848  0.00  0.00    -0.019 A 
ATOM      8  C   LIG d   1       5.574  -0.508  -4.518  0.00  0.00     0.125 A 
ATOM      9  C   LIG d   1       5.064  -0.462  -5.804  0.00  0.00     0.023 A 
ATOM     10  C   LIG d   1       4.682  -1.636  -6.443  0.00  0.00     0.143 A 
ATOM     11  O   LIG d   1       4.170  -1.857  -7.673  0.00  0.00    -0.451 OA
ATOM     12  H   LIG d   1       3.349  -4.790  -9.120  0.00  0.00     0.066 H 
ATOM     13  H   LIG d   1       5.417  -3.826  -3.938  0.00  0.00     0.063 H 
ATOM     14  H   LIG d   1       6.091  -1.746  -2.842  0.00  0.00     0.065 H 
ATOM     15  H   LIG d   1       4.969   0.485  -6.314  0.00  0.00     0.069 H 
ENDROOT
BRANCH   1  16
ATOM     16  C   LIG d   1       2.962  -2.847 -10.116  0.00  0.00    -0.018 A 
ATOM     17  C   LIG d   1       1.622  -2.452 -10.185  0.00  0.00    -0.054 A 
ATOM     18  C   LIG d   1       1.199  -1.631 -11.211  0.00  0.00    -0.058 A 
ATOM     19  H   LIG d   1       0.920  -2.786  -9.436  0.00  0.00     0.062 H 
ATOM     20  C   LIG d   1       2.094  -1.206 -12.177  0.00  0.00    -0.020 A 
ATOM     21  H   LIG d   1       0.166  -1.323 -11.262  0.00  0.00     0.062 H 
ATOM     22  C   LIG d   1       3.426  -1.597 -12.119  0.00  0.00     0.121 A 
ATOM     23  H   LIG d   1       1.755  -0.566 -12.977  0.00  0.00     0.065 H 
ATOM     24  C   LIG d   1       3.864  -2.414 -11.093  0.00  0.00    -0.013 A 
ATOM     25  H   LIG d   1       4.899  -2.719 -11.049  0.00  0.00     0.066 H 
BRANCH  22  26
ATOM     26  O   LIG d   1       4.298  -1.174 -13.072  0.00  0.00    -0.495 OA
BRANCH  26  27
ATOM     27  C   LIG d   1       5.687  -1.203 -12.739  0.00  0.00     0.079 C 
ATOM     28  H   LIG d   1       5.993  -0.224 -12.370  0.00  0.00     0.066 H 
ATOM     29  H   LIG d   1       5.861  -1.953 -11.966  0.00  0.00     0.066 H 
ATOM     30  H   LIG d   1       6.269  -1.455 -13.626  0.00  0.00     0.066 H 
ENDBRANCH  26  27
ENDBRANCH  22  26
ENDBRANCH   1  16
BRANCH   8  31
ATOM     31  O   LIG d   1       5.951   0.641  -3.902  0.00  0.00    -0.486 OA
BRANCH  31  32
ATOM     32  C   LIG d   1       5.414   0.887  -2.601  0.00  0.00     0.129 C 
ATOM     33  H   LIG d   1       5.976   1.689  -2.121  0.00  0.00     0.076 H 
ATOM     34  H   LIG d   1       5.489  -0.019  -1.999  0.00  0.00     0.076 H 
BRANCH  32  35
ATOM     35  C   LIG d   1       3.967   1.290  -2.723  0.00  0.00     0.079 C 
ATOM     36  O   LIG d   1       3.111   0.649  -2.160  0.00  0.00    -0.546 OA
ATOM     37  O   LIG d   1       3.629   2.363  -3.457  0.00  0.00    -0.546 OA
ENDBRANCH  32  35
ENDBRANCH  31  32
ENDBRANCH   8  31
TORSDOF 6
ENDMDL
