MODEL 1
REMARK VINA RESULT:      -7.6      0.000      0.000
REMARK  2 active torsions:
REMARK  status: ('A' for Active; 'I' for Inactive)
REMARK    1  A    between atoms: C_14  and  C_32 
REMARK    2  A    between atoms: N_21  and  C_24 
ROOT
ATOM      1  C   LIG d   1       9.701  -2.639  -4.698  0.00  0.00    -0.061 A 
ATOM      2  C   LIG d   1       9.058  -3.850  -4.519  0.00  0.00    -0.061 A 
ATOM      3  C   LIG d   1       7.669  -3.911  -4.574  0.00  0.00    -0.057 A 
ATOM      4  C   LIG d   1       6.982  -2.761  -4.799  0.00  0.00    -0.025 A 
ATOM      5  C   LIG d   1       7.610  -1.525  -4.923  0.00  0.00    -0.035 A 
ATOM      6  C   LIG d   1       8.984  -1.471  -4.899  0.00  0.00    -0.058 A 
ATOM      7  C   LIG d   1       6.741  -0.286  -5.060  0.00  0.00     0.022 C 
ATOM      8  C   LIG d   1       5.813  -0.469  -3.840  0.00  0.00    -0.035 A 
ATOM      9  C   LIG d   1       5.631   0.459  -2.864  0.00  0.00    -0.058 A 
ATOM     10  C   LIG d   1       4.664   0.217  -1.894  0.00  0.00    -0.061 A 
ATOM     11  C   LIG d   1       3.918  -0.948  -1.937  0.00  0.00    -0.061 A 
ATOM     12  C   LIG d   1       4.135  -1.897  -2.923  0.00  0.00    -0.057 A 
ATOM     13  C   LIG d   1       5.102  -1.664  -3.871  0.00  0.00    -0.025 A 
ATOM     14  C   LIG d   1       5.435  -2.690  -4.964  0.00  0.00     0.088 C 
ATOM     15  C   LIG d   1       5.477  -1.995  -6.299  0.00  0.00     0.069 C 
ATOM     16  H   LIG d   1       6.142  -2.817  -6.602  0.00  0.00     0.042 H 
ATOM     17  C   LIG d   1       5.674  -0.460  -6.139  0.00  0.00     0.060 C 
ATOM     18  H   LIG d   1       4.905   0.246  -5.792  0.00  0.00     0.041 H 
ATOM     19  C   LIG d   1       5.967  -0.166  -7.581  0.00  0.00     0.231 C 
ATOM     20  O   LIG d   1       6.725   0.669  -8.024  0.00  0.00    -0.275 OA
ATOM     21  N   LIG d   1       5.191  -1.049  -8.287  0.00  0.00    -0.208 N 
ATOM     22  C   LIG d   1       4.713  -2.087  -7.518  0.00  0.00     0.232 C 
ATOM     23  O   LIG d   1       3.845  -2.888  -7.792  0.00  0.00    -0.274 OA
ATOM     24  H   LIG d   1      10.781  -2.604  -4.680  0.00  0.00     0.062 H 
ATOM     25  H   LIG d   1       9.632  -4.747  -4.337  0.00  0.00     0.062 H 
ATOM     26  H   LIG d   1       7.149  -4.848  -4.440  0.00  0.00     0.062 H 
ATOM     27  H   LIG d   1       9.497  -0.531  -5.034  0.00  0.00     0.062 H 
ATOM     28  H   LIG d   1       7.367   0.605  -5.213  0.00  0.00     0.041 H 
ATOM     29  H   LIG d   1       6.221   1.363  -2.842  0.00  0.00     0.062 H 
ATOM     30  H   LIG d   1       4.494   0.938  -1.108  0.00  0.00     0.062 H 
ATOM     31  H   LIG d   1       3.158  -1.120  -1.190  0.00  0.00     0.062 H 
ATOM     32  H   LIG d   1       3.553  -2.806  -2.948  0.00  0.00     0.062 H 
ENDROOT
BRANCH  21  33
ATOM     33  C   LIG d   1       4.911  -0.908  -9.654  0.00  0.00     0.062 A 
ATOM     34  C   LIG d   1       3.817  -0.159 -10.067  0.00  0.00     0.064 A 
ATOM     35  C   LIG d   1       3.546  -0.019 -11.415  0.00  0.00    -0.023 A 
ATOM     36 CL   LIG d   1       2.794   0.605  -8.891  0.00  0.00    -0.082 Cl
ATOM     37  C   LIG d   1       4.358  -0.633 -12.352  0.00  0.00     0.043 A 
ATOM     38  H   LIG d   1       2.697   0.566 -11.738  0.00  0.00     0.065 H 
ATOM     39  C   LIG d   1       5.446  -1.384 -11.943  0.00  0.00    -0.042 A 
ATOM     40 CL   LIG d   1       4.012  -0.460 -14.045  0.00  0.00    -0.084 Cl
ATOM     41  C   LIG d   1       5.724  -1.523 -10.596  0.00  0.00    -0.037 A 
ATOM     42  H   LIG d   1       6.079  -1.862 -12.676  0.00  0.00     0.063 H 
ATOM     43  H   LIG d   1       6.574  -2.109 -10.278  0.00  0.00     0.064 H 
ENDBRANCH  21  33
BRANCH  14  44
ATOM     44  C   LIG d   1       4.670  -3.987  -4.907  0.00  0.00     0.136 C 
ATOM     45  O   LIG d   1       4.991  -4.908  -5.620  0.00  0.00    -0.300 OA
ATOM     46  H   LIG d   1       3.821  -4.095  -4.217  0.00  0.00     0.104 H 
ENDBRANCH  14  44
TORSDOF 2
ENDMDL
MODEL 2
REMARK VINA RESULT:      -7.5      1.386      4.059
REMARK  2 active torsions:
REMARK  status: ('A' for Active; 'I' for Inactive)
REMARK    1  A    between atoms: C_14  and  C_32 
REMARK    2  A    between atoms: N_21  and  C_24 
ROOT
ATOM      1  C   LIG d   1       4.513  -0.856  -1.972  0.00  0.00    -0.061 A 
ATOM      2  C   LIG d   1       5.175   0.335  -2.212  0.00  0.00    -0.061 A 
ATOM      3  C   LIG d   1       6.083   0.422  -3.263  0.00  0.00    -0.057 A 
ATOM      4  C   LIG d   1       6.296  -0.682  -4.024  0.00  0.00    -0.025 A 
ATOM      5  C   LIG d   1       5.682  -1.904  -3.760  0.00  0.00    -0.035 A 
ATOM      6  C   LIG d   1       4.763  -1.981  -2.740  0.00  0.00    -0.058 A 
ATOM      7  C   LIG d   1       6.077  -3.105  -4.604  0.00  0.00     0.022 C 
ATOM      8  C   LIG d   1       7.612  -3.055  -4.446  0.00  0.00    -0.035 A 
ATOM      9  C   LIG d   1       8.376  -4.090  -4.008  0.00  0.00    -0.058 A 
ATOM     10  C   LIG d   1       9.759  -3.951  -4.042  0.00  0.00    -0.061 A 
ATOM     11  C   LIG d   1      10.325  -2.778  -4.511  0.00  0.00    -0.061 A 
ATOM     12  C   LIG d   1       9.531  -1.722  -4.929  0.00  0.00    -0.057 A 
ATOM     13  C   LIG d   1       8.165  -1.854  -4.879  0.00  0.00    -0.025 A 
ATOM     14  C   LIG d   1       7.221  -0.710  -5.276  0.00  0.00     0.088 C 
ATOM     15  C   LIG d   1       6.164  -1.242  -6.208  0.00  0.00     0.069 C 
ATOM     16  H   LIG d   1       5.555  -0.399  -5.849  0.00  0.00     0.042 H 
ATOM     17  C   LIG d   1       6.028  -2.787  -6.097  0.00  0.00     0.060 C 
ATOM     18  H   LIG d   1       6.749  -3.518  -6.492  0.00  0.00     0.041 H 
ATOM     19  C   LIG d   1       4.754  -2.912  -6.880  0.00  0.00     0.231 C 
ATOM     20  O   LIG d   1       3.851  -3.699  -6.699  0.00  0.00    -0.275 OA
ATOM     21  N   LIG d   1       4.835  -1.939  -7.843  0.00  0.00    -0.208 N 
ATOM     22  C   LIG d   1       5.801  -0.994  -7.581  0.00  0.00     0.232 C 
ATOM     23  O   LIG d   1       6.252  -0.153  -8.328  0.00  0.00    -0.274 OA
ATOM     24  H   LIG d   1       3.790  -0.908  -1.171  0.00  0.00     0.062 H 
ATOM     25  H   LIG d   1       4.987   1.194  -1.586  0.00  0.00     0.062 H 
ATOM     26  H   LIG d   1       6.606   1.345  -3.468  0.00  0.00     0.062 H 
ATOM     27  H   LIG d   1       4.242  -2.906  -2.541  0.00  0.00     0.062 H 
ATOM     28  H   LIG d   1       5.471  -3.980  -4.329  0.00  0.00     0.041 H 
ATOM     29  H   LIG d   1       7.920  -4.998  -3.643  0.00  0.00     0.062 H 
ATOM     30  H   LIG d   1      10.392  -4.758  -3.704  0.00  0.00     0.062 H 
ATOM     31  H   LIG d   1      11.400  -2.686  -4.550  0.00  0.00     0.062 H 
ATOM     32  H   LIG d   1       9.980  -0.808  -5.290  0.00  0.00     0.062 H 
ENDROOT
BRANCH  21  33
ATOM     33  C   LIG d   1       4.016  -1.912  -8.982  0.00  0.00     0.062 A 
ATOM     34  C   LIG d   1       2.872  -1.124  -8.997  0.00  0.00     0.064 A 
ATOM     35  C   LIG d   1       2.068  -1.096 -10.121  0.00  0.00    -0.023 A 
ATOM     36 CL   LIG d   1       2.455  -0.171  -7.607  0.00  0.00    -0.082 Cl
ATOM     37  C   LIG d   1       2.398  -1.859 -11.227  0.00  0.00     0.043 A 
ATOM     38  H   LIG d   1       1.181  -0.481 -10.136  0.00  0.00     0.065 H 
ATOM     39  C   LIG d   1       3.534  -2.649 -11.212  0.00  0.00    -0.042 A 
ATOM     40 CL   LIG d   1       1.384  -1.827 -12.636  0.00  0.00    -0.084 Cl
ATOM     41  C   LIG d   1       4.344  -2.677 -10.092  0.00  0.00    -0.037 A 
ATOM     42  H   LIG d   1       3.790  -3.245 -12.076  0.00  0.00     0.063 H 
ATOM     43  H   LIG d   1       5.231  -3.293 -10.082  0.00  0.00     0.064 H 
ENDBRANCH  21  33
BRANCH  14  44
ATOM     44  C   LIG d   1       7.882   0.582  -5.680  0.00  0.00     0.136 C 
ATOM     45  O   LIG d   1       7.236   1.601  -5.726  0.00  0.00    -0.300 OA
ATOM     46  H   LIG d   1       8.952   0.596  -5.932  0.00  0.00     0.104 H 
ENDBRANCH  14  44
TORSDOF 2
ENDMDL
MODEL 3
REMARK VINA RESULT:      -7.1      1.815      2.212
REMARK  2 active torsions:
REMARK  status: ('A' for Active; 'I' for Inactive)
REMARK    1  A    between atoms: C_14  and  C_32 
REMARK    2  A    between atoms: N_21  and  C_24 
ROOT
ATOM      1  C   LIG d   1       8.955  -0.580  -6.251  0.00  0.00    -0.061 A 
ATOM      2  C   LIG d   1       9.082  -1.934  -5.999  0.00  0.00    -0.061 A 
ATOM      3  C   LIG d   1       7.948  -2.702  -5.755  0.00  0.00    -0.057 A 
ATOM      4  C   LIG d   1       6.738  -2.086  -5.768  0.00  0.00    -0.025 A 
ATOM      5  C   LIG d   1       6.597  -0.714  -5.963  0.00  0.00    -0.035 A 
ATOM      6  C   LIG d   1       7.716   0.038  -6.233  0.00  0.00    -0.058 A 
ATOM      7  C   LIG d   1       5.207  -0.110  -5.846  0.00  0.00     0.022 C 
ATOM      8  C   LIG d   1       4.788  -0.658  -4.465  0.00  0.00    -0.035 A 
ATOM      9  C   LIG d   1       4.364   0.110  -3.427  0.00  0.00    -0.058 A 
ATOM     10  C   LIG d   1       3.890  -0.526  -2.284  0.00  0.00    -0.061 A 
ATOM     11  C   LIG d   1       3.862  -1.908  -2.224  0.00  0.00    -0.061 A 
ATOM     12  C   LIG d   1       4.323  -2.677  -3.281  0.00  0.00    -0.057 A 
ATOM     13  C   LIG d   1       4.806  -2.048  -4.402  0.00  0.00    -0.025 A 
ATOM     14  C   LIG d   1       5.381  -2.830  -5.591  0.00  0.00     0.088 C 
ATOM     15  C   LIG d   1       4.777  -2.306  -6.867  0.00  0.00     0.069 C 
ATOM     16  H   LIG d   1       5.689  -2.690  -7.348  0.00  0.00     0.042 H 
ATOM     17  C   LIG d   1       4.183  -0.881  -6.676  0.00  0.00     0.060 C 
ATOM     18  H   LIG d   1       3.254  -0.647  -6.136  0.00  0.00     0.041 H 
ATOM     19  C   LIG d   1       3.971  -0.579  -8.130  0.00  0.00     0.231 C 
ATOM     20  O   LIG d   1       4.077   0.494  -8.684  0.00  0.00    -0.275 OA
ATOM     21  N   LIG d   1       3.632  -1.781  -8.695  0.00  0.00    -0.208 N 
ATOM     22  C   LIG d   1       3.932  -2.861  -7.895  0.00  0.00     0.232 C 
ATOM     23  O   LIG d   1       3.566  -4.010  -8.015  0.00  0.00    -0.274 OA
ATOM     24  H   LIG d   1       9.838   0.005  -6.465  0.00  0.00     0.062 H 
ATOM     25  H   LIG d   1      10.059  -2.393  -5.990  0.00  0.00     0.062 H 
ATOM     26  H   LIG d   1       8.028  -3.761  -5.560  0.00  0.00     0.062 H 
ATOM     27  H   LIG d   1       7.629   1.096  -6.428  0.00  0.00     0.062 H 
ATOM     28  H   LIG d   1       5.236   0.963  -6.085  0.00  0.00     0.041 H 
ATOM     29  H   LIG d   1       4.394   1.188  -3.487  0.00  0.00     0.062 H 
ATOM     30  H   LIG d   1       3.544   0.058  -1.445  0.00  0.00     0.062 H 
ATOM     31  H   LIG d   1       3.476  -2.394  -1.340  0.00  0.00     0.062 H 
ATOM     32  H   LIG d   1       4.302  -3.756  -3.225  0.00  0.00     0.062 H 
ENDROOT
BRANCH  21  33
ATOM     33  C   LIG d   1       3.040  -1.899  -9.961  0.00  0.00     0.062 A 
ATOM     34  C   LIG d   1       3.825  -2.170 -11.074  0.00  0.00     0.064 A 
ATOM     35  C   LIG d   1       3.238  -2.289 -12.320  0.00  0.00    -0.023 A 
ATOM     36 CL   LIG d   1       5.541  -2.366 -10.900  0.00  0.00    -0.082 Cl
ATOM     37  C   LIG d   1       1.871  -2.128 -12.460  0.00  0.00     0.043 A 
ATOM     38  H   LIG d   1       3.847  -2.503 -13.186  0.00  0.00     0.065 H 
ATOM     39  C   LIG d   1       1.088  -1.853 -11.353  0.00  0.00    -0.042 A 
ATOM     40 CL   LIG d   1       1.136  -2.272 -14.026  0.00  0.00    -0.084 Cl
ATOM     41  C   LIG d   1       1.669  -1.738 -10.104  0.00  0.00    -0.037 A 
ATOM     42  H   LIG d   1       0.020  -1.728 -11.464  0.00  0.00     0.063 H 
ATOM     43  H   LIG d   1       1.056  -1.523  -9.241  0.00  0.00     0.064 H 
ENDBRANCH  21  33
BRANCH  14  44
ATOM     44  C   LIG d   1       5.426  -4.328  -5.437  0.00  0.00     0.136 C 
ATOM     45  O   LIG d   1       4.419  -4.937  -5.166  0.00  0.00    -0.300 OA
ATOM     46  H   LIG d   1       6.376  -4.866  -5.570  0.00  0.00     0.104 H 
ENDBRANCH  14  44
TORSDOF 2
ENDMDL
MODEL 4
REMARK VINA RESULT:      -7.1      3.641      6.718
REMARK  2 active torsions:
REMARK  status: ('A' for Active; 'I' for Inactive)
REMARK    1  A    between atoms: C_14  and  C_32 
REMARK    2  A    between atoms: N_21  and  C_24 
ROOT
ATOM      1  C   LIG d   1       4.306  -2.507  -7.659  0.00  0.00    -0.061 A 
ATOM      2  C   LIG d   1       4.711  -1.258  -8.094  0.00  0.00    -0.061 A 
ATOM      3  C   LIG d   1       5.535  -0.479  -7.288  0.00  0.00    -0.057 A 
ATOM      4  C   LIG d   1       5.915  -0.976  -6.083  0.00  0.00    -0.025 A 
ATOM      5  C   LIG d   1       5.470  -2.206  -5.605  0.00  0.00    -0.035 A 
ATOM      6  C   LIG d   1       4.679  -2.988  -6.415  0.00  0.00    -0.058 A 
ATOM      7  C   LIG d   1       5.865  -2.617  -4.196  0.00  0.00     0.022 C 
ATOM      8  C   LIG d   1       5.411  -1.367  -3.412  0.00  0.00    -0.035 A 
ATOM      9  C   LIG d   1       4.567  -1.389  -2.348  0.00  0.00    -0.058 A 
ATOM     10  C   LIG d   1       4.349  -0.204  -1.652  0.00  0.00    -0.061 A 
ATOM     11  C   LIG d   1       4.984   0.958  -2.051  0.00  0.00    -0.061 A 
ATOM     12  C   LIG d   1       5.822   0.970  -3.155  0.00  0.00    -0.057 A 
ATOM     13  C   LIG d   1       6.023  -0.197  -3.851  0.00  0.00    -0.025 A 
ATOM     14  C   LIG d   1       6.896  -0.253  -5.113  0.00  0.00     0.088 C 
ATOM     15  C   LIG d   1       7.851  -1.411  -5.004  0.00  0.00     0.069 C 
ATOM     16  H   LIG d   1       7.862  -1.386  -6.104  0.00  0.00     0.042 H 
ATOM     17  C   LIG d   1       7.365  -2.458  -3.960  0.00  0.00     0.060 C 
ATOM     18  H   LIG d   1       7.394  -2.326  -2.869  0.00  0.00     0.041 H 
ATOM     19  C   LIG d   1       8.333  -3.542  -4.330  0.00  0.00     0.231 C 
ATOM     20  O   LIG d   1       8.141  -4.739  -4.315  0.00  0.00    -0.275 OA
ATOM     21  N   LIG d   1       9.481  -2.885  -4.689  0.00  0.00    -0.208 N 
ATOM     22  C   LIG d   1       9.285  -1.545  -4.935  0.00  0.00     0.232 C 
ATOM     23  O   LIG d   1      10.118  -0.673  -5.056  0.00  0.00    -0.274 OA
ATOM     24  H   LIG d   1       3.688  -3.117  -8.301  0.00  0.00     0.062 H 
ATOM     25  H   LIG d   1       4.388  -0.888  -9.055  0.00  0.00     0.062 H 
ATOM     26  H   LIG d   1       5.865   0.497  -7.612  0.00  0.00     0.062 H 
ATOM     27  H   LIG d   1       4.355  -3.963  -6.085  0.00  0.00     0.062 H 
ATOM     28  H   LIG d   1       5.499  -3.631  -3.978  0.00  0.00     0.041 H 
ATOM     29  H   LIG d   1       4.076  -2.303  -2.049  0.00  0.00     0.062 H 
ATOM     30  H   LIG d   1       3.685  -0.192  -0.800  0.00  0.00     0.062 H 
ATOM     31  H   LIG d   1       4.823   1.869  -1.495  0.00  0.00     0.062 H 
ATOM     32  H   LIG d   1       6.311   1.882  -3.463  0.00  0.00     0.062 H 
ENDROOT
BRANCH  21  33
ATOM     33  C   LIG d   1      10.730  -3.515  -4.793  0.00  0.00     0.062 A 
ATOM     34  C   LIG d   1      11.159  -4.011  -6.018  0.00  0.00     0.064 A 
ATOM     35  C   LIG d   1      12.391  -4.628  -6.120  0.00  0.00    -0.023 A 
ATOM     36 CL   LIG d   1      10.150  -3.850  -7.422  0.00  0.00    -0.082 Cl
ATOM     37  C   LIG d   1      13.193  -4.760  -5.000  0.00  0.00     0.043 A 
ATOM     38  H   LIG d   1      12.727  -5.011  -7.072  0.00  0.00     0.065 H 
ATOM     39  C   LIG d   1      12.766  -4.272  -3.778  0.00  0.00    -0.042 A 
ATOM     40 CL   LIG d   1      14.739  -5.541  -5.128  0.00  0.00    -0.084 Cl
ATOM     41  C   LIG d   1      11.536  -3.650  -3.672  0.00  0.00    -0.037 A 
ATOM     42  H   LIG d   1      13.393  -4.377  -2.904  0.00  0.00     0.063 H 
ATOM     43  H   LIG d   1      11.204  -3.268  -2.717  0.00  0.00     0.064 H 
ENDBRANCH  21  33
BRANCH  14  44
ATOM     44  C   LIG d   1       7.482   1.059  -5.569  0.00  0.00     0.136 C 
ATOM     45  O   LIG d   1       7.971   1.150  -6.669  0.00  0.00    -0.300 OA
ATOM     46  H   LIG d   1       7.464   1.931  -4.900  0.00  0.00     0.104 H 
ENDBRANCH  14  44
TORSDOF 2
ENDMDL
MODEL 5
REMARK VINA RESULT:      -7.0      3.884      5.258
REMARK  2 active torsions:
REMARK  status: ('A' for Active; 'I' for Inactive)
REMARK    1  A    between atoms: C_14  and  C_32 
REMARK    2  A    between atoms: N_21  and  C_24 
ROOT
ATOM      1  C   LIG d   1       8.054  -3.940  -4.189  0.00  0.00    -0.061 A 
ATOM      2  C   LIG d   1       7.339  -4.167  -5.351  0.00  0.00    -0.061 A 
ATOM      3  C   LIG d   1       6.562  -3.149  -5.896  0.00  0.00    -0.057 A 
ATOM      4  C   LIG d   1       6.527  -1.952  -5.255  0.00  0.00    -0.025 A 
ATOM      5  C   LIG d   1       7.194  -1.725  -4.054  0.00  0.00    -0.035 A 
ATOM      6  C   LIG d   1       7.985  -2.722  -3.533  0.00  0.00    -0.058 A 
ATOM      7  C   LIG d   1       6.996  -0.385  -3.364  0.00  0.00     0.022 C 
ATOM      8  C   LIG d   1       5.455  -0.328  -3.319  0.00  0.00    -0.035 A 
ATOM      9  C   LIG d   1       4.723  -0.140  -2.189  0.00  0.00    -0.058 A 
ATOM     10  C   LIG d   1       3.347   0.025  -2.312  0.00  0.00    -0.061 A 
ATOM     11  C   LIG d   1       2.757  -0.006  -3.563  0.00  0.00    -0.061 A 
ATOM     12  C   LIG d   1       3.514  -0.224  -4.703  0.00  0.00    -0.057 A 
ATOM     13  C   LIG d   1       4.870  -0.404  -4.579  0.00  0.00    -0.025 A 
ATOM     14  C   LIG d   1       5.766  -0.702  -5.789  0.00  0.00     0.088 C 
ATOM     15  C   LIG d   1       6.966   0.208  -5.751  0.00  0.00     0.069 C 
ATOM     16  H   LIG d   1       7.462  -0.575  -6.345  0.00  0.00     0.042 H 
ATOM     17  C   LIG d   1       7.204   0.783  -4.325  0.00  0.00     0.060 C 
ATOM     18  H   LIG d   1       6.594   1.562  -3.846  0.00  0.00     0.041 H 
ATOM     19  C   LIG d   1       8.569   1.347  -4.585  0.00  0.00     0.231 C 
ATOM     20  O   LIG d   1       9.501   1.411  -3.812  0.00  0.00    -0.275 OA
ATOM     21  N   LIG d   1       8.534   1.773  -5.888  0.00  0.00    -0.208 N 
ATOM     22  C   LIG d   1       7.475   1.255  -6.600  0.00  0.00     0.232 C 
ATOM     23  O   LIG d   1       7.056   1.603  -7.683  0.00  0.00    -0.274 OA
ATOM     24  H   LIG d   1       8.675  -4.726  -3.786  0.00  0.00     0.062 H 
ATOM     25  H   LIG d   1       7.383  -5.131  -5.834  0.00  0.00     0.062 H 
ATOM     26  H   LIG d   1       6.000  -3.307  -6.804  0.00  0.00     0.062 H 
ATOM     27  H   LIG d   1       8.545  -2.557  -2.625  0.00  0.00     0.062 H 
ATOM     28  H   LIG d   1       7.629  -0.322  -2.466  0.00  0.00     0.041 H 
ATOM     29  H   LIG d   1       5.197  -0.120  -1.219  0.00  0.00     0.062 H 
ATOM     30  H   LIG d   1       2.740   0.179  -1.432  0.00  0.00     0.062 H 
ATOM     31  H   LIG d   1       1.691   0.141  -3.651  0.00  0.00     0.062 H 
ATOM     32  H   LIG d   1       3.045  -0.252  -5.676  0.00  0.00     0.062 H 
ENDROOT
BRANCH  21  33
ATOM     33  C   LIG d   1       9.482   2.648  -6.439  0.00  0.00     0.062 A 
ATOM     34  C   LIG d   1      10.557   2.144  -7.161  0.00  0.00     0.064 A 
ATOM     35  C   LIG d   1      11.487   3.008  -7.706  0.00  0.00    -0.023 A 
ATOM     36 CL   LIG d   1      10.728   0.431  -7.382  0.00  0.00    -0.082 Cl
ATOM     37  C   LIG d   1      11.354   4.374  -7.525  0.00  0.00     0.043 A 
ATOM     38  H   LIG d   1      12.322   2.619  -8.270  0.00  0.00     0.065 H 
ATOM     39  C   LIG d   1      10.286   4.877  -6.802  0.00  0.00    -0.042 A 
ATOM     40 CL   LIG d   1      12.527   5.457  -8.206  0.00  0.00    -0.084 Cl
ATOM     41  C   LIG d   1       9.351   4.018  -6.259  0.00  0.00    -0.037 A 
ATOM     42  H   LIG d   1      10.184   5.944  -6.662  0.00  0.00     0.063 H 
ATOM     43  H   LIG d   1       8.517   4.412  -5.696  0.00  0.00     0.064 H 
ENDBRANCH  21  33
BRANCH  14  44
ATOM     44  C   LIG d   1       5.064  -0.830  -7.116  0.00  0.00     0.136 C 
ATOM     45  O   LIG d   1       5.664  -1.247  -8.077  0.00  0.00    -0.300 OA
ATOM     46  H   LIG d   1       4.006  -0.544  -7.207  0.00  0.00     0.104 H 
ENDBRANCH  14  44
TORSDOF 2
ENDMDL
MODEL 6
REMARK VINA RESULT:      -7.0      3.482      5.336
REMARK  2 active torsions:
REMARK  status: ('A' for Active; 'I' for Inactive)
REMARK    1  A    between atoms: C_14  and  C_32 
REMARK    2  A    between atoms: N_21  and  C_24 
ROOT
ATOM      1  C   LIG d   1       3.146  -0.384  -2.843  0.00  0.00    -0.061 A 
ATOM      2  C   LIG d   1       4.052  -0.902  -1.937  0.00  0.00    -0.061 A 
ATOM      3  C   LIG d   1       5.184  -1.570  -2.395  0.00  0.00    -0.057 A 
ATOM      4  C   LIG d   1       5.360  -1.695  -3.736  0.00  0.00    -0.025 A 
ATOM      5  C   LIG d   1       4.428  -1.230  -4.661  0.00  0.00    -0.035 A 
ATOM      6  C   LIG d   1       3.325  -0.545  -4.207  0.00  0.00    -0.058 A 
ATOM      7  C   LIG d   1       4.668  -1.523  -6.133  0.00  0.00     0.022 C 
ATOM      8  C   LIG d   1       4.879  -3.051  -6.075  0.00  0.00    -0.035 A 
ATOM      9  C   LIG d   1       4.177  -3.954  -6.807  0.00  0.00    -0.058 A 
ATOM     10  C   LIG d   1       4.563  -5.290  -6.756  0.00  0.00    -0.061 A 
ATOM     11  C   LIG d   1       5.637  -5.670  -5.971  0.00  0.00    -0.061 A 
ATOM     12  C   LIG d   1       6.326  -4.740  -5.208  0.00  0.00    -0.057 A 
ATOM     13  C   LIG d   1       5.933  -3.424  -5.246  0.00  0.00    -0.025 A 
ATOM     14  C   LIG d   1       6.614  -2.346  -4.392  0.00  0.00     0.088 C 
ATOM     15  C   LIG d   1       6.939  -1.158  -5.259  0.00  0.00     0.069 C 
ATOM     16  H   LIG d   1       6.900  -0.581  -4.323  0.00  0.00     0.042 H 
ATOM     17  C   LIG d   1       6.086  -1.150  -6.560  0.00  0.00     0.060 C 
ATOM     18  H   LIG d   1       6.231  -1.821  -7.419  0.00  0.00     0.041 H 
ATOM     19  C   LIG d   1       6.429   0.246  -6.990  0.00  0.00     0.231 C 
ATOM     20  O   LIG d   1       5.713   1.040  -7.561  0.00  0.00    -0.275 OA
ATOM     21  N   LIG d   1       7.730   0.428  -6.596  0.00  0.00    -0.208 N 
ATOM     22  C   LIG d   1       8.154  -0.507  -5.678  0.00  0.00     0.232 C 
ATOM     23  O   LIG d   1       9.286  -0.740  -5.312  0.00  0.00    -0.274 OA
ATOM     24  H   LIG d   1       2.283   0.156  -2.481  0.00  0.00     0.062 H 
ATOM     25  H   LIG d   1       3.882  -0.790  -0.877  0.00  0.00     0.062 H 
ATOM     26  H   LIG d   1       5.905  -1.978  -1.702  0.00  0.00     0.062 H 
ATOM     27  H   LIG d   1       2.609  -0.138  -4.906  0.00  0.00     0.062 H 
ATOM     28  H   LIG d   1       3.892  -1.044  -6.748  0.00  0.00     0.041 H 
ATOM     29  H   LIG d   1       3.340  -3.644  -7.415  0.00  0.00     0.062 H 
ATOM     30  H   LIG d   1       4.026  -6.030  -7.331  0.00  0.00     0.062 H 
ATOM     31  H   LIG d   1       5.940  -6.705  -5.950  0.00  0.00     0.062 H 
ATOM     32  H   LIG d   1       7.160  -5.044  -4.593  0.00  0.00     0.062 H 
ENDROOT
BRANCH  21  33
ATOM     33  C   LIG d   1       8.545   1.461  -7.079  0.00  0.00     0.062 A 
ATOM     34  C   LIG d   1       8.836   2.554  -6.272  0.00  0.00     0.064 A 
ATOM     35  C   LIG d   1       9.642   3.570  -6.749  0.00  0.00    -0.023 A 
ATOM     36 CL   LIG d   1       8.192   2.640  -4.662  0.00  0.00    -0.082 Cl
ATOM     37  C   LIG d   1      10.152   3.503  -8.034  0.00  0.00     0.043 A 
ATOM     38  H   LIG d   1       9.872   4.418  -6.121  0.00  0.00     0.065 H 
ATOM     39  C   LIG d   1       9.859   2.419  -8.842  0.00  0.00    -0.042 A 
ATOM     40 CL   LIG d   1      11.160   4.783  -8.634  0.00  0.00    -0.084 Cl
ATOM     41  C   LIG d   1       9.057   1.398  -8.368  0.00  0.00    -0.037 A 
ATOM     42  H   LIG d   1      10.257   2.369  -9.845  0.00  0.00     0.063 H 
ATOM     43  H   LIG d   1       8.829   0.552  -8.999  0.00  0.00     0.064 H 
ENDBRANCH  21  33
BRANCH  14  44
ATOM     44  C   LIG d   1       7.709  -2.824  -3.473  0.00  0.00     0.136 C 
ATOM     45  O   LIG d   1       8.634  -3.460  -3.918  0.00  0.00    -0.300 OA
ATOM     46  H   LIG d   1       7.665  -2.593  -2.399  0.00  0.00     0.104 H 
ENDBRANCH  14  44
TORSDOF 2
ENDMDL
MODEL 7
REMARK VINA RESULT:      -6.9      3.516      4.899
REMARK  2 active torsions:
REMARK  status: ('A' for Active; 'I' for Inactive)
REMARK    1  A    between atoms: C_14  and  C_32 
REMARK    2  A    between atoms: N_21  and  C_24 
ROOT
ATOM      1  C   LIG d   1       6.142  -5.092  -6.297  0.00  0.00    -0.061 A 
ATOM      2  C   LIG d   1       5.152  -4.684  -7.172  0.00  0.00    -0.061 A 
ATOM      3  C   LIG d   1       4.698  -3.369  -7.139  0.00  0.00    -0.057 A 
ATOM      4  C   LIG d   1       5.246  -2.520  -6.232  0.00  0.00    -0.025 A 
ATOM      5  C   LIG d   1       6.202  -2.929  -5.305  0.00  0.00    -0.035 A 
ATOM      6  C   LIG d   1       6.671  -4.221  -5.358  0.00  0.00    -0.058 A 
ATOM      7  C   LIG d   1       6.667  -1.927  -4.261  0.00  0.00     0.022 C 
ATOM      8  C   LIG d   1       5.305  -1.475  -3.694  0.00  0.00    -0.035 A 
ATOM      9  C   LIG d   1       4.966  -1.515  -2.378  0.00  0.00    -0.058 A 
ATOM     10  C   LIG d   1       3.755  -0.951  -1.990  0.00  0.00    -0.061 A 
ATOM     11  C   LIG d   1       2.929  -0.370  -2.935  0.00  0.00    -0.061 A 
ATOM     12  C   LIG d   1       3.276  -0.360  -4.277  0.00  0.00    -0.057 A 
ATOM     13  C   LIG d   1       4.465  -0.933  -4.661  0.00  0.00    -0.025 A 
ATOM     14  C   LIG d   1       4.895  -1.006  -6.133  0.00  0.00     0.088 C 
ATOM     15  C   LIG d   1       6.319  -0.532  -6.258  0.00  0.00     0.069 C 
ATOM     16  H   LIG d   1       6.348  -1.152  -7.166  0.00  0.00     0.042 H 
ATOM     17  C   LIG d   1       7.063  -0.595  -4.893  0.00  0.00     0.060 C 
ATOM     18  H   LIG d   1       6.904   0.094  -4.051  0.00  0.00     0.041 H 
ATOM     19  C   LIG d   1       8.444  -0.367  -5.433  0.00  0.00     0.231 C 
ATOM     20  O   LIG d   1       9.484  -0.839  -5.024  0.00  0.00    -0.275 OA
ATOM     21  N   LIG d   1       8.274   0.491  -6.489  0.00  0.00    -0.208 N 
ATOM     22  C   LIG d   1       6.969   0.571  -6.919  0.00  0.00     0.232 C 
ATOM     23  O   LIG d   1       6.473   1.384  -7.669  0.00  0.00    -0.274 OA
ATOM     24  H   LIG d   1       6.509  -6.107  -6.346  0.00  0.00     0.062 H 
ATOM     25  H   LIG d   1       4.732  -5.384  -7.878  0.00  0.00     0.062 H 
ATOM     26  H   LIG d   1       3.928  -3.032  -7.817  0.00  0.00     0.062 H 
ATOM     27  H   LIG d   1       7.442  -4.551  -4.678  0.00  0.00     0.062 H 
ATOM     28  H   LIG d   1       7.464  -2.364  -3.641  0.00  0.00     0.041 H 
ATOM     29  H   LIG d   1       5.620  -1.974  -1.652  0.00  0.00     0.062 H 
ATOM     30  H   LIG d   1       3.460  -0.965  -0.951  0.00  0.00     0.062 H 
ATOM     31  H   LIG d   1       1.999   0.081  -2.623  0.00  0.00     0.062 H 
ATOM     32  H   LIG d   1       2.624   0.091  -5.010  0.00  0.00     0.062 H 
ENDROOT
BRANCH  21  33
ATOM     33  C   LIG d   1       9.325   1.214  -7.072  0.00  0.00     0.062 A 
ATOM     34  C   LIG d   1       9.707   2.439  -6.539  0.00  0.00     0.064 A 
ATOM     35  C   LIG d   1      10.745   3.148  -7.113  0.00  0.00    -0.023 A 
ATOM     36 CL   LIG d   1       8.884   3.075  -5.149  0.00  0.00    -0.082 Cl
ATOM     37  C   LIG d   1      11.397   2.643  -8.224  0.00  0.00     0.043 A 
ATOM     38  H   LIG d   1      11.045   4.099  -6.697  0.00  0.00     0.065 H 
ATOM     39  C   LIG d   1      11.015   1.426  -8.760  0.00  0.00    -0.042 A 
ATOM     40 CL   LIG d   1      12.697   3.539  -8.947  0.00  0.00    -0.084 Cl
ATOM     41  C   LIG d   1       9.981   0.711  -8.187  0.00  0.00    -0.037 A 
ATOM     42  H   LIG d   1      11.526   1.034  -9.627  0.00  0.00     0.063 H 
ATOM     43  H   LIG d   1       9.684  -0.240  -8.605  0.00  0.00     0.064 H 
ENDBRANCH  21  33
BRANCH  14  44
ATOM     44  C   LIG d   1       3.914  -0.455  -7.136  0.00  0.00     0.136 C 
ATOM     45  O   LIG d   1       3.519   0.682  -7.031  0.00  0.00    -0.300 OA
ATOM     46  H   LIG d   1       3.560  -1.087  -7.963  0.00  0.00     0.104 H 
ENDBRANCH  14  44
TORSDOF 2
ENDMDL
MODEL 8
REMARK VINA RESULT:      -6.8      3.391      5.880
REMARK  2 active torsions:
REMARK  status: ('A' for Active; 'I' for Inactive)
REMARK    1  A    between atoms: C_14  and  C_32 
REMARK    2  A    between atoms: N_21  and  C_24 
ROOT
ATOM      1  C   LIG d   1       4.245  -5.783  -6.525  0.00  0.00    -0.061 A 
ATOM      2  C   LIG d   1       3.881  -5.034  -7.629  0.00  0.00    -0.061 A 
ATOM      3  C   LIG d   1       4.093  -3.659  -7.633  0.00  0.00    -0.057 A 
ATOM      4  C   LIG d   1       4.654  -3.090  -6.535  0.00  0.00    -0.025 A 
ATOM      5  C   LIG d   1       4.974  -3.820  -5.394  0.00  0.00    -0.035 A 
ATOM      6  C   LIG d   1       4.791  -5.183  -5.402  0.00  0.00    -0.058 A 
ATOM      7  C   LIG d   1       5.493  -3.067  -4.180  0.00  0.00     0.022 C 
ATOM      8  C   LIG d   1       4.388  -2.000  -4.030  0.00  0.00    -0.035 A 
ATOM      9  C   LIG d   1       3.676  -1.782  -2.893  0.00  0.00    -0.058 A 
ATOM     10  C   LIG d   1       2.804  -0.699  -2.856  0.00  0.00    -0.061 A 
ATOM     11  C   LIG d   1       2.677   0.123  -3.961  0.00  0.00    -0.061 A 
ATOM     12  C   LIG d   1       3.390  -0.128  -5.123  0.00  0.00    -0.057 A 
ATOM     13  C   LIG d   1       4.238  -1.208  -5.163  0.00  0.00    -0.025 A 
ATOM     14  C   LIG d   1       5.022  -1.580  -6.429  0.00  0.00     0.088 C 
ATOM     15  C   LIG d   1       6.463  -1.821  -6.066  0.00  0.00     0.069 C 
ATOM     16  H   LIG d   1       6.488  -2.452  -6.968  0.00  0.00     0.042 H 
ATOM     17  C   LIG d   1       6.629  -2.115  -4.548  0.00  0.00     0.060 C 
ATOM     18  H   LIG d   1       6.548  -1.369  -3.744  0.00  0.00     0.041 H 
ATOM     19  C   LIG d   1       8.052  -2.586  -4.611  0.00  0.00     0.231 C 
ATOM     20  O   LIG d   1       8.574  -3.450  -3.939  0.00  0.00    -0.275 OA
ATOM     21  N   LIG d   1       8.632  -1.828  -5.595  0.00  0.00    -0.208 N 
ATOM     22  C   LIG d   1       7.716  -1.192  -6.401  0.00  0.00     0.232 C 
ATOM     23  O   LIG d   1       7.908  -0.301  -7.201  0.00  0.00    -0.274 OA
ATOM     24  H   LIG d   1       4.102  -6.853  -6.540  0.00  0.00     0.062 H 
ATOM     25  H   LIG d   1       3.432  -5.515  -8.485  0.00  0.00     0.062 H 
ATOM     26  H   LIG d   1       3.818  -3.058  -8.488  0.00  0.00     0.062 H 
ATOM     27  H   LIG d   1       5.070  -5.778  -4.545  0.00  0.00     0.062 H 
ATOM     28  H   LIG d   1       5.763  -3.773  -3.380  0.00  0.00     0.041 H 
ATOM     29  H   LIG d   1       3.784  -2.434  -2.038  0.00  0.00     0.062 H 
ATOM     30  H   LIG d   1       2.228  -0.499  -1.965  0.00  0.00     0.062 H 
ATOM     31  H   LIG d   1       2.011   0.972  -3.918  0.00  0.00     0.062 H 
ATOM     32  H   LIG d   1       3.282   0.516  -5.983  0.00  0.00     0.062 H 
ENDROOT
BRANCH  21  33
ATOM     33  C   LIG d   1      10.020  -1.712  -5.762  0.00  0.00     0.062 A 
ATOM     34  C   LIG d   1      10.699  -2.606  -6.580  0.00  0.00     0.064 A 
ATOM     35  C   LIG d   1      12.066  -2.488  -6.746  0.00  0.00    -0.023 A 
ATOM     36 CL   LIG d   1       9.831  -3.867  -7.398  0.00  0.00    -0.082 Cl
ATOM     37  C   LIG d   1      12.759  -1.486  -6.090  0.00  0.00     0.043 A 
ATOM     38  H   LIG d   1      12.595  -3.180  -7.384  0.00  0.00     0.065 H 
ATOM     39  C   LIG d   1      12.085  -0.598  -5.270  0.00  0.00    -0.042 A 
ATOM     40 CL   LIG d   1      14.477  -1.343  -6.295  0.00  0.00    -0.084 Cl
ATOM     41  C   LIG d   1      10.718  -0.708  -5.105  0.00  0.00    -0.037 A 
ATOM     42  H   LIG d   1      12.628   0.184  -4.759  0.00  0.00     0.063 H 
ATOM     43  H   LIG d   1      10.193  -0.014  -4.465  0.00  0.00     0.064 H 
ENDBRANCH  21  33
BRANCH  14  44
ATOM     44  C   LIG d   1       4.771  -0.718  -7.639  0.00  0.00     0.136 C 
ATOM     45  O   LIG d   1       5.220  -1.040  -8.713  0.00  0.00    -0.300 OA
ATOM     46  H   LIG d   1       4.179   0.204  -7.544  0.00  0.00     0.104 H 
ENDBRANCH  14  44
TORSDOF 2
ENDMDL
MODEL 9
REMARK VINA RESULT:      -6.8      3.673      6.611
REMARK  2 active torsions:
REMARK  status: ('A' for Active; 'I' for Inactive)
REMARK    1  A    between atoms: C_14  and  C_32 
REMARK    2  A    between atoms: N_21  and  C_24 
ROOT
ATOM      1  C   LIG d   1       4.705  -0.240  -2.058  0.00  0.00    -0.061 A 
ATOM      2  C   LIG d   1       4.047  -1.454  -1.985  0.00  0.00    -0.061 A 
ATOM      3  C   LIG d   1       4.210  -2.392  -3.000  0.00  0.00    -0.057 A 
ATOM      4  C   LIG d   1       5.016  -2.076  -4.046  0.00  0.00    -0.025 A 
ATOM      5  C   LIG d   1       5.640  -0.836  -4.164  0.00  0.00    -0.035 A 
ATOM      6  C   LIG d   1       5.502   0.078  -3.145  0.00  0.00    -0.058 A 
ATOM      7  C   LIG d   1       6.429  -0.545  -5.429  0.00  0.00     0.022 C 
ATOM      8  C   LIG d   1       5.368  -0.888  -6.496  0.00  0.00    -0.035 A 
ATOM      9  C   LIG d   1       4.965  -0.044  -7.482  0.00  0.00    -0.058 A 
ATOM     10  C   LIG d   1       4.100  -0.531  -8.456  0.00  0.00    -0.061 A 
ATOM     11  C   LIG d   1       3.669  -1.844  -8.404  0.00  0.00    -0.061 A 
ATOM     12  C   LIG d   1       4.068  -2.685  -7.377  0.00  0.00    -0.057 A 
ATOM     13  C   LIG d   1       4.909  -2.198  -6.406  0.00  0.00    -0.025 A 
ATOM     14  C   LIG d   1       5.354  -3.053  -5.211  0.00  0.00     0.088 C 
ATOM     15  C   LIG d   1       6.847  -2.940  -5.049  0.00  0.00     0.069 C 
ATOM     16  H   LIG d   1       6.659  -3.198  -3.996  0.00  0.00     0.042 H 
ATOM     17  C   LIG d   1       7.405  -1.673  -5.760  0.00  0.00     0.060 C 
ATOM     18  H   LIG d   1       7.509  -1.550  -6.847  0.00  0.00     0.041 H 
ATOM     19  C   LIG d   1       8.777  -1.720  -5.156  0.00  0.00     0.231 C 
ATOM     20  O   LIG d   1       9.480  -0.781  -4.847  0.00  0.00    -0.275 OA
ATOM     21  N   LIG d   1       9.063  -3.055  -5.030  0.00  0.00    -0.208 N 
ATOM     22  C   LIG d   1       7.952  -3.860  -5.138  0.00  0.00     0.232 C 
ATOM     23  O   LIG d   1       7.907  -5.063  -5.285  0.00  0.00    -0.274 OA
ATOM     24  H   LIG d   1       4.595   0.472  -1.253  0.00  0.00     0.062 H 
ATOM     25  H   LIG d   1       3.409  -1.674  -1.142  0.00  0.00     0.062 H 
ATOM     26  H   LIG d   1       3.707  -3.347  -2.958  0.00  0.00     0.062 H 
ATOM     27  H   LIG d   1       6.008   1.030  -3.193  0.00  0.00     0.062 H 
ATOM     28  H   LIG d   1       6.917   0.439  -5.357  0.00  0.00     0.041 H 
ATOM     29  H   LIG d   1       5.308   0.980  -7.509  0.00  0.00     0.062 H 
ATOM     30  H   LIG d   1       3.765   0.116  -9.254  0.00  0.00     0.062 H 
ATOM     31  H   LIG d   1       3.011  -2.218  -9.174  0.00  0.00     0.062 H 
ATOM     32  H   LIG d   1       3.724  -3.708  -7.340  0.00  0.00     0.062 H 
ENDROOT
BRANCH  21  33
ATOM     33  C   LIG d   1      10.358  -3.549  -4.814  0.00  0.00     0.062 A 
ATOM     34  C   LIG d   1      10.726  -4.007  -3.555  0.00  0.00     0.064 A 
ATOM     35  C   LIG d   1      12.002  -4.497  -3.345  0.00  0.00    -0.023 A 
ATOM     36 CL   LIG d   1       9.584  -3.969  -2.249  0.00  0.00    -0.082 Cl
ATOM     37  C   LIG d   1      12.914  -4.522  -4.386  0.00  0.00     0.043 A 
ATOM     38  H   LIG d   1      12.288  -4.857  -2.368  0.00  0.00     0.065 H 
ATOM     39  C   LIG d   1      12.550  -4.062  -5.639  0.00  0.00    -0.042 A 
ATOM     40 CL   LIG d   1      14.517  -5.133  -4.118  0.00  0.00    -0.084 Cl
ATOM     41  C   LIG d   1      11.275  -3.575  -5.855  0.00  0.00    -0.037 A 
ATOM     42  H   LIG d   1      13.264  -4.082  -6.450  0.00  0.00     0.063 H 
ATOM     43  H   LIG d   1      10.992  -3.216  -6.834  0.00  0.00     0.064 H 
ENDBRANCH  21  33
BRANCH  14  44
ATOM     44  C   LIG d   1       4.776  -4.443  -5.141  0.00  0.00     0.136 C 
ATOM     45  O   LIG d   1       4.904  -5.197  -6.075  0.00  0.00    -0.300 OA
ATOM     46  H   LIG d   1       4.238  -4.769  -4.239  0.00  0.00     0.104 H 
ENDBRANCH  14  44
TORSDOF 2
ENDMDL
