MODEL 1
REMARK VINA RESULT:      -8.1      0.000      0.000
REMARK  9 active torsions:
REMARK  status: ('A' for Active; 'I' for Inactive)
REMARK    1  A    between atoms: C_1  and  C_2 
REMARK    2  A    between atoms: C_5  and  C_8 
REMARK    3  A    between atoms: C_8  and  N_9 
REMARK       I    between atoms: N_9  and  C_10 
REMARK    4  A    between atoms: C_10  and  C_12 
REMARK    5  A    between atoms: C_24  and  C_26 
REMARK    6  A    between atoms: C_29  and  O_34 
REMARK    7  A    between atoms: C_30  and  O_32 
REMARK    8  A    between atoms: O_32  and  C_33 
REMARK    9  A    between atoms: O_34  and  C_35 
ROOT
ATOM      1  C   LIG d   1       9.699   4.077  -3.606  0.00  0.00     0.127 A 
ATOM      2  C   LIG d   1       9.529   4.904  -4.712  0.00  0.00    -0.021 A 
ATOM      3  C   LIG d   1       9.695   6.278  -4.557  0.00  0.00     0.012 A 
ATOM      4  C   LIG d   1       9.602   7.439  -5.457  0.00  0.00     0.007 A 
ATOM      5  C   LIG d   1       9.312   7.585  -6.812  0.00  0.00    -0.052 A 
ATOM      6  C   LIG d   1       9.302   8.840  -7.379  0.00  0.00    -0.061 A 
ATOM      7  C   LIG d   1       9.581   9.958  -6.608  0.00  0.00    -0.060 A 
ATOM      8  C   LIG d   1       9.871   9.829  -5.267  0.00  0.00    -0.038 A 
ATOM      9  C   LIG d   1       9.885   8.569  -4.675  0.00  0.00     0.048 A 
ATOM     10  N   LIG d   1      10.137   8.151  -3.381  0.00  0.00    -0.352 N 
ATOM     11  H   LIG d   1      10.358   8.740  -2.642  0.00  0.00     0.166 HD
ATOM     12  C   LIG d   1      10.028   6.783  -3.288  0.00  0.00     0.074 A 
ATOM     13  C   LIG d   1      10.181   5.879  -2.224  0.00  0.00     0.096 A 
ATOM     14  N   LIG d   1      10.020   4.582  -2.418  0.00  0.00    -0.240 NA
ATOM     15  H   LIG d   1       9.272   4.488  -5.675  0.00  0.00     0.065 H 
ATOM     16  H   LIG d   1       9.094   6.717  -7.416  0.00  0.00     0.062 H 
ATOM     17  H   LIG d   1       9.078   8.954  -8.430  0.00  0.00     0.062 H 
ATOM     18  H   LIG d   1       9.572  10.938  -7.061  0.00  0.00     0.062 H 
ATOM     19  H   LIG d   1      10.087  10.705  -4.675  0.00  0.00     0.064 H 
ENDROOT
BRANCH   1  20
ATOM     20  C   LIG d   1       9.527   2.616  -3.755  0.00  0.00     0.263 C 
ATOM     21  N   LIG d   1       8.288   2.084  -3.785  0.00  0.00    -0.306 N 
ATOM     22  H   LIG d   1       7.511   2.659  -3.710  0.00  0.00     0.149 HD
ATOM     23  O   LIG d   1      10.501   1.895  -3.850  0.00  0.00    -0.269 OA
BRANCH  21  24
ATOM     24  C   LIG d   1       8.117   0.637  -3.933  0.00  0.00     0.037 C 
ATOM     25  H   LIG d   1       8.341   0.346  -4.960  0.00  0.00     0.051 H 
ATOM     26  H   LIG d   1       8.795   0.119  -3.254  0.00  0.00     0.051 H 
BRANCH  24  27
ATOM     27  C   LIG d   1       6.694   0.263  -3.604  0.00  0.00    -0.030 A 
ATOM     28  C   LIG d   1       5.846   1.199  -3.043  0.00  0.00    -0.057 A 
ATOM     29  C   LIG d   1       4.541   0.855  -2.741  0.00  0.00    -0.059 A 
ATOM     30  H   LIG d   1       6.202   2.198  -2.838  0.00  0.00     0.062 H 
ATOM     31  C   LIG d   1       4.084  -0.423  -3.002  0.00  0.00    -0.050 A 
ATOM     32  H   LIG d   1       3.879   1.586  -2.302  0.00  0.00     0.062 H 
ATOM     33  C   LIG d   1       4.933  -1.359  -3.565  0.00  0.00    -0.059 A 
ATOM     34  C   LIG d   1       6.237  -1.014  -3.870  0.00  0.00    -0.057 A 
ATOM     35  H   LIG d   1       4.576  -2.358  -3.768  0.00  0.00     0.062 H 
ATOM     36  H   LIG d   1       6.898  -1.744  -4.314  0.00  0.00     0.062 H 
BRANCH  31  37
ATOM     37  C   LIG d   1       2.662  -0.797  -2.674  0.00  0.00    -0.040 C 
ATOM     38  H   LIG d   1       2.179  -1.205  -3.562  0.00  0.00     0.028 H 
ATOM     39  H   LIG d   1       2.657  -1.546  -1.881  0.00  0.00     0.028 H 
ATOM     40  H   LIG d   1       2.122   0.088  -2.340  0.00  0.00     0.028 H 
ENDBRANCH  31  37
ENDBRANCH  24  27
ENDBRANCH  21  24
ENDBRANCH   1  20
BRANCH  13  41
ATOM     41  C   LIG d   1      10.533   6.382  -0.875  0.00  0.00     0.006 A 
ATOM     42  C   LIG d   1      10.598   7.755  -0.638  0.00  0.00    -0.007 A 
ATOM     43  C   LIG d   1      10.927   8.221   0.622  0.00  0.00     0.162 A 
ATOM     44  H   LIG d   1      10.392   8.453  -1.436  0.00  0.00     0.066 H 
ATOM     45  C   LIG d   1      11.193   7.320   1.651  0.00  0.00     0.162 A 
ATOM     46  C   LIG d   1      11.128   5.955   1.413  0.00  0.00    -0.016 A 
ATOM     47  C   LIG d   1      10.801   5.485   0.158  0.00  0.00    -0.049 A 
ATOM     48  H   LIG d   1      11.334   5.258   2.212  0.00  0.00     0.066 H 
ATOM     49  H   LIG d   1      10.751   4.421  -0.025  0.00  0.00     0.062 H 
BRANCH  43  50
ATOM     50  O   LIG d   1      10.986   9.560   0.859  0.00  0.00    -0.491 OA
BRANCH  50  51
ATOM     51  C   LIG d   1       9.990  10.372   0.235  0.00  0.00     0.079 C 
ATOM     52  H   LIG d   1       9.014  10.145   0.663  0.00  0.00     0.066 H 
ATOM     53  H   LIG d   1      10.223  11.424   0.402  0.00  0.00     0.066 H 
ATOM     54  H   LIG d   1       9.974  10.169  -0.836  0.00  0.00     0.066 H 
ENDBRANCH  50  51
ENDBRANCH  43  50
BRANCH  45  55
ATOM     55  O   LIG d   1      11.515   7.779   2.889  0.00  0.00    -0.491 OA
BRANCH  55  56
ATOM     56  C   LIG d   1      11.174   6.945   3.999  0.00  0.00     0.079 C 
ATOM     57  H   LIG d   1      10.091   6.816   4.036  0.00  0.00     0.066 H 
ATOM     58  H   LIG d   1      11.652   5.973   3.884  0.00  0.00     0.066 H 
ATOM     59  H   LIG d   1      11.515   7.412   4.922  0.00  0.00     0.066 H 
ENDBRANCH  55  56
ENDBRANCH  45  55
ENDBRANCH  13  41
TORSDOF 9
ENDMDL
MODEL 2
REMARK VINA RESULT:      -8.0      2.598      5.797
REMARK  9 active torsions:
REMARK  status: ('A' for Active; 'I' for Inactive)
REMARK    1  A    between atoms: C_1  and  C_2 
REMARK    2  A    between atoms: C_5  and  C_8 
REMARK    3  A    between atoms: C_8  and  N_9 
REMARK       I    between atoms: N_9  and  C_10 
REMARK    4  A    between atoms: C_10  and  C_12 
REMARK    5  A    between atoms: C_24  and  C_26 
REMARK    6  A    between atoms: C_29  and  O_34 
REMARK    7  A    between atoms: C_30  and  O_32 
REMARK    8  A    between atoms: O_32  and  C_33 
REMARK    9  A    between atoms: O_34  and  C_35 
ROOT
ATOM      1  C   LIG d   1       9.622   4.593  -4.205  0.00  0.00     0.127 A 
ATOM      2  C   LIG d   1       9.923   4.646  -2.847  0.00  0.00    -0.021 A 
ATOM      3  C   LIG d   1      10.228   5.878  -2.274  0.00  0.00     0.012 A 
ATOM      4  C   LIG d   1      10.587   6.327  -0.919  0.00  0.00     0.007 A 
ATOM      5  C   LIG d   1      10.752   5.672   0.299  0.00  0.00    -0.052 A 
ATOM      6  C   LIG d   1      11.101   6.390   1.422  0.00  0.00    -0.061 A 
ATOM      7  C   LIG d   1      11.288   7.762   1.343  0.00  0.00    -0.060 A 
ATOM      8  C   LIG d   1      11.127   8.424   0.145  0.00  0.00    -0.038 A 
ATOM      9  C   LIG d   1      10.775   7.716  -1.000  0.00  0.00     0.048 A 
ATOM     10  N   LIG d   1      10.551   8.110  -2.306  0.00  0.00    -0.352 N 
ATOM     11  H   LIG d   1      10.618   9.023  -2.628  0.00  0.00     0.166 HD
ATOM     12  C   LIG d   1      10.223   7.026  -3.086  0.00  0.00     0.074 A 
ATOM     13  C   LIG d   1       9.908   6.883  -4.448  0.00  0.00     0.096 A 
ATOM     14  N   LIG d   1       9.620   5.695  -4.949  0.00  0.00    -0.240 NA
ATOM     15  H   LIG d   1       9.919   3.748  -2.248  0.00  0.00     0.065 H 
ATOM     16  H   LIG d   1      10.607   4.604   0.364  0.00  0.00     0.062 H 
ATOM     17  H   LIG d   1      11.229   5.884   2.367  0.00  0.00     0.062 H 
ATOM     18  H   LIG d   1      11.561   8.317   2.229  0.00  0.00     0.062 H 
ATOM     19  H   LIG d   1      11.274   9.492   0.095  0.00  0.00     0.064 H 
ENDROOT
BRANCH   1  20
ATOM     20  C   LIG d   1       9.295   3.292  -4.829  0.00  0.00     0.263 C 
ATOM     21  N   LIG d   1       8.879   2.264  -4.062  0.00  0.00    -0.306 N 
ATOM     22  H   LIG d   1       8.792   2.377  -3.103  0.00  0.00     0.149 HD
ATOM     23  O   LIG d   1       9.403   3.150  -6.031  0.00  0.00    -0.269 OA
BRANCH  21  24
ATOM     24  C   LIG d   1       8.555   0.975  -4.680  0.00  0.00     0.037 C 
ATOM     25  H   LIG d   1       8.298   1.128  -5.728  0.00  0.00     0.051 H 
ATOM     26  H   LIG d   1       9.418   0.313  -4.611  0.00  0.00     0.051 H 
BRANCH  24  27
ATOM     27  C   LIG d   1       7.385   0.354  -3.961  0.00  0.00    -0.030 A 
ATOM     28  C   LIG d   1       6.437   1.159  -3.359  0.00  0.00    -0.057 A 
ATOM     29  C   LIG d   1       5.363   0.588  -2.700  0.00  0.00    -0.059 A 
ATOM     30  H   LIG d   1       6.534   2.234  -3.402  0.00  0.00     0.062 H 
ATOM     31  C   LIG d   1       5.238  -0.787  -2.644  0.00  0.00    -0.050 A 
ATOM     32  H   LIG d   1       4.623   1.218  -2.229  0.00  0.00     0.062 H 
ATOM     33  C   LIG d   1       6.187  -1.592  -3.247  0.00  0.00    -0.059 A 
ATOM     34  C   LIG d   1       7.258  -1.021  -3.910  0.00  0.00    -0.057 A 
ATOM     35  H   LIG d   1       6.089  -2.667  -3.203  0.00  0.00     0.062 H 
ATOM     36  H   LIG d   1       7.996  -1.651  -4.385  0.00  0.00     0.062 H 
BRANCH  31  37
ATOM     37  C   LIG d   1       4.069  -1.409  -1.926  0.00  0.00    -0.040 C 
ATOM     38  H   LIG d   1       3.771  -0.769  -1.095  0.00  0.00     0.028 H 
ATOM     39  H   LIG d   1       3.233  -1.519  -2.618  0.00  0.00     0.028 H 
ATOM     40  H   LIG d   1       4.356  -2.388  -1.545  0.00  0.00     0.028 H 
ENDBRANCH  31  37
ENDBRANCH  24  27
ENDBRANCH  21  24
ENDBRANCH   1  20
BRANCH  13  41
ATOM     41  C   LIG d   1       9.895   8.076  -5.328  0.00  0.00     0.006 A 
ATOM     42  C   LIG d   1       9.504   7.955  -6.661  0.00  0.00    -0.007 A 
ATOM     43  C   LIG d   1       9.493   9.070  -7.480  0.00  0.00     0.162 A 
ATOM     44  H   LIG d   1       9.210   6.993  -7.054  0.00  0.00     0.066 H 
ATOM     45  C   LIG d   1       9.872  10.310  -6.972  0.00  0.00     0.162 A 
ATOM     46  C   LIG d   1      10.262  10.429  -5.646  0.00  0.00    -0.016 A 
ATOM     47  C   LIG d   1      10.274   9.319  -4.826  0.00  0.00    -0.049 A 
ATOM     48  H   LIG d   1      10.556  11.391  -5.254  0.00  0.00     0.066 H 
ATOM     49  H   LIG d   1      10.578   9.415  -3.793  0.00  0.00     0.062 H 
BRANCH  43  50
ATOM     50  O   LIG d   1       9.105   8.957  -8.779  0.00  0.00    -0.491 OA
BRANCH  50  51
ATOM     51  C   LIG d   1       9.886   8.101  -9.616  0.00  0.00     0.079 C 
ATOM     52  H   LIG d   1       9.444   7.105  -9.631  0.00  0.00     0.066 H 
ATOM     53  H   LIG d   1       9.907   8.504 -10.629  0.00  0.00     0.066 H 
ATOM     54  H   LIG d   1      10.903   8.042  -9.227  0.00  0.00     0.066 H 
ENDBRANCH  50  51
ENDBRANCH  43  50
BRANCH  45  55
ATOM     55  O   LIG d   1       9.861  11.406  -7.776  0.00  0.00    -0.491 OA
BRANCH  55  56
ATOM     56  C   LIG d   1       9.515  12.653  -7.170  0.00  0.00     0.079 C 
ATOM     57  H   LIG d   1      10.422  13.230  -6.985  0.00  0.00     0.066 H 
ATOM     58  H   LIG d   1       8.860  13.212  -7.837  0.00  0.00     0.066 H 
ATOM     59  H   LIG d   1       9.004  12.468  -6.226  0.00  0.00     0.066 H 
ENDBRANCH  55  56
ENDBRANCH  45  55
ENDBRANCH  13  41
TORSDOF 9
ENDMDL
MODEL 3
REMARK VINA RESULT:      -7.7      8.566     12.074
REMARK  9 active torsions:
REMARK  status: ('A' for Active; 'I' for Inactive)
REMARK    1  A    between atoms: C_1  and  C_2 
REMARK    2  A    between atoms: C_5  and  C_8 
REMARK    3  A    between atoms: C_8  and  N_9 
REMARK       I    between atoms: N_9  and  C_10 
REMARK    4  A    between atoms: C_10  and  C_12 
REMARK    5  A    between atoms: C_24  and  C_26 
REMARK    6  A    between atoms: C_29  and  O_34 
REMARK    7  A    between atoms: C_30  and  O_32 
REMARK    8  A    between atoms: O_32  and  C_33 
REMARK    9  A    between atoms: O_34  and  C_35 
ROOT
ATOM      1  C   LIG d   1       5.916  -3.752  -5.805  0.00  0.00     0.127 A 
ATOM      2  C   LIG d   1       5.781  -3.004  -4.638  0.00  0.00    -0.021 A 
ATOM      3  C   LIG d   1       4.998  -1.853  -4.664  0.00  0.00     0.012 A 
ATOM      4  C   LIG d   1       4.627  -0.833  -3.671  0.00  0.00     0.007 A 
ATOM      5  C   LIG d   1       4.926  -0.649  -2.323  0.00  0.00    -0.052 A 
ATOM      6  C   LIG d   1       4.411   0.437  -1.648  0.00  0.00    -0.061 A 
ATOM      7  C   LIG d   1       3.595   1.345  -2.305  0.00  0.00    -0.060 A 
ATOM      8  C   LIG d   1       3.288   1.174  -3.638  0.00  0.00    -0.038 A 
ATOM      9  C   LIG d   1       3.799   0.085  -4.337  0.00  0.00     0.048 A 
ATOM     10  N   LIG d   1       3.662  -0.326  -5.650  0.00  0.00    -0.352 N 
ATOM     11  H   LIG d   1       3.139   0.137  -6.323  0.00  0.00     0.166 HD
ATOM     12  C   LIG d   1       4.372  -1.484  -5.868  0.00  0.00     0.074 A 
ATOM     13  C   LIG d   1       4.561  -2.295  -6.999  0.00  0.00     0.096 A 
ATOM     14  N   LIG d   1       5.308  -3.382  -6.928  0.00  0.00    -0.240 NA
ATOM     15  H   LIG d   1       6.275  -3.311  -3.729  0.00  0.00     0.065 H 
ATOM     16  H   LIG d   1       5.562  -1.353  -1.808  0.00  0.00     0.062 H 
ATOM     17  H   LIG d   1       4.643   0.580  -0.603  0.00  0.00     0.062 H 
ATOM     18  H   LIG d   1       3.194   2.192  -1.768  0.00  0.00     0.062 H 
ATOM     19  H   LIG d   1       2.651   1.887  -4.140  0.00  0.00     0.064 H 
ENDROOT
BRANCH   1  20
ATOM     20  C   LIG d   1       6.744  -4.977  -5.793  0.00  0.00     0.263 C 
ATOM     21  N   LIG d   1       6.300  -6.096  -6.399  0.00  0.00    -0.306 N 
ATOM     22  H   LIG d   1       5.438  -6.098  -6.843  0.00  0.00     0.149 HD
ATOM     23  O   LIG d   1       7.825  -4.975  -5.236  0.00  0.00    -0.269 OA
BRANCH  21  24
ATOM     24  C   LIG d   1       7.120  -7.310  -6.386  0.00  0.00     0.037 C 
ATOM     25  H   LIG d   1       7.083  -7.785  -7.367  0.00  0.00     0.051 H 
ATOM     26  H   LIG d   1       8.151  -7.050  -6.149  0.00  0.00     0.051 H 
BRANCH  24  27
ATOM     27  C   LIG d   1       6.589  -8.264  -5.346  0.00  0.00    -0.030 A 
ATOM     28  C   LIG d   1       7.442  -8.796  -4.398  0.00  0.00    -0.057 A 
ATOM     29  C   LIG d   1       6.955  -9.671  -3.444  0.00  0.00    -0.059 A 
ATOM     30  H   LIG d   1       8.489  -8.529  -4.401  0.00  0.00     0.062 H 
ATOM     31  C   LIG d   1       5.616 -10.013  -3.439  0.00  0.00    -0.050 A 
ATOM     32  H   LIG d   1       7.621 -10.087  -2.703  0.00  0.00     0.062 H 
ATOM     33  C   LIG d   1       4.763  -9.480  -4.389  0.00  0.00    -0.059 A 
ATOM     34  C   LIG d   1       5.249  -8.602  -5.339  0.00  0.00    -0.057 A 
ATOM     35  H   LIG d   1       3.717  -9.748  -4.385  0.00  0.00     0.062 H 
ATOM     36  H   LIG d   1       4.582  -8.182  -6.078  0.00  0.00     0.062 H 
BRANCH  31  37
ATOM     37  C   LIG d   1       5.085 -10.967  -2.401  0.00  0.00    -0.040 C 
ATOM     38  H   LIG d   1       4.392 -11.666  -2.869  0.00  0.00     0.028 H 
ATOM     39  H   LIG d   1       5.914 -11.520  -1.957  0.00  0.00     0.028 H 
ATOM     40  H   LIG d   1       4.566 -10.406  -1.624  0.00  0.00     0.028 H 
ENDBRANCH  31  37
ENDBRANCH  24  27
ENDBRANCH  21  24
ENDBRANCH   1  20
BRANCH  13  41
ATOM     41  C   LIG d   1       3.912  -1.932  -8.282  0.00  0.00     0.006 A 
ATOM     42  C   LIG d   1       4.136  -0.677  -8.846  0.00  0.00    -0.007 A 
ATOM     43  C   LIG d   1       3.528  -0.341 -10.042  0.00  0.00     0.162 A 
ATOM     44  H   LIG d   1       4.782   0.032  -8.350  0.00  0.00     0.066 H 
ATOM     45  C   LIG d   1       2.695  -1.257 -10.681  0.00  0.00     0.162 A 
ATOM     46  C   LIG d   1       2.472  -2.504 -10.118  0.00  0.00    -0.016 A 
ATOM     47  C   LIG d   1       3.076  -2.844  -8.925  0.00  0.00    -0.049 A 
ATOM     48  H   LIG d   1       1.826  -3.213 -10.614  0.00  0.00     0.066 H 
ATOM     49  H   LIG d   1       2.901  -3.817  -8.488  0.00  0.00     0.062 H 
BRANCH  43  50
ATOM     50  O   LIG d   1       3.749   0.880 -10.599  0.00  0.00    -0.491 OA
BRANCH  50  51
ATOM     51  C   LIG d   1       3.675   2.012  -9.730  0.00  0.00     0.079 C 
ATOM     52  H   LIG d   1       3.060   2.785 -10.189  0.00  0.00     0.066 H 
ATOM     53  H   LIG d   1       3.233   1.712  -8.780  0.00  0.00     0.066 H 
ATOM     54  H   LIG d   1       4.679   2.402  -9.556  0.00  0.00     0.066 H 
ENDBRANCH  50  51
ENDBRANCH  43  50
BRANCH  45  55
ATOM     55  O   LIG d   1       2.098  -0.927 -11.857  0.00  0.00    -0.491 OA
BRANCH  55  56
ATOM     56  C   LIG d   1       0.811  -1.493 -12.114  0.00  0.00     0.079 C 
ATOM     57  H   LIG d   1       0.743  -2.471 -11.635  0.00  0.00     0.066 H 
ATOM     58  H   LIG d   1       0.039  -0.837 -11.711  0.00  0.00     0.066 H 
ATOM     59  H   LIG d   1       0.671  -1.605 -13.188  0.00  0.00     0.066 H 
ENDBRANCH  55  56
ENDBRANCH  45  55
ENDBRANCH  13  41
TORSDOF 9
ENDMDL
MODEL 4
REMARK VINA RESULT:      -7.5      2.556      5.917
REMARK  9 active torsions:
REMARK  status: ('A' for Active; 'I' for Inactive)
REMARK    1  A    between atoms: C_1  and  C_2 
REMARK    2  A    between atoms: C_5  and  C_8 
REMARK    3  A    between atoms: C_8  and  N_9 
REMARK       I    between atoms: N_9  and  C_10 
REMARK    4  A    between atoms: C_10  and  C_12 
REMARK    5  A    between atoms: C_24  and  C_26 
REMARK    6  A    between atoms: C_29  and  O_34 
REMARK    7  A    between atoms: C_30  and  O_32 
REMARK    8  A    between atoms: O_32  and  C_33 
REMARK    9  A    between atoms: O_34  and  C_35 
ROOT
ATOM      1  C   LIG d   1       9.695   4.292  -3.819  0.00  0.00     0.127 A 
ATOM      2  C   LIG d   1       9.834   5.038  -2.652  0.00  0.00    -0.021 A 
ATOM      3  C   LIG d   1       9.945   6.424  -2.748  0.00  0.00     0.012 A 
ATOM      4  C   LIG d   1      10.102   7.518  -1.777  0.00  0.00     0.007 A 
ATOM      5  C   LIG d   1      10.195   7.565  -0.388  0.00  0.00    -0.052 A 
ATOM      6  C   LIG d   1      10.341   8.778   0.249  0.00  0.00    -0.061 A 
ATOM      7  C   LIG d   1      10.395   9.952  -0.488  0.00  0.00    -0.060 A 
ATOM      8  C   LIG d   1      10.303   9.920  -1.863  0.00  0.00    -0.038 A 
ATOM      9  C   LIG d   1      10.155   8.705  -2.524  0.00  0.00     0.048 A 
ATOM     10  N   LIG d   1      10.041   8.381  -3.863  0.00  0.00    -0.352 N 
ATOM     11  H   LIG d   1      10.050   9.024  -4.591  0.00  0.00     0.166 HD
ATOM     12  C   LIG d   1       9.915   7.021  -4.020  0.00  0.00     0.074 A 
ATOM     13  C   LIG d   1       9.771   6.194  -5.147  0.00  0.00     0.096 A 
ATOM     14  N   LIG d   1       9.663   4.885  -5.009  0.00  0.00    -0.240 NA
ATOM     15  H   LIG d   1       9.855   4.552  -1.688  0.00  0.00     0.065 H 
ATOM     16  H   LIG d   1      10.154   6.653   0.189  0.00  0.00     0.062 H 
ATOM     17  H   LIG d   1      10.413   8.816   1.326  0.00  0.00     0.062 H 
ATOM     18  H   LIG d   1      10.508  10.898   0.019  0.00  0.00     0.062 H 
ATOM     19  H   LIG d   1      10.345  10.840  -2.427  0.00  0.00     0.064 H 
ENDROOT
BRANCH   1  20
ATOM     20  C   LIG d   1       9.575   2.821  -3.733  0.00  0.00     0.263 C 
ATOM     21  N   LIG d   1       8.405   2.222  -4.033  0.00  0.00    -0.306 N 
ATOM     22  H   LIG d   1       7.643   2.755  -4.306  0.00  0.00     0.149 HD
ATOM     23  O   LIG d   1      10.530   2.152  -3.391  0.00  0.00    -0.269 OA
BRANCH  21  24
ATOM     24  C   LIG d   1       8.286   0.764  -3.948  0.00  0.00     0.037 C 
ATOM     25  H   LIG d   1       8.567   0.319  -4.903  0.00  0.00     0.051 H 
ATOM     26  H   LIG d   1       8.947   0.391  -3.166  0.00  0.00     0.051 H 
BRANCH  24  27
ATOM     27  C   LIG d   1       6.861   0.395  -3.622  0.00  0.00    -0.030 A 
ATOM     28  C   LIG d   1       6.422  -0.902  -3.813  0.00  0.00    -0.057 A 
ATOM     29  C   LIG d   1       5.115  -1.240  -3.514  0.00  0.00    -0.059 A 
ATOM     30  H   LIG d   1       7.099  -1.651  -4.197  0.00  0.00     0.062 H 
ATOM     31  C   LIG d   1       4.248  -0.282  -3.023  0.00  0.00    -0.050 A 
ATOM     32  H   LIG d   1       4.772  -2.252  -3.665  0.00  0.00     0.062 H 
ATOM     33  C   LIG d   1       4.688   1.015  -2.831  0.00  0.00    -0.059 A 
ATOM     34  C   LIG d   1       5.996   1.352  -3.126  0.00  0.00    -0.057 A 
ATOM     35  H   LIG d   1       4.010   1.763  -2.448  0.00  0.00     0.062 H 
ATOM     36  H   LIG d   1       6.340   2.364  -2.972  0.00  0.00     0.062 H 
BRANCH  31  37
ATOM     37  C   LIG d   1       2.824  -0.651  -2.698  0.00  0.00    -0.040 C 
ATOM     38  H   LIG d   1       2.264   0.251  -2.448  0.00  0.00     0.028 H 
ATOM     39  H   LIG d   1       2.367  -1.135  -3.561  0.00  0.00     0.028 H 
ATOM     40  H   LIG d   1       2.811  -1.334  -1.849  0.00  0.00     0.028 H 
ENDBRANCH  31  37
ENDBRANCH  24  27
ENDBRANCH  21  24
ENDBRANCH   1  20
BRANCH  13  41
ATOM     41  C   LIG d   1       9.735   6.796  -6.501  0.00  0.00     0.006 A 
ATOM     42  C   LIG d   1       9.703   8.182  -6.649  0.00  0.00    -0.007 A 
ATOM     43  C   LIG d   1       9.669   8.740  -7.914  0.00  0.00     0.162 A 
ATOM     44  H   LIG d   1       9.705   8.819  -5.776  0.00  0.00     0.066 H 
ATOM     45  C   LIG d   1       9.666   7.917  -9.038  0.00  0.00     0.162 A 
ATOM     46  C   LIG d   1       9.697   6.538  -8.890  0.00  0.00    -0.016 A 
ATOM     47  C   LIG d   1       9.732   5.978  -7.630  0.00  0.00    -0.049 A 
ATOM     48  H   LIG d   1       9.695   5.902  -9.763  0.00  0.00     0.066 H 
ATOM     49  H   LIG d   1       9.756   4.903  -7.518  0.00  0.00     0.062 H 
BRANCH  43  50
ATOM     50  O   LIG d   1       9.644  10.092  -8.061  0.00  0.00    -0.491 OA
BRANCH  50  51
ATOM     51  C   LIG d   1      10.055  10.874  -6.938  0.00  0.00     0.079 C 
ATOM     52  H   LIG d   1       9.465  10.596  -6.065  0.00  0.00     0.066 H 
ATOM     53  H   LIG d   1      11.110  10.692  -6.735  0.00  0.00     0.066 H 
ATOM     54  H   LIG d   1       9.903  11.932  -7.157  0.00  0.00     0.066 H 
ENDBRANCH  50  51
ENDBRANCH  43  50
BRANCH  45  55
ATOM     55  O   LIG d   1       9.633   8.466 -10.281  0.00  0.00    -0.491 OA
BRANCH  55  56
ATOM     56  C   LIG d   1      10.800   8.309 -11.091  0.00  0.00     0.079 C 
ATOM     57  H   LIG d   1      10.531   7.809 -12.022  0.00  0.00     0.066 H 
ATOM     58  H   LIG d   1      11.222   9.288 -11.314  0.00  0.00     0.066 H 
ATOM     59  H   LIG d   1      11.535   7.709 -10.556  0.00  0.00     0.066 H 
ENDBRANCH  55  56
ENDBRANCH  45  55
ENDBRANCH  13  41
TORSDOF 9
ENDMDL
MODEL 5
REMARK VINA RESULT:      -7.4      8.646     12.226
REMARK  9 active torsions:
REMARK  status: ('A' for Active; 'I' for Inactive)
REMARK    1  A    between atoms: C_1  and  C_2 
REMARK    2  A    between atoms: C_5  and  C_8 
REMARK    3  A    between atoms: C_8  and  N_9 
REMARK       I    between atoms: N_9  and  C_10 
REMARK    4  A    between atoms: C_10  and  C_12 
REMARK    5  A    between atoms: C_24  and  C_26 
REMARK    6  A    between atoms: C_29  and  O_34 
REMARK    7  A    between atoms: C_30  and  O_32 
REMARK    8  A    between atoms: O_32  and  C_33 
REMARK    9  A    between atoms: O_34  and  C_35 
ROOT
ATOM      1  C   LIG d   1       4.944  -4.484  -5.704  0.00  0.00     0.127 A 
ATOM      2  C   LIG d   1       4.913  -3.736  -4.531  0.00  0.00    -0.021 A 
ATOM      3  C   LIG d   1       4.527  -2.399  -4.596  0.00  0.00     0.012 A 
ATOM      4  C   LIG d   1       4.375  -1.318  -3.609  0.00  0.00     0.007 A 
ATOM      5  C   LIG d   1       4.562  -1.241  -2.230  0.00  0.00    -0.052 A 
ATOM      6  C   LIG d   1       4.331  -0.053  -1.573  0.00  0.00    -0.061 A 
ATOM      7  C   LIG d   1       3.911   1.065  -2.277  0.00  0.00    -0.060 A 
ATOM      8  C   LIG d   1       3.720   1.003  -3.641  0.00  0.00    -0.038 A 
ATOM      9  C   LIG d   1       3.949  -0.187  -4.323  0.00  0.00     0.048 A 
ATOM     10  N   LIG d   1       3.843  -0.531  -5.658  0.00  0.00    -0.352 N 
ATOM     11  H   LIG d   1       3.566   0.074  -6.365  0.00  0.00     0.166 HD
ATOM     12  C   LIG d   1       4.185  -1.850  -5.844  0.00  0.00     0.074 A 
ATOM     13  C   LIG d   1       4.243  -2.676  -6.979  0.00  0.00     0.096 A 
ATOM     14  N   LIG d   1       4.609  -3.940  -6.871  0.00  0.00    -0.240 NA
ATOM     15  H   LIG d   1       5.182  -4.183  -3.587  0.00  0.00     0.065 H 
ATOM     16  H   LIG d   1       4.890  -2.109  -1.678  0.00  0.00     0.062 H 
ATOM     17  H   LIG d   1       4.475   0.008  -0.504  0.00  0.00     0.062 H 
ATOM     18  H   LIG d   1       3.730   1.992  -1.753  0.00  0.00     0.062 H 
ATOM     19  H   LIG d   1       3.392   1.879  -4.179  0.00  0.00     0.064 H 
ENDROOT
BRANCH   1  20
ATOM     20  C   LIG d   1       5.351  -5.905  -5.652  0.00  0.00     0.263 C 
ATOM     21  N   LIG d   1       6.644  -6.242  -5.829  0.00  0.00    -0.306 N 
ATOM     22  H   LIG d   1       7.308  -5.553  -5.990  0.00  0.00     0.149 HD
ATOM     23  O   LIG d   1       4.520  -6.768  -5.449  0.00  0.00    -0.269 OA
BRANCH  21  24
ATOM     24  C   LIG d   1       7.047  -7.649  -5.777  0.00  0.00     0.037 C 
ATOM     25  H   LIG d   1       6.159  -8.282  -5.753  0.00  0.00     0.051 H 
ATOM     26  H   LIG d   1       7.641  -7.891  -6.658  0.00  0.00     0.051 H 
BRANCH  24  27
ATOM     27  C   LIG d   1       7.869  -7.891  -4.536  0.00  0.00    -0.030 A 
ATOM     28  C   LIG d   1       8.934  -7.061  -4.240  0.00  0.00    -0.057 A 
ATOM     29  C   LIG d   1       9.688  -7.283  -3.102  0.00  0.00    -0.059 A 
ATOM     30  H   LIG d   1       9.179  -6.240  -4.898  0.00  0.00     0.062 H 
ATOM     31  C   LIG d   1       9.375  -8.334  -2.260  0.00  0.00    -0.050 A 
ATOM     32  H   LIG d   1      10.520  -6.636  -2.872  0.00  0.00     0.062 H 
ATOM     33  C   LIG d   1       8.309  -9.163  -2.556  0.00  0.00    -0.059 A 
ATOM     34  C   LIG d   1       7.553  -8.938  -3.692  0.00  0.00    -0.057 A 
ATOM     35  H   LIG d   1       8.065  -9.984  -1.898  0.00  0.00     0.062 H 
ATOM     36  H   LIG d   1       6.717  -9.584  -3.920  0.00  0.00     0.062 H 
BRANCH  31  37
ATOM     37  C   LIG d   1      10.196  -8.576  -1.020  0.00  0.00    -0.040 C 
ATOM     38  H   LIG d   1       9.627  -8.269  -0.142  0.00  0.00     0.028 H 
ATOM     39  H   LIG d   1      10.436  -9.637  -0.944  0.00  0.00     0.028 H 
ATOM     40  H   LIG d   1      11.118  -7.997  -1.076  0.00  0.00     0.028 H 
ENDBRANCH  31  37
ENDBRANCH  24  27
ENDBRANCH  21  24
ENDBRANCH   1  20
BRANCH  13  41
ATOM     41  C   LIG d   1       3.886  -2.125  -8.308  0.00  0.00     0.006 A 
ATOM     42  C   LIG d   1       4.452  -0.927  -8.742  0.00  0.00    -0.007 A 
ATOM     43  C   LIG d   1       4.116  -0.415  -9.983  0.00  0.00     0.162 A 
ATOM     44  H   LIG d   1       5.152  -0.399  -8.111  0.00  0.00     0.066 H 
ATOM     45  C   LIG d   1       3.214  -1.098 -10.796  0.00  0.00     0.162 A 
ATOM     46  C   LIG d   1       2.651  -2.289 -10.362  0.00  0.00    -0.016 A 
ATOM     47  C   LIG d   1       2.983  -2.802  -9.126  0.00  0.00    -0.049 A 
ATOM     48  H   LIG d   1       1.951  -2.816 -10.994  0.00  0.00     0.066 H 
ATOM     49  H   LIG d   1       2.543  -3.731  -8.791  0.00  0.00     0.062 H 
BRANCH  43  50
ATOM     50  O   LIG d   1       4.671   0.750 -10.412  0.00  0.00    -0.491 OA
BRANCH  50  51
ATOM     51  C   LIG d   1       4.054   1.962  -9.974  0.00  0.00     0.079 C 
ATOM     52  H   LIG d   1       4.547   2.812 -10.445  0.00  0.00     0.066 H 
ATOM     53  H   LIG d   1       3.000   1.954 -10.252  0.00  0.00     0.066 H 
ATOM     54  H   LIG d   1       4.144   2.044  -8.890  0.00  0.00     0.066 H 
ENDBRANCH  50  51
ENDBRANCH  43  50
BRANCH  45  55
ATOM     55  O   LIG d   1       2.884  -0.595 -12.016  0.00  0.00    -0.491 OA
BRANCH  55  56
ATOM     56  C   LIG d   1       2.891  -1.507 -13.116  0.00  0.00     0.079 C 
ATOM     57  H   LIG d   1       3.921  -1.745 -13.383  0.00  0.00     0.066 H 
ATOM     58  H   LIG d   1       2.369  -2.421 -12.834  0.00  0.00     0.066 H 
ATOM     59  H   LIG d   1       2.391  -1.050 -13.969  0.00  0.00     0.066 H 
ENDBRANCH  55  56
ENDBRANCH  45  55
ENDBRANCH  13  41
TORSDOF 9
ENDMDL
MODEL 6
REMARK VINA RESULT:      -7.2      2.838      8.610
REMARK  9 active torsions:
REMARK  status: ('A' for Active; 'I' for Inactive)
REMARK    1  A    between atoms: C_1  and  C_2 
REMARK    2  A    between atoms: C_5  and  C_8 
REMARK    3  A    between atoms: C_8  and  N_9 
REMARK       I    between atoms: N_9  and  C_10 
REMARK    4  A    between atoms: C_10  and  C_12 
REMARK    5  A    between atoms: C_24  and  C_26 
REMARK    6  A    between atoms: C_29  and  O_34 
REMARK    7  A    between atoms: C_30  and  O_32 
REMARK    8  A    between atoms: O_32  and  C_33 
REMARK    9  A    between atoms: O_34  and  C_35 
ROOT
ATOM      1  C   LIG d   1      10.209   3.597  -3.444  0.00  0.00     0.127 A 
ATOM      2  C   LIG d   1      10.440   3.987  -4.760  0.00  0.00    -0.021 A 
ATOM      3  C   LIG d   1       9.682   3.410  -5.776  0.00  0.00     0.012 A 
ATOM      4  C   LIG d   1       9.633   3.557  -7.239  0.00  0.00     0.007 A 
ATOM      5  C   LIG d   1      10.337   4.339  -8.152  0.00  0.00    -0.052 A 
ATOM      6  C   LIG d   1      10.052   4.247  -9.497  0.00  0.00    -0.061 A 
ATOM      7  C   LIG d   1       9.067   3.380  -9.945  0.00  0.00    -0.060 A 
ATOM      8  C   LIG d   1       8.361   2.601  -9.053  0.00  0.00    -0.038 A 
ATOM      9  C   LIG d   1       8.635   2.679  -7.691  0.00  0.00     0.048 A 
ATOM     10  N   LIG d   1       8.098   2.030  -6.595  0.00  0.00    -0.352 N 
ATOM     11  H   LIG d   1       7.389   1.368  -6.636  0.00  0.00     0.166 HD
ATOM     12  C   LIG d   1       8.711   2.452  -5.438  0.00  0.00     0.074 A 
ATOM     13  C   LIG d   1       8.542   2.115  -4.085  0.00  0.00     0.096 A 
ATOM     14  N   LIG d   1       9.279   2.692  -3.153  0.00  0.00    -0.240 NA
ATOM     15  H   LIG d   1      11.194   4.725  -4.990  0.00  0.00     0.065 H 
ATOM     16  H   LIG d   1      11.105   5.016  -7.807  0.00  0.00     0.062 H 
ATOM     17  H   LIG d   1      10.596   4.855 -10.205  0.00  0.00     0.062 H 
ATOM     18  H   LIG d   1       8.849   3.316 -11.001  0.00  0.00     0.062 H 
ATOM     19  H   LIG d   1       7.596   1.930  -9.413  0.00  0.00     0.064 H 
ENDROOT
BRANCH   1  20
ATOM     20  C   LIG d   1      11.006   4.201  -2.354  0.00  0.00     0.263 C 
ATOM     21  N   LIG d   1      10.386   4.841  -1.343  0.00  0.00    -0.306 N 
ATOM     22  H   LIG d   1       9.419   4.905  -1.329  0.00  0.00     0.149 HD
ATOM     23  O   LIG d   1      12.218   4.120  -2.371  0.00  0.00    -0.269 OA
BRANCH  21  24
ATOM     24  C   LIG d   1      11.176   5.439  -0.263  0.00  0.00     0.037 C 
ATOM     25  H   LIG d   1      10.941   4.942   0.678  0.00  0.00     0.051 H 
ATOM     26  H   LIG d   1      12.237   5.322  -0.481  0.00  0.00     0.051 H 
BRANCH  24  27
ATOM     27  C   LIG d   1      10.844   6.906  -0.152  0.00  0.00    -0.030 A 
ATOM     28  C   LIG d   1       9.862   7.455  -0.956  0.00  0.00    -0.057 A 
ATOM     29  C   LIG d   1       9.559   8.801  -0.853  0.00  0.00    -0.059 A 
ATOM     30  H   LIG d   1       9.333   6.835  -1.663  0.00  0.00     0.062 H 
ATOM     31  C   LIG d   1      10.236   9.595   0.052  0.00  0.00    -0.050 A 
ATOM     32  H   LIG d   1       8.793   9.230  -1.481  0.00  0.00     0.062 H 
ATOM     33  C   LIG d   1      11.218   9.045   0.856  0.00  0.00    -0.059 A 
ATOM     34  C   LIG d   1      11.518   7.699   0.757  0.00  0.00    -0.057 A 
ATOM     35  H   LIG d   1      11.747   9.667   1.563  0.00  0.00     0.062 H 
ATOM     36  H   LIG d   1      12.282   7.269   1.388  0.00  0.00     0.062 H 
BRANCH  31  37
ATOM     37  C   LIG d   1       9.906  11.061   0.163  0.00  0.00    -0.040 C 
ATOM     38  H   LIG d   1       9.048  11.191   0.823  0.00  0.00     0.028 H 
ATOM     39  H   LIG d   1      10.763  11.597   0.572  0.00  0.00     0.028 H 
ATOM     40  H   LIG d   1       9.668  11.456  -0.825  0.00  0.00     0.028 H 
ENDBRANCH  31  37
ENDBRANCH  24  27
ENDBRANCH  21  24
ENDBRANCH   1  20
BRANCH  13  41
ATOM     41  C   LIG d   1       7.524   1.109  -3.699  0.00  0.00     0.006 A 
ATOM     42  C   LIG d   1       7.801  -0.251  -3.834  0.00  0.00    -0.007 A 
ATOM     43  C   LIG d   1       6.849  -1.188  -3.474  0.00  0.00     0.162 A 
ATOM     44  H   LIG d   1       8.757  -0.573  -4.220  0.00  0.00     0.066 H 
ATOM     45  C   LIG d   1       5.616  -0.770  -2.976  0.00  0.00     0.162 A 
ATOM     46  C   LIG d   1       5.342   0.582  -2.843  0.00  0.00    -0.016 A 
ATOM     47  C   LIG d   1       6.288   1.519  -3.202  0.00  0.00    -0.049 A 
ATOM     48  H   LIG d   1       4.385   0.903  -2.458  0.00  0.00     0.066 H 
ATOM     49  H   LIG d   1       6.072   2.573  -3.096  0.00  0.00     0.062 H 
BRANCH  43  50
ATOM     50  O   LIG d   1       7.118  -2.515  -3.598  0.00  0.00    -0.491 OA
BRANCH  50  51
ATOM     51  C   LIG d   1       7.037  -3.073  -4.911  0.00  0.00     0.079 C 
ATOM     52  H   LIG d   1       6.409  -2.440  -5.537  0.00  0.00     0.066 H 
ATOM     53  H   LIG d   1       8.036  -3.133  -5.343  0.00  0.00     0.066 H 
ATOM     54  H   LIG d   1       6.604  -4.072  -4.855  0.00  0.00     0.066 H 
ENDBRANCH  50  51
ENDBRANCH  43  50
BRANCH  45  55
ATOM     55  O   LIG d   1       4.680  -1.691  -2.621  0.00  0.00    -0.491 OA
BRANCH  55  56
ATOM     56  C   LIG d   1       3.310  -1.307  -2.751  0.00  0.00     0.079 C 
ATOM     57  H   LIG d   1       3.187  -0.280  -2.404  0.00  0.00     0.066 H 
ATOM     58  H   LIG d   1       3.011  -1.375  -3.797  0.00  0.00     0.066 H 
ATOM     59  H   LIG d   1       2.689  -1.970  -2.150  0.00  0.00     0.066 H 
ENDBRANCH  55  56
ENDBRANCH  45  55
ENDBRANCH  13  41
TORSDOF 9
ENDMDL
MODEL 7
REMARK VINA RESULT:      -7.2      2.616      6.192
REMARK  9 active torsions:
REMARK  status: ('A' for Active; 'I' for Inactive)
REMARK    1  A    between atoms: C_1  and  C_2 
REMARK    2  A    between atoms: C_5  and  C_8 
REMARK    3  A    between atoms: C_8  and  N_9 
REMARK       I    between atoms: N_9  and  C_10 
REMARK    4  A    between atoms: C_10  and  C_12 
REMARK    5  A    between atoms: C_24  and  C_26 
REMARK    6  A    between atoms: C_29  and  O_34 
REMARK    7  A    between atoms: C_30  and  O_32 
REMARK    8  A    between atoms: O_32  and  C_33 
REMARK    9  A    between atoms: O_34  and  C_35 
ROOT
ATOM      1  C   LIG d   1       9.655   3.747  -3.952  0.00  0.00     0.127 A 
ATOM      2  C   LIG d   1       9.907   4.317  -2.708  0.00  0.00    -0.021 A 
ATOM      3  C   LIG d   1      10.161   5.685  -2.632  0.00  0.00     0.012 A 
ATOM      4  C   LIG d   1      10.461   6.621  -1.537  0.00  0.00     0.007 A 
ATOM      5  C   LIG d   1      10.599   6.477  -0.159  0.00  0.00    -0.052 A 
ATOM      6  C   LIG d   1      10.891   7.576   0.620  0.00  0.00    -0.061 A 
ATOM      7  C   LIG d   1      11.045   8.824   0.036  0.00  0.00    -0.060 A 
ATOM      8  C   LIG d   1      10.909   8.982  -1.326  0.00  0.00    -0.038 A 
ATOM      9  C   LIG d   1      10.616   7.884  -2.129  0.00  0.00     0.048 A 
ATOM     10  N   LIG d   1      10.429   7.751  -3.493  0.00  0.00    -0.352 N 
ATOM     11  H   LIG d   1      10.483   8.479  -4.132  0.00  0.00     0.166 HD
ATOM     12  C   LIG d   1      10.155   6.443  -3.816  0.00  0.00     0.074 A 
ATOM     13  C   LIG d   1       9.892   5.789  -5.031  0.00  0.00     0.096 A 
ATOM     14  N   LIG d   1       9.651   4.490  -5.055  0.00  0.00    -0.240 NA
ATOM     15  H   LIG d   1       9.905   3.710  -1.815  0.00  0.00     0.065 H 
ATOM     16  H   LIG d   1      10.480   5.506   0.300  0.00  0.00     0.062 H 
ATOM     17  H   LIG d   1      10.998   7.465   1.689  0.00  0.00     0.062 H 
ATOM     18  H   LIG d   1      11.273   9.680   0.654  0.00  0.00     0.062 H 
ATOM     19  H   LIG d   1      11.032   9.958  -1.770  0.00  0.00     0.064 H 
ENDROOT
BRANCH   1  20
ATOM     20  C   LIG d   1       9.384   2.297  -4.049  0.00  0.00     0.263 C 
ATOM     21  N   LIG d   1       8.128   1.835  -3.889  0.00  0.00    -0.306 N 
ATOM     22  H   LIG d   1       7.402   2.453  -3.711  0.00  0.00     0.149 HD
ATOM     23  O   LIG d   1      10.294   1.522  -4.272  0.00  0.00    -0.269 OA
BRANCH  21  24
ATOM     24  C   LIG d   1       7.859   0.398  -3.984  0.00  0.00     0.037 C 
ATOM     25  H   LIG d   1       8.153   0.037  -4.970  0.00  0.00     0.051 H 
ATOM     26  H   LIG d   1       8.430  -0.130  -3.220  0.00  0.00     0.051 H 
BRANCH  24  27
ATOM     27  C   LIG d   1       6.387   0.147  -3.776  0.00  0.00    -0.030 A 
ATOM     28  C   LIG d   1       5.736  -0.813  -4.527  0.00  0.00    -0.057 A 
ATOM     29  C   LIG d   1       4.386  -1.042  -4.336  0.00  0.00    -0.059 A 
ATOM     30  H   LIG d   1       6.281  -1.383  -5.265  0.00  0.00     0.062 H 
ATOM     31  C   LIG d   1       3.688  -0.312  -3.393  0.00  0.00    -0.050 A 
ATOM     32  H   LIG d   1       3.878  -1.791  -4.924  0.00  0.00     0.062 H 
ATOM     33  C   LIG d   1       4.339   0.648  -2.641  0.00  0.00    -0.059 A 
ATOM     34  C   LIG d   1       5.691   0.874  -2.829  0.00  0.00    -0.057 A 
ATOM     35  H   LIG d   1       3.794   1.219  -1.903  0.00  0.00     0.062 H 
ATOM     36  H   LIG d   1       6.200   1.621  -2.238  0.00  0.00     0.062 H 
BRANCH  31  37
ATOM     37  C   LIG d   1       2.217  -0.561  -3.184  0.00  0.00    -0.040 C 
ATOM     38  H   LIG d   1       2.006  -0.620  -2.116  0.00  0.00     0.028 H 
ATOM     39  H   LIG d   1       1.643   0.255  -3.624  0.00  0.00     0.028 H 
ATOM     40  H   LIG d   1       1.936  -1.500  -3.662  0.00  0.00     0.028 H 
ENDBRANCH  31  37
ENDBRANCH  24  27
ENDBRANCH  21  24
ENDBRANCH   1  20
BRANCH  13  41
ATOM     41  C   LIG d   1       9.879   6.563  -6.295  0.00  0.00     0.006 A 
ATOM     42  C   LIG d   1      10.331   5.978  -7.477  0.00  0.00    -0.007 A 
ATOM     43  C   LIG d   1      10.318   6.703  -8.655  0.00  0.00     0.162 A 
ATOM     44  H   LIG d   1      10.690   4.959  -7.474  0.00  0.00     0.066 H 
ATOM     45  C   LIG d   1       9.854   8.017  -8.657  0.00  0.00     0.162 A 
ATOM     46  C   LIG d   1       9.406   8.599  -7.480  0.00  0.00    -0.016 A 
ATOM     47  C   LIG d   1       9.417   7.879  -6.304  0.00  0.00    -0.049 A 
ATOM     48  H   LIG d   1       9.047   9.617  -7.485  0.00  0.00     0.066 H 
ATOM     49  H   LIG d   1       9.068   8.334  -5.388  0.00  0.00     0.062 H 
BRANCH  43  50
ATOM     50  O   LIG d   1      10.751   6.133  -9.811  0.00  0.00    -0.491 OA
BRANCH  50  51
ATOM     51  C   LIG d   1      10.628   4.713  -9.919  0.00  0.00     0.079 C 
ATOM     52  H   LIG d   1      11.619   4.261  -9.906  0.00  0.00     0.066 H 
ATOM     53  H   LIG d   1      10.044   4.334  -9.080  0.00  0.00     0.066 H 
ATOM     54  H   LIG d   1      10.126   4.463 -10.854  0.00  0.00     0.066 H 
ENDBRANCH  50  51
ENDBRANCH  43  50
BRANCH  45  55
ATOM     55  O   LIG d   1       9.840   8.730  -9.815  0.00  0.00    -0.491 OA
BRANCH  55  56
ATOM     56  C   LIG d   1      11.077   9.310 -10.234  0.00  0.00     0.079 C 
ATOM     57  H   LIG d   1      11.324   8.954 -11.235  0.00  0.00     0.066 H 
ATOM     58  H   LIG d   1      10.983  10.395 -10.248  0.00  0.00     0.066 H 
ATOM     59  H   LIG d   1      11.867   9.021  -9.542  0.00  0.00     0.066 H 
ENDBRANCH  55  56
ENDBRANCH  45  55
ENDBRANCH  13  41
TORSDOF 9
ENDMDL
MODEL 8
REMARK VINA RESULT:      -7.2      3.395     10.380
REMARK  9 active torsions:
REMARK  status: ('A' for Active; 'I' for Inactive)
REMARK    1  A    between atoms: C_1  and  C_2 
REMARK    2  A    between atoms: C_5  and  C_8 
REMARK    3  A    between atoms: C_8  and  N_9 
REMARK       I    between atoms: N_9  and  C_10 
REMARK    4  A    between atoms: C_10  and  C_12 
REMARK    5  A    between atoms: C_24  and  C_26 
REMARK    6  A    between atoms: C_29  and  O_34 
REMARK    7  A    between atoms: C_30  and  O_32 
REMARK    8  A    between atoms: O_32  and  C_33 
REMARK    9  A    between atoms: O_34  and  C_35 
ROOT
ATOM      1  C   LIG d   1       8.903   1.501  -4.413  0.00  0.00     0.127 A 
ATOM      2  C   LIG d   1       7.627   1.580  -3.860  0.00  0.00    -0.021 A 
ATOM      3  C   LIG d   1       6.823   0.443  -3.857  0.00  0.00     0.012 A 
ATOM      4  C   LIG d   1       5.464   0.139  -3.382  0.00  0.00     0.007 A 
ATOM      5  C   LIG d   1       4.475   0.891  -2.752  0.00  0.00    -0.052 A 
ATOM      6  C   LIG d   1       3.272   0.304  -2.425  0.00  0.00    -0.061 A 
ATOM      7  C   LIG d   1       3.043  -1.031  -2.719  0.00  0.00    -0.060 A 
ATOM      8  C   LIG d   1       4.013  -1.788  -3.341  0.00  0.00    -0.038 A 
ATOM      9  C   LIG d   1       5.234  -1.213  -3.680  0.00  0.00     0.048 A 
ATOM     10  N   LIG d   1       6.363  -1.720  -4.297  0.00  0.00    -0.352 N 
ATOM     11  H   LIG d   1       6.461  -2.636  -4.605  0.00  0.00     0.166 HD
ATOM     12  C   LIG d   1       7.327  -0.746  -4.413  0.00  0.00     0.074 A 
ATOM     13  C   LIG d   1       8.625  -0.740  -4.950  0.00  0.00     0.096 A 
ATOM     14  N   LIG d   1       9.355   0.361  -4.927  0.00  0.00    -0.240 NA
ATOM     15  H   LIG d   1       7.267   2.508  -3.441  0.00  0.00     0.065 H 
ATOM     16  H   LIG d   1       4.650   1.931  -2.521  0.00  0.00     0.062 H 
ATOM     17  H   LIG d   1       2.505   0.886  -1.935  0.00  0.00     0.062 H 
ATOM     18  H   LIG d   1       2.098  -1.483  -2.458  0.00  0.00     0.062 H 
ATOM     19  H   LIG d   1       3.825  -2.826  -3.566  0.00  0.00     0.064 H 
ENDROOT
BRANCH   1  20
ATOM     20  C   LIG d   1       9.768   2.700  -4.423  0.00  0.00     0.263 C 
ATOM     21  N   LIG d   1       9.249   3.908  -4.123  0.00  0.00    -0.306 N 
ATOM     22  H   LIG d   1       8.309   3.990  -3.901  0.00  0.00     0.149 HD
ATOM     23  O   LIG d   1      10.946   2.597  -4.701  0.00  0.00    -0.269 OA
BRANCH  21  24
ATOM     24  C   LIG d   1      10.106   5.096  -4.134  0.00  0.00     0.037 C 
ATOM     25  H   LIG d   1      11.051   4.859  -4.624  0.00  0.00     0.051 H 
ATOM     26  H   LIG d   1       9.608   5.900  -4.675  0.00  0.00     0.051 H 
BRANCH  24  27
ATOM     27  C   LIG d   1      10.373   5.535  -2.716  0.00  0.00    -0.030 A 
ATOM     28  C   LIG d   1      11.288   4.847  -1.941  0.00  0.00    -0.057 A 
ATOM     29  C   LIG d   1      11.533   5.250  -0.641  0.00  0.00    -0.059 A 
ATOM     30  H   LIG d   1      11.812   3.996  -2.350  0.00  0.00     0.062 H 
ATOM     31  C   LIG d   1      10.863   6.340  -0.117  0.00  0.00    -0.050 A 
ATOM     32  H   LIG d   1      12.247   4.713  -0.035  0.00  0.00     0.062 H 
ATOM     33  C   LIG d   1       9.948   7.027  -0.893  0.00  0.00    -0.059 A 
ATOM     34  C   LIG d   1       9.707   6.627  -2.195  0.00  0.00    -0.057 A 
ATOM     35  H   LIG d   1       9.425   7.879  -0.484  0.00  0.00     0.062 H 
ATOM     36  H   LIG d   1       8.995   7.168  -2.802  0.00  0.00     0.062 H 
BRANCH  31  37
ATOM     37  C   LIG d   1      11.129   6.779   1.299  0.00  0.00    -0.040 C 
ATOM     38  H   LIG d   1      11.669   7.726   1.291  0.00  0.00     0.028 H 
ATOM     39  H   LIG d   1      10.182   6.905   1.825  0.00  0.00     0.028 H 
ATOM     40  H   LIG d   1      11.729   6.024   1.807  0.00  0.00     0.028 H 
ENDBRANCH  31  37
ENDBRANCH  24  27
ENDBRANCH  21  24
ENDBRANCH   1  20
BRANCH  13  41
ATOM     41  C   LIG d   1       9.182  -1.979  -5.542  0.00  0.00     0.006 A 
ATOM     42  C   LIG d   1       9.815  -2.918  -4.728  0.00  0.00    -0.007 A 
ATOM     43  C   LIG d   1      10.334  -4.074  -5.284  0.00  0.00     0.162 A 
ATOM     44  H   LIG d   1       9.899  -2.744  -3.666  0.00  0.00     0.066 H 
ATOM     45  C   LIG d   1      10.224  -4.296  -6.655  0.00  0.00     0.162 A 
ATOM     46  C   LIG d   1       9.596  -3.361  -7.463  0.00  0.00    -0.016 A 
ATOM     47  C   LIG d   1       9.077  -2.207  -6.913  0.00  0.00    -0.049 A 
ATOM     48  H   LIG d   1       9.512  -3.536  -8.526  0.00  0.00     0.066 H 
ATOM     49  H   LIG d   1       8.587  -1.480  -7.546  0.00  0.00     0.062 H 
BRANCH  43  50
ATOM     50  O   LIG d   1      10.946  -4.995  -4.492  0.00  0.00    -0.491 OA
BRANCH  50  51
ATOM     51  C   LIG d   1      10.985  -4.721  -3.090  0.00  0.00     0.079 C 
ATOM     52  H   LIG d   1      10.575  -3.729  -2.902  0.00  0.00     0.066 H 
ATOM     53  H   LIG d   1      10.393  -5.466  -2.558  0.00  0.00     0.066 H 
ATOM     54  H   LIG d   1      12.018  -4.760  -2.742  0.00  0.00     0.066 H 
ENDBRANCH  50  51
ENDBRANCH  43  50
BRANCH  45  55
ATOM     55  O   LIG d   1      10.734  -5.432  -7.201  0.00  0.00    -0.491 OA
BRANCH  55  56
ATOM     56  C   LIG d   1       9.801  -6.451  -7.568  0.00  0.00     0.079 C 
ATOM     57  H   LIG d   1       9.107  -6.057  -8.310  0.00  0.00     0.066 H 
ATOM     58  H   LIG d   1      10.339  -7.301  -7.989  0.00  0.00     0.066 H 
ATOM     59  H   LIG d   1       9.248  -6.770  -6.686  0.00  0.00     0.066 H 
ENDBRANCH  55  56
ENDBRANCH  45  55
ENDBRANCH  13  41
TORSDOF 9
ENDMDL
MODEL 9
REMARK VINA RESULT:      -7.1      8.424     12.176
REMARK  9 active torsions:
REMARK  status: ('A' for Active; 'I' for Inactive)
REMARK    1  A    between atoms: C_1  and  C_2 
REMARK    2  A    between atoms: C_5  and  C_8 
REMARK    3  A    between atoms: C_8  and  N_9 
REMARK       I    between atoms: N_9  and  C_10 
REMARK    4  A    between atoms: C_10  and  C_12 
REMARK    5  A    between atoms: C_24  and  C_26 
REMARK    6  A    between atoms: C_29  and  O_34 
REMARK    7  A    between atoms: C_30  and  O_32 
REMARK    8  A    between atoms: O_32  and  C_33 
REMARK    9  A    between atoms: O_34  and  C_35 
ROOT
ATOM      1  C   LIG d   1       7.487  -3.140  -5.272  0.00  0.00     0.127 A 
ATOM      2  C   LIG d   1       7.139  -2.199  -4.307  0.00  0.00    -0.021 A 
ATOM      3  C   LIG d   1       5.876  -1.613  -4.363  0.00  0.00     0.012 A 
ATOM      4  C   LIG d   1       5.165  -0.613  -3.552  0.00  0.00     0.007 A 
ATOM      5  C   LIG d   1       5.501   0.120  -2.415  0.00  0.00    -0.052 A 
ATOM      6  C   LIG d   1       4.591   1.004  -1.877  0.00  0.00    -0.061 A 
ATOM      7  C   LIG d   1       3.344   1.166  -2.461  0.00  0.00    -0.060 A 
ATOM      8  C   LIG d   1       2.998   0.447  -3.584  0.00  0.00    -0.038 A 
ATOM      9  C   LIG d   1       3.902  -0.450  -4.143  0.00  0.00     0.048 A 
ATOM     10  N   LIG d   1       3.827  -1.285  -5.243  0.00  0.00    -0.352 N 
ATOM     11  H   LIG d   1       3.056  -1.362  -5.828  0.00  0.00     0.166 HD
ATOM     12  C   LIG d   1       4.998  -1.990  -5.393  0.00  0.00     0.074 A 
ATOM     13  C   LIG d   1       5.429  -2.947  -6.327  0.00  0.00     0.096 A 
ATOM     14  N   LIG d   1       6.633  -3.482  -6.232  0.00  0.00    -0.240 NA
ATOM     15  H   LIG d   1       7.835  -1.929  -3.527  0.00  0.00     0.065 H 
ATOM     16  H   LIG d   1       6.471  -0.003  -1.958  0.00  0.00     0.062 H 
ATOM     17  H   LIG d   1       4.850   1.572  -0.995  0.00  0.00     0.062 H 
ATOM     18  H   LIG d   1       2.638   1.861  -2.031  0.00  0.00     0.062 H 
ATOM     19  H   LIG d   1       2.024   0.581  -4.030  0.00  0.00     0.064 H 
ENDROOT
BRANCH   1  20
ATOM     20  C   LIG d   1       8.823  -3.772  -5.225  0.00  0.00     0.263 C 
ATOM     21  N   LIG d   1       9.658  -3.507  -4.200  0.00  0.00    -0.306 N 
ATOM     22  H   LIG d   1       9.382  -2.903  -3.493  0.00  0.00     0.149 HD
ATOM     23  O   LIG d   1       9.169  -4.529  -6.111  0.00  0.00    -0.269 OA
BRANCH  21  24
ATOM     24  C   LIG d   1      10.982  -4.132  -4.154  0.00  0.00     0.037 C 
ATOM     25  H   LIG d   1      11.240  -4.511  -5.143  0.00  0.00     0.051 H 
ATOM     26  H   LIG d   1      11.722  -3.395  -3.843  0.00  0.00     0.051 H 
BRANCH  24  27
ATOM     27  C   LIG d   1      10.963  -5.274  -3.169  0.00  0.00    -0.030 A 
ATOM     28  C   LIG d   1      11.932  -6.258  -3.234  0.00  0.00    -0.057 A 
ATOM     29  C   LIG d   1      11.915  -7.305  -2.330  0.00  0.00    -0.059 A 
ATOM     30  H   LIG d   1      12.702  -6.210  -3.990  0.00  0.00     0.062 H 
ATOM     31  C   LIG d   1      10.930  -7.366  -1.362  0.00  0.00    -0.050 A 
ATOM     32  H   LIG d   1      12.671  -8.073  -2.381  0.00  0.00     0.062 H 
ATOM     33  C   LIG d   1       9.962  -6.381  -1.298  0.00  0.00    -0.059 A 
ATOM     34  C   LIG d   1       9.982  -5.332  -2.198  0.00  0.00    -0.057 A 
ATOM     35  H   LIG d   1       9.192  -6.430  -0.541  0.00  0.00     0.062 H 
ATOM     36  H   LIG d   1       9.227  -4.561  -2.144  0.00  0.00     0.062 H 
BRANCH  31  37
ATOM     37  C   LIG d   1      10.911  -8.507  -0.378  0.00  0.00    -0.040 C 
ATOM     38  H   LIG d   1      10.505  -9.396  -0.860  0.00  0.00     0.028 H 
ATOM     39  H   LIG d   1      11.927  -8.710  -0.037  0.00  0.00     0.028 H 
ATOM     40  H   LIG d   1      10.288  -8.240   0.476  0.00  0.00     0.028 H 
ENDBRANCH  31  37
ENDBRANCH  24  27
ENDBRANCH  21  24
ENDBRANCH   1  20
BRANCH  13  41
ATOM     41  C   LIG d   1       4.523  -3.364  -7.424  0.00  0.00     0.006 A 
ATOM     42  C   LIG d   1       4.032  -2.418  -8.322  0.00  0.00    -0.007 A 
ATOM     43  C   LIG d   1       3.187  -2.811  -9.344  0.00  0.00     0.162 A 
ATOM     44  H   LIG d   1       4.312  -1.379  -8.221  0.00  0.00     0.066 H 
ATOM     45  C   LIG d   1       2.828  -4.151  -9.474  0.00  0.00     0.162 A 
ATOM     46  C   LIG d   1       3.316  -5.091  -8.579  0.00  0.00    -0.016 A 
ATOM     47  C   LIG d   1       4.159  -4.703  -7.558  0.00  0.00    -0.049 A 
ATOM     48  H   LIG d   1       3.036  -6.129  -8.681  0.00  0.00     0.066 H 
ATOM     49  H   LIG d   1       4.539  -5.439  -6.862  0.00  0.00     0.062 H 
BRANCH  43  50
ATOM     50  O   LIG d   1       2.711  -1.891 -10.226  0.00  0.00    -0.491 OA
BRANCH  50  51
ATOM     51  C   LIG d   1       1.726  -0.976  -9.741  0.00  0.00     0.079 C 
ATOM     52  H   LIG d   1       1.285  -0.438 -10.579  0.00  0.00     0.066 H 
ATOM     53  H   LIG d   1       0.948  -1.528  -9.213  0.00  0.00     0.066 H 
ATOM     54  H   LIG d   1       2.195  -0.266  -9.059  0.00  0.00     0.066 H 
ENDBRANCH  50  51
ENDBRANCH  43  50
BRANCH  45  55
ATOM     55  O   LIG d   1       1.997  -4.537 -10.479  0.00  0.00    -0.491 OA
BRANCH  55  56
ATOM     56  C   LIG d   1       1.263  -5.747 -10.284  0.00  0.00     0.079 C 
ATOM     57  H   LIG d   1       1.737  -6.338  -9.500  0.00  0.00     0.066 H 
ATOM     58  H   LIG d   1       0.241  -5.508  -9.991  0.00  0.00     0.066 H 
ATOM     59  H   LIG d   1       1.252  -6.318 -11.212  0.00  0.00     0.066 H 
ENDBRANCH  55  56
ENDBRANCH  45  55
ENDBRANCH  13  41
TORSDOF 9
ENDMDL
MODEL 10
REMARK VINA RESULT:      -7.1      4.324      8.214
REMARK  9 active torsions:
REMARK  status: ('A' for Active; 'I' for Inactive)
REMARK    1  A    between atoms: C_1  and  C_2 
REMARK    2  A    between atoms: C_5  and  C_8 
REMARK    3  A    between atoms: C_8  and  N_9 
REMARK       I    between atoms: N_9  and  C_10 
REMARK    4  A    between atoms: C_10  and  C_12 
REMARK    5  A    between atoms: C_24  and  C_26 
REMARK    6  A    between atoms: C_29  and  O_34 
REMARK    7  A    between atoms: C_30  and  O_32 
REMARK    8  A    between atoms: O_32  and  C_33 
REMARK    9  A    between atoms: O_34  and  C_35 
ROOT
ATOM      1  C   LIG d   1       9.092  -1.566  -4.722  0.00  0.00     0.127 A 
ATOM      2  C   LIG d   1       7.830  -1.815  -4.188  0.00  0.00    -0.021 A 
ATOM      3  C   LIG d   1       6.994  -0.737  -3.907  0.00  0.00     0.012 A 
ATOM      4  C   LIG d   1       5.637  -0.599  -3.356  0.00  0.00     0.007 A 
ATOM      5  C   LIG d   1       4.681  -1.510  -2.912  0.00  0.00    -0.052 A 
ATOM      6  C   LIG d   1       3.469  -1.056  -2.438  0.00  0.00    -0.061 A 
ATOM      7  C   LIG d   1       3.197   0.303  -2.404  0.00  0.00    -0.060 A 
ATOM      8  C   LIG d   1       4.132   1.216  -2.842  0.00  0.00    -0.038 A 
ATOM      9  C   LIG d   1       5.362   0.778  -3.323  0.00  0.00     0.048 A 
ATOM     10  N   LIG d   1       6.464   1.453  -3.815  0.00  0.00    -0.352 N 
ATOM     11  H   LIG d   1       6.530   2.418  -3.897  0.00  0.00     0.166 HD
ATOM     12  C   LIG d   1       7.453   0.565  -4.170  0.00  0.00     0.074 A 
ATOM     13  C   LIG d   1       8.740   0.728  -4.709  0.00  0.00     0.096 A 
ATOM     14  N   LIG d   1       9.497  -0.323  -4.965  0.00  0.00    -0.240 NA
ATOM     15  H   LIG d   1       7.505  -2.826  -3.996  0.00  0.00     0.065 H 
ATOM     16  H   LIG d   1       4.889  -2.569  -2.937  0.00  0.00     0.062 H 
ATOM     17  H   LIG d   1       2.728  -1.762  -2.094  0.00  0.00     0.062 H 
ATOM     18  H   LIG d   1       2.244   0.650  -2.032  0.00  0.00     0.062 H 
ATOM     19  H   LIG d   1       3.910   2.272  -2.811  0.00  0.00     0.064 H 
ENDROOT
BRANCH   1  20
ATOM     20  C   LIG d   1       9.991  -2.700  -5.026  0.00  0.00     0.263 C 
ATOM     21  N   LIG d   1      10.718  -3.265  -4.041  0.00  0.00    -0.306 N 
ATOM     22  H   LIG d   1      10.651  -2.929  -3.134  0.00  0.00     0.149 HD
ATOM     23  O   LIG d   1      10.074  -3.121  -6.163  0.00  0.00    -0.269 OA
BRANCH  21  24
ATOM     24  C   LIG d   1      11.609  -4.389  -4.342  0.00  0.00     0.037 C 
ATOM     25  H   LIG d   1      11.378  -4.781  -5.333  0.00  0.00     0.051 H 
ATOM     26  H   LIG d   1      12.644  -4.048  -4.320  0.00  0.00     0.051 H 
BRANCH  24  27
ATOM     27  C   LIG d   1      11.414  -5.474  -3.314  0.00  0.00    -0.030 A 
ATOM     28  C   LIG d   1      10.298  -5.460  -2.498  0.00  0.00    -0.057 A 
ATOM     29  C   LIG d   1      10.120  -6.456  -1.555  0.00  0.00    -0.059 A 
ATOM     30  H   LIG d   1       9.567  -4.672  -2.595  0.00  0.00     0.062 H 
ATOM     31  C   LIG d   1      11.056  -7.465  -1.430  0.00  0.00    -0.050 A 
ATOM     32  H   LIG d   1       9.249  -6.445  -0.917  0.00  0.00     0.062 H 
ATOM     33  C   LIG d   1      12.171  -7.479  -2.247  0.00  0.00    -0.059 A 
ATOM     34  C   LIG d   1      12.347  -6.486  -3.193  0.00  0.00    -0.057 A 
ATOM     35  H   LIG d   1      12.903  -8.267  -2.149  0.00  0.00     0.062 H 
ATOM     36  H   LIG d   1      13.217  -6.499  -3.834  0.00  0.00     0.062 H 
BRANCH  31  37
ATOM     37  C   LIG d   1      10.862  -8.550  -0.403  0.00  0.00    -0.040 C 
ATOM     38  H   LIG d   1      10.109  -8.235   0.320  0.00  0.00     0.028 H 
ATOM     39  H   LIG d   1      10.531  -9.464  -0.896  0.00  0.00     0.028 H 
ATOM     40  H   LIG d   1      11.804  -8.736   0.112  0.00  0.00     0.028 H 
ENDBRANCH  31  37
ENDBRANCH  24  27
ENDBRANCH  21  24
ENDBRANCH   1  20
BRANCH  13  41
ATOM     41  C   LIG d   1       9.250   2.090  -4.998  0.00  0.00     0.006 A 
ATOM     42  C   LIG d   1       9.844   2.842  -3.985  0.00  0.00    -0.007 A 
ATOM     43  C   LIG d   1      10.318   4.112  -4.258  0.00  0.00     0.162 A 
ATOM     44  H   LIG d   1       9.935   2.433  -2.990  0.00  0.00     0.066 H 
ATOM     45  C   LIG d   1      10.201   4.638  -5.543  0.00  0.00     0.162 A 
ATOM     46  C   LIG d   1       9.608   3.889  -6.549  0.00  0.00    -0.016 A 
ATOM     47  C   LIG d   1       9.134   2.622  -6.281  0.00  0.00    -0.049 A 
ATOM     48  H   LIG d   1       9.518   4.299  -7.544  0.00  0.00     0.066 H 
ATOM     49  H   LIG d   1       8.673   2.040  -7.068  0.00  0.00     0.062 H 
BRANCH  43  50
ATOM     50  O   LIG d   1      10.905   4.846  -3.274  0.00  0.00    -0.491 OA
BRANCH  50  51
ATOM     51  C   LIG d   1      10.036   5.483  -2.335  0.00  0.00     0.079 C 
ATOM     52  H   LIG d   1       9.464   6.262  -2.839  0.00  0.00     0.066 H 
ATOM     53  H   LIG d   1       9.352   4.745  -1.915  0.00  0.00     0.066 H 
ATOM     54  H   LIG d   1      10.629   5.927  -1.535  0.00  0.00     0.066 H 
ENDBRANCH  50  51
ENDBRANCH  43  50
BRANCH  45  55
ATOM     55  O   LIG d   1      10.668   5.887  -5.811  0.00  0.00    -0.491 OA
BRANCH  55  56
ATOM     56  C   LIG d   1       9.704   6.941  -5.870  0.00  0.00     0.079 C 
ATOM     57  H   LIG d   1       8.792   6.572  -6.340  0.00  0.00     0.066 H 
ATOM     58  H   LIG d   1       9.480   7.284  -4.860  0.00  0.00     0.066 H 
ATOM     59  H   LIG d   1      10.106   7.767  -6.455  0.00  0.00     0.066 H 
ENDBRANCH  55  56
ENDBRANCH  45  55
ENDBRANCH  13  41
TORSDOF 9
ENDMDL
