MODEL 1
REMARK VINA RESULT:      -7.2      0.000      0.000
REMARK  11 active torsions:
REMARK  status: ('A' for Active; 'I' for Inactive)
REMARK    1  A    between atoms: C_3  and  O_37 
REMARK    2  A    between atoms: C_4  and  O_36 
REMARK    3  A    between atoms: C_6  and  C_7 
REMARK    4  A    between atoms: C_12  and  O_35 
REMARK    5  A    between atoms: C_14  and  O_18 
REMARK    6  A    between atoms: O_18  and  C_19 
REMARK    7  A    between atoms: C_21  and  O_34 
REMARK    8  A    between atoms: C_23  and  O_33 
REMARK    9  A    between atoms: C_25  and  O_32 
REMARK   10  A    between atoms: C_27  and  C_30 
REMARK   11  A    between atoms: C_30  and  O_31 
ROOT
ATOM      1  C   LIG d   1      10.823   6.417  -1.705  0.00  0.00     0.139 A 
ATOM      2  C   LIG d   1      12.118   6.001  -1.673  0.00  0.00     0.029 A 
ATOM      3  C   LIG d   1      12.464   4.754  -2.246  0.00  0.00     0.197 A 
ATOM      4  O   LIG d   1      13.616   4.350  -2.236  0.00  0.00    -0.287 OA
ATOM      5  C   LIG d   1      11.381   3.962  -2.854  0.00  0.00     0.105 A 
ATOM      6  C   LIG d   1      11.632   2.716  -3.442  0.00  0.00     0.135 A 
ATOM      7  C   LIG d   1      10.587   2.005  -4.002  0.00  0.00     0.023 A 
ATOM      8  C   LIG d   1       9.297   2.522  -3.974  0.00  0.00     0.131 A 
ATOM      9  C   LIG d   1       9.042   3.755  -3.399  0.00  0.00     0.024 A 
ATOM     10  C   LIG d   1      10.076   4.484  -2.832  0.00  0.00     0.146 A 
ATOM     11  O   LIG d   1       9.844   5.685  -2.262  0.00  0.00    -0.454 OA
ATOM     12  H   LIG d   1      12.876   6.619  -1.216  0.00  0.00     0.069 H 
ATOM     13  H   LIG d   1      10.773   1.044  -4.458  0.00  0.00     0.069 H 
ATOM     14  H   LIG d   1       8.035   4.148  -3.387  0.00  0.00     0.069 H 
ENDROOT
BRANCH   8  15
ATOM     15  O   LIG d   1       8.277   1.811  -4.523  0.00  0.00    -0.461 OA
BRANCH  15  16
ATOM     16  C   LIG d   1       7.559   0.931  -3.657  0.00  0.00     0.231 C 
ATOM     17  H   LIG d   1       8.088   0.843  -2.708  0.00  0.00     0.108 H 
ATOM     18  O   LIG d   1       6.250   1.456  -3.425  0.00  0.00    -0.331 OA
ATOM     19  C   LIG d   1       5.451   0.662  -2.545  0.00  0.00     0.114 C 
ATOM     20  C   LIG d   1       5.253  -0.730  -3.153  0.00  0.00     0.112 C 
ATOM     21  H   LIG d   1       5.953   0.570  -1.581  0.00  0.00     0.065 H 
ATOM     22  C   LIG d   1       6.623  -1.369  -3.402  0.00  0.00     0.115 C 
ATOM     23  H   LIG d   1       4.682  -1.350  -2.464  0.00  0.00     0.065 H 
ATOM     24  C   LIG d   1       7.447  -0.449  -4.308  0.00  0.00     0.145 C 
ATOM     25  H   LIG d   1       7.141  -1.502  -2.451  0.00  0.00     0.065 H 
ATOM     26  H   LIG d   1       6.952  -0.355  -5.276  0.00  0.00     0.068 H 
BRANCH  19  27
ATOM     27  C   LIG d   1       4.089   1.330  -2.349  0.00  0.00     0.073 C 
ATOM     28  H   LIG d   1       3.323   0.564  -2.227  0.00  0.00     0.058 H 
ATOM     29  H   LIG d   1       4.117   1.961  -1.460  0.00  0.00     0.058 H 
BRANCH  27  30
ATOM     30  O   LIG d   1       3.784   2.133  -3.492  0.00  0.00    -0.392 OA
ATOM     31  H   LIG d   1       2.852   2.382  -3.560  0.00  0.00     0.209 HD
ENDBRANCH  27  30
ENDBRANCH  19  27
BRANCH  20  32
ATOM     32  O   LIG d   1       4.549  -0.614  -4.390  0.00  0.00    -0.387 OA
ATOM     33  H   LIG d   1       5.070  -0.868  -5.165  0.00  0.00     0.210 HD
ENDBRANCH  20  32
BRANCH  22  34
ATOM     34  O   LIG d   1       6.451  -2.637  -4.037  0.00  0.00    -0.386 OA
ATOM     35  H   LIG d   1       6.722  -3.389  -3.492  0.00  0.00     0.210 HD
ENDBRANCH  22  34
BRANCH  24  36
ATOM     36  O   LIG d   1       8.752  -1.000  -4.489  0.00  0.00    -0.383 OA
ATOM     37  H   LIG d   1       8.880  -1.857  -4.060  0.00  0.00     0.210 HD
ENDBRANCH  24  36
ENDBRANCH  15  16
ENDBRANCH   8  15
BRANCH   6  38
ATOM     38  O   LIG d   1      12.892   2.212  -3.464  0.00  0.00    -0.506 OA
ATOM     39  H   LIG d   1      13.031   1.529  -4.134  0.00  0.00     0.292 HD
ENDBRANCH   6  38
BRANCH   1  40
ATOM     40  C   LIG d   1      10.480   7.718  -1.103  0.00  0.00     0.021 A 
ATOM     41  C   LIG d   1      11.259   8.235  -0.064  0.00  0.00    -0.047 A 
ATOM     42  C   LIG d   1      10.938   9.453   0.498  0.00  0.00    -0.016 A 
ATOM     43  H   LIG d   1      12.111   7.681   0.300  0.00  0.00     0.063 H 
ATOM     44  C   LIG d   1       9.842  10.167   0.034  0.00  0.00     0.158 A 
ATOM     45  H   LIG d   1      11.540   9.851   1.301  0.00  0.00     0.066 H 
ATOM     46  C   LIG d   1       9.061   9.658  -1.003  0.00  0.00     0.159 A 
ATOM     47  C   LIG d   1       9.381   8.442  -1.574  0.00  0.00    -0.006 A 
ATOM     48  H   LIG d   1       8.779   8.048  -2.380  0.00  0.00     0.066 H 
BRANCH  44  49
ATOM     49  O   LIG d   1       9.529  11.366   0.591  0.00  0.00    -0.503 OA
ATOM     50  H   LIG d   1       9.968  11.533   1.437  0.00  0.00     0.292 HD
ENDBRANCH  44  49
BRANCH  46  51
ATOM     51  O   LIG d   1       7.989  10.360  -1.455  0.00  0.00    -0.503 OA
ATOM     52  H   LIG d   1       7.252  10.400  -0.829  0.00  0.00     0.292 HD
ENDBRANCH  46  51
ENDBRANCH   1  40
TORSDOF 11
ENDMDL
MODEL 2
REMARK VINA RESULT:      -7.1      2.055      3.064
REMARK  11 active torsions:
REMARK  status: ('A' for Active; 'I' for Inactive)
REMARK    1  A    between atoms: C_3  and  O_37 
REMARK    2  A    between atoms: C_4  and  O_36 
REMARK    3  A    between atoms: C_6  and  C_7 
REMARK    4  A    between atoms: C_12  and  O_35 
REMARK    5  A    between atoms: C_14  and  O_18 
REMARK    6  A    between atoms: O_18  and  C_19 
REMARK    7  A    between atoms: C_21  and  O_34 
REMARK    8  A    between atoms: C_23  and  O_33 
REMARK    9  A    between atoms: C_25  and  O_32 
REMARK   10  A    between atoms: C_27  and  C_30 
REMARK   11  A    between atoms: C_30  and  O_31 
ROOT
ATOM      1  C   LIG d   1       9.973   4.733  -3.170  0.00  0.00     0.139 A 
ATOM      2  C   LIG d   1      10.293   5.266  -4.379  0.00  0.00     0.029 A 
ATOM      3  C   LIG d   1       9.911   4.591  -5.563  0.00  0.00     0.197 A 
ATOM      4  O   LIG d   1      10.182   5.040  -6.665  0.00  0.00    -0.287 OA
ATOM      5  C   LIG d   1       9.175   3.324  -5.413  0.00  0.00     0.105 A 
ATOM      6  C   LIG d   1       8.758   2.588  -6.530  0.00  0.00     0.135 A 
ATOM      7  C   LIG d   1       8.069   1.404  -6.346  0.00  0.00     0.023 A 
ATOM      8  C   LIG d   1       7.798   0.945  -5.062  0.00  0.00     0.131 A 
ATOM      9  C   LIG d   1       8.203   1.670  -3.953  0.00  0.00     0.024 A 
ATOM     10  C   LIG d   1       8.895   2.861  -4.116  0.00  0.00     0.146 A 
ATOM     11  O   LIG d   1       9.301   3.576  -3.047  0.00  0.00    -0.454 OA
ATOM     12  H   LIG d   1      10.834   6.199  -4.436  0.00  0.00     0.069 H 
ATOM     13  H   LIG d   1       7.744   0.831  -7.203  0.00  0.00     0.069 H 
ATOM     14  H   LIG d   1       7.983   1.306  -2.960  0.00  0.00     0.069 H 
ENDROOT
BRANCH   8  15
ATOM     15  O   LIG d   1       7.126  -0.222  -4.894  0.00  0.00    -0.461 OA
BRANCH  15  16
ATOM     16  C   LIG d   1       6.207  -0.292  -3.802  0.00  0.00     0.231 C 
ATOM     17  H   LIG d   1       6.741  -0.119  -2.867  0.00  0.00     0.108 H 
ATOM     18  O   LIG d   1       5.197   0.706  -3.965  0.00  0.00    -0.331 OA
ATOM     19  C   LIG d   1       4.237   0.742  -2.908  0.00  0.00     0.114 C 
ATOM     20  C   LIG d   1       3.504  -0.601  -2.840  0.00  0.00     0.112 C 
ATOM     21  H   LIG d   1       4.744   0.927  -1.960  0.00  0.00     0.065 H 
ATOM     22  C   LIG d   1       4.528  -1.722  -2.634  0.00  0.00     0.115 C 
ATOM     23  H   LIG d   1       2.802  -0.592  -2.007  0.00  0.00     0.065 H 
ATOM     24  C   LIG d   1       5.555  -1.676  -3.769  0.00  0.00     0.145 C 
ATOM     25  H   LIG d   1       5.035  -1.582  -1.678  0.00  0.00     0.065 H 
ATOM     26  H   LIG d   1       5.055  -1.865  -4.720  0.00  0.00     0.068 H 
BRANCH  19  27
ATOM     27  C   LIG d   1       3.226   1.860  -3.173  0.00  0.00     0.073 C 
ATOM     28  H   LIG d   1       2.348   1.712  -2.544  0.00  0.00     0.058 H 
ATOM     29  H   LIG d   1       3.680   2.823  -2.943  0.00  0.00     0.058 H 
BRANCH  27  30
ATOM     30  O   LIG d   1       2.838   1.834  -4.548  0.00  0.00    -0.392 OA
ATOM     31  H   LIG d   1       3.580   1.777  -5.165  0.00  0.00     0.209 HD
ENDBRANCH  27  30
ENDBRANCH  19  27
BRANCH  20  32
ATOM     32  O   LIG d   1       2.796  -0.821  -4.061  0.00  0.00    -0.387 OA
ATOM     33  H   LIG d   1       2.481  -1.728  -4.175  0.00  0.00     0.210 HD
ENDBRANCH  20  32
BRANCH  22  34
ATOM     34  O   LIG d   1       3.862  -2.986  -2.643  0.00  0.00    -0.386 OA
ATOM     35  H   LIG d   1       3.848  -3.429  -1.783  0.00  0.00     0.210 HD
ENDBRANCH  22  34
BRANCH  24  36
ATOM     36  O   LIG d   1       6.556  -2.671  -3.549  0.00  0.00    -0.383 OA
ATOM     37  H   LIG d   1       7.159  -2.796  -4.295  0.00  0.00     0.210 HD
ENDBRANCH  24  36
ENDBRANCH  15  16
ENDBRANCH   8  15
BRANCH   6  38
ATOM     38  O   LIG d   1       9.027   3.035  -7.782  0.00  0.00    -0.506 OA
ATOM     39  H   LIG d   1       8.271   3.442  -8.227  0.00  0.00     0.292 HD
ENDBRANCH   6  38
BRANCH   1  40
ATOM     40  C   LIG d   1      10.380   5.450  -1.947  0.00  0.00     0.021 A 
ATOM     41  C   LIG d   1      11.265   4.850  -1.046  0.00  0.00    -0.047 A 
ATOM     42  C   LIG d   1      11.645   5.522   0.096  0.00  0.00    -0.016 A 
ATOM     43  H   LIG d   1      11.650   3.862  -1.245  0.00  0.00     0.063 H 
ATOM     44  C   LIG d   1      11.150   6.792   0.355  0.00  0.00     0.158 A 
ATOM     45  H   LIG d   1      12.329   5.058   0.791  0.00  0.00     0.066 H 
ATOM     46  C   LIG d   1      10.267   7.396  -0.539  0.00  0.00     0.159 A 
ATOM     47  C   LIG d   1       9.887   6.732  -1.689  0.00  0.00    -0.006 A 
ATOM     48  H   LIG d   1       9.206   7.200  -2.384  0.00  0.00     0.066 H 
BRANCH  44  49
ATOM     49  O   LIG d   1      11.527   7.450   1.483  0.00  0.00    -0.503 OA
ATOM     50  H   LIG d   1      12.313   8.002   1.372  0.00  0.00     0.292 HD
ENDBRANCH  44  49
BRANCH  46  51
ATOM     51  O   LIG d   1       9.784   8.641  -0.283  0.00  0.00    -0.503 OA
ATOM     52  H   LIG d   1      10.227   9.345  -0.778  0.00  0.00     0.292 HD
ENDBRANCH  46  51
ENDBRANCH   1  40
TORSDOF 11
ENDMDL
MODEL 3
REMARK VINA RESULT:      -7.1      6.709     11.097
REMARK  11 active torsions:
REMARK  status: ('A' for Active; 'I' for Inactive)
REMARK    1  A    between atoms: C_3  and  O_37 
REMARK    2  A    between atoms: C_4  and  O_36 
REMARK    3  A    between atoms: C_6  and  C_7 
REMARK    4  A    between atoms: C_12  and  O_35 
REMARK    5  A    between atoms: C_14  and  O_18 
REMARK    6  A    between atoms: O_18  and  C_19 
REMARK    7  A    between atoms: C_21  and  O_34 
REMARK    8  A    between atoms: C_23  and  O_33 
REMARK    9  A    between atoms: C_25  and  O_32 
REMARK   10  A    between atoms: C_27  and  C_30 
REMARK   11  A    between atoms: C_30  and  O_31 
ROOT
ATOM      1  C   LIG d   1       5.874  -2.947  -4.333  0.00  0.00     0.139 A 
ATOM      2  C   LIG d   1       7.228  -2.941  -4.462  0.00  0.00     0.029 A 
ATOM      3  C   LIG d   1       7.876  -4.043  -5.070  0.00  0.00     0.197 A 
ATOM      4  O   LIG d   1       9.088  -4.070  -5.203  0.00  0.00    -0.287 OA
ATOM      5  C   LIG d   1       7.029  -5.155  -5.535  0.00  0.00     0.105 A 
ATOM      6  C   LIG d   1       7.586  -6.285  -6.147  0.00  0.00     0.135 A 
ATOM      7  C   LIG d   1       6.756  -7.307  -6.569  0.00  0.00     0.023 A 
ATOM      8  C   LIG d   1       5.381  -7.214  -6.382  0.00  0.00     0.131 A 
ATOM      9  C   LIG d   1       4.824  -6.097  -5.783  0.00  0.00     0.024 A 
ATOM     10  C   LIG d   1       5.639  -5.061  -5.352  0.00  0.00     0.146 A 
ATOM     11  O   LIG d   1       5.113  -3.968  -4.760  0.00  0.00    -0.454 OA
ATOM     12  H   LIG d   1       7.804  -2.101  -4.105  0.00  0.00     0.069 H 
ATOM     13  H   LIG d   1       7.177  -8.183  -7.043  0.00  0.00     0.069 H 
ATOM     14  H   LIG d   1       3.754  -6.034  -5.646  0.00  0.00     0.069 H 
ENDROOT
BRANCH   8  15
ATOM     15  O   LIG d   1       4.577  -8.227  -6.797  0.00  0.00    -0.461 OA
BRANCH  15  16
ATOM     16  C   LIG d   1       4.837  -9.525  -6.259  0.00  0.00     0.231 C 
ATOM     17  H   LIG d   1       5.900  -9.619  -6.037  0.00  0.00     0.108 H 
ATOM     18  O   LIG d   1       4.082  -9.703  -5.059  0.00  0.00    -0.331 OA
ATOM     19  C   LIG d   1       4.290 -10.965  -4.422  0.00  0.00     0.114 C 
ATOM     20  C   LIG d   1       3.861 -12.091  -5.368  0.00  0.00     0.112 C 
ATOM     21  H   LIG d   1       5.346 -11.080  -4.176  0.00  0.00     0.065 H 
ATOM     22  C   LIG d   1       4.657 -11.980  -6.673  0.00  0.00     0.115 C 
ATOM     23  H   LIG d   1       4.060 -13.054  -4.901  0.00  0.00     0.065 H 
ATOM     24  C   LIG d   1       4.432 -10.591  -7.279  0.00  0.00     0.145 C 
ATOM     25  H   LIG d   1       5.719 -12.119  -6.466  0.00  0.00     0.065 H 
ATOM     26  H   LIG d   1       3.378 -10.471  -7.532  0.00  0.00     0.068 H 
BRANCH  19  27
ATOM     27  C   LIG d   1       3.457 -11.034  -3.140  0.00  0.00     0.073 C 
ATOM     28  H   LIG d   1       3.118 -12.057  -2.982  0.00  0.00     0.058 H 
ATOM     29  H   LIG d   1       4.066 -10.717  -2.293  0.00  0.00     0.058 H 
BRANCH  27  30
ATOM     30  O   LIG d   1       2.325 -10.169  -3.261  0.00  0.00    -0.392 OA
ATOM     31  H   LIG d   1       2.071  -9.980  -4.175  0.00  0.00     0.209 HD
ENDBRANCH  27  30
ENDBRANCH  19  27
BRANCH  20  32
ATOM     32  O   LIG d   1       2.466 -11.972  -5.649  0.00  0.00    -0.387 OA
ATOM     33  H   LIG d   1       2.223 -11.151  -6.099  0.00  0.00     0.210 HD
ENDBRANCH  20  32
BRANCH  22  34
ATOM     34  O   LIG d   1       4.212 -12.980  -7.590  0.00  0.00    -0.386 OA
ATOM     35  H   LIG d   1       3.293 -12.873  -7.874  0.00  0.00     0.210 HD
ENDBRANCH  22  34
BRANCH  24  36
ATOM     36  O   LIG d   1       5.225 -10.451  -8.459  0.00  0.00    -0.383 OA
ATOM     37  H   LIG d   1       5.124  -9.597  -8.903  0.00  0.00     0.210 HD
ENDBRANCH  24  36
ENDBRANCH  15  16
ENDBRANCH   8  15
BRANCH   6  38
ATOM     38  O   LIG d   1       8.927  -6.376  -6.325  0.00  0.00    -0.506 OA
ATOM     39  H   LIG d   1       9.347  -7.075  -5.805  0.00  0.00     0.292 HD
ENDBRANCH   6  38
BRANCH   1  40
ATOM     40  C   LIG d   1       5.216  -1.791  -3.696  0.00  0.00     0.021 A 
ATOM     41  C   LIG d   1       3.938  -1.928  -3.146  0.00  0.00    -0.047 A 
ATOM     42  C   LIG d   1       3.325  -0.847  -2.551  0.00  0.00    -0.016 A 
ATOM     43  H   LIG d   1       3.432  -2.881  -3.187  0.00  0.00     0.063 H 
ATOM     44  C   LIG d   1       3.972   0.379  -2.498  0.00  0.00     0.158 A 
ATOM     45  H   LIG d   1       2.338  -0.955  -2.126  0.00  0.00     0.066 H 
ATOM     46  C   LIG d   1       5.246   0.524  -3.044  0.00  0.00     0.159 A 
ATOM     47  C   LIG d   1       5.870  -0.557  -3.636  0.00  0.00    -0.006 A 
ATOM     48  H   LIG d   1       6.859  -0.448  -4.056  0.00  0.00     0.066 H 
BRANCH  44  49
ATOM     49  O   LIG d   1       3.362   1.442  -1.911  0.00  0.00    -0.503 OA
ATOM     50  H   LIG d   1       2.757   1.920  -2.495  0.00  0.00     0.292 HD
ENDBRANCH  44  49
BRANCH  46  51
ATOM     51  O   LIG d   1       5.878   1.727  -2.990  0.00  0.00    -0.503 OA
ATOM     52  H   LIG d   1       5.335   2.470  -3.291  0.00  0.00     0.292 HD
ENDBRANCH  46  51
ENDBRANCH   1  40
TORSDOF 11
ENDMDL
MODEL 4
REMARK VINA RESULT:      -7.0      1.550      2.224
REMARK  11 active torsions:
REMARK  status: ('A' for Active; 'I' for Inactive)
REMARK    1  A    between atoms: C_3  and  O_37 
REMARK    2  A    between atoms: C_4  and  O_36 
REMARK    3  A    between atoms: C_6  and  C_7 
REMARK    4  A    between atoms: C_12  and  O_35 
REMARK    5  A    between atoms: C_14  and  O_18 
REMARK    6  A    between atoms: O_18  and  C_19 
REMARK    7  A    between atoms: C_21  and  O_34 
REMARK    8  A    between atoms: C_23  and  O_33 
REMARK    9  A    between atoms: C_25  and  O_32 
REMARK   10  A    between atoms: C_27  and  C_30 
REMARK   11  A    between atoms: C_30  and  O_31 
ROOT
ATOM      1  C   LIG d   1      10.737   4.335  -2.592  0.00  0.00     0.139 A 
ATOM      2  C   LIG d   1      11.936   3.737  -2.830  0.00  0.00     0.029 A 
ATOM      3  C   LIG d   1      11.984   2.558  -3.611  0.00  0.00     0.197 A 
ATOM      4  O   LIG d   1      13.041   1.995  -3.844  0.00  0.00    -0.287 OA
ATOM      5  C   LIG d   1      10.708   2.036  -4.130  0.00  0.00     0.105 A 
ATOM      6  C   LIG d   1      10.662   0.874  -4.911  0.00  0.00     0.135 A 
ATOM      7  C   LIG d   1       9.444   0.418  -5.379  0.00  0.00     0.023 A 
ATOM      8  C   LIG d   1       8.275   1.104  -5.072  0.00  0.00     0.131 A 
ATOM      9  C   LIG d   1       8.314   2.257  -4.304  0.00  0.00     0.024 A 
ATOM     10  C   LIG d   1       9.526   2.731  -3.825  0.00  0.00     0.146 A 
ATOM     11  O   LIG d   1       9.581   3.849  -3.071  0.00  0.00    -0.454 OA
ATOM     12  H   LIG d   1      12.844   4.160  -2.427  0.00  0.00     0.069 H 
ATOM     13  H   LIG d   1       9.400  -0.478  -5.983  0.00  0.00     0.069 H 
ATOM     14  H   LIG d   1       7.400   2.785  -4.075  0.00  0.00     0.069 H 
ENDROOT
BRANCH   8  15
ATOM     15  O   LIG d   1       7.084   0.643  -5.533  0.00  0.00    -0.461 OA
BRANCH  15  16
ATOM     16  C   LIG d   1       6.286  -0.118  -4.625  0.00  0.00     0.231 C 
ATOM     17  H   LIG d   1       6.923  -0.539  -3.846  0.00  0.00     0.108 H 
ATOM     18  O   LIG d   1       5.303   0.731  -4.028  0.00  0.00    -0.331 OA
ATOM     19  C   LIG d   1       4.463   0.073  -3.078  0.00  0.00     0.114 C 
ATOM     20  C   LIG d   1       3.691  -1.052  -3.773  0.00  0.00     0.112 C 
ATOM     21  H   LIG d   1       5.076  -0.347  -2.279  0.00  0.00     0.065 H 
ATOM     22  C   LIG d   1       4.688  -2.024  -4.414  0.00  0.00     0.115 C 
ATOM     23  H   LIG d   1       3.084  -1.583  -3.042  0.00  0.00     0.065 H 
ATOM     24  C   LIG d   1       5.588  -1.250  -5.382  0.00  0.00     0.145 C 
ATOM     25  H   LIG d   1       5.299  -2.484  -3.637  0.00  0.00     0.065 H 
ATOM     26  H   LIG d   1       4.982  -0.831  -6.186  0.00  0.00     0.068 H 
BRANCH  19  27
ATOM     27  C   LIG d   1       3.474   1.079  -2.486  0.00  0.00     0.073 C 
ATOM     28  H   LIG d   1       2.495   0.610  -2.387  0.00  0.00     0.058 H 
ATOM     29  H   LIG d   1       3.824   1.401  -1.506  0.00  0.00     0.058 H 
BRANCH  27  30
ATOM     30  O   LIG d   1       3.374   2.213  -3.351  0.00  0.00    -0.392 OA
ATOM     31  H   LIG d   1       2.712   2.118  -4.049  0.00  0.00     0.209 HD
ENDBRANCH  27  30
ENDBRANCH  19  27
BRANCH  20  32
ATOM     32  O   LIG d   1       2.848  -0.498  -4.784  0.00  0.00    -0.387 OA
ATOM     33  H   LIG d   1       2.696   0.453  -4.692  0.00  0.00     0.210 HD
ENDBRANCH  20  32
BRANCH  22  34
ATOM     34  O   LIG d   1       3.976  -3.036  -5.128  0.00  0.00    -0.386 OA
ATOM     35  H   LIG d   1       4.176  -3.064  -6.074  0.00  0.00     0.210 HD
ENDBRANCH  22  34
BRANCH  24  36
ATOM     36  O   LIG d   1       6.568  -2.133  -5.932  0.00  0.00    -0.383 OA
ATOM     37  H   LIG d   1       7.400  -2.154  -5.438  0.00  0.00     0.210 HD
ENDBRANCH  24  36
ENDBRANCH  15  16
ENDBRANCH   8  15
BRANCH   6  38
ATOM     38  O   LIG d   1      11.803   0.203  -5.207  0.00  0.00    -0.506 OA
ATOM     39  H   LIG d   1      12.357   0.639  -5.869  0.00  0.00     0.292 HD
ENDBRANCH   6  38
BRANCH   1  40
ATOM     40  C   LIG d   1      10.706   5.563  -1.776  0.00  0.00     0.021 A 
ATOM     41  C   LIG d   1      11.812   5.913  -0.996  0.00  0.00    -0.047 A 
ATOM     42  C   LIG d   1      11.783   7.062  -0.234  0.00  0.00    -0.016 A 
ATOM     43  H   LIG d   1      12.690   5.284  -0.991  0.00  0.00     0.063 H 
ATOM     44  C   LIG d   1      10.655   7.871  -0.238  0.00  0.00     0.158 A 
ATOM     45  H   LIG d   1      12.637   7.331   0.367  0.00  0.00     0.066 H 
ATOM     46  C   LIG d   1       9.548   7.528  -1.013  0.00  0.00     0.159 A 
ATOM     47  C   LIG d   1       9.574   6.383  -1.784  0.00  0.00    -0.006 A 
ATOM     48  H   LIG d   1       8.719   6.118  -2.388  0.00  0.00     0.066 H 
BRANCH  44  49
ATOM     49  O   LIG d   1      10.630   9.001   0.516  0.00  0.00    -0.503 OA
ATOM     50  H   LIG d   1      10.381   8.853   1.439  0.00  0.00     0.292 HD
ENDBRANCH  44  49
BRANCH  46  51
ATOM     51  O   LIG d   1       8.446   8.324  -1.014  0.00  0.00    -0.503 OA
ATOM     52  H   LIG d   1       8.035   8.429  -0.145  0.00  0.00     0.292 HD
ENDBRANCH  46  51
ENDBRANCH   1  40
TORSDOF 11
ENDMDL
MODEL 5
REMARK VINA RESULT:      -7.0      1.831      8.689
REMARK  11 active torsions:
REMARK  status: ('A' for Active; 'I' for Inactive)
REMARK    1  A    between atoms: C_3  and  O_37 
REMARK    2  A    between atoms: C_4  and  O_36 
REMARK    3  A    between atoms: C_6  and  C_7 
REMARK    4  A    between atoms: C_12  and  O_35 
REMARK    5  A    between atoms: C_14  and  O_18 
REMARK    6  A    between atoms: O_18  and  C_19 
REMARK    7  A    between atoms: C_21  and  O_34 
REMARK    8  A    between atoms: C_23  and  O_33 
REMARK    9  A    between atoms: C_25  and  O_32 
REMARK   10  A    between atoms: C_27  and  C_30 
REMARK   11  A    between atoms: C_30  and  O_31 
ROOT
ATOM      1  C   LIG d   1       7.403   0.714  -3.992  0.00  0.00     0.139 A 
ATOM      2  C   LIG d   1       8.170  -0.144  -4.718  0.00  0.00     0.029 A 
ATOM      3  C   LIG d   1       9.484   0.233  -5.083  0.00  0.00     0.197 A 
ATOM      4  O   LIG d   1      10.199  -0.511  -5.734  0.00  0.00    -0.287 OA
ATOM      5  C   LIG d   1       9.954   1.560  -4.650  0.00  0.00     0.105 A 
ATOM      6  C   LIG d   1      11.240   2.016  -4.967  0.00  0.00     0.135 A 
ATOM      7  C   LIG d   1      11.642   3.267  -4.541  0.00  0.00     0.023 A 
ATOM      8  C   LIG d   1      10.774   4.068  -3.807  0.00  0.00     0.131 A 
ATOM      9  C   LIG d   1       9.503   3.622  -3.484  0.00  0.00     0.024 A 
ATOM     10  C   LIG d   1       9.080   2.369  -3.903  0.00  0.00     0.146 A 
ATOM     11  O   LIG d   1       7.844   1.921  -3.603  0.00  0.00    -0.454 OA
ATOM     12  H   LIG d   1       7.779  -1.107  -5.012  0.00  0.00     0.069 H 
ATOM     13  H   LIG d   1      12.633   3.626  -4.781  0.00  0.00     0.069 H 
ATOM     14  H   LIG d   1       8.839   4.251  -2.910  0.00  0.00     0.069 H 
ENDROOT
BRANCH   8  15
ATOM     15  O   LIG d   1      11.179   5.298  -3.397  0.00  0.00    -0.461 OA
BRANCH  15  16
ATOM     16  C   LIG d   1      10.450   5.899  -2.326  0.00  0.00     0.231 C 
ATOM     17  H   LIG d   1       9.502   5.379  -2.195  0.00  0.00     0.108 H 
ATOM     18  O   LIG d   1      11.213   5.809  -1.121  0.00  0.00    -0.331 OA
ATOM     19  C   LIG d   1      10.561   6.361   0.024  0.00  0.00     0.114 C 
ATOM     20  C   LIG d   1      10.300   7.852  -0.206  0.00  0.00     0.112 C 
ATOM     21  H   LIG d   1       9.613   5.846   0.186  0.00  0.00     0.065 H 
ATOM     22  C   LIG d   1       9.455   8.024  -1.473  0.00  0.00     0.115 C 
ATOM     23  H   LIG d   1       9.764   8.264   0.648  0.00  0.00     0.065 H 
ATOM     24  C   LIG d   1      10.184   7.371  -2.652  0.00  0.00     0.145 C 
ATOM     25  H   LIG d   1       8.486   7.544  -1.333  0.00  0.00     0.065 H 
ATOM     26  H   LIG d   1      11.132   7.883  -2.822  0.00  0.00     0.068 H 
BRANCH  19  27
ATOM     27  C   LIG d   1      11.454   6.184   1.255  0.00  0.00     0.073 C 
ATOM     28  H   LIG d   1      11.175   5.269   1.778  0.00  0.00     0.058 H 
ATOM     29  H   LIG d   1      12.496   6.121   0.942  0.00  0.00     0.058 H 
BRANCH  27  30
ATOM     30  O   LIG d   1      11.286   7.303   2.129  0.00  0.00    -0.392 OA
ATOM     31  H   LIG d   1      11.557   8.147   1.742  0.00  0.00     0.209 HD
ENDBRANCH  27  30
ENDBRANCH  19  27
BRANCH  20  32
ATOM     32  O   LIG d   1      11.544   8.535  -0.366  0.00  0.00    -0.387 OA
ATOM     33  H   LIG d   1      12.015   8.694   0.464  0.00  0.00     0.210 HD
ENDBRANCH  20  32
BRANCH  22  34
ATOM     34  O   LIG d   1       9.269   9.415  -1.738  0.00  0.00    -0.386 OA
ATOM     35  H   LIG d   1       9.173   9.628  -2.676  0.00  0.00     0.210 HD
ENDBRANCH  22  34
BRANCH  24  36
ATOM     36  O   LIG d   1       9.373   7.462  -3.825  0.00  0.00    -0.383 OA
ATOM     37  H   LIG d   1       9.204   6.612  -4.254  0.00  0.00     0.210 HD
ENDBRANCH  24  36
ENDBRANCH  15  16
ENDBRANCH   8  15
BRANCH   6  38
ATOM     38  O   LIG d   1      12.083   1.235  -5.687  0.00  0.00    -0.506 OA
ATOM     39  H   LIG d   1      12.640   0.656  -5.149  0.00  0.00     0.292 HD
ENDBRANCH   6  38
BRANCH   1  40
ATOM     40  C   LIG d   1       6.036   0.304  -3.620  0.00  0.00     0.021 A 
ATOM     41  C   LIG d   1       5.317   1.043  -2.677  0.00  0.00    -0.047 A 
ATOM     42  C   LIG d   1       4.038   0.660  -2.331  0.00  0.00    -0.016 A 
ATOM     43  H   LIG d   1       5.761   1.914  -2.220  0.00  0.00     0.063 H 
ATOM     44  C   LIG d   1       3.465  -0.460  -2.916  0.00  0.00     0.158 A 
ATOM     45  H   LIG d   1       3.484   1.231  -1.602  0.00  0.00     0.066 H 
ATOM     46  C   LIG d   1       4.176  -1.202  -3.857  0.00  0.00     0.159 A 
ATOM     47  C   LIG d   1       5.455  -0.820  -4.214  0.00  0.00    -0.006 A 
ATOM     48  H   LIG d   1       6.006  -1.391  -4.946  0.00  0.00     0.066 H 
BRANCH  44  49
ATOM     49  O   LIG d   1       2.205  -0.835  -2.570  0.00  0.00    -0.503 OA
ATOM     50  H   LIG d   1       1.689  -1.200  -3.302  0.00  0.00     0.292 HD
ENDBRANCH  44  49
BRANCH  46  51
ATOM     51  O   LIG d   1       3.611  -2.299  -4.429  0.00  0.00    -0.503 OA
ATOM     52  H   LIG d   1       2.876  -2.096  -5.026  0.00  0.00     0.292 HD
ENDBRANCH  46  51
ENDBRANCH   1  40
TORSDOF 11
ENDMDL
MODEL 6
REMARK VINA RESULT:      -7.0      3.112      3.583
REMARK  11 active torsions:
REMARK  status: ('A' for Active; 'I' for Inactive)
REMARK    1  A    between atoms: C_3  and  O_37 
REMARK    2  A    between atoms: C_4  and  O_36 
REMARK    3  A    between atoms: C_6  and  C_7 
REMARK    4  A    between atoms: C_12  and  O_35 
REMARK    5  A    between atoms: C_14  and  O_18 
REMARK    6  A    between atoms: O_18  and  C_19 
REMARK    7  A    between atoms: C_21  and  O_34 
REMARK    8  A    between atoms: C_23  and  O_33 
REMARK    9  A    between atoms: C_25  and  O_32 
REMARK   10  A    between atoms: C_27  and  C_30 
REMARK   11  A    between atoms: C_30  and  O_31 
ROOT
ATOM      1  C   LIG d   1      10.105   7.301  -4.807  0.00  0.00     0.139 A 
ATOM      2  C   LIG d   1      10.890   7.292  -3.697  0.00  0.00     0.029 A 
ATOM      3  C   LIG d   1      11.021   6.101  -2.944  0.00  0.00     0.197 A 
ATOM      4  O   LIG d   1      11.717   6.057  -1.943  0.00  0.00    -0.287 OA
ATOM      5  C   LIG d   1      10.283   4.916  -3.415  0.00  0.00     0.105 A 
ATOM      6  C   LIG d   1      10.354   3.696  -2.732  0.00  0.00     0.135 A 
ATOM      7  C   LIG d   1       9.646   2.608  -3.207  0.00  0.00     0.023 A 
ATOM      8  C   LIG d   1       8.866   2.728  -4.353  0.00  0.00     0.131 A 
ATOM      9  C   LIG d   1       8.796   3.930  -5.037  0.00  0.00     0.024 A 
ATOM     10  C   LIG d   1       9.499   5.033  -4.575  0.00  0.00     0.146 A 
ATOM     11  O   LIG d   1       9.437   6.213  -5.227  0.00  0.00    -0.454 OA
ATOM     12  H   LIG d   1      11.412   8.187  -3.393  0.00  0.00     0.069 H 
ATOM     13  H   LIG d   1       9.695   1.663  -2.686  0.00  0.00     0.069 H 
ATOM     14  H   LIG d   1       8.191   4.010  -5.928  0.00  0.00     0.069 H 
ENDROOT
BRANCH   8  15
ATOM     15  O   LIG d   1       8.171   1.653  -4.807  0.00  0.00    -0.461 OA
BRANCH  15  16
ATOM     16  C   LIG d   1       7.506   0.850  -3.832  0.00  0.00     0.231 C 
ATOM     17  H   LIG d   1       8.085   0.846  -2.908  0.00  0.00     0.108 H 
ATOM     18  O   LIG d   1       6.207   1.388  -3.576  0.00  0.00    -0.331 OA
ATOM     19  C   LIG d   1       5.462   0.671  -2.590  0.00  0.00     0.114 C 
ATOM     20  C   LIG d   1       5.243  -0.769  -3.064  0.00  0.00     0.112 C 
ATOM     21  H   LIG d   1       6.015   0.664  -1.650  0.00  0.00     0.065 H 
ATOM     22  C   LIG d   1       6.603  -1.423  -3.330  0.00  0.00     0.115 C 
ATOM     23  H   LIG d   1       4.713  -1.329  -2.295  0.00  0.00     0.065 H 
ATOM     24  C   LIG d   1       7.370  -0.582  -4.355  0.00  0.00     0.145 C 
ATOM     25  H   LIG d   1       7.171  -1.472  -2.401  0.00  0.00     0.065 H 
ATOM     26  H   LIG d   1       6.825  -0.574  -5.300  0.00  0.00     0.068 H 
BRANCH  19  27
ATOM     27  C   LIG d   1       4.107   1.350  -2.380  0.00  0.00     0.073 C 
ATOM     28  H   LIG d   1       3.368   0.603  -2.089  0.00  0.00     0.058 H 
ATOM     29  H   LIG d   1       4.193   2.100  -1.595  0.00  0.00     0.058 H 
BRANCH  27  30
ATOM     30  O   LIG d   1       3.696   1.979  -3.596  0.00  0.00    -0.392 OA
ATOM     31  H   LIG d   1       3.580   2.936  -3.524  0.00  0.00     0.209 HD
ENDBRANCH  27  30
ENDBRANCH  19  27
BRANCH  20  32
ATOM     32  O   LIG d   1       4.473  -0.762  -4.268  0.00  0.00    -0.387 OA
ATOM     33  H   LIG d   1       4.177  -1.639  -4.550  0.00  0.00     0.210 HD
ENDBRANCH  20  32
BRANCH  22  34
ATOM     34  O   LIG d   1       6.407  -2.742  -3.843  0.00  0.00    -0.386 OA
ATOM     35  H   LIG d   1       6.102  -3.379  -3.183  0.00  0.00     0.210 HD
ENDBRANCH  22  34
BRANCH  24  36
ATOM     36  O   LIG d   1       8.668  -1.143  -4.557  0.00  0.00    -0.383 OA
ATOM     37  H   LIG d   1       8.680  -2.110  -4.578  0.00  0.00     0.210 HD
ENDBRANCH  24  36
ENDBRANCH  15  16
ENDBRANCH   8  15
BRANCH   6  38
ATOM     38  O   LIG d   1      11.111   3.582  -1.612  0.00  0.00    -0.506 OA
ATOM     39  H   LIG d   1      12.042   3.814  -1.741  0.00  0.00     0.292 HD
ENDBRANCH   6  38
BRANCH   1  40
ATOM     40  C   LIG d   1       9.980   8.551  -5.579  0.00  0.00     0.021 A 
ATOM     41  C   LIG d   1       9.683   9.750  -4.925  0.00  0.00    -0.047 A 
ATOM     42  C   LIG d   1       9.568  10.918  -5.648  0.00  0.00    -0.016 A 
ATOM     43  H   LIG d   1       9.544   9.761  -3.855  0.00  0.00     0.063 H 
ATOM     44  C   LIG d   1       9.744  10.907  -7.024  0.00  0.00     0.158 A 
ATOM     45  H   LIG d   1       9.338  11.844  -5.142  0.00  0.00     0.066 H 
ATOM     46  C   LIG d   1      10.040   9.714  -7.683  0.00  0.00     0.159 A 
ATOM     47  C   LIG d   1      10.164   8.541  -6.965  0.00  0.00    -0.006 A 
ATOM     48  H   LIG d   1      10.398   7.618  -7.474  0.00  0.00     0.066 H 
BRANCH  44  49
ATOM     49  O   LIG d   1       9.628  12.061  -7.732  0.00  0.00    -0.503 OA
ATOM     50  H   LIG d   1       8.731  12.424  -7.748  0.00  0.00     0.292 HD
ENDBRANCH  44  49
BRANCH  46  51
ATOM     51  O   LIG d   1      10.213   9.707  -9.032  0.00  0.00    -0.503 OA
ATOM     52  H   LIG d   1       9.620   9.103  -9.501  0.00  0.00     0.292 HD
ENDBRANCH  46  51
ENDBRANCH   1  40
TORSDOF 11
ENDMDL
MODEL 7
REMARK VINA RESULT:      -6.8      6.623     11.094
REMARK  11 active torsions:
REMARK  status: ('A' for Active; 'I' for Inactive)
REMARK    1  A    between atoms: C_3  and  O_37 
REMARK    2  A    between atoms: C_4  and  O_36 
REMARK    3  A    between atoms: C_6  and  C_7 
REMARK    4  A    between atoms: C_12  and  O_35 
REMARK    5  A    between atoms: C_14  and  O_18 
REMARK    6  A    between atoms: O_18  and  C_19 
REMARK    7  A    between atoms: C_21  and  O_34 
REMARK    8  A    between atoms: C_23  and  O_33 
REMARK    9  A    between atoms: C_25  and  O_32 
REMARK   10  A    between atoms: C_27  and  C_30 
REMARK   11  A    between atoms: C_30  and  O_31 
ROOT
ATOM      1  C   LIG d   1       4.487  -2.312  -5.468  0.00  0.00     0.139 A 
ATOM      2  C   LIG d   1       4.301  -1.778  -6.705  0.00  0.00     0.029 A 
ATOM      3  C   LIG d   1       4.202  -2.634  -7.827  0.00  0.00     0.197 A 
ATOM      4  O   LIG d   1       4.035  -2.188  -8.951  0.00  0.00    -0.287 OA
ATOM      5  C   LIG d   1       4.310  -4.083  -7.587  0.00  0.00     0.105 A 
ATOM      6  C   LIG d   1       4.225  -5.003  -8.639  0.00  0.00     0.135 A 
ATOM      7  C   LIG d   1       4.332  -6.355  -8.370  0.00  0.00     0.023 A 
ATOM      8  C   LIG d   1       4.527  -6.795  -7.066  0.00  0.00     0.131 A 
ATOM      9  C   LIG d   1       4.607  -5.891  -6.020  0.00  0.00     0.024 A 
ATOM     10  C   LIG d   1       4.503  -4.530  -6.268  0.00  0.00     0.146 A 
ATOM     11  O   LIG d   1       4.584  -3.636  -5.262  0.00  0.00    -0.454 OA
ATOM     12  H   LIG d   1       4.227  -0.708  -6.829  0.00  0.00     0.069 H 
ATOM     13  H   LIG d   1       4.267  -7.072  -9.177  0.00  0.00     0.069 H 
ATOM     14  H   LIG d   1       4.755  -6.245  -5.010  0.00  0.00     0.069 H 
ENDROOT
BRANCH   8  15
ATOM     15  O   LIG d   1       4.636  -8.126  -6.815  0.00  0.00    -0.461 OA
BRANCH  15  16
ATOM     16  C   LIG d   1       4.984  -8.510  -5.485  0.00  0.00     0.231 C 
ATOM     17  H   LIG d   1       5.038  -7.623  -4.852  0.00  0.00     0.108 H 
ATOM     18  O   LIG d   1       3.992  -9.401  -4.971  0.00  0.00    -0.331 OA
ATOM     19  C   LIG d   1       4.231  -9.829  -3.629  0.00  0.00     0.114 C 
ATOM     20  C   LIG d   1       5.561 -10.586  -3.564  0.00  0.00     0.112 C 
ATOM     21  H   LIG d   1       4.275  -8.959  -2.972  0.00  0.00     0.065 H 
ATOM     22  C   LIG d   1       6.683  -9.675  -4.074  0.00  0.00     0.115 C 
ATOM     23  H   LIG d   1       5.766 -10.874  -2.534  0.00  0.00     0.065 H 
ATOM     24  C   LIG d   1       6.344  -9.212  -5.495  0.00  0.00     0.145 C 
ATOM     25  H   LIG d   1       6.773  -8.807  -3.420  0.00  0.00     0.065 H 
ATOM     26  H   LIG d   1       6.302 -10.077  -6.158  0.00  0.00     0.068 H 
BRANCH  19  27
ATOM     27  C   LIG d   1       3.097 -10.752  -3.177  0.00  0.00     0.073 C 
ATOM     28  H   LIG d   1       3.504 -11.548  -2.553  0.00  0.00     0.058 H 
ATOM     29  H   LIG d   1       2.367 -10.179  -2.606  0.00  0.00     0.058 H 
BRANCH  27  30
ATOM     30  O   LIG d   1       2.463 -11.322  -4.324  0.00  0.00    -0.392 OA
ATOM     31  H   LIG d   1       1.577 -10.976  -4.496  0.00  0.00     0.209 HD
ENDBRANCH  27  30
ENDBRANCH  19  27
BRANCH  20  32
ATOM     32  O   LIG d   1       5.485 -11.754  -4.383  0.00  0.00    -0.387 OA
ATOM     33  H   LIG d   1       4.582 -12.035  -4.584  0.00  0.00     0.210 HD
ENDBRANCH  20  32
BRANCH  22  34
ATOM     34  O   LIG d   1       7.915 -10.397  -4.087  0.00  0.00    -0.386 OA
ATOM     35  H   LIG d   1       8.617  -9.986  -3.564  0.00  0.00     0.210 HD
ENDBRANCH  22  34
BRANCH  24  36
ATOM     36  O   LIG d   1       7.348  -8.305  -5.954  0.00  0.00    -0.383 OA
ATOM     37  H   LIG d   1       8.223  -8.704  -6.053  0.00  0.00     0.210 HD
ENDBRANCH  24  36
ENDBRANCH  15  16
ENDBRANCH   8  15
BRANCH   6  38
ATOM     38  O   LIG d   1       4.039  -4.572  -9.911  0.00  0.00    -0.506 OA
ATOM     39  H   LIG d   1       4.851  -4.532 -10.437  0.00  0.00     0.292 HD
ENDBRANCH   6  38
BRANCH   1  40
ATOM     40  C   LIG d   1       4.587  -1.405  -4.310  0.00  0.00     0.021 A 
ATOM     41  C   LIG d   1       3.833  -1.653  -3.159  0.00  0.00    -0.047 A 
ATOM     42  C   LIG d   1       3.928  -0.805  -2.077  0.00  0.00    -0.016 A 
ATOM     43  H   LIG d   1       3.176  -2.509  -3.118  0.00  0.00     0.063 H 
ATOM     44  C   LIG d   1       4.771   0.297  -2.127  0.00  0.00     0.158 A 
ATOM     45  H   LIG d   1       3.345  -0.997  -1.189  0.00  0.00     0.066 H 
ATOM     46  C   LIG d   1       5.526   0.550  -3.271  0.00  0.00     0.159 A 
ATOM     47  C   LIG d   1       5.441  -0.299  -4.356  0.00  0.00    -0.006 A 
ATOM     48  H   LIG d   1       6.029  -0.107  -5.242  0.00  0.00     0.066 H 
BRANCH  44  49
ATOM     49  O   LIG d   1       4.861   1.130  -1.058  0.00  0.00    -0.503 OA
ATOM     50  H   LIG d   1       4.762   2.067  -1.280  0.00  0.00     0.292 HD
ENDBRANCH  44  49
BRANCH  46  51
ATOM     51  O   LIG d   1       6.351   1.630  -3.316  0.00  0.00    -0.503 OA
ATOM     52  H   LIG d   1       5.895   2.467  -3.479  0.00  0.00     0.292 HD
ENDBRANCH  46  51
ENDBRANCH   1  40
TORSDOF 11
ENDMDL
MODEL 8
REMARK VINA RESULT:      -6.7      3.827      8.848
REMARK  11 active torsions:
REMARK  status: ('A' for Active; 'I' for Inactive)
REMARK    1  A    between atoms: C_3  and  O_37 
REMARK    2  A    between atoms: C_4  and  O_36 
REMARK    3  A    between atoms: C_6  and  C_7 
REMARK    4  A    between atoms: C_12  and  O_35 
REMARK    5  A    between atoms: C_14  and  O_18 
REMARK    6  A    between atoms: O_18  and  C_19 
REMARK    7  A    between atoms: C_21  and  O_34 
REMARK    8  A    between atoms: C_23  and  O_33 
REMARK    9  A    between atoms: C_25  and  O_32 
REMARK   10  A    between atoms: C_27  and  C_30 
REMARK   11  A    between atoms: C_30  and  O_31 
ROOT
ATOM      1  C   LIG d   1       9.926   5.122  -6.317  0.00  0.00     0.139 A 
ATOM      2  C   LIG d   1      10.358   3.852  -6.088  0.00  0.00     0.029 A 
ATOM      3  C   LIG d   1      10.628   3.435  -4.763  0.00  0.00     0.197 A 
ATOM      4  O   LIG d   1      11.016   2.304  -4.521  0.00  0.00    -0.287 OA
ATOM      5  C   LIG d   1      10.423   4.420  -3.687  0.00  0.00     0.105 A 
ATOM      6  C   LIG d   1      10.667   4.094  -2.347  0.00  0.00     0.135 A 
ATOM      7  C   LIG d   1      10.462   5.048  -1.367  0.00  0.00     0.023 A 
ATOM      8  C   LIG d   1      10.023   6.321  -1.712  0.00  0.00     0.131 A 
ATOM      9  C   LIG d   1       9.775   6.649  -3.035  0.00  0.00     0.024 A 
ATOM     10  C   LIG d   1       9.975   5.706  -4.033  0.00  0.00     0.146 A 
ATOM     11  O   LIG d   1       9.744   6.011  -5.327  0.00  0.00    -0.454 OA
ATOM     12  H   LIG d   1      10.492   3.167  -6.912  0.00  0.00     0.069 H 
ATOM     13  H   LIG d   1      10.647   4.804  -0.331  0.00  0.00     0.069 H 
ATOM     14  H   LIG d   1       9.431   7.640  -3.291  0.00  0.00     0.069 H 
ENDROOT
BRANCH   8  15
ATOM     15  O   LIG d   1       9.831   7.251  -0.741  0.00  0.00    -0.461 OA
BRANCH  15  16
ATOM     16  C   LIG d   1      10.475   8.514  -0.914  0.00  0.00     0.231 C 
ATOM     17  H   LIG d   1      11.345   8.393  -1.560  0.00  0.00     0.108 H 
ATOM     18  O   LIG d   1       9.562   9.436  -1.514  0.00  0.00    -0.331 OA
ATOM     19  C   LIG d   1      10.116  10.731  -1.757  0.00  0.00     0.114 C 
ATOM     20  C   LIG d   1      10.547  11.358  -0.429  0.00  0.00     0.112 C 
ATOM     21  H   LIG d   1      10.983  10.638  -2.414  0.00  0.00     0.065 H 
ATOM     22  C   LIG d   1      11.556  10.434   0.260  0.00  0.00     0.115 C 
ATOM     23  H   LIG d   1      11.009  12.326  -0.616  0.00  0.00     0.065 H 
ATOM     24  C   LIG d   1      10.920   9.052   0.447  0.00  0.00     0.145 C 
ATOM     25  H   LIG d   1      12.449  10.343  -0.358  0.00  0.00     0.065 H 
ATOM     26  H   LIG d   1      10.055   9.136   1.106  0.00  0.00     0.068 H 
BRANCH  19  27
ATOM     27  C   LIG d   1       9.064  11.620  -2.423  0.00  0.00     0.073 C 
ATOM     28  H   LIG d   1       9.097  12.615  -1.980  0.00  0.00     0.058 H 
ATOM     29  H   LIG d   1       9.269  11.690  -3.491  0.00  0.00     0.058 H 
BRANCH  27  30
ATOM     30  O   LIG d   1       7.767  11.052  -2.225  0.00  0.00    -0.392 OA
ATOM     31  H   LIG d   1       7.222  11.029  -3.023  0.00  0.00     0.209 HD
ENDBRANCH  27  30
ENDBRANCH  19  27
BRANCH  20  32
ATOM     32  O   LIG d   1       9.404  11.528   0.411  0.00  0.00    -0.387 OA
ATOM     33  H   LIG d   1       8.776  10.793   0.374  0.00  0.00     0.210 HD
ENDBRANCH  20  32
BRANCH  22  34
ATOM     34  O   LIG d   1      11.907  10.975   1.535  0.00  0.00    -0.386 OA
ATOM     35  H   LIG d   1      11.981  10.313   2.236  0.00  0.00     0.210 HD
ENDBRANCH  22  34
BRANCH  24  36
ATOM     36  O   LIG d   1      11.877   8.161   1.024  0.00  0.00    -0.383 OA
ATOM     37  H   LIG d   1      11.506   7.558   1.683  0.00  0.00     0.210 HD
ENDBRANCH  24  36
ENDBRANCH  15  16
ENDBRANCH   8  15
BRANCH   6  38
ATOM     38  O   LIG d   1      11.099   2.853  -2.013  0.00  0.00    -0.506 OA
ATOM     39  H   LIG d   1      12.049   2.720  -2.137  0.00  0.00     0.292 HD
ENDBRANCH   6  38
BRANCH   1  40
ATOM     40  C   LIG d   1       9.650   5.539  -7.704  0.00  0.00     0.021 A 
ATOM     41  C   LIG d   1       9.341   4.581  -8.674  0.00  0.00    -0.047 A 
ATOM     42  C   LIG d   1       9.082   4.972  -9.970  0.00  0.00    -0.016 A 
ATOM     43  H   LIG d   1       9.306   3.535  -8.408  0.00  0.00     0.063 H 
ATOM     44  C   LIG d   1       9.129   6.315 -10.315  0.00  0.00     0.158 A 
ATOM     45  H   LIG d   1       8.844   4.231 -10.719  0.00  0.00     0.066 H 
ATOM     46  C   LIG d   1       9.435   7.276  -9.353  0.00  0.00     0.159 A 
ATOM     47  C   LIG d   1       9.689   6.892  -8.051  0.00  0.00    -0.006 A 
ATOM     48  H   LIG d   1       9.923   7.636  -7.303  0.00  0.00     0.066 H 
BRANCH  44  49
ATOM     49  O   LIG d   1       8.874   6.696 -11.595  0.00  0.00    -0.503 OA
ATOM     50  H   LIG d   1       7.944   6.898 -11.767  0.00  0.00     0.292 HD
ENDBRANCH  44  49
BRANCH  46  51
ATOM     51  O   LIG d   1       9.479   8.592  -9.694  0.00  0.00    -0.503 OA
ATOM     52  H   LIG d   1      10.040   8.781 -10.459  0.00  0.00     0.292 HD
ENDBRANCH  46  51
ENDBRANCH   1  40
TORSDOF 11
ENDMDL
MODEL 9
REMARK VINA RESULT:      -6.7      7.549     13.796
REMARK  11 active torsions:
REMARK  status: ('A' for Active; 'I' for Inactive)
REMARK    1  A    between atoms: C_3  and  O_37 
REMARK    2  A    between atoms: C_4  and  O_36 
REMARK    3  A    between atoms: C_6  and  C_7 
REMARK    4  A    between atoms: C_12  and  O_35 
REMARK    5  A    between atoms: C_14  and  O_18 
REMARK    6  A    between atoms: O_18  and  C_19 
REMARK    7  A    between atoms: C_21  and  O_34 
REMARK    8  A    between atoms: C_23  and  O_33 
REMARK    9  A    between atoms: C_25  and  O_32 
REMARK   10  A    between atoms: C_27  and  C_30 
REMARK   11  A    between atoms: C_30  and  O_31 
ROOT
ATOM      1  C   LIG d   1       1.039  -3.063 -11.201  0.00  0.00     0.139 A 
ATOM      2  C   LIG d   1       1.633  -2.634 -12.347  0.00  0.00     0.029 A 
ATOM      3  C   LIG d   1       2.507  -1.521 -12.306  0.00  0.00     0.197 A 
ATOM      4  O   LIG d   1       3.057  -1.109 -13.314  0.00  0.00    -0.287 OA
ATOM      5  C   LIG d   1       2.726  -0.879 -10.998  0.00  0.00     0.105 A 
ATOM      6  C   LIG d   1       3.573   0.228 -10.865  0.00  0.00     0.135 A 
ATOM      7  C   LIG d   1       3.751   0.802  -9.620  0.00  0.00     0.023 A 
ATOM      8  C   LIG d   1       3.089   0.286  -8.511  0.00  0.00     0.131 A 
ATOM      9  C   LIG d   1       2.254  -0.812  -8.635  0.00  0.00     0.024 A 
ATOM     10  C   LIG d   1       2.061  -1.402  -9.876  0.00  0.00     0.146 A 
ATOM     11  O   LIG d   1       1.247  -2.468 -10.015  0.00  0.00    -0.454 OA
ATOM     12  H   LIG d   1       1.440  -3.139 -13.282  0.00  0.00     0.069 H 
ATOM     13  H   LIG d   1       4.404   1.656  -9.508  0.00  0.00     0.069 H 
ATOM     14  H   LIG d   1       1.748  -1.207  -7.766  0.00  0.00     0.069 H 
ENDROOT
BRANCH   8  15
ATOM     15  O   LIG d   1       3.269   0.861  -7.294  0.00  0.00    -0.461 OA
BRANCH  15  16
ATOM     16  C   LIG d   1       3.770   0.027  -6.249  0.00  0.00     0.231 C 
ATOM     17  H   LIG d   1       3.643  -1.020  -6.526  0.00  0.00     0.108 H 
ATOM     18  O   LIG d   1       5.158   0.300  -6.046  0.00  0.00    -0.331 OA
ATOM     19  C   LIG d   1       5.769  -0.503  -5.034  0.00  0.00     0.114 C 
ATOM     20  C   LIG d   1       5.081  -0.241  -3.691  0.00  0.00     0.112 C 
ATOM     21  H   LIG d   1       5.667  -1.557  -5.295  0.00  0.00     0.065 H 
ATOM     22  C   LIG d   1       3.585  -0.545  -3.826  0.00  0.00     0.115 C 
ATOM     23  H   LIG d   1       5.515  -0.885  -2.927  0.00  0.00     0.065 H 
ATOM     24  C   LIG d   1       3.001   0.309  -4.956  0.00  0.00     0.145 C 
ATOM     25  H   LIG d   1       3.447  -1.601  -4.059  0.00  0.00     0.065 H 
ATOM     26  H   LIG d   1       3.095   1.365  -4.699  0.00  0.00     0.068 H 
BRANCH  19  27
ATOM     27  C   LIG d   1       7.253  -0.145  -4.924  0.00  0.00     0.073 C 
ATOM     28  H   LIG d   1       7.822  -0.733  -5.643  0.00  0.00     0.058 H 
ATOM     29  H   LIG d   1       7.387   0.916  -5.133  0.00  0.00     0.058 H 
BRANCH  27  30
ATOM     30  O   LIG d   1       7.714  -0.432  -3.601  0.00  0.00    -0.392 OA
ATOM     31  H   LIG d   1       7.009  -0.490  -2.943  0.00  0.00     0.209 HD
ENDBRANCH  27  30
ENDBRANCH  19  27
BRANCH  20  32
ATOM     32  O   LIG d   1       5.258   1.127  -3.323  0.00  0.00    -0.387 OA
ATOM     33  H   LIG d   1       5.953   1.271  -2.666  0.00  0.00     0.210 HD
ENDBRANCH  20  32
BRANCH  22  34
ATOM     34  O   LIG d   1       2.922  -0.233  -2.599  0.00  0.00    -0.386 OA
ATOM     35  H   LIG d   1       2.083  -0.699  -2.477  0.00  0.00     0.210 HD
ENDBRANCH  22  34
BRANCH  24  36
ATOM     36  O   LIG d   1       1.622  -0.018  -5.138  0.00  0.00    -0.383 OA
ATOM     37  H   LIG d   1       1.140   0.608  -5.695  0.00  0.00     0.210 HD
ENDBRANCH  24  36
ENDBRANCH  15  16
ENDBRANCH   8  15
BRANCH   6  38
ATOM     38  O   LIG d   1       4.215   0.733 -11.948  0.00  0.00    -0.506 OA
ATOM     39  H   LIG d   1       4.175   1.697 -12.016  0.00  0.00     0.292 HD
ENDBRANCH   6  38
BRANCH   1  40
ATOM     40  C   LIG d   1       0.131  -4.223 -11.263  0.00  0.00     0.021 A 
ATOM     41  C   LIG d   1      -0.874  -4.274 -12.234  0.00  0.00    -0.047 A 
ATOM     42  C   LIG d   1      -1.721  -5.360 -12.291  0.00  0.00    -0.016 A 
ATOM     43  H   LIG d   1      -0.986  -3.464 -12.938  0.00  0.00     0.063 H 
ATOM     44  C   LIG d   1      -1.580  -6.403 -11.386  0.00  0.00     0.158 A 
ATOM     45  H   LIG d   1      -2.497  -5.398 -13.041  0.00  0.00     0.066 H 
ATOM     46  C   LIG d   1      -0.580  -6.358 -10.416  0.00  0.00     0.159 A 
ATOM     47  C   LIG d   1       0.277  -5.277 -10.357  0.00  0.00    -0.006 A 
ATOM     48  H   LIG d   1       1.054  -5.243  -9.608  0.00  0.00     0.066 H 
BRANCH  44  49
ATOM     49  O   LIG d   1      -2.419  -7.470 -11.447  0.00  0.00    -0.503 OA
ATOM     50  H   LIG d   1      -1.966  -8.322 -11.517  0.00  0.00     0.292 HD
ENDBRANCH  44  49
BRANCH  46  51
ATOM     51  O   LIG d   1      -0.445  -7.382  -9.532  0.00  0.00    -0.503 OA
ATOM     52  H   LIG d   1      -1.168  -7.448  -8.892  0.00  0.00     0.292 HD
ENDBRANCH  46  51
ENDBRANCH   1  40
TORSDOF 11
ENDMDL
MODEL 10
REMARK VINA RESULT:      -6.4      7.596     11.364
REMARK  11 active torsions:
REMARK  status: ('A' for Active; 'I' for Inactive)
REMARK    1  A    between atoms: C_3  and  O_37 
REMARK    2  A    between atoms: C_4  and  O_36 
REMARK    3  A    between atoms: C_6  and  C_7 
REMARK    4  A    between atoms: C_12  and  O_35 
REMARK    5  A    between atoms: C_14  and  O_18 
REMARK    6  A    between atoms: O_18  and  C_19 
REMARK    7  A    between atoms: C_21  and  O_34 
REMARK    8  A    between atoms: C_23  and  O_33 
REMARK    9  A    between atoms: C_25  and  O_32 
REMARK   10  A    between atoms: C_27  and  C_30 
REMARK   11  A    between atoms: C_30  and  O_31 
ROOT
ATOM      1  C   LIG d   1       3.791  -0.175  -7.428  0.00  0.00     0.139 A 
ATOM      2  C   LIG d   1       4.690   0.554  -8.142  0.00  0.00     0.029 A 
ATOM      3  C   LIG d   1       4.621   0.554  -9.556  0.00  0.00     0.197 A 
ATOM      4  O   LIG d   1       5.411   1.197 -10.229  0.00  0.00    -0.287 OA
ATOM      5  C   LIG d   1       3.560  -0.251 -10.184  0.00  0.00     0.105 A 
ATOM      6  C   LIG d   1       3.418  -0.309 -11.576  0.00  0.00     0.135 A 
ATOM      7  C   LIG d   1       2.408  -1.077 -12.125  0.00  0.00     0.023 A 
ATOM      8  C   LIG d   1       1.545  -1.790 -11.301  0.00  0.00     0.131 A 
ATOM      9  C   LIG d   1       1.676  -1.733  -9.923  0.00  0.00     0.024 A 
ATOM     10  C   LIG d   1       2.683  -0.968  -9.352  0.00  0.00     0.146 A 
ATOM     11  O   LIG d   1       2.828  -0.906  -8.012  0.00  0.00    -0.454 OA
ATOM     12  H   LIG d   1       5.450   1.128  -7.635  0.00  0.00     0.069 H 
ATOM     13  H   LIG d   1       2.292  -1.127 -13.198  0.00  0.00     0.069 H 
ATOM     14  H   LIG d   1       0.997  -2.287  -9.292  0.00  0.00     0.069 H 
ENDROOT
BRANCH   8  15
ATOM     15  O   LIG d   1       0.560  -2.545 -11.852  0.00  0.00    -0.461 OA
BRANCH  15  16
ATOM     16  C   LIG d   1       0.684  -3.963 -11.732  0.00  0.00     0.231 C 
ATOM     17  H   LIG d   1       0.294  -4.439 -12.632  0.00  0.00     0.108 H 
ATOM     18  O   LIG d   1       2.062  -4.308 -11.569  0.00  0.00    -0.331 OA
ATOM     19  C   LIG d   1       2.302  -5.713 -11.466  0.00  0.00     0.114 C 
ATOM     20  C   LIG d   1       1.574  -6.265 -10.237  0.00  0.00     0.112 C 
ATOM     21  H   LIG d   1       1.933  -6.213 -12.362  0.00  0.00     0.065 H 
ATOM     22  C   LIG d   1       0.078  -5.957 -10.358  0.00  0.00     0.115 C 
ATOM     23  H   LIG d   1       1.721  -7.343 -10.180  0.00  0.00     0.065 H 
ATOM     24  C   LIG d   1      -0.109  -4.444 -10.515  0.00  0.00     0.145 C 
ATOM     25  H   LIG d   1      -0.329  -6.467 -11.231  0.00  0.00     0.065 H 
ATOM     26  H   LIG d   1       0.255  -3.938  -9.620  0.00  0.00     0.068 H 
BRANCH  19  27
ATOM     27  C   LIG d   1       3.805  -5.965 -11.323  0.00  0.00     0.073 C 
ATOM     28  H   LIG d   1       3.968  -6.835 -10.688  0.00  0.00     0.058 H 
ATOM     29  H   LIG d   1       4.238  -6.146 -12.307  0.00  0.00     0.058 H 
BRANCH  27  30
ATOM     30  O   LIG d   1       4.425  -4.820 -10.733  0.00  0.00    -0.392 OA
ATOM     31  H   LIG d   1       4.959  -5.021  -9.952  0.00  0.00     0.209 HD
ENDBRANCH  27  30
ENDBRANCH  19  27
BRANCH  20  32
ATOM     32  O   LIG d   1       2.095  -5.649  -9.057  0.00  0.00    -0.387 OA
ATOM     33  H   LIG d   1       2.949  -5.213  -9.185  0.00  0.00     0.210 HD
ENDBRANCH  20  32
BRANCH  22  34
ATOM     34  O   LIG d   1      -0.598  -6.403  -9.181  0.00  0.00    -0.386 OA
ATOM     35  H   LIG d   1      -1.561  -6.316  -9.224  0.00  0.00     0.210 HD
ENDBRANCH  22  34
BRANCH  24  36
ATOM     36  O   LIG d   1      -1.495  -4.152 -10.701  0.00  0.00    -0.383 OA
ATOM     37  H   LIG d   1      -1.893  -3.655  -9.972  0.00  0.00     0.210 HD
ENDBRANCH  24  36
ENDBRANCH  15  16
ENDBRANCH   8  15
BRANCH   6  38
ATOM     38  O   LIG d   1       4.264   0.383 -12.379  0.00  0.00    -0.506 OA
ATOM     39  H   LIG d   1       5.088  -0.083 -12.579  0.00  0.00     0.292 HD
ENDBRANCH   6  38
BRANCH   1  40
ATOM     40  C   LIG d   1       3.878  -0.165  -5.956  0.00  0.00     0.021 A 
ATOM     41  C   LIG d   1       2.775   0.229  -5.193  0.00  0.00    -0.047 A 
ATOM     42  C   LIG d   1       2.857   0.238  -3.817  0.00  0.00    -0.016 A 
ATOM     43  H   LIG d   1       1.859   0.526  -5.681  0.00  0.00     0.063 H 
ATOM     44  C   LIG d   1       4.034  -0.142  -3.186  0.00  0.00     0.158 A 
ATOM     45  H   LIG d   1       2.005   0.542  -3.228  0.00  0.00     0.066 H 
ATOM     46  C   LIG d   1       5.138  -0.536  -3.941  0.00  0.00     0.159 A 
ATOM     47  C   LIG d   1       5.061  -0.553  -5.320  0.00  0.00    -0.006 A 
ATOM     48  H   LIG d   1       5.914  -0.862  -5.906  0.00  0.00     0.066 H 
BRANCH  44  49
ATOM     49  O   LIG d   1       4.111  -0.130  -1.830  0.00  0.00    -0.503 OA
ATOM     50  H   LIG d   1       4.547  -0.908  -1.454  0.00  0.00     0.292 HD
ENDBRANCH  44  49
BRANCH  46  51
ATOM     51  O   LIG d   1       6.289  -0.908  -3.320  0.00  0.00    -0.503 OA
ATOM     52  H   LIG d   1       6.153  -1.335  -2.463  0.00  0.00     0.292 HD
ENDBRANCH  46  51
ENDBRANCH   1  40
TORSDOF 11
ENDMDL
