MODEL 1
REMARK VINA RESULT:      -7.2      0.000      0.000
REMARK  4 active torsions:
REMARK  status: ('A' for Active; 'I' for Inactive)
REMARK    1  A    between atoms: C_7  and  N_21 
REMARK    2  A    between atoms: C_9  and  N_11 
REMARK    3  A    between atoms: N_11  and  C_12 
REMARK    4  A    between atoms: C_16  and  C_18 
ROOT
ATOM      1  C   LIG d   1       5.106   0.425  -1.837  0.00  0.00    -0.061 A 
ATOM      2  C   LIG d   1       4.023   1.294  -1.927  0.00  0.00    -0.056 A 
ATOM      3  C   LIG d   1       3.257   1.348  -3.053  0.00  0.00     0.011 A 
ATOM      4  C   LIG d   1       3.564   0.516  -4.139  0.00  0.00     0.219 A 
ATOM      5  C   LIG d   1       4.666  -0.366  -4.046  0.00  0.00     0.086 A 
ATOM      6  C   LIG d   1       5.432  -0.398  -2.875  0.00  0.00    -0.045 A 
ATOM      7  C   LIG d   1       4.959  -1.198  -5.156  0.00  0.00     0.138 A 
ATOM      8  N   LIG d   1       4.186  -1.108  -6.229  0.00  0.00    -0.156 NA
ATOM      9  C   LIG d   1       3.159  -0.264  -6.274  0.00  0.00     0.379 A 
ATOM     10  N   LIG d   1       2.842   0.531  -5.270  0.00  0.00    -0.174 N 
ATOM     11  H   LIG d   1       5.699   0.405  -0.934  0.00  0.00     0.062 H 
ATOM     12  H   LIG d   1       3.784   1.935  -1.091  0.00  0.00     0.062 H 
ATOM     13  H   LIG d   1       2.418   2.026  -3.109  0.00  0.00     0.068 H 
ATOM     14  H   LIG d   1       6.276  -1.067  -2.794  0.00  0.00     0.063 H 
ATOM     15  H   LIG d   1       2.084   1.130  -5.349  0.00  0.00     0.457 HD
ENDROOT
BRANCH   9  16
ATOM     16  N   LIG d   1       2.389  -0.218  -7.424  0.00  0.00    -0.244 N 
ATOM     17  H   LIG d   1       1.505  -0.618  -7.432  0.00  0.00     0.159 HD
BRANCH  16  18
ATOM     18  C   LIG d   1       2.885   0.406  -8.573  0.00  0.00     0.038 A 
ATOM     19  C   LIG d   1       3.084  -0.329  -9.730  0.00  0.00    -0.032 A 
ATOM     20  C   LIG d   1       3.575   0.301 -10.875  0.00  0.00    -0.001 A 
ATOM     21  H   LIG d   1       2.858  -1.385  -9.747  0.00  0.00     0.064 H 
ATOM     22  C   LIG d   1       3.871   1.666 -10.843  0.00  0.00    -0.053 A 
ATOM     23  C   LIG d   1       3.674   2.387  -9.684  0.00  0.00    -0.059 A 
ATOM     24  H   LIG d   1       4.254   2.157 -11.726  0.00  0.00     0.062 H 
ATOM     25  C   LIG d   1       3.183   1.764  -8.552  0.00  0.00    -0.040 A 
ATOM     26  H   LIG d   1       3.903   3.443  -9.660  0.00  0.00     0.062 H 
ATOM     27  H   LIG d   1       3.030   2.334  -7.647  0.00  0.00     0.064 H 
BRANCH  20  28
ATOM     28  C   LIG d   1       3.784  -0.473 -12.115  0.00  0.00     0.072 C 
ATOM     29  O   LIG d   1       4.887  -0.499 -12.640  0.00  0.00    -0.545 OA
ATOM     30  O   LIG d   1       2.853  -1.088 -12.616  0.00  0.00    -0.545 OA
ENDBRANCH  20  28
ENDBRANCH  16  18
ENDBRANCH   9  16
BRANCH   7  31
ATOM     31  N   LIG d   1       6.021  -2.076  -5.123  0.00  0.00    -0.342 N 
ATOM     32  H   LIG d   1       6.138  -2.722  -5.838  0.00  0.00     0.144 HD
ATOM     33  H   LIG d   1       6.651  -2.047  -4.387  0.00  0.00     0.144 HD
ENDBRANCH   7  31
TORSDOF 4
ENDMDL
MODEL 2
REMARK VINA RESULT:      -7.1      3.155      6.863
REMARK  4 active torsions:
REMARK  status: ('A' for Active; 'I' for Inactive)
REMARK    1  A    between atoms: C_7  and  N_21 
REMARK    2  A    between atoms: C_9  and  N_11 
REMARK    3  A    between atoms: N_11  and  C_12 
REMARK    4  A    between atoms: C_16  and  C_18 
ROOT
ATOM      1  C   LIG d   1       3.787  -0.143 -11.834  0.00  0.00    -0.061 A 
ATOM      2  C   LIG d   1       3.377  -1.415 -11.445  0.00  0.00    -0.056 A 
ATOM      3  C   LIG d   1       3.038  -1.679 -10.152  0.00  0.00     0.011 A 
ATOM      4  C   LIG d   1       3.103  -0.657  -9.196  0.00  0.00     0.219 A 
ATOM      5  C   LIG d   1       3.521   0.637  -9.593  0.00  0.00     0.086 A 
ATOM      6  C   LIG d   1       3.862   0.875 -10.928  0.00  0.00    -0.045 A 
ATOM      7  C   LIG d   1       3.580   1.656  -8.610  0.00  0.00     0.138 A 
ATOM      8  N   LIG d   1       3.241   1.349  -7.366  0.00  0.00    -0.156 NA
ATOM      9  C   LIG d   1       2.854   0.121  -7.036  0.00  0.00     0.379 A 
ATOM     10  N   LIG d   1       2.780  -0.865  -7.911  0.00  0.00    -0.174 N 
ATOM     11  H   LIG d   1       4.055   0.039 -12.864  0.00  0.00     0.062 H 
ATOM     12  H   LIG d   1       3.326  -2.205 -12.181  0.00  0.00     0.062 H 
ATOM     13  H   LIG d   1       2.720  -2.671  -9.865  0.00  0.00     0.068 H 
ATOM     14  H   LIG d   1       4.183   1.859 -11.241  0.00  0.00     0.063 H 
ATOM     15  H   LIG d   1       2.492  -1.745  -7.624  0.00  0.00     0.457 HD
ENDROOT
BRANCH   9  16
ATOM     16  N   LIG d   1       2.512  -0.136  -5.719  0.00  0.00    -0.244 N 
ATOM     17  H   LIG d   1       1.642  -0.510  -5.507  0.00  0.00     0.159 HD
BRANCH  16  18
ATOM     18  C   LIG d   1       3.422   0.141  -4.694  0.00  0.00     0.038 A 
ATOM     19  C   LIG d   1       4.679  -0.443  -4.706  0.00  0.00    -0.032 A 
ATOM     20  C   LIG d   1       5.584  -0.159  -3.682  0.00  0.00    -0.001 A 
ATOM     21  H   LIG d   1       4.958  -1.114  -5.506  0.00  0.00     0.064 H 
ATOM     22  C   LIG d   1       5.214   0.704  -2.648  0.00  0.00    -0.053 A 
ATOM     23  C   LIG d   1       3.958   1.275  -2.643  0.00  0.00    -0.059 A 
ATOM     24  H   LIG d   1       5.910   0.923  -1.852  0.00  0.00     0.062 H 
ATOM     25  C   LIG d   1       3.064   0.998  -3.659  0.00  0.00    -0.040 A 
ATOM     26  H   LIG d   1       3.673   1.942  -1.843  0.00  0.00     0.062 H 
ATOM     27  H   LIG d   1       2.083   1.449  -3.651  0.00  0.00     0.064 H 
BRANCH  20  28
ATOM     28  C   LIG d   1       6.928  -0.772  -3.690  0.00  0.00     0.072 C 
ATOM     29  O   LIG d   1       7.857  -0.199  -4.239  0.00  0.00    -0.545 OA
ATOM     30  O   LIG d   1       7.110  -1.852  -3.146  0.00  0.00    -0.545 OA
ENDBRANCH  20  28
ENDBRANCH  16  18
ENDBRANCH   9  16
BRANCH   7  31
ATOM     31  N   LIG d   1       3.981   2.933  -8.937  0.00  0.00    -0.342 N 
ATOM     32  H   LIG d   1       3.368   3.678  -8.825  0.00  0.00     0.144 HD
ATOM     33  H   LIG d   1       4.876   3.089  -9.277  0.00  0.00     0.144 HD
ENDBRANCH   7  31
TORSDOF 4
ENDMDL
MODEL 3
REMARK VINA RESULT:      -6.9      1.917      2.477
REMARK  4 active torsions:
REMARK  status: ('A' for Active; 'I' for Inactive)
REMARK    1  A    between atoms: C_7  and  N_21 
REMARK    2  A    between atoms: C_9  and  N_11 
REMARK    3  A    between atoms: N_11  and  C_12 
REMARK    4  A    between atoms: C_16  and  C_18 
ROOT
ATOM      1  C   LIG d   1       4.615   0.817  -1.728  0.00  0.00    -0.061 A 
ATOM      2  C   LIG d   1       3.479   1.291  -2.380  0.00  0.00    -0.056 A 
ATOM      3  C   LIG d   1       3.107   0.793  -3.594  0.00  0.00     0.011 A 
ATOM      4  C   LIG d   1       3.878  -0.210  -4.197  0.00  0.00     0.219 A 
ATOM      5  C   LIG d   1       5.033  -0.690  -3.532  0.00  0.00     0.086 A 
ATOM      6  C   LIG d   1       5.387  -0.159  -2.288  0.00  0.00    -0.045 A 
ATOM      7  C   LIG d   1       5.798  -1.704  -4.161  0.00  0.00     0.138 A 
ATOM      8  N   LIG d   1       5.396  -2.155  -5.340  0.00  0.00    -0.156 NA
ATOM      9  C   LIG d   1       4.304  -1.675  -5.930  0.00  0.00     0.379 A 
ATOM     10  N   LIG d   1       3.555  -0.732  -5.389  0.00  0.00    -0.174 N 
ATOM     11  H   LIG d   1       4.890   1.231  -0.770  0.00  0.00     0.062 H 
ATOM     12  H   LIG d   1       2.884   2.064  -1.917  0.00  0.00     0.062 H 
ATOM     13  H   LIG d   1       2.223   1.169  -4.087  0.00  0.00     0.068 H 
ATOM     14  H   LIG d   1       6.267  -0.518  -1.773  0.00  0.00     0.063 H 
ATOM     15  H   LIG d   1       2.768  -0.414  -5.857  0.00  0.00     0.457 HD
ENDROOT
BRANCH   9  16
ATOM     16  N   LIG d   1       3.936  -2.188  -7.162  0.00  0.00    -0.244 N 
ATOM     17  H   LIG d   1       3.877  -3.147  -7.291  0.00  0.00     0.159 HD
BRANCH  16  18
ATOM     18  C   LIG d   1       3.647  -1.321  -8.221  0.00  0.00     0.038 A 
ATOM     19  C   LIG d   1       4.263  -0.082  -8.291  0.00  0.00    -0.032 A 
ATOM     20  C   LIG d   1       3.974   0.777  -9.353  0.00  0.00    -0.001 A 
ATOM     21  H   LIG d   1       4.966   0.218  -7.527  0.00  0.00     0.064 H 
ATOM     22  C   LIG d   1       3.059   0.385 -10.333  0.00  0.00    -0.053 A 
ATOM     23  C   LIG d   1       2.447  -0.850 -10.251  0.00  0.00    -0.059 A 
ATOM     24  H   LIG d   1       2.829   1.047 -11.154  0.00  0.00     0.062 H 
ATOM     25  C   LIG d   1       2.737  -1.702  -9.202  0.00  0.00    -0.040 A 
ATOM     26  H   LIG d   1       1.740  -1.152 -11.009  0.00  0.00     0.062 H 
ATOM     27  H   LIG d   1       2.257  -2.667  -9.143  0.00  0.00     0.064 H 
BRANCH  20  28
ATOM     28  C   LIG d   1       4.630   2.096  -9.439  0.00  0.00     0.072 C 
ATOM     29  O   LIG d   1       3.960   3.117  -9.382  0.00  0.00    -0.545 OA
ATOM     30  O   LIG d   1       5.845   2.168  -9.566  0.00  0.00    -0.545 OA
ENDBRANCH  20  28
ENDBRANCH  16  18
ENDBRANCH   9  16
BRANCH   7  31
ATOM     31  N   LIG d   1       6.932  -2.209  -3.563  0.00  0.00    -0.342 N 
ATOM     32  H   LIG d   1       6.934  -3.115  -3.214  0.00  0.00     0.144 HD
ATOM     33  H   LIG d   1       7.728  -1.660  -3.491  0.00  0.00     0.144 HD
ENDBRANCH   7  31
TORSDOF 4
ENDMDL
MODEL 4
REMARK VINA RESULT:      -6.7      6.064      7.597
REMARK  4 active torsions:
REMARK  status: ('A' for Active; 'I' for Inactive)
REMARK    1  A    between atoms: C_7  and  N_21 
REMARK    2  A    between atoms: C_9  and  N_11 
REMARK    3  A    between atoms: N_11  and  C_12 
REMARK    4  A    between atoms: C_16  and  C_18 
ROOT
ATOM      1  C   LIG d   1       4.466  -1.304  -2.016  0.00  0.00    -0.061 A 
ATOM      2  C   LIG d   1       4.205   0.044  -1.788  0.00  0.00    -0.056 A 
ATOM      3  C   LIG d   1       4.972   1.015  -2.361  0.00  0.00     0.011 A 
ATOM      4  C   LIG d   1       6.041   0.653  -3.191  0.00  0.00     0.219 A 
ATOM      5  C   LIG d   1       6.305  -0.719  -3.421  0.00  0.00     0.086 A 
ATOM      6  C   LIG d   1       5.499  -1.690  -2.819  0.00  0.00    -0.045 A 
ATOM      7  C   LIG d   1       7.392  -1.062  -4.264  0.00  0.00     0.138 A 
ATOM      8  N   LIG d   1       8.108  -0.083  -4.796  0.00  0.00    -0.156 NA
ATOM      9  C   LIG d   1       7.825   1.194  -4.554  0.00  0.00     0.379 A 
ATOM     10  N   LIG d   1       6.825   1.569  -3.778  0.00  0.00    -0.174 N 
ATOM     11  H   LIG d   1       3.846  -2.053  -1.547  0.00  0.00     0.062 H 
ATOM     12  H   LIG d   1       3.381   0.326  -1.149  0.00  0.00     0.062 H 
ATOM     13  H   LIG d   1       4.756   2.058  -2.176  0.00  0.00     0.068 H 
ATOM     14  H   LIG d   1       5.693  -2.740  -2.988  0.00  0.00     0.063 H 
ATOM     15  H   LIG d   1       6.657   2.512  -3.630  0.00  0.00     0.457 HD
ENDROOT
BRANCH   9  16
ATOM     16  N   LIG d   1       8.611   2.171  -5.140  0.00  0.00    -0.244 N 
ATOM     17  H   LIG d   1       8.708   2.202  -6.104  0.00  0.00     0.159 HD
BRANCH  16  18
ATOM     18  C   LIG d   1       9.264   3.115  -4.341  0.00  0.00     0.038 A 
ATOM     19  C   LIG d   1       9.133   4.467  -4.618  0.00  0.00    -0.032 A 
ATOM     20  C   LIG d   1       9.784   5.405  -3.815  0.00  0.00    -0.001 A 
ATOM     21  H   LIG d   1       8.528   4.794  -5.452  0.00  0.00     0.064 H 
ATOM     22  C   LIG d   1      10.570   4.974  -2.743  0.00  0.00    -0.053 A 
ATOM     23  C   LIG d   1      10.697   3.626  -2.480  0.00  0.00    -0.059 A 
ATOM     24  H   LIG d   1      11.079   5.696  -2.121  0.00  0.00     0.062 H 
ATOM     25  C   LIG d   1      10.049   2.698  -3.272  0.00  0.00    -0.040 A 
ATOM     26  H   LIG d   1      11.306   3.294  -1.651  0.00  0.00     0.062 H 
ATOM     27  H   LIG d   1      10.151   1.644  -3.060  0.00  0.00     0.064 H 
BRANCH  20  28
ATOM     28  C   LIG d   1       9.646   6.847  -4.099  0.00  0.00     0.072 C 
ATOM     29  O   LIG d   1       9.175   7.218  -5.164  0.00  0.00    -0.545 OA
ATOM     30  O   LIG d   1      10.002   7.671  -3.267  0.00  0.00    -0.545 OA
ENDBRANCH  20  28
ENDBRANCH  16  18
ENDBRANCH   9  16
BRANCH   7  31
ATOM     31  N   LIG d   1       7.698  -2.381  -4.523  0.00  0.00    -0.342 N 
ATOM     32  H   LIG d   1       8.065  -2.940  -3.820  0.00  0.00     0.144 HD
ATOM     33  H   LIG d   1       7.546  -2.750  -5.407  0.00  0.00     0.144 HD
ENDBRANCH   7  31
TORSDOF 4
ENDMDL
MODEL 5
REMARK VINA RESULT:      -6.7      5.581      7.784
REMARK  4 active torsions:
REMARK  status: ('A' for Active; 'I' for Inactive)
REMARK    1  A    between atoms: C_7  and  N_21 
REMARK    2  A    between atoms: C_9  and  N_11 
REMARK    3  A    between atoms: N_11  and  C_12 
REMARK    4  A    between atoms: C_16  and  C_18 
ROOT
ATOM      1  C   LIG d   1       3.077   0.214  -2.786  0.00  0.00    -0.061 A 
ATOM      2  C   LIG d   1       4.094   0.967  -2.206  0.00  0.00    -0.056 A 
ATOM      3  C   LIG d   1       5.397   0.576  -2.297  0.00  0.00     0.011 A 
ATOM      4  C   LIG d   1       5.719  -0.603  -2.983  0.00  0.00     0.219 A 
ATOM      5  C   LIG d   1       4.683  -1.368  -3.571  0.00  0.00     0.086 A 
ATOM      6  C   LIG d   1       3.357  -0.938  -3.461  0.00  0.00    -0.045 A 
ATOM      7  C   LIG d   1       5.032  -2.557  -4.260  0.00  0.00     0.138 A 
ATOM      8  N   LIG d   1       6.312  -2.896  -4.319  0.00  0.00    -0.156 NA
ATOM      9  C   LIG d   1       7.254  -2.147  -3.752  0.00  0.00     0.379 A 
ATOM     10  N   LIG d   1       6.985  -1.032  -3.100  0.00  0.00    -0.174 N 
ATOM     11  H   LIG d   1       2.052   0.544  -2.697  0.00  0.00     0.062 H 
ATOM     12  H   LIG d   1       3.847   1.876  -1.678  0.00  0.00     0.062 H 
ATOM     13  H   LIG d   1       6.176   1.171  -1.843  0.00  0.00     0.068 H 
ATOM     14  H   LIG d   1       2.559  -1.515  -3.906  0.00  0.00     0.063 H 
ATOM     15  H   LIG d   1       7.705  -0.519  -2.703  0.00  0.00     0.457 HD
ENDROOT
BRANCH   9  16
ATOM     16  N   LIG d   1       8.573  -2.555  -3.849  0.00  0.00    -0.244 N 
ATOM     17  H   LIG d   1       9.246  -1.946  -4.194  0.00  0.00     0.159 HD
BRANCH  16  18
ATOM     18  C   LIG d   1       8.938  -3.844  -3.449  0.00  0.00     0.038 A 
ATOM     19  C   LIG d   1       8.820  -4.904  -4.334  0.00  0.00    -0.032 A 
ATOM     20  C   LIG d   1       9.190  -6.189  -3.930  0.00  0.00    -0.001 A 
ATOM     21  H   LIG d   1       8.445  -4.737  -5.334  0.00  0.00     0.064 H 
ATOM     22  C   LIG d   1       9.667  -6.398  -2.634  0.00  0.00    -0.053 A 
ATOM     23  C   LIG d   1       9.776  -5.336  -1.760  0.00  0.00    -0.059 A 
ATOM     24  H   LIG d   1       9.951  -7.390  -2.316  0.00  0.00     0.062 H 
ATOM     25  C   LIG d   1       9.414  -4.064  -2.161  0.00  0.00    -0.040 A 
ATOM     26  H   LIG d   1      10.145  -5.499  -0.758  0.00  0.00     0.062 H 
ATOM     27  H   LIG d   1       9.502  -3.237  -1.473  0.00  0.00     0.064 H 
BRANCH  20  28
ATOM     28  C   LIG d   1       9.074  -7.323  -4.868  0.00  0.00     0.072 C 
ATOM     29  O   LIG d   1       8.100  -8.060  -4.818  0.00  0.00    -0.545 OA
ATOM     30  O   LIG d   1       9.951  -7.523  -5.697  0.00  0.00    -0.545 OA
ENDBRANCH  20  28
ENDBRANCH  16  18
ENDBRANCH   9  16
BRANCH   7  31
ATOM     31  N   LIG d   1       4.067  -3.343  -4.850  0.00  0.00    -0.342 N 
ATOM     32  H   LIG d   1       4.324  -4.030  -5.486  0.00  0.00     0.144 HD
ATOM     33  H   LIG d   1       3.132  -3.210  -4.630  0.00  0.00     0.144 HD
ENDBRANCH   7  31
TORSDOF 4
ENDMDL
MODEL 6
REMARK VINA RESULT:      -6.7      4.928      6.610
REMARK  4 active torsions:
REMARK  status: ('A' for Active; 'I' for Inactive)
REMARK    1  A    between atoms: C_7  and  N_21 
REMARK    2  A    between atoms: C_9  and  N_11 
REMARK    3  A    between atoms: N_11  and  C_12 
REMARK    4  A    between atoms: C_16  and  C_18 
ROOT
ATOM      1  C   LIG d   1       4.969   0.762  -2.186  0.00  0.00    -0.061 A 
ATOM      2  C   LIG d   1       4.289  -0.284  -1.569  0.00  0.00    -0.056 A 
ATOM      3  C   LIG d   1       4.029  -1.444  -2.236  0.00  0.00     0.011 A 
ATOM      4  C   LIG d   1       4.450  -1.587  -3.565  0.00  0.00     0.219 A 
ATOM      5  C   LIG d   1       5.140  -0.521  -4.192  0.00  0.00     0.086 A 
ATOM      6  C   LIG d   1       5.392   0.655  -3.479  0.00  0.00    -0.045 A 
ATOM      7  C   LIG d   1       5.556  -0.688  -5.537  0.00  0.00     0.138 A 
ATOM      8  N   LIG d   1       5.278  -1.833  -6.143  0.00  0.00    -0.156 NA
ATOM      9  C   LIG d   1       4.627  -2.809  -5.517  0.00  0.00     0.379 A 
ATOM     10  N   LIG d   1       4.218  -2.707  -4.266  0.00  0.00    -0.174 N 
ATOM     11  H   LIG d   1       5.159   1.672  -1.636  0.00  0.00     0.062 H 
ATOM     12  H   LIG d   1       3.964  -0.176  -0.544  0.00  0.00     0.062 H 
ATOM     13  H   LIG d   1       3.501  -2.248  -1.744  0.00  0.00     0.068 H 
ATOM     14  H   LIG d   1       5.918   1.475  -3.948  0.00  0.00     0.063 H 
ATOM     15  H   LIG d   1       3.746  -3.445  -3.851  0.00  0.00     0.457 HD
ENDROOT
BRANCH   9  16
ATOM     16  N   LIG d   1       4.367  -3.981  -6.205  0.00  0.00    -0.244 N 
ATOM     17  H   LIG d   1       3.669  -4.005  -6.877  0.00  0.00     0.159 HD
BRANCH  16  18
ATOM     18  C   LIG d   1       5.114  -5.132  -5.932  0.00  0.00     0.038 A 
ATOM     19  C   LIG d   1       4.481  -6.360  -5.825  0.00  0.00    -0.032 A 
ATOM     20  C   LIG d   1       5.233  -7.505  -5.556  0.00  0.00    -0.001 A 
ATOM     21  H   LIG d   1       3.410  -6.431  -5.950  0.00  0.00     0.064 H 
ATOM     22  C   LIG d   1       6.616  -7.404  -5.389  0.00  0.00    -0.053 A 
ATOM     23  C   LIG d   1       7.235  -6.176  -5.493  0.00  0.00    -0.059 A 
ATOM     24  H   LIG d   1       7.201  -8.287  -5.178  0.00  0.00     0.062 H 
ATOM     25  C   LIG d   1       6.492  -5.042  -5.764  0.00  0.00    -0.040 A 
ATOM     26  H   LIG d   1       8.305  -6.099  -5.364  0.00  0.00     0.062 H 
ATOM     27  H   LIG d   1       6.982  -4.084  -5.845  0.00  0.00     0.064 H 
BRANCH  20  28
ATOM     28  C   LIG d   1       4.568  -8.819  -5.446  0.00  0.00     0.072 C 
ATOM     29  O   LIG d   1       4.478  -9.543  -6.427  0.00  0.00    -0.545 OA
ATOM     30  O   LIG d   1       4.108  -9.183  -4.373  0.00  0.00    -0.545 OA
ENDBRANCH  20  28
ENDBRANCH  16  18
ENDBRANCH   9  16
BRANCH   7  31
ATOM     31  N   LIG d   1       6.231   0.315  -6.199  0.00  0.00    -0.342 N 
ATOM     32  H   LIG d   1       7.159   0.189  -6.453  0.00  0.00     0.144 HD
ATOM     33  H   LIG d   1       5.778   1.146  -6.411  0.00  0.00     0.144 HD
ENDBRANCH   7  31
TORSDOF 4
ENDMDL
MODEL 7
REMARK VINA RESULT:      -6.6      1.076      2.410
REMARK  4 active torsions:
REMARK  status: ('A' for Active; 'I' for Inactive)
REMARK    1  A    between atoms: C_7  and  N_21 
REMARK    2  A    between atoms: C_9  and  N_11 
REMARK    3  A    between atoms: N_11  and  C_12 
REMARK    4  A    between atoms: C_16  and  C_18 
ROOT
ATOM      1  C   LIG d   1       6.847  -1.957  -3.220  0.00  0.00    -0.061 A 
ATOM      2  C   LIG d   1       6.835  -2.800  -4.328  0.00  0.00    -0.056 A 
ATOM      3  C   LIG d   1       5.954  -2.605  -5.349  0.00  0.00     0.011 A 
ATOM      4  C   LIG d   1       5.043  -1.541  -5.285  0.00  0.00     0.219 A 
ATOM      5  C   LIG d   1       5.056  -0.686  -4.156  0.00  0.00     0.086 A 
ATOM      6  C   LIG d   1       5.974  -0.913  -3.125  0.00  0.00    -0.045 A 
ATOM      7  C   LIG d   1       4.126   0.383  -4.111  0.00  0.00     0.138 A 
ATOM      8  N   LIG d   1       3.289   0.531  -5.128  0.00  0.00    -0.156 NA
ATOM      9  C   LIG d   1       3.311  -0.296  -6.170  0.00  0.00     0.379 A 
ATOM     10  N   LIG d   1       4.155  -1.306  -6.262  0.00  0.00    -0.174 N 
ATOM     11  H   LIG d   1       7.553  -2.136  -2.422  0.00  0.00     0.062 H 
ATOM     12  H   LIG d   1       7.536  -3.620  -4.380  0.00  0.00     0.062 H 
ATOM     13  H   LIG d   1       5.957  -3.265  -6.204  0.00  0.00     0.068 H 
ATOM     14  H   LIG d   1       5.992  -0.266  -2.260  0.00  0.00     0.063 H 
ATOM     15  H   LIG d   1       4.134  -1.883  -7.042  0.00  0.00     0.457 HD
ENDROOT
BRANCH   9  16
ATOM     16  N   LIG d   1       2.411  -0.089  -7.200  0.00  0.00    -0.244 N 
ATOM     17  H   LIG d   1       1.472  -0.298  -7.074  0.00  0.00     0.159 HD
BRANCH  16  18
ATOM     18  C   LIG d   1       2.855   0.424  -8.424  0.00  0.00     0.038 A 
ATOM     19  C   LIG d   1       2.936  -0.403  -9.533  0.00  0.00    -0.032 A 
ATOM     20  C   LIG d   1       3.376   0.116 -10.752  0.00  0.00    -0.001 A 
ATOM     21  H   LIG d   1       2.659  -1.444  -9.455  0.00  0.00     0.064 H 
ATOM     22  C   LIG d   1       3.740   1.461 -10.843  0.00  0.00    -0.053 A 
ATOM     23  C   LIG d   1       3.660   2.274  -9.731  0.00  0.00    -0.059 A 
ATOM     24  H   LIG d   1       4.084   1.866 -11.784  0.00  0.00     0.062 H 
ATOM     25  C   LIG d   1       3.220   1.761  -8.525  0.00  0.00    -0.040 A 
ATOM     26  H   LIG d   1       3.942   3.314  -9.803  0.00  0.00     0.062 H 
ATOM     27  H   LIG d   1       3.158   2.403  -7.658  0.00  0.00     0.064 H 
BRANCH  20  28
ATOM     28  C   LIG d   1       3.460  -0.756 -11.941  0.00  0.00     0.072 C 
ATOM     29  O   LIG d   1       2.439  -1.119 -12.506  0.00  0.00    -0.545 OA
ATOM     30  O   LIG d   1       4.552  -1.114 -12.361  0.00  0.00    -0.545 OA
ENDBRANCH  20  28
ENDBRANCH  16  18
ENDBRANCH   9  16
BRANCH   7  31
ATOM     31  N   LIG d   1       4.091   1.247  -3.038  0.00  0.00    -0.342 N 
ATOM     32  H   LIG d   1       3.943   0.901  -2.143  0.00  0.00     0.144 HD
ATOM     33  H   LIG d   1       4.216   2.198  -3.176  0.00  0.00     0.144 HD
ENDBRANCH   7  31
TORSDOF 4
ENDMDL
MODEL 8
REMARK VINA RESULT:      -6.5      6.219      8.075
REMARK  4 active torsions:
REMARK  status: ('A' for Active; 'I' for Inactive)
REMARK    1  A    between atoms: C_7  and  N_21 
REMARK    2  A    between atoms: C_9  and  N_11 
REMARK    3  A    between atoms: N_11  and  C_12 
REMARK    4  A    between atoms: C_16  and  C_18 
ROOT
ATOM      1  C   LIG d   1       3.034   0.123  -2.581  0.00  0.00    -0.061 A 
ATOM      2  C   LIG d   1       4.013   1.013  -2.150  0.00  0.00    -0.056 A 
ATOM      3  C   LIG d   1       5.335   0.768  -2.378  0.00  0.00     0.011 A 
ATOM      4  C   LIG d   1       5.716  -0.397  -3.057  0.00  0.00     0.219 A 
ATOM      5  C   LIG d   1       4.718  -1.302  -3.494  0.00  0.00     0.086 A 
ATOM      6  C   LIG d   1       3.370  -1.021  -3.244  0.00  0.00    -0.045 A 
ATOM      7  C   LIG d   1       5.126  -2.474  -4.178  0.00  0.00     0.138 A 
ATOM      8  N   LIG d   1       6.422  -2.668  -4.375  0.00  0.00    -0.156 NA
ATOM      9  C   LIG d   1       7.327  -1.791  -3.948  0.00  0.00     0.379 A 
ATOM     10  N   LIG d   1       7.002  -0.684  -3.307  0.00  0.00    -0.174 N 
ATOM     11  H   LIG d   1       1.994   0.338  -2.384  0.00  0.00     0.062 H 
ATOM     12  H   LIG d   1       3.722   1.912  -1.627  0.00  0.00     0.062 H 
ATOM     13  H   LIG d   1       6.084   1.469  -2.039  0.00  0.00     0.068 H 
ATOM     14  H   LIG d   1       2.602  -1.705  -3.573  0.00  0.00     0.063 H 
ATOM     15  H   LIG d   1       7.697  -0.075  -3.014  0.00  0.00     0.457 HD
ENDROOT
BRANCH   9  16
ATOM     16  N   LIG d   1       8.665  -2.051  -4.185  0.00  0.00    -0.244 N 
ATOM     17  H   LIG d   1       9.279  -1.319  -4.357  0.00  0.00     0.159 HD
BRANCH  16  18
ATOM     18  C   LIG d   1       9.135  -3.368  -4.175  0.00  0.00     0.038 A 
ATOM     19  C   LIG d   1       9.287  -4.041  -2.973  0.00  0.00    -0.032 A 
ATOM     20  C   LIG d   1       9.752  -5.357  -2.970  0.00  0.00    -0.001 A 
ATOM     21  H   LIG d   1       9.045  -3.549  -2.042  0.00  0.00     0.064 H 
ATOM     22  C   LIG d   1      10.070  -5.984  -4.177  0.00  0.00    -0.053 A 
ATOM     23  C   LIG d   1       9.920  -5.302  -5.368  0.00  0.00    -0.059 A 
ATOM     24  H   LIG d   1      10.433  -7.000  -4.179  0.00  0.00     0.062 H 
ATOM     25  C   LIG d   1       9.455  -4.001  -5.371  0.00  0.00    -0.040 A 
ATOM     26  H   LIG d   1      10.166  -5.788  -6.301  0.00  0.00     0.062 H 
ATOM     27  H   LIG d   1       9.338  -3.473  -6.306  0.00  0.00     0.064 H 
BRANCH  20  28
ATOM     28  C   LIG d   1       9.911  -6.084  -1.694  0.00  0.00     0.072 C 
ATOM     29  O   LIG d   1       9.564  -5.560  -0.646  0.00  0.00    -0.545 OA
ATOM     30  O   LIG d   1      10.390  -7.210  -1.688  0.00  0.00    -0.545 OA
ENDBRANCH  20  28
ENDBRANCH  16  18
ENDBRANCH   9  16
BRANCH   7  31
ATOM     31  N   LIG d   1       4.200  -3.392  -4.626  0.00  0.00    -0.342 N 
ATOM     32  H   LIG d   1       4.408  -3.960  -5.385  0.00  0.00     0.144 HD
ATOM     33  H   LIG d   1       3.342  -3.471  -4.182  0.00  0.00     0.144 HD
ENDBRANCH   7  31
TORSDOF 4
ENDMDL
MODEL 9
REMARK VINA RESULT:      -6.4      2.493      3.563
REMARK  4 active torsions:
REMARK  status: ('A' for Active; 'I' for Inactive)
REMARK    1  A    between atoms: C_7  and  N_21 
REMARK    2  A    between atoms: C_9  and  N_11 
REMARK    3  A    between atoms: N_11  and  C_12 
REMARK    4  A    between atoms: C_16  and  C_18 
ROOT
ATOM      1  C   LIG d   1       3.613  -1.226  -2.187  0.00  0.00    -0.061 A 
ATOM      2  C   LIG d   1       4.246  -2.372  -2.660  0.00  0.00    -0.056 A 
ATOM      3  C   LIG d   1       4.489  -2.541  -3.991  0.00  0.00     0.011 A 
ATOM      4  C   LIG d   1       4.096  -1.548  -4.898  0.00  0.00     0.219 A 
ATOM      5  C   LIG d   1       3.453  -0.383  -4.415  0.00  0.00     0.086 A 
ATOM      6  C   LIG d   1       3.219  -0.240  -3.043  0.00  0.00    -0.045 A 
ATOM      7  C   LIG d   1       3.064   0.608  -5.350  0.00  0.00     0.138 A 
ATOM      8  N   LIG d   1       3.321   0.397  -6.633  0.00  0.00    -0.156 NA
ATOM      9  C   LIG d   1       3.928  -0.713  -7.044  0.00  0.00     0.379 A 
ATOM     10  N   LIG d   1       4.312  -1.666  -6.217  0.00  0.00    -0.174 N 
ATOM     11  H   LIG d   1       3.429  -1.118  -1.128  0.00  0.00     0.062 H 
ATOM     12  H   LIG d   1       4.549  -3.139  -1.962  0.00  0.00     0.062 H 
ATOM     13  H   LIG d   1       4.982  -3.436  -4.344  0.00  0.00     0.068 H 
ATOM     14  H   LIG d   1       2.728   0.645  -2.664  0.00  0.00     0.063 H 
ATOM     15  H   LIG d   1       4.751  -2.458  -6.563  0.00  0.00     0.457 HD
ENDROOT
BRANCH   9  16
ATOM     16  N   LIG d   1       4.169  -0.874  -8.398  0.00  0.00    -0.244 N 
ATOM     17  H   LIG d   1       5.040  -0.655  -8.765  0.00  0.00     0.159 HD
BRANCH  16  18
ATOM     18  C   LIG d   1       3.158  -1.355  -9.235  0.00  0.00     0.038 A 
ATOM     19  C   LIG d   1       2.942  -2.719  -9.349  0.00  0.00    -0.032 A 
ATOM     20  C   LIG d   1       1.928  -3.193 -10.184  0.00  0.00    -0.001 A 
ATOM     21  H   LIG d   1       3.555  -3.413  -8.793  0.00  0.00     0.064 H 
ATOM     22  C   LIG d   1       1.145  -2.289 -10.906  0.00  0.00    -0.053 A 
ATOM     23  C   LIG d   1       1.372  -0.933 -10.789  0.00  0.00    -0.059 A 
ATOM     24  H   LIG d   1       0.362  -2.651 -11.555  0.00  0.00     0.062 H 
ATOM     25  C   LIG d   1       2.372  -0.464  -9.959  0.00  0.00    -0.040 A 
ATOM     26  H   LIG d   1       0.765  -0.235 -11.347  0.00  0.00     0.062 H 
ATOM     27  H   LIG d   1       2.544   0.598  -9.870  0.00  0.00     0.064 H 
BRANCH  20  28
ATOM     28  C   LIG d   1       1.688  -4.644 -10.307  0.00  0.00     0.072 C 
ATOM     29  O   LIG d   1       0.620  -5.052 -10.742  0.00  0.00    -0.545 OA
ATOM     30  O   LIG d   1       2.556  -5.438  -9.974  0.00  0.00    -0.545 OA
ENDBRANCH  20  28
ENDBRANCH  16  18
ENDBRANCH   9  16
BRANCH   7  31
ATOM     31  N   LIG d   1       2.433   1.762  -4.938  0.00  0.00    -0.342 N 
ATOM     32  H   LIG d   1       1.522   1.723  -4.603  0.00  0.00     0.144 HD
ATOM     33  H   LIG d   1       2.898   2.611  -4.981  0.00  0.00     0.144 HD
ENDBRANCH   7  31
TORSDOF 4
ENDMDL
MODEL 10
REMARK VINA RESULT:      -6.3      4.593      6.468
REMARK  4 active torsions:
REMARK  status: ('A' for Active; 'I' for Inactive)
REMARK    1  A    between atoms: C_7  and  N_21 
REMARK    2  A    between atoms: C_9  and  N_11 
REMARK    3  A    between atoms: N_11  and  C_12 
REMARK    4  A    between atoms: C_16  and  C_18 
ROOT
ATOM      1  C   LIG d   1       9.965   4.444  -5.017  0.00  0.00    -0.061 A 
ATOM      2  C   LIG d   1       9.951   4.097  -3.669  0.00  0.00    -0.056 A 
ATOM      3  C   LIG d   1       9.374   2.935  -3.248  0.00  0.00     0.011 A 
ATOM      4  C   LIG d   1       8.785   2.076  -4.186  0.00  0.00     0.219 A 
ATOM      5  C   LIG d   1       8.800   2.431  -5.556  0.00  0.00     0.086 A 
ATOM      6  C   LIG d   1       9.400   3.630  -5.955  0.00  0.00    -0.045 A 
ATOM      7  C   LIG d   1       8.198   1.547  -6.487  0.00  0.00     0.138 A 
ATOM      8  N   LIG d   1       7.649   0.431  -6.029  0.00  0.00    -0.156 NA
ATOM      9  C   LIG d   1       7.657   0.136  -4.732  0.00  0.00     0.379 A 
ATOM     10  N   LIG d   1       8.204   0.922  -3.824  0.00  0.00    -0.174 N 
ATOM     11  H   LIG d   1      10.425   5.371  -5.323  0.00  0.00     0.062 H 
ATOM     12  H   LIG d   1      10.405   4.758  -2.945  0.00  0.00     0.062 H 
ATOM     13  H   LIG d   1       9.372   2.678  -2.199  0.00  0.00     0.068 H 
ATOM     14  H   LIG d   1       9.417   3.910  -6.999  0.00  0.00     0.063 H 
ATOM     15  H   LIG d   1       8.186   0.665  -2.889  0.00  0.00     0.457 HD
ENDROOT
BRANCH   9  16
ATOM     16  N   LIG d   1       7.068  -1.045  -4.316  0.00  0.00    -0.244 N 
ATOM     17  H   LIG d   1       7.566  -1.877  -4.358  0.00  0.00     0.159 HD
BRANCH  16  18
ATOM     18  C   LIG d   1       5.755  -1.040  -3.834  0.00  0.00     0.038 A 
ATOM     19  C   LIG d   1       4.785  -0.287  -4.475  0.00  0.00    -0.032 A 
ATOM     20  C   LIG d   1       3.475  -0.290  -3.991  0.00  0.00    -0.001 A 
ATOM     21  H   LIG d   1       5.040   0.298  -5.347  0.00  0.00     0.064 H 
ATOM     22  C   LIG d   1       3.154  -1.043  -2.860  0.00  0.00    -0.053 A 
ATOM     23  C   LIG d   1       4.130  -1.785  -2.226  0.00  0.00    -0.059 A 
ATOM     24  H   LIG d   1       2.143  -1.045  -2.480  0.00  0.00     0.062 H 
ATOM     25  C   LIG d   1       5.426  -1.786  -2.708  0.00  0.00    -0.040 A 
ATOM     26  H   LIG d   1       3.881  -2.367  -1.351  0.00  0.00     0.062 H 
ATOM     27  H   LIG d   1       6.185  -2.370  -2.209  0.00  0.00     0.064 H 
BRANCH  20  28
ATOM     28  C   LIG d   1       2.432   0.505  -4.671  0.00  0.00     0.072 C 
ATOM     29  O   LIG d   1       2.662   1.659  -5.001  0.00  0.00    -0.545 OA
ATOM     30  O   LIG d   1       1.340   0.007  -4.906  0.00  0.00    -0.545 OA
ENDBRANCH  20  28
ENDBRANCH  16  18
ENDBRANCH   9  16
BRANCH   7  31
ATOM     31  N   LIG d   1       8.180   1.841  -7.833  0.00  0.00    -0.342 N 
ATOM     32  H   LIG d   1       9.001   1.794  -8.350  0.00  0.00     0.144 HD
ATOM     33  H   LIG d   1       7.349   2.093  -8.264  0.00  0.00     0.144 HD
ENDBRANCH   7  31
TORSDOF 4
ENDMDL
