MODEL 1
REMARK VINA RESULT:      -7.0      0.000      0.000
REMARK  5 active torsions:
REMARK  status: ('A' for Active; 'I' for Inactive)
REMARK    1  A    between atoms: C_1  and  N_2 
REMARK    2  A    between atoms: C_4  and  N_20 
REMARK    3  A    between atoms: C_7  and  C_9 
REMARK    4  A    between atoms: C_11  and  C_14 
REMARK       I    between atoms: N_20  and  C_21 
REMARK    5  A    between atoms: C_21  and  C_23 
ROOT
ATOM      1  N   LIG d   1      11.556   3.094  -4.601  0.00  0.00     0.243 N 
ATOM      2  C   LIG d   1      10.845   1.904  -4.085  0.00  0.00    -0.012 C 
ATOM      3  C   LIG d   1       9.362   2.137  -4.463  0.00  0.00     0.069 C 
ATOM      4  H   LIG d   1       9.060   1.760  -5.452  0.00  0.00     0.055 H 
ATOM      5  C   LIG d   1       9.221   3.668  -4.257  0.00  0.00     0.023 C 
ATOM      6  C   LIG d   1      10.595   4.206  -4.707  0.00  0.00     0.061 C 
ATOM      7  H   LIG d   1      10.586   4.576  -5.743  0.00  0.00     0.095 H 
ATOM      8  H   LIG d   1      11.251   0.999  -4.563  0.00  0.00     0.083 H 
ATOM      9  H   LIG d   1      10.983   1.837  -2.997  0.00  0.00     0.083 H 
ATOM     10  H   LIG d   1       8.395   4.047  -4.877  0.00  0.00     0.035 H 
ATOM     11  H   LIG d   1       9.011   3.878  -3.197  0.00  0.00     0.035 H 
ATOM     12  H   LIG d   1      11.980   2.876  -5.593  0.00  0.00     0.204 HD
ENDROOT
BRANCH   3  13
ATOM     13  N   LIG d   1       8.469   1.402  -3.563  0.00  0.00    -0.307 N 
ATOM     14  C   LIG d   1       7.302   0.909  -4.024  0.00  0.00     0.216 C 
ATOM     15  O   LIG d   1       6.992   1.074  -5.185  0.00  0.00    -0.276 OA
ATOM     16  H   LIG d   1       8.751   1.252  -2.509  0.00  0.00     0.149 HD
BRANCH  14  17
ATOM     17  C   LIG d   1       6.385   0.154  -3.098  0.00  0.00     0.036 C 
ATOM     18  C   LIG d   1       5.787  -1.045  -3.837  0.00  0.00    -0.042 C 
ATOM     19  C   LIG d   1       4.856  -1.812  -2.897  0.00  0.00    -0.052 C 
ATOM     20  H   LIG d   1       5.218  -0.692  -4.710  0.00  0.00     0.027 H 
ATOM     21  H   LIG d   1       6.597  -1.710  -4.173  0.00  0.00     0.027 H 
ATOM     22  C   LIG d   1       3.729  -0.888  -2.429  0.00  0.00    -0.053 C 
ATOM     23  H   LIG d   1       5.425  -2.165  -2.024  0.00  0.00     0.026 H 
ATOM     24  H   LIG d   1       4.426  -2.674  -3.428  0.00  0.00     0.026 H 
ATOM     25  C   LIG d   1       4.326   0.311  -1.691  0.00  0.00    -0.052 C 
ATOM     26  H   LIG d   1       3.059  -1.439  -1.753  0.00  0.00     0.026 H 
ATOM     27  H   LIG d   1       3.159  -0.535  -3.302  0.00  0.00     0.026 H 
ATOM     28  C   LIG d   1       5.258   1.078  -2.632  0.00  0.00    -0.042 C 
ATOM     29  H   LIG d   1       4.896  -0.043  -0.819  0.00  0.00     0.026 H 
ATOM     30  H   LIG d   1       3.517   0.976  -1.355  0.00  0.00     0.026 H 
ATOM     31  H   LIG d   1       5.688   1.939  -2.099  0.00  0.00     0.027 H 
ATOM     32  H   LIG d   1       4.689   1.432  -3.504  0.00  0.00     0.027 H 
ATOM     33  H   LIG d   1       6.967  -0.193  -2.232  0.00  0.00     0.039 H 
ENDBRANCH  14  17
ENDBRANCH   3  13
BRANCH   1  34
ATOM     34  C   LIG d   1      12.683   3.453  -3.728  0.00  0.00    -0.042 C 
ATOM     35  H   LIG d   1      12.313   3.637  -2.709  0.00  0.00     0.078 H 
ATOM     36  H   LIG d   1      13.168   4.362  -4.112  0.00  0.00     0.078 H 
ATOM     37  H   LIG d   1      13.410   2.628  -3.711  0.00  0.00     0.078 H 
ENDBRANCH   1  34
BRANCH   6  38
ATOM     38  C   LIG d   1      11.021   5.339  -3.809  0.00  0.00     0.276 A 
ATOM     39  O   LIG d   1      11.725   6.417  -4.170  0.00  0.00    -0.332 OA
ATOM     40  N   LIG d   1      11.902   7.138  -3.210  0.00  0.00    -0.056 NA
ATOM     41  C   LIG d   1      11.343   6.618  -2.148  0.00  0.00     0.204 A 
ATOM     42  N   LIG d   1      10.767   5.456  -2.529  0.00  0.00    -0.186 NA
BRANCH  41  43
ATOM     43  C   LIG d   1      11.339   7.197  -0.782  0.00  0.00     0.041 A 
ATOM     44  C   LIG d   1      11.319   6.369   0.338  0.00  0.00     0.038 A 
ATOM     45  N   LIG d   1      11.319   6.881   1.551  0.00  0.00    -0.263 NA
ATOM     46  H   LIG d   1      11.307   5.296   0.209  0.00  0.00     0.084 H 
ATOM     47  C   LIG d   1      11.327   8.184   1.757  0.00  0.00     0.028 A 
ATOM     48  C   LIG d   1      11.341   9.072   0.697  0.00  0.00    -0.043 A 
ATOM     49  H   LIG d   1      11.323   8.563   2.768  0.00  0.00     0.083 H 
ATOM     50  C   LIG d   1      11.347   8.582  -0.598  0.00  0.00    -0.048 A 
ATOM     51  H   LIG d   1      11.349  10.137   0.877  0.00  0.00     0.063 H 
ATOM     52  H   LIG d   1      11.358   9.253  -1.444  0.00  0.00     0.063 H 
ENDBRANCH  41  43
ENDBRANCH   6  38
TORSDOF 5
ENDMDL
MODEL 2
REMARK VINA RESULT:      -7.0      1.613      1.673
REMARK  5 active torsions:
REMARK  status: ('A' for Active; 'I' for Inactive)
REMARK    1  A    between atoms: C_1  and  N_2 
REMARK    2  A    between atoms: C_4  and  N_20 
REMARK    3  A    between atoms: C_7  and  C_9 
REMARK    4  A    between atoms: C_11  and  C_14 
REMARK       I    between atoms: N_20  and  C_21 
REMARK    5  A    between atoms: C_21  and  C_23 
ROOT
ATOM      1  N   LIG d   1      11.484   2.796  -4.993  0.00  0.00     0.243 N 
ATOM      2  C   LIG d   1      10.860   1.697  -4.225  0.00  0.00    -0.012 C 
ATOM      3  C   LIG d   1       9.427   1.578  -4.799  0.00  0.00     0.069 C 
ATOM      4  H   LIG d   1       9.316   0.901  -5.659  0.00  0.00     0.055 H 
ATOM      5  C   LIG d   1       9.071   3.064  -5.066  0.00  0.00     0.023 C 
ATOM      6  C   LIG d   1      10.417   3.669  -5.515  0.00  0.00     0.061 C 
ATOM      7  H   LIG d   1      10.507   3.732  -6.610  0.00  0.00     0.095 H 
ATOM      8  H   LIG d   1      11.437   0.772  -4.373  0.00  0.00     0.083 H 
ATOM      9  H   LIG d   1      10.852   1.955  -3.156  0.00  0.00     0.083 H 
ATOM     10  H   LIG d   1       8.299   3.121  -5.848  0.00  0.00     0.035 H 
ATOM     11  H   LIG d   1       8.689   3.522  -4.140  0.00  0.00     0.035 H 
ATOM     12  H   LIG d   1      12.066   2.383  -5.831  0.00  0.00     0.204 HD
ENDROOT
BRANCH   3  13
ATOM     13  N   LIG d   1       8.515   0.988  -3.816  0.00  0.00    -0.307 N 
ATOM     14  C   LIG d   1       7.302   0.545  -4.202  0.00  0.00     0.216 C 
ATOM     15  O   LIG d   1       6.966   0.634  -5.364  0.00  0.00    -0.276 OA
ATOM     16  H   LIG d   1       8.820   0.907  -2.761  0.00  0.00     0.149 HD
BRANCH  14  17
ATOM     17  C   LIG d   1       6.364  -0.062  -3.190  0.00  0.00     0.036 C 
ATOM     18  C   LIG d   1       5.626  -1.244  -3.823  0.00  0.00    -0.042 C 
ATOM     19  C   LIG d   1       4.674  -1.859  -2.796  0.00  0.00    -0.052 C 
ATOM     20  H   LIG d   1       5.051  -0.894  -4.693  0.00  0.00     0.027 H 
ATOM     21  H   LIG d   1       6.356  -2.002  -4.147  0.00  0.00     0.027 H 
ATOM     22  C   LIG d   1       3.659  -0.806  -2.345  0.00  0.00    -0.053 C 
ATOM     23  H   LIG d   1       5.249  -2.209  -1.926  0.00  0.00     0.026 H 
ATOM     24  H   LIG d   1       4.143  -2.709  -3.250  0.00  0.00     0.026 H 
ATOM     25  C   LIG d   1       4.397   0.375  -1.714  0.00  0.00    -0.052 C 
ATOM     26  H   LIG d   1       2.974  -1.248  -1.607  0.00  0.00     0.026 H 
ATOM     27  H   LIG d   1       3.083  -0.457  -3.215  0.00  0.00     0.026 H 
ATOM     28  C   LIG d   1       5.349   0.991  -2.741  0.00  0.00    -0.042 C 
ATOM     29  H   LIG d   1       4.972   0.025  -0.844  0.00  0.00     0.026 H 
ATOM     30  H   LIG d   1       3.668   1.133  -1.390  0.00  0.00     0.026 H 
ATOM     31  H   LIG d   1       5.880   1.840  -2.286  0.00  0.00     0.027 H 
ATOM     32  H   LIG d   1       4.774   1.341  -3.611  0.00  0.00     0.027 H 
ATOM     33  H   LIG d   1       6.952  -0.407  -2.328  0.00  0.00     0.039 H 
ENDBRANCH  14  17
ENDBRANCH   3  13
BRANCH   1  34
ATOM     34  C   LIG d   1      12.424   3.556  -4.157  0.00  0.00    -0.042 C 
ATOM     35  H   LIG d   1      12.106   3.501  -3.105  0.00  0.00     0.078 H 
ATOM     36  H   LIG d   1      12.436   4.606  -4.482  0.00  0.00     0.078 H 
ATOM     37  H   LIG d   1      13.432   3.128  -4.258  0.00  0.00     0.078 H 
ENDBRANCH   1  34
BRANCH   6  38
ATOM     38  C   LIG d   1      10.569   5.058  -4.951  0.00  0.00     0.276 A 
ATOM     39  O   LIG d   1      11.366   6.023  -5.421  0.00  0.00    -0.332 OA
ATOM     40  N   LIG d   1      11.256   7.021  -4.741  0.00  0.00    -0.056 NA
ATOM     41  C   LIG d   1      10.395   6.815  -3.778  0.00  0.00     0.204 A 
ATOM     42  N   LIG d   1       9.942   5.549  -3.911  0.00  0.00    -0.186 NA
BRANCH  41  43
ATOM     43  C   LIG d   1       9.987   7.792  -2.737  0.00  0.00     0.041 A 
ATOM     44  C   LIG d   1       9.289   7.372  -1.607  0.00  0.00     0.038 A 
ATOM     45  N   LIG d   1       8.930   8.237  -0.681  0.00  0.00    -0.263 NA
ATOM     46  H   LIG d   1       9.043   6.327  -1.489  0.00  0.00     0.084 H 
ATOM     47  C   LIG d   1       9.203   9.523  -0.785  0.00  0.00     0.028 A 
ATOM     48  C   LIG d   1       9.888  10.019  -1.880  0.00  0.00    -0.043 A 
ATOM     49  H   LIG d   1       8.887  10.199  -0.005  0.00  0.00     0.083 H 
ATOM     50  C   LIG d   1      10.291   9.149  -2.878  0.00  0.00    -0.048 A 
ATOM     51  H   LIG d   1      10.107  11.074  -1.955  0.00  0.00     0.063 H 
ATOM     52  H   LIG d   1      10.828   9.509  -3.744  0.00  0.00     0.063 H 
ENDBRANCH  41  43
ENDBRANCH   6  38
TORSDOF 5
ENDMDL
MODEL 3
REMARK VINA RESULT:      -6.8      1.783      8.372
REMARK  5 active torsions:
REMARK  status: ('A' for Active; 'I' for Inactive)
REMARK    1  A    between atoms: C_1  and  N_2 
REMARK    2  A    between atoms: C_4  and  N_20 
REMARK    3  A    between atoms: C_7  and  C_9 
REMARK    4  A    between atoms: C_11  and  C_14 
REMARK       I    between atoms: N_20  and  C_21 
REMARK    5  A    between atoms: C_21  and  C_23 
ROOT
ATOM      1  N   LIG d   1      10.332   3.306  -5.182  0.00  0.00     0.243 N 
ATOM      2  C   LIG d   1      10.257   4.708  -4.715  0.00  0.00    -0.012 C 
ATOM      3  C   LIG d   1      10.764   4.663  -3.252  0.00  0.00     0.069 C 
ATOM      4  H   LIG d   1      11.850   4.787  -3.124  0.00  0.00     0.055 H 
ATOM      5  C   LIG d   1      10.181   3.314  -2.757  0.00  0.00     0.023 C 
ATOM      6  C   LIG d   1      10.273   2.416  -4.008  0.00  0.00     0.061 C 
ATOM      7  H   LIG d   1      11.164   1.771  -4.001  0.00  0.00     0.095 H 
ATOM      8  H   LIG d   1      10.895   5.341  -5.349  0.00  0.00     0.083 H 
ATOM      9  H   LIG d   1       9.217   5.060  -4.775  0.00  0.00     0.083 H 
ATOM     10  H   LIG d   1      10.787   2.937  -1.920  0.00  0.00     0.035 H 
ATOM     11  H   LIG d   1       9.144   3.464  -2.420  0.00  0.00     0.035 H 
ATOM     12  H   LIG d   1      11.276   3.143  -5.722  0.00  0.00     0.204 HD
ENDROOT
BRANCH   3  13
ATOM     13  N   LIG d   1      10.227   5.784  -2.476  0.00  0.00    -0.307 N 
ATOM     14  C   LIG d   1      10.856   6.191  -1.355  0.00  0.00     0.216 C 
ATOM     15  O   LIG d   1      11.867   5.631  -0.991  0.00  0.00    -0.276 OA
ATOM     16  H   LIG d   1       9.309   6.293  -2.807  0.00  0.00     0.149 HD
BRANCH  14  17
ATOM     17  C   LIG d   1      10.303   7.344  -0.558  0.00  0.00     0.036 C 
ATOM     18  C   LIG d   1       9.281   8.106  -1.404  0.00  0.00    -0.042 C 
ATOM     19  C   LIG d   1       8.720   9.276  -0.595  0.00  0.00    -0.052 C 
ATOM     20  H   LIG d   1       9.769   8.489  -2.312  0.00  0.00     0.027 H 
ATOM     21  H   LIG d   1       8.460   7.429  -1.687  0.00  0.00     0.027 H 
ATOM     22  C   LIG d   1       9.860  10.218  -0.201  0.00  0.00    -0.053 C 
ATOM     23  H   LIG d   1       8.231   8.893   0.313  0.00  0.00     0.026 H 
ATOM     24  H   LIG d   1       7.985   9.824  -1.203  0.00  0.00     0.026 H 
ATOM     25  C   LIG d   1      10.881   9.456   0.644  0.00  0.00    -0.052 C 
ATOM     26  H   LIG d   1       9.456  11.060   0.380  0.00  0.00     0.026 H 
ATOM     27  H   LIG d   1      10.347  10.602  -1.110  0.00  0.00     0.026 H 
ATOM     28  C   LIG d   1      11.443   8.285  -0.166  0.00  0.00    -0.042 C 
ATOM     29  H   LIG d   1      10.393   9.073   1.552  0.00  0.00     0.026 H 
ATOM     30  H   LIG d   1      11.701  10.133   0.927  0.00  0.00     0.026 H 
ATOM     31  H   LIG d   1      12.177   7.738   0.444  0.00  0.00     0.027 H 
ATOM     32  H   LIG d   1      11.931   8.668  -1.074  0.00  0.00     0.027 H 
ATOM     33  H   LIG d   1       9.818   6.947   0.346  0.00  0.00     0.039 H 
ENDBRANCH  14  17
ENDBRANCH   3  13
BRANCH   1  34
ATOM     34  C   LIG d   1       9.245   3.007  -6.125  0.00  0.00    -0.042 C 
ATOM     35  H   LIG d   1       8.729   3.939  -6.397  0.00  0.00     0.078 H 
ATOM     36  H   LIG d   1       8.531   2.316  -5.654  0.00  0.00     0.078 H 
ATOM     37  H   LIG d   1       9.664   2.542  -7.030  0.00  0.00     0.078 H 
ENDBRANCH   1  34
BRANCH   6  38
ATOM     38  C   LIG d   1       9.055   1.532  -4.096  0.00  0.00     0.276 A 
ATOM     39  O   LIG d   1       8.961   0.373  -4.756  0.00  0.00    -0.332 OA
ATOM     40  N   LIG d   1       7.846  -0.088  -4.629  0.00  0.00    -0.056 NA
ATOM     41  C   LIG d   1       7.114   0.704  -3.889  0.00  0.00     0.204 A 
ATOM     42  N   LIG d   1       7.891   1.753  -3.537  0.00  0.00    -0.186 NA
BRANCH  41  43
ATOM     43  C   LIG d   1       5.697   0.491  -3.505  0.00  0.00     0.041 A 
ATOM     44  C   LIG d   1       4.903  -0.418  -4.203  0.00  0.00     0.038 A 
ATOM     45  N   LIG d   1       3.646  -0.611  -3.861  0.00  0.00    -0.263 NA
ATOM     46  H   LIG d   1       5.325  -0.971  -5.029  0.00  0.00     0.084 H 
ATOM     47  C   LIG d   1       3.087   0.045  -2.863  0.00  0.00     0.028 A 
ATOM     48  C   LIG d   1       3.807   0.968  -2.125  0.00  0.00    -0.043 A 
ATOM     49  H   LIG d   1       2.052  -0.141  -2.618  0.00  0.00     0.083 H 
ATOM     50  C   LIG d   1       5.133   1.203  -2.443  0.00  0.00    -0.048 A 
ATOM     51  H   LIG d   1       3.339   1.499  -1.310  0.00  0.00     0.063 H 
ATOM     52  H   LIG d   1       5.718   1.918  -1.883  0.00  0.00     0.063 H 
ENDBRANCH  41  43
ENDBRANCH   6  38
TORSDOF 5
ENDMDL
MODEL 4
REMARK VINA RESULT:      -6.7      7.929     13.783
REMARK  5 active torsions:
REMARK  status: ('A' for Active; 'I' for Inactive)
REMARK    1  A    between atoms: C_1  and  N_2 
REMARK    2  A    between atoms: C_4  and  N_20 
REMARK    3  A    between atoms: C_7  and  C_9 
REMARK    4  A    between atoms: C_11  and  C_14 
REMARK       I    between atoms: N_20  and  C_21 
REMARK    5  A    between atoms: C_21  and  C_23 
ROOT
ATOM      1  N   LIG d   1       2.549  -0.685 -10.310  0.00  0.00     0.243 N 
ATOM      2  C   LIG d   1       2.371  -0.149  -8.943  0.00  0.00    -0.012 C 
ATOM      3  C   LIG d   1       3.547  -0.745  -8.130  0.00  0.00     0.069 C 
ATOM      4  H   LIG d   1       4.473  -0.150  -8.132  0.00  0.00     0.055 H 
ATOM      5  C   LIG d   1       3.663  -2.166  -8.740  0.00  0.00     0.023 C 
ATOM      6  C   LIG d   1       3.326  -1.935 -10.228  0.00  0.00     0.061 C 
ATOM      7  H   LIG d   1       4.225  -1.841 -10.855  0.00  0.00     0.095 H 
ATOM      8  H   LIG d   1       2.411   0.951  -8.972  0.00  0.00     0.083 H 
ATOM      9  H   LIG d   1       1.397  -0.470  -8.547  0.00  0.00     0.083 H 
ATOM     10  H   LIG d   1       4.685  -2.547  -8.592  0.00  0.00     0.035 H 
ATOM     11  H   LIG d   1       2.946  -2.838  -8.244  0.00  0.00     0.035 H 
ATOM     12  H   LIG d   1       3.089   0.046 -10.931  0.00  0.00     0.204 HD
ENDROOT
BRANCH   3  13
ATOM     13  N   LIG d   1       3.219  -0.811  -6.704  0.00  0.00    -0.307 N 
ATOM     14  C   LIG d   1       4.108  -0.378  -5.787  0.00  0.00     0.216 C 
ATOM     15  O   LIG d   1       5.178   0.066  -6.143  0.00  0.00    -0.276 OA
ATOM     16  H   LIG d   1       2.247  -1.213  -6.381  0.00  0.00     0.149 HD
BRANCH  14  17
ATOM     17  C   LIG d   1       3.770  -0.446  -4.320  0.00  0.00     0.036 C 
ATOM     18  C   LIG d   1       4.596   0.592  -3.557  0.00  0.00    -0.042 C 
ATOM     19  C   LIG d   1       4.253   0.521  -2.068  0.00  0.00    -0.052 C 
ATOM     20  H   LIG d   1       5.667   0.383  -3.697  0.00  0.00     0.027 H 
ATOM     21  H   LIG d   1       4.365   1.598  -3.940  0.00  0.00     0.027 H 
ATOM     22  C   LIG d   1       4.574  -0.877  -1.535  0.00  0.00    -0.053 C 
ATOM     23  H   LIG d   1       3.182   0.730  -1.928  0.00  0.00     0.026 H 
ATOM     24  H   LIG d   1       4.846   1.268  -1.519  0.00  0.00     0.026 H 
ATOM     25  C   LIG d   1       3.749  -1.914  -2.299  0.00  0.00    -0.052 C 
ATOM     26  H   LIG d   1       4.328  -0.927  -0.465  0.00  0.00     0.026 H 
ATOM     27  H   LIG d   1       5.645  -1.084  -1.675  0.00  0.00     0.026 H 
ATOM     28  C   LIG d   1       4.092  -1.844  -3.788  0.00  0.00    -0.042 C 
ATOM     29  H   LIG d   1       2.678  -1.705  -2.158  0.00  0.00     0.026 H 
ATOM     30  H   LIG d   1       3.979  -2.919  -1.916  0.00  0.00     0.026 H 
ATOM     31  H   LIG d   1       3.498  -2.590  -4.336  0.00  0.00     0.027 H 
ATOM     32  H   LIG d   1       5.162  -2.053  -3.928  0.00  0.00     0.027 H 
ATOM     33  H   LIG d   1       2.698  -0.236  -4.195  0.00  0.00     0.039 H 
ENDBRANCH  14  17
ENDBRANCH   3  13
BRANCH   1  34
ATOM     34  C   LIG d   1       1.250  -0.914 -10.958  0.00  0.00    -0.042 C 
ATOM     35  H   LIG d   1       1.355  -1.701 -11.720  0.00  0.00     0.078 H 
ATOM     36  H   LIG d   1       0.910   0.016 -11.436  0.00  0.00     0.078 H 
ATOM     37  H   LIG d   1       0.514  -1.230 -10.204  0.00  0.00     0.078 H 
ENDBRANCH   1  34
BRANCH   6  38
ATOM     38  C   LIG d   1       2.505  -3.084 -10.753  0.00  0.00     0.276 A 
ATOM     39  O   LIG d   1       2.441  -3.499 -12.022  0.00  0.00    -0.332 OA
ATOM     40  N   LIG d   1       1.689  -4.447 -12.111  0.00  0.00    -0.056 NA
ATOM     41  C   LIG d   1       1.197  -4.742 -10.936  0.00  0.00     0.204 A 
ATOM     42  N   LIG d   1       1.724  -3.867 -10.051  0.00  0.00    -0.186 NA
BRANCH  41  43
ATOM     43  C   LIG d   1       0.241  -5.836 -10.631  0.00  0.00     0.041 A 
ATOM     44  C   LIG d   1       0.628  -7.169 -10.751  0.00  0.00     0.038 A 
ATOM     45  N   LIG d   1      -0.218  -8.140 -10.476  0.00  0.00    -0.263 NA
ATOM     46  H   LIG d   1       1.633  -7.407 -11.067  0.00  0.00     0.084 H 
ATOM     47  C   LIG d   1      -1.455  -7.898 -10.090  0.00  0.00     0.028 A 
ATOM     48  C   LIG d   1      -1.917  -6.601  -9.954  0.00  0.00    -0.043 A 
ATOM     49  H   LIG d   1      -2.118  -8.723  -9.879  0.00  0.00     0.083 H 
ATOM     50  C   LIG d   1      -1.065  -5.546 -10.226  0.00  0.00    -0.048 A 
ATOM     51  H   LIG d   1      -2.933  -6.414  -9.637  0.00  0.00     0.063 H 
ATOM     52  H   LIG d   1      -1.399  -4.523 -10.127  0.00  0.00     0.063 H 
ENDBRANCH  41  43
ENDBRANCH   6  38
TORSDOF 5
ENDMDL
MODEL 5
REMARK VINA RESULT:      -6.7      3.122      4.142
REMARK  5 active torsions:
REMARK  status: ('A' for Active; 'I' for Inactive)
REMARK    1  A    between atoms: C_1  and  N_2 
REMARK    2  A    between atoms: C_4  and  N_20 
REMARK    3  A    between atoms: C_7  and  C_9 
REMARK    4  A    between atoms: C_11  and  C_14 
REMARK       I    between atoms: N_20  and  C_21 
REMARK    5  A    between atoms: C_21  and  C_23 
ROOT
ATOM      1  N   LIG d   1      10.983   3.043  -4.730  0.00  0.00     0.243 N 
ATOM      2  C   LIG d   1      10.404   2.021  -3.833  0.00  0.00    -0.012 C 
ATOM      3  C   LIG d   1       9.219   1.422  -4.630  0.00  0.00     0.069 C 
ATOM      4  H   LIG d   1       9.467   0.566  -5.276  0.00  0.00     0.055 H 
ATOM      5  C   LIG d   1       8.667   2.674  -5.361  0.00  0.00     0.023 C 
ATOM      6  C   LIG d   1       9.942   3.483  -5.677  0.00  0.00     0.061 C 
ATOM      7  H   LIG d   1      10.300   3.323  -6.705  0.00  0.00     0.095 H 
ATOM      8  H   LIG d   1      11.166   1.261  -3.602  0.00  0.00     0.083 H 
ATOM      9  H   LIG d   1      10.069   2.498  -2.901  0.00  0.00     0.083 H 
ATOM     10  H   LIG d   1       8.128   2.362  -6.269  0.00  0.00     0.035 H 
ATOM     11  H   LIG d   1       7.978   3.214  -4.694  0.00  0.00     0.035 H 
ATOM     12  H   LIG d   1      11.831   2.615  -5.287  0.00  0.00     0.204 HD
ENDROOT
BRANCH   3  13
ATOM     13  N   LIG d   1       8.213   0.854  -3.729  0.00  0.00    -0.307 N 
ATOM     14  C   LIG d   1       7.396  -0.127  -4.163  0.00  0.00     0.216 C 
ATOM     15  O   LIG d   1       7.494  -0.539  -5.299  0.00  0.00    -0.276 OA
ATOM     16  H   LIG d   1       8.124   1.228  -2.698  0.00  0.00     0.149 HD
BRANCH  14  17
ATOM     17  C   LIG d   1       6.362  -0.710  -3.235  0.00  0.00     0.036 C 
ATOM     18  C   LIG d   1       5.499  -1.716  -4.001  0.00  0.00    -0.042 C 
ATOM     19  C   LIG d   1       4.449  -2.307  -3.059  0.00  0.00    -0.052 C 
ATOM     20  H   LIG d   1       4.997  -1.207  -4.837  0.00  0.00     0.027 H 
ATOM     21  H   LIG d   1       6.136  -2.523  -4.392  0.00  0.00     0.027 H 
ATOM     22  C   LIG d   1       3.562  -1.186  -2.514  0.00  0.00    -0.053 C 
ATOM     23  H   LIG d   1       4.950  -2.816  -2.223  0.00  0.00     0.026 H 
ATOM     24  H   LIG d   1       3.828  -3.031  -3.609  0.00  0.00     0.026 H 
ATOM     25  C   LIG d   1       4.424  -0.180  -1.750  0.00  0.00    -0.052 C 
ATOM     26  H   LIG d   1       2.806  -1.611  -1.837  0.00  0.00     0.026 H 
ATOM     27  H   LIG d   1       3.059  -0.677  -3.350  0.00  0.00     0.026 H 
ATOM     28  C   LIG d   1       5.475   0.412  -2.692  0.00  0.00    -0.042 C 
ATOM     29  H   LIG d   1       4.926  -0.689  -0.914  0.00  0.00     0.026 H 
ATOM     30  H   LIG d   1       3.787   0.626  -1.358  0.00  0.00     0.026 H 
ATOM     31  H   LIG d   1       6.095   1.134  -2.141  0.00  0.00     0.027 H 
ATOM     32  H   LIG d   1       4.973   0.921  -3.527  0.00  0.00     0.027 H 
ATOM     33  H   LIG d   1       6.877  -1.215  -2.406  0.00  0.00     0.039 H 
ENDBRANCH  14  17
ENDBRANCH   3  13
BRANCH   1  34
ATOM     34  C   LIG d   1      11.511   4.180  -3.963  0.00  0.00    -0.042 C 
ATOM     35  H   LIG d   1      11.171   4.106  -2.919  0.00  0.00     0.078 H 
ATOM     36  H   LIG d   1      11.146   5.120  -4.402  0.00  0.00     0.078 H 
ATOM     37  H   LIG d   1      12.611   4.164  -3.993  0.00  0.00     0.078 H 
ENDBRANCH   1  34
BRANCH   6  38
ATOM     38  C   LIG d   1       9.674   4.955  -5.497  0.00  0.00     0.276 A 
ATOM     39  O   LIG d   1       9.005   5.522  -4.488  0.00  0.00    -0.332 OA
ATOM     40  N   LIG d   1       8.966   6.725  -4.640  0.00  0.00    -0.056 NA
ATOM     41  C   LIG d   1       9.592   7.059  -5.739  0.00  0.00     0.204 A 
ATOM     42  N   LIG d   1      10.058   5.919  -6.296  0.00  0.00    -0.186 NA
BRANCH  41  43
ATOM     43  C   LIG d   1       9.763   8.434  -6.271  0.00  0.00     0.041 A 
ATOM     44  C   LIG d   1       9.620   8.689  -7.634  0.00  0.00     0.038 A 
ATOM     45  N   LIG d   1       9.768   9.909  -8.107  0.00  0.00    -0.263 NA
ATOM     46  H   LIG d   1       9.382   7.878  -8.306  0.00  0.00     0.084 H 
ATOM     47  C   LIG d   1      10.063  10.928  -7.325  0.00  0.00     0.028 A 
ATOM     48  C   LIG d   1      10.227  10.756  -5.962  0.00  0.00    -0.043 A 
ATOM     49  H   LIG d   1      10.180  11.912  -7.754  0.00  0.00     0.083 H 
ATOM     50  C   LIG d   1      10.077   9.494  -5.415  0.00  0.00    -0.048 A 
ATOM     51  H   LIG d   1      10.469  11.598  -5.330  0.00  0.00     0.063 H 
ATOM     52  H   LIG d   1      10.199   9.331  -4.355  0.00  0.00     0.063 H 
ENDBRANCH  41  43
ENDBRANCH   6  38
TORSDOF 5
ENDMDL
MODEL 6
REMARK VINA RESULT:      -6.5      4.773      7.039
REMARK  5 active torsions:
REMARK  status: ('A' for Active; 'I' for Inactive)
REMARK    1  A    between atoms: C_1  and  N_2 
REMARK    2  A    between atoms: C_4  and  N_20 
REMARK    3  A    between atoms: C_7  and  C_9 
REMARK    4  A    between atoms: C_11  and  C_14 
REMARK       I    between atoms: N_20  and  C_21 
REMARK    5  A    between atoms: C_21  and  C_23 
ROOT
ATOM      1  N   LIG d   1      10.065   4.037  -6.237  0.00  0.00     0.243 N 
ATOM      2  C   LIG d   1       9.158   3.553  -5.174  0.00  0.00    -0.012 C 
ATOM      3  C   LIG d   1       8.789   2.110  -5.598  0.00  0.00     0.069 C 
ATOM      4  H   LIG d   1       9.467   1.322  -5.235  0.00  0.00     0.055 H 
ATOM      5  C   LIG d   1       8.691   2.250  -7.139  0.00  0.00     0.023 C 
ATOM      6  C   LIG d   1       9.799   3.271  -7.467  0.00  0.00     0.061 C 
ATOM      7  H   LIG d   1      10.731   2.791  -7.800  0.00  0.00     0.095 H 
ATOM      8  H   LIG d   1       9.681   3.573  -4.206  0.00  0.00     0.083 H 
ATOM      9  H   LIG d   1       8.271   4.202  -5.124  0.00  0.00     0.083 H 
ATOM     10  H   LIG d   1       8.865   1.270  -7.609  0.00  0.00     0.035 H 
ATOM     11  H   LIG d   1       7.687   2.613  -7.411  0.00  0.00     0.035 H 
ATOM     12  H   LIG d   1      11.112   3.891  -5.929  0.00  0.00     0.204 HD
ENDROOT
BRANCH   3  13
ATOM     13  N   LIG d   1       7.503   1.706  -5.024  0.00  0.00    -0.307 N 
ATOM     14  C   LIG d   1       7.331   0.446  -4.576  0.00  0.00     0.216 C 
ATOM     15  O   LIG d   1       8.240  -0.353  -4.648  0.00  0.00    -0.276 OA
ATOM     16  H   LIG d   1       6.678   2.431  -4.958  0.00  0.00     0.149 HD
BRANCH  14  17
ATOM     17  C   LIG d   1       6.007   0.031  -3.986  0.00  0.00     0.036 C 
ATOM     18  C   LIG d   1       5.646   0.972  -2.834  0.00  0.00    -0.042 C 
ATOM     19  C   LIG d   1       4.303   0.550  -2.234  0.00  0.00    -0.052 C 
ATOM     20  H   LIG d   1       6.426   0.920  -2.060  0.00  0.00     0.027 H 
ATOM     21  H   LIG d   1       5.571   2.003  -3.211  0.00  0.00     0.027 H 
ATOM     22  C   LIG d   1       4.406  -0.883  -1.709  0.00  0.00    -0.053 C 
ATOM     23  H   LIG d   1       3.523   0.602  -3.008  0.00  0.00     0.026 H 
ATOM     24  H   LIG d   1       4.043   1.226  -1.406  0.00  0.00     0.026 H 
ATOM     25  C   LIG d   1       4.768  -1.822  -2.860  0.00  0.00    -0.052 C 
ATOM     26  H   LIG d   1       3.440  -1.186  -1.277  0.00  0.00     0.026 H 
ATOM     27  H   LIG d   1       5.185  -0.934  -0.934  0.00  0.00     0.026 H 
ATOM     28  C   LIG d   1       6.111  -1.402  -3.460  0.00  0.00    -0.042 C 
ATOM     29  H   LIG d   1       3.988  -1.771  -3.634  0.00  0.00     0.026 H 
ATOM     30  H   LIG d   1       4.842  -2.853  -2.483  0.00  0.00     0.026 H 
ATOM     31  H   LIG d   1       6.370  -2.078  -4.288  0.00  0.00     0.027 H 
ATOM     32  H   LIG d   1       6.891  -1.453  -2.686  0.00  0.00     0.027 H 
ATOM     33  H   LIG d   1       5.239   0.088  -4.770  0.00  0.00     0.039 H 
ENDBRANCH  14  17
ENDBRANCH   3  13
BRANCH   1  34
ATOM     34  C   LIG d   1       9.887   5.478  -6.464  0.00  0.00    -0.042 C 
ATOM     35  H   LIG d   1      10.692   5.848  -7.117  0.00  0.00     0.078 H 
ATOM     36  H   LIG d   1       9.923   6.009  -5.501  0.00  0.00     0.078 H 
ATOM     37  H   LIG d   1       8.914   5.656  -6.946  0.00  0.00     0.078 H 
ENDBRANCH   1  34
BRANCH   6  38
ATOM     38  C   LIG d   1       9.334   4.201  -8.559  0.00  0.00     0.276 A 
ATOM     39  O   LIG d   1       8.108   4.251  -9.089  0.00  0.00    -0.332 OA
ATOM     40  N   LIG d   1       8.062   5.108  -9.947  0.00  0.00    -0.056 NA
ATOM     41  C   LIG d   1       9.226   5.692 -10.062  0.00  0.00     0.204 A 
ATOM     42  N   LIG d   1      10.054   5.113  -9.163  0.00  0.00    -0.186 NA
BRANCH  41  43
ATOM     43  C   LIG d   1       9.573   6.788 -11.000  0.00  0.00     0.041 A 
ATOM     44  C   LIG d   1      10.208   7.940 -10.541  0.00  0.00     0.038 A 
ATOM     45  N   LIG d   1      10.520   8.911 -11.373  0.00  0.00    -0.263 NA
ATOM     46  H   LIG d   1      10.450   8.034  -9.492  0.00  0.00     0.084 H 
ATOM     47  C   LIG d   1      10.240   8.843 -12.660  0.00  0.00     0.028 A 
ATOM     48  C   LIG d   1       9.606   7.735 -13.193  0.00  0.00    -0.043 A 
ATOM     49  H   LIG d   1      10.510   9.664 -13.308  0.00  0.00     0.083 H 
ATOM     50  C   LIG d   1       9.262   6.685 -12.359  0.00  0.00    -0.048 A 
ATOM     51  H   LIG d   1       9.382   7.689 -14.248  0.00  0.00     0.063 H 
ATOM     52  H   LIG d   1       8.766   5.808 -12.749  0.00  0.00     0.063 H 
ENDBRANCH  41  43
ENDBRANCH   6  38
TORSDOF 5
ENDMDL
MODEL 7
REMARK VINA RESULT:      -6.4     16.158     17.524
REMARK  5 active torsions:
REMARK  status: ('A' for Active; 'I' for Inactive)
REMARK    1  A    between atoms: C_1  and  N_2 
REMARK    2  A    between atoms: C_4  and  N_20 
REMARK    3  A    between atoms: C_7  and  C_9 
REMARK    4  A    between atoms: C_11  and  C_14 
REMARK       I    between atoms: N_20  and  C_21 
REMARK    5  A    between atoms: C_21  and  C_23 
ROOT
ATOM      1  N   LIG d   1      -3.319   7.752 -16.391  0.00  0.00     0.243 N 
ATOM      2  C   LIG d   1      -3.592   6.317 -16.161  0.00  0.00    -0.012 C 
ATOM      3  C   LIG d   1      -3.811   6.197 -14.632  0.00  0.00     0.069 C 
ATOM      4  H   LIG d   1      -4.847   6.343 -14.289  0.00  0.00     0.055 H 
ATOM      5  C   LIG d   1      -2.775   7.214 -14.085  0.00  0.00     0.023 C 
ATOM      6  C   LIG d   1      -2.800   8.338 -15.142  0.00  0.00     0.061 C 
ATOM      7  H   LIG d   1      -3.442   9.181 -14.847  0.00  0.00     0.095 H 
ATOM      8  H   LIG d   1      -4.488   6.018 -16.726  0.00  0.00     0.083 H 
ATOM      9  H   LIG d   1      -2.731   5.721 -16.497  0.00  0.00     0.083 H 
ATOM     10  H   LIG d   1      -3.092   7.562 -13.090  0.00  0.00     0.035 H 
ATOM     11  H   LIG d   1      -1.790   6.728 -14.008  0.00  0.00     0.035 H 
ATOM     12  H   LIG d   1      -4.247   8.266 -16.683  0.00  0.00     0.204 HD
ENDROOT
BRANCH   3  13
ATOM     13  N   LIG d   1      -3.514   4.842 -14.164  0.00  0.00    -0.307 N 
ATOM     14  C   LIG d   1      -4.501   4.067 -13.669  0.00  0.00     0.216 C 
ATOM     15  O   LIG d   1      -5.635   4.494 -13.612  0.00  0.00    -0.276 OA
ATOM     16  H   LIG d   1      -2.485   4.454 -14.215  0.00  0.00     0.149 HD
BRANCH  14  17
ATOM     17  C   LIG d   1      -4.194   2.673 -13.187  0.00  0.00     0.036 C 
ATOM     18  C   LIG d   1      -2.812   2.252 -13.690  0.00  0.00    -0.042 C 
ATOM     19  C   LIG d   1      -2.501   0.836 -13.201  0.00  0.00    -0.052 C 
ATOM     20  H   LIG d   1      -2.800   2.271 -14.789  0.00  0.00     0.027 H 
ATOM     21  H   LIG d   1      -2.053   2.948 -13.302  0.00  0.00     0.027 H 
ATOM     22  C   LIG d   1      -3.556  -0.133 -13.739  0.00  0.00    -0.053 C 
ATOM     23  H   LIG d   1      -2.513   0.817 -12.101  0.00  0.00     0.026 H 
ATOM     24  H   LIG d   1      -1.507   0.533 -13.562  0.00  0.00     0.026 H 
ATOM     25  C   LIG d   1      -4.938   0.289 -13.237  0.00  0.00    -0.052 C 
ATOM     26  H   LIG d   1      -3.332  -1.151 -13.388  0.00  0.00     0.026 H 
ATOM     27  H   LIG d   1      -3.543  -0.114 -14.839  0.00  0.00     0.026 H 
ATOM     28  C   LIG d   1      -5.249   1.705 -13.726  0.00  0.00    -0.042 C 
ATOM     29  H   LIG d   1      -4.949   0.269 -12.138  0.00  0.00     0.026 H 
ATOM     30  H   LIG d   1      -5.697  -0.408 -13.624  0.00  0.00     0.026 H 
ATOM     31  H   LIG d   1      -6.243   2.007 -13.364  0.00  0.00     0.027 H 
ATOM     32  H   LIG d   1      -5.237   1.724 -14.825  0.00  0.00     0.027 H 
ATOM     33  H   LIG d   1      -4.210   2.669 -12.087  0.00  0.00     0.039 H 
ENDBRANCH  14  17
ENDBRANCH   3  13
BRANCH   1  34
ATOM     34  C   LIG d   1      -2.366   7.936 -17.495  0.00  0.00    -0.042 C 
ATOM     35  H   LIG d   1      -2.905   8.282 -18.390  0.00  0.00     0.078 H 
ATOM     36  H   LIG d   1      -1.869   6.980 -17.713  0.00  0.00     0.078 H 
ATOM     37  H   LIG d   1      -1.613   8.685 -17.208  0.00  0.00     0.078 H 
ENDBRANCH   1  34
BRANCH   6  38
ATOM     38  C   LIG d   1      -1.406   8.865 -15.364  0.00  0.00     0.276 A 
ATOM     39  O   LIG d   1      -0.263   8.225 -15.094  0.00  0.00    -0.332 OA
ATOM     40  N   LIG d   1       0.684   8.925 -15.388  0.00  0.00    -0.056 NA
ATOM     41  C   LIG d   1       0.266  10.067 -15.869  0.00  0.00     0.204 A 
ATOM     42  N   LIG d   1      -1.085  10.034 -15.862  0.00  0.00    -0.186 NA
BRANCH  41  43
ATOM     43  C   LIG d   1       1.117  11.188 -16.340  0.00  0.00     0.041 A 
ATOM     44  C   LIG d   1       0.545  12.309 -16.936  0.00  0.00     0.038 A 
ATOM     45  N   LIG d   1       1.298  13.307 -17.351  0.00  0.00    -0.263 NA
ATOM     46  H   LIG d   1      -0.528  12.362 -17.055  0.00  0.00     0.084 H 
ATOM     47  C   LIG d   1       2.611  13.284 -17.232  0.00  0.00     0.028 A 
ATOM     48  C   LIG d   1       3.255  12.203 -16.657  0.00  0.00    -0.043 A 
ATOM     49  H   LIG d   1       3.193  14.121 -17.589  0.00  0.00     0.083 H 
ATOM     50  C   LIG d   1       2.507  11.132 -16.200  0.00  0.00    -0.048 A 
ATOM     51  H   LIG d   1       4.331  12.195 -16.564  0.00  0.00     0.063 H 
ATOM     52  H   LIG d   1       2.984  10.276 -15.747  0.00  0.00     0.063 H 
ENDBRANCH  41  43
ENDBRANCH   6  38
TORSDOF 5
ENDMDL
MODEL 8
REMARK VINA RESULT:      -6.3      6.662     11.723
REMARK  5 active torsions:
REMARK  status: ('A' for Active; 'I' for Inactive)
REMARK    1  A    between atoms: C_1  and  N_2 
REMARK    2  A    between atoms: C_4  and  N_20 
REMARK    3  A    between atoms: C_7  and  C_9 
REMARK    4  A    between atoms: C_11  and  C_14 
REMARK       I    between atoms: N_20  and  C_21 
REMARK    5  A    between atoms: C_21  and  C_23 
ROOT
ATOM      1  N   LIG d   1       9.877  -5.053  -5.169  0.00  0.00     0.243 N 
ATOM      2  C   LIG d   1       8.826  -4.016  -5.247  0.00  0.00    -0.012 C 
ATOM      3  C   LIG d   1       8.976  -3.204  -3.937  0.00  0.00     0.069 C 
ATOM      4  H   LIG d   1       9.673  -2.353  -3.984  0.00  0.00     0.055 H 
ATOM      5  C   LIG d   1       9.342  -4.314  -2.918  0.00  0.00     0.023 C 
ATOM      6  C   LIG d   1      10.213  -5.277  -3.751  0.00  0.00     0.061 C 
ATOM      7  H   LIG d   1      11.290  -5.107  -3.605  0.00  0.00     0.095 H 
ATOM      8  H   LIG d   1       8.992  -3.390  -6.136  0.00  0.00     0.083 H 
ATOM      9  H   LIG d   1       7.840  -4.498  -5.317  0.00  0.00     0.083 H 
ATOM     10  H   LIG d   1       9.891  -3.871  -2.073  0.00  0.00     0.035 H 
ATOM     11  H   LIG d   1       8.421  -4.790  -2.547  0.00  0.00     0.035 H 
ATOM     12  H   LIG d   1      10.774  -4.718  -5.712  0.00  0.00     0.204 HD
ENDROOT
BRANCH   3  13
ATOM     13  N   LIG d   1       7.714  -2.555  -3.574  0.00  0.00    -0.307 N 
ATOM     14  C   LIG d   1       7.421  -1.331  -4.059  0.00  0.00     0.216 C 
ATOM     15  O   LIG d   1       8.203  -0.768  -4.796  0.00  0.00    -0.276 OA
ATOM     16  H   LIG d   1       7.004  -3.065  -2.906  0.00  0.00     0.149 HD
BRANCH  14  17
ATOM     17  C   LIG d   1       6.123  -0.663  -3.686  0.00  0.00     0.036 C 
ATOM     18  C   LIG d   1       6.402   0.762  -3.204  0.00  0.00    -0.042 C 
ATOM     19  C   LIG d   1       5.083   1.439  -2.824  0.00  0.00    -0.052 C 
ATOM     20  H   LIG d   1       7.063   0.729  -2.326  0.00  0.00     0.027 H 
ATOM     21  H   LIG d   1       6.888   1.333  -4.009  0.00  0.00     0.027 H 
ATOM     22  C   LIG d   1       4.406   0.645  -1.705  0.00  0.00    -0.053 C 
ATOM     23  H   LIG d   1       4.421   1.471  -3.702  0.00  0.00     0.026 H 
ATOM     24  H   LIG d   1       5.283   2.464  -2.478  0.00  0.00     0.026 H 
ATOM     25  C   LIG d   1       4.128  -0.779  -2.186  0.00  0.00    -0.052 C 
ATOM     26  H   LIG d   1       3.459   1.132  -1.431  0.00  0.00     0.026 H 
ATOM     27  H   LIG d   1       5.068   0.614  -0.827  0.00  0.00     0.026 H 
ATOM     28  C   LIG d   1       5.447  -1.457  -2.566  0.00  0.00    -0.042 C 
ATOM     29  H   LIG d   1       3.466  -0.747  -3.064  0.00  0.00     0.026 H 
ATOM     30  H   LIG d   1       3.641  -1.350  -1.382  0.00  0.00     0.026 H 
ATOM     31  H   LIG d   1       5.245  -2.481  -2.912  0.00  0.00     0.027 H 
ATOM     32  H   LIG d   1       6.108  -1.489  -1.688  0.00  0.00     0.027 H 
ATOM     33  H   LIG d   1       5.472  -0.638  -4.572  0.00  0.00     0.039 H 
ENDBRANCH  14  17
ENDBRANCH   3  13
BRANCH   1  34
ATOM     34  C   LIG d   1       9.435  -6.300  -5.809  0.00  0.00    -0.042 C 
ATOM     35  H   LIG d   1       8.336  -6.347  -5.800  0.00  0.00     0.078 H 
ATOM     36  H   LIG d   1       9.844  -7.160  -5.258  0.00  0.00     0.078 H 
ATOM     37  H   LIG d   1       9.795  -6.326  -6.848  0.00  0.00     0.078 H 
ENDBRANCH   1  34
BRANCH   6  38
ATOM     38  C   LIG d   1       9.908  -6.704  -3.371  0.00  0.00     0.276 A 
ATOM     39  O   LIG d   1      10.747  -7.742  -3.447  0.00  0.00    -0.332 OA
ATOM     40  N   LIG d   1      10.193  -8.752  -3.067  0.00  0.00    -0.056 NA
ATOM     41  C   LIG d   1       8.964  -8.483  -2.711  0.00  0.00     0.204 A 
ATOM     42  N   LIG d   1       8.774  -7.158  -2.900  0.00  0.00    -0.186 NA
BRANCH  41  43
ATOM     43  C   LIG d   1       7.965  -9.450  -2.191  0.00  0.00     0.041 A 
ATOM     44  C   LIG d   1       8.173 -10.100  -0.976  0.00  0.00     0.038 A 
ATOM     45  N   LIG d   1       7.286 -10.955  -0.512  0.00  0.00    -0.263 NA
ATOM     46  H   LIG d   1       9.069  -9.895  -0.408  0.00  0.00     0.084 H 
ATOM     47  C   LIG d   1       6.181 -11.240  -1.173  0.00  0.00     0.028 A 
ATOM     48  C   LIG d   1       5.905 -10.642  -2.390  0.00  0.00    -0.043 A 
ATOM     49  H   LIG d   1       5.482 -11.951  -0.759  0.00  0.00     0.083 H 
ATOM     50  C   LIG d   1       6.804  -9.731  -2.917  0.00  0.00    -0.048 A 
ATOM     51  H   LIG d   1       4.996 -10.882  -2.922  0.00  0.00     0.063 H 
ATOM     52  H   LIG d   1       6.613  -9.249  -3.864  0.00  0.00     0.063 H 
ENDBRANCH  41  43
ENDBRANCH   6  38
TORSDOF 5
ENDMDL
MODEL 9
REMARK VINA RESULT:      -6.1      8.300     11.488
REMARK  5 active torsions:
REMARK  status: ('A' for Active; 'I' for Inactive)
REMARK    1  A    between atoms: C_1  and  N_2 
REMARK    2  A    between atoms: C_4  and  N_20 
REMARK    3  A    between atoms: C_7  and  C_9 
REMARK    4  A    between atoms: C_11  and  C_14 
REMARK       I    between atoms: N_20  and  C_21 
REMARK    5  A    between atoms: C_21  and  C_23 
ROOT
ATOM      1  N   LIG d   1       3.608  -1.690 -10.622  0.00  0.00     0.243 N 
ATOM      2  C   LIG d   1       2.809  -2.916 -10.839  0.00  0.00    -0.012 C 
ATOM      3  C   LIG d   1       1.338  -2.430 -10.855  0.00  0.00     0.069 C 
ATOM      4  H   LIG d   1       0.950  -2.128 -11.840  0.00  0.00     0.055 H 
ATOM      5  C   LIG d   1       1.362  -1.318  -9.775  0.00  0.00     0.023 C 
ATOM      6  C   LIG d   1       2.758  -0.687  -9.956  0.00  0.00     0.061 C 
ATOM      7  H   LIG d   1       2.733   0.227 -10.568  0.00  0.00     0.095 H 
ATOM      8  H   LIG d   1       3.097  -3.378 -11.795  0.00  0.00     0.083 H 
ATOM      9  H   LIG d   1       2.995  -3.625 -10.019  0.00  0.00     0.083 H 
ATOM     10  H   LIG d   1       0.547  -0.603  -9.965  0.00  0.00     0.035 H 
ATOM     11  H   LIG d   1       1.228  -1.770  -8.780  0.00  0.00     0.035 H 
ATOM     12  H   LIG d   1       3.956  -1.296 -11.589  0.00  0.00     0.204 HD
ENDROOT
BRANCH   3  13
ATOM     13  N   LIG d   1       0.424  -3.511 -10.477  0.00  0.00    -0.307 N 
ATOM     14  C   LIG d   1      -0.193  -4.237 -11.431  0.00  0.00     0.216 C 
ATOM     15  O   LIG d   1       0.009  -3.996 -12.601  0.00  0.00    -0.276 OA
ATOM     16  H   LIG d   1       0.241  -3.730  -9.414  0.00  0.00     0.149 HD
BRANCH  14  17
ATOM     17  C   LIG d   1      -1.133  -5.348 -11.040  0.00  0.00     0.036 C 
ATOM     18  C   LIG d   1      -2.411  -4.751 -10.448  0.00  0.00    -0.042 C 
ATOM     19  C   LIG d   1      -3.365  -5.879 -10.051  0.00  0.00    -0.052 C 
ATOM     20  H   LIG d   1      -2.160  -4.153  -9.559  0.00  0.00     0.027 H 
ATOM     21  H   LIG d   1      -2.897  -4.107 -11.197  0.00  0.00     0.027 H 
ATOM     22  C   LIG d   1      -2.691  -6.774  -9.009  0.00  0.00    -0.053 C 
ATOM     23  H   LIG d   1      -3.617  -6.476 -10.940  0.00  0.00     0.026 H 
ATOM     24  H   LIG d   1      -4.284  -5.450  -9.625  0.00  0.00     0.026 H 
ATOM     25  C   LIG d   1      -1.413  -7.371  -9.601  0.00  0.00    -0.052 C 
ATOM     26  H   LIG d   1      -3.377  -7.585  -8.724  0.00  0.00     0.026 H 
ATOM     27  H   LIG d   1      -2.440  -6.177  -8.120  0.00  0.00     0.026 H 
ATOM     28  C   LIG d   1      -0.459  -6.243  -9.998  0.00  0.00    -0.042 C 
ATOM     29  H   LIG d   1      -1.665  -7.968 -10.489  0.00  0.00     0.026 H 
ATOM     30  H   LIG d   1      -0.928  -8.015  -8.852  0.00  0.00     0.026 H 
ATOM     31  H   LIG d   1       0.459  -6.673 -10.424  0.00  0.00     0.027 H 
ATOM     32  H   LIG d   1      -0.207  -5.645  -9.109  0.00  0.00     0.027 H 
ATOM     33  H   LIG d   1      -1.375  -5.936 -11.937  0.00  0.00     0.039 H 
ENDBRANCH  14  17
ENDBRANCH   3  13
BRANCH   1  34
ATOM     34  C   LIG d   1       4.808  -1.978  -9.824  0.00  0.00    -0.042 C 
ATOM     35  H   LIG d   1       5.680  -1.491 -10.285  0.00  0.00     0.078 H 
ATOM     36  H   LIG d   1       4.972  -3.065  -9.788  0.00  0.00     0.078 H 
ATOM     37  H   LIG d   1       4.670  -1.593  -8.803  0.00  0.00     0.078 H 
ENDBRANCH   1  34
BRANCH   6  38
ATOM     38  C   LIG d   1       3.341  -0.334  -8.611  0.00  0.00     0.276 A 
ATOM     39  O   LIG d   1       4.281   0.585  -8.369  0.00  0.00    -0.332 OA
ATOM     40  N   LIG d   1       4.529   0.623  -7.182  0.00  0.00    -0.056 NA
ATOM     41  C   LIG d   1       3.793  -0.248  -6.542  0.00  0.00     0.204 A 
ATOM     42  N   LIG d   1       3.017  -0.867  -7.459  0.00  0.00    -0.186 NA
BRANCH  41  43
ATOM     43  C   LIG d   1       3.803  -0.504  -5.080  0.00  0.00     0.041 A 
ATOM     44  C   LIG d   1       4.590  -1.521  -4.544  0.00  0.00     0.038 A 
ATOM     45  N   LIG d   1       4.603  -1.746  -3.247  0.00  0.00    -0.263 NA
ATOM     46  H   LIG d   1       5.198  -2.126  -5.200  0.00  0.00     0.084 H 
ATOM     47  C   LIG d   1       3.874  -1.036  -2.409  0.00  0.00     0.028 A 
ATOM     48  C   LIG d   1       3.062  -0.012  -2.863  0.00  0.00    -0.043 A 
ATOM     49  H   LIG d   1       3.910  -1.257  -1.353  0.00  0.00     0.083 H 
ATOM     50  C   LIG d   1       3.017   0.267  -4.218  0.00  0.00    -0.048 A 
ATOM     51  H   LIG d   1       2.469   0.563  -2.168  0.00  0.00     0.063 H 
ATOM     52  H   LIG d   1       2.392   1.061  -4.600  0.00  0.00     0.063 H 
ENDBRANCH  41  43
ENDBRANCH   6  38
TORSDOF 5
ENDMDL
