MODEL 1
REMARK VINA RESULT:      -6.0      0.000      0.000
REMARK  11 active torsions:
REMARK  status: ('A' for Active; 'I' for Inactive)
REMARK    1  A    between atoms: C_1  and  C_2 
REMARK    2  A    between atoms: C_2  and  C_4 
REMARK    3  A    between atoms: C_2  and  N_12 
REMARK    4  A    between atoms: C_4  and  C_5 
REMARK    5  A    between atoms: C_5  and  C_6 
REMARK    6  A    between atoms: N_12  and  C_13 
REMARK    7  A    between atoms: C_13  and  C_14 
REMARK    8  A    between atoms: C_14  and  C_16 
REMARK    9  A    between atoms: C_14  and  O_26 
REMARK   10  A    between atoms: C_19  and  O_25 
REMARK   11  A    between atoms: C_20  and  C_22 
REMARK       I    between atoms: C_22  and  N_24 
ROOT
ATOM      1  N   LIG d   1       3.517  -0.316  -8.793  0.00  0.00     0.231 N 
ATOM      2  H   LIG d   1       2.967  -0.534  -9.610  0.00  0.00     0.202 HD
ATOM      3  H   LIG d   1       4.228   0.356  -9.035  0.00  0.00     0.202 HD
ENDROOT
BRANCH   1   4
ATOM      4  C   LIG d   1       2.646   0.249  -7.752  0.00  0.00    -0.025 C 
ATOM      5  H   LIG d   1       1.605   0.034  -7.994  0.00  0.00     0.085 H 
BRANCH   4   6
ATOM      6  C   LIG d   1       2.851   1.764  -7.683  0.00  0.00    -0.022 C 
ATOM      7  H   LIG d   1       2.221   2.179  -6.896  0.00  0.00     0.028 H 
ATOM      8  H   LIG d   1       3.896   1.979  -7.464  0.00  0.00     0.028 H 
ATOM      9  H   LIG d   1       2.579   2.211  -8.639  0.00  0.00     0.028 H 
ENDBRANCH   4   6
BRANCH   4  10
ATOM     10  C   LIG d   1       2.995  -0.376  -6.400  0.00  0.00    -0.006 C 
ATOM     11  H   LIG d   1       2.491  -1.339  -6.304  0.00  0.00     0.032 H 
ATOM     12  H   LIG d   1       4.073  -0.522  -6.335  0.00  0.00     0.032 H 
BRANCH  10  13
ATOM     13  C   LIG d   1       2.537   0.554  -5.275  0.00  0.00    -0.023 C 
ATOM     14  H   LIG d   1       2.804   1.581  -5.521  0.00  0.00     0.032 H 
ATOM     15  H   LIG d   1       1.455   0.477  -5.158  0.00  0.00     0.032 H 
BRANCH  13  16
ATOM     16  C   LIG d   1       3.210   0.155  -3.988  0.00  0.00    -0.047 A 
ATOM     17  C   LIG d   1       3.242  -1.174  -3.607  0.00  0.00    -0.059 A 
ATOM     18  C   LIG d   1       3.862  -1.542  -2.428  0.00  0.00    -0.061 A 
ATOM     19  H   LIG d   1       2.785  -1.926  -4.234  0.00  0.00     0.062 H 
ATOM     20  C   LIG d   1       4.443  -0.578  -1.623  0.00  0.00    -0.062 A 
ATOM     21  H   LIG d   1       3.892  -2.580  -2.133  0.00  0.00     0.062 H 
ATOM     22  C   LIG d   1       4.405   0.751  -2.000  0.00  0.00    -0.061 A 
ATOM     23  H   LIG d   1       4.925  -0.865  -0.701  0.00  0.00     0.062 H 
ATOM     24  C   LIG d   1       3.789   1.118  -3.182  0.00  0.00    -0.059 A 
ATOM     25  H   LIG d   1       4.859   1.504  -1.372  0.00  0.00     0.062 H 
ATOM     26  H   LIG d   1       3.760   2.156  -3.476  0.00  0.00     0.062 H 
ENDBRANCH  13  16
ENDBRANCH  10  13
ENDBRANCH   4  10
ENDBRANCH   1   4
BRANCH   1  27
ATOM     27  C   LIG d   1       4.151  -1.541  -8.287  0.00  0.00    -0.003 C 
ATOM     28  H   LIG d   1       3.799  -1.742  -7.276  0.00  0.00     0.084 H 
ATOM     29  H   LIG d   1       3.891  -2.378  -8.935  0.00  0.00     0.084 H 
BRANCH  27  30
ATOM     30  C   LIG d   1       5.669  -1.359  -8.272  0.00  0.00     0.120 C 
ATOM     31  H   LIG d   1       6.138  -2.168  -8.833  0.00  0.00     0.070 H 
BRANCH  30  32
ATOM     32  C   LIG d   1       6.163  -1.385  -6.848  0.00  0.00    -0.013 A 
ATOM     33  C   LIG d   1       6.689  -0.244  -6.282  0.00  0.00    -0.040 A 
ATOM     34  C   LIG d   1       7.143  -0.266  -4.962  0.00  0.00     0.078 A 
ATOM     35  H   LIG d   1       6.746   0.668  -6.858  0.00  0.00     0.063 H 
ATOM     36  C   LIG d   1       7.069  -1.456  -4.224  0.00  0.00     0.129 A 
ATOM     37  C   LIG d   1       6.542  -2.597  -4.811  0.00  0.00    -0.019 A 
ATOM     38  C   LIG d   1       6.093  -2.559  -6.116  0.00  0.00    -0.052 A 
ATOM     39  H   LIG d   1       6.483  -3.516  -4.246  0.00  0.00     0.065 H 
ATOM     40  H   LIG d   1       5.683  -3.451  -6.568  0.00  0.00     0.062 H 
BRANCH  34  41
ATOM     41  C   LIG d   1       7.701   0.954  -4.347  0.00  0.00     0.245 C 
ATOM     42  O   LIG d   1       6.995   1.930  -4.184  0.00  0.00    -0.270 OA
ATOM     43  N   LIG d   1       8.994   0.985  -3.969  0.00  0.00    -0.325 N 
ATOM     44  H   LIG d   1       9.557   0.207  -4.100  0.00  0.00     0.145 HD
ATOM     45  H   LIG d   1       9.361   1.787  -3.565  0.00  0.00     0.145 HD
ENDBRANCH  34  41
BRANCH  36  46
ATOM     46  O   LIG d   1       7.510  -1.491  -2.942  0.00  0.00    -0.506 OA
ATOM     47  H   LIG d   1       7.554  -2.381  -2.565  0.00  0.00     0.292 HD
ENDBRANCH  36  46
ENDBRANCH  30  32
BRANCH  30  48
ATOM     48  O   LIG d   1       6.006  -0.107  -8.871  0.00  0.00    -0.382 OA
ATOM     49  H   LIG d   1       6.518   0.479  -8.296  0.00  0.00     0.210 HD
ENDBRANCH  30  48
ENDBRANCH  27  30
ENDBRANCH   1  27
TORSDOF 11
ENDMDL
MODEL 2
REMARK VINA RESULT:      -5.8      2.415      5.750
REMARK  11 active torsions:
REMARK  status: ('A' for Active; 'I' for Inactive)
REMARK    1  A    between atoms: C_1  and  C_2 
REMARK    2  A    between atoms: C_2  and  C_4 
REMARK    3  A    between atoms: C_2  and  N_12 
REMARK    4  A    between atoms: C_4  and  C_5 
REMARK    5  A    between atoms: C_5  and  C_6 
REMARK    6  A    between atoms: N_12  and  C_13 
REMARK    7  A    between atoms: C_13  and  C_14 
REMARK    8  A    between atoms: C_14  and  C_16 
REMARK    9  A    between atoms: C_14  and  O_26 
REMARK   10  A    between atoms: C_19  and  O_25 
REMARK   11  A    between atoms: C_20  and  C_22 
REMARK       I    between atoms: C_22  and  N_24 
ROOT
ATOM      1  N   LIG d   1       6.243  -1.632  -5.498  0.00  0.00     0.231 N 
ATOM      2  H   LIG d   1       6.213  -0.718  -5.075  0.00  0.00     0.202 HD
ATOM      3  H   LIG d   1       7.133  -1.764  -5.954  0.00  0.00     0.202 HD
ENDROOT
BRANCH   1   4
ATOM      4  C   LIG d   1       6.070  -2.659  -4.461  0.00  0.00    -0.025 C 
ATOM      5  H   LIG d   1       6.438  -2.279  -3.509  0.00  0.00     0.085 H 
BRANCH   4   6
ATOM      6  C   LIG d   1       6.856  -3.913  -4.848  0.00  0.00    -0.022 C 
ATOM      7  H   LIG d   1       6.678  -4.143  -5.899  0.00  0.00     0.028 H 
ATOM      8  H   LIG d   1       7.920  -3.739  -4.689  0.00  0.00     0.028 H 
ATOM      9  H   LIG d   1       6.528  -4.751  -4.233  0.00  0.00     0.028 H 
ENDBRANCH   4   6
BRANCH   4  10
ATOM     10  C   LIG d   1       4.585  -3.007  -4.330  0.00  0.00    -0.006 C 
ATOM     11  H   LIG d   1       4.013  -2.439  -5.065  0.00  0.00     0.032 H 
ATOM     12  H   LIG d   1       4.446  -4.073  -4.507  0.00  0.00     0.032 H 
BRANCH  10  13
ATOM     13  C   LIG d   1       4.101  -2.655  -2.923  0.00  0.00    -0.023 C 
ATOM     14  H   LIG d   1       3.137  -3.129  -2.741  0.00  0.00     0.032 H 
ATOM     15  H   LIG d   1       4.825  -3.011  -2.189  0.00  0.00     0.032 H 
BRANCH  13  16
ATOM     16  C   LIG d   1       3.956  -1.160  -2.800  0.00  0.00    -0.047 A 
ATOM     17  C   LIG d   1       3.166  -0.466  -3.698  0.00  0.00    -0.059 A 
ATOM     18  C   LIG d   1       3.030   0.904  -3.585  0.00  0.00    -0.061 A 
ATOM     19  H   LIG d   1       2.652  -0.996  -4.487  0.00  0.00     0.062 H 
ATOM     20  C   LIG d   1       3.692   1.583  -2.578  0.00  0.00    -0.062 A 
ATOM     21  H   LIG d   1       2.409   1.446  -4.283  0.00  0.00     0.062 H 
ATOM     22  C   LIG d   1       4.487   0.890  -1.684  0.00  0.00    -0.061 A 
ATOM     23  H   LIG d   1       3.588   2.655  -2.490  0.00  0.00     0.062 H 
ATOM     24  C   LIG d   1       4.620  -0.481  -1.795  0.00  0.00    -0.059 A 
ATOM     25  H   LIG d   1       5.004   1.421  -0.897  0.00  0.00     0.062 H 
ATOM     26  H   LIG d   1       5.240  -1.021  -1.097  0.00  0.00     0.062 H 
ENDBRANCH  13  16
ENDBRANCH  10  13
ENDBRANCH   4  10
ENDBRANCH   1   4
BRANCH   1  27
ATOM     27  C   LIG d   1       5.162  -1.750  -6.487  0.00  0.00    -0.003 C 
ATOM     28  H   LIG d   1       5.543  -2.236  -7.386  0.00  0.00     0.084 H 
ATOM     29  H   LIG d   1       4.351  -2.344  -6.069  0.00  0.00     0.084 H 
BRANCH  27  30
ATOM     30  C   LIG d   1       4.644  -0.355  -6.843  0.00  0.00     0.120 C 
ATOM     31  H   LIG d   1       4.190   0.099  -5.961  0.00  0.00     0.070 H 
BRANCH  30  32
ATOM     32  C   LIG d   1       3.614  -0.466  -7.936  0.00  0.00    -0.013 A 
ATOM     33  C   LIG d   1       3.298  -1.701  -8.461  0.00  0.00    -0.040 A 
ATOM     34  C   LIG d   1       2.340  -1.804  -9.471  0.00  0.00     0.078 A 
ATOM     35  H   LIG d   1       3.789  -2.587  -8.088  0.00  0.00     0.063 H 
ATOM     36  C   LIG d   1       1.711  -0.646  -9.951  0.00  0.00     0.129 A 
ATOM     37  C   LIG d   1       2.044   0.588  -9.416  0.00  0.00    -0.019 A 
ATOM     38  C   LIG d   1       2.990   0.676  -8.414  0.00  0.00    -0.052 A 
ATOM     39  H   LIG d   1       1.563   1.483  -9.782  0.00  0.00     0.065 H 
ATOM     40  H   LIG d   1       3.246   1.641  -8.000  0.00  0.00     0.062 H 
BRANCH  34  41
ATOM     41  C   LIG d   1       1.993  -3.124 -10.034  0.00  0.00     0.245 C 
ATOM     42  O   LIG d   1       2.874  -3.885 -10.385  0.00  0.00    -0.270 OA
ATOM     43  N   LIG d   1       0.700  -3.484 -10.158  0.00  0.00    -0.325 N 
ATOM     44  H   LIG d   1      -0.001  -2.876  -9.878  0.00  0.00     0.145 HD
ATOM     45  H   LIG d   1       0.473  -4.351 -10.527  0.00  0.00     0.145 HD
ENDBRANCH  34  41
BRANCH  36  46
ATOM     46  O   LIG d   1       0.782  -0.734 -10.935  0.00  0.00    -0.506 OA
ATOM     47  H   LIG d   1       1.091  -1.192 -11.729  0.00  0.00     0.292 HD
ENDBRANCH  36  46
ENDBRANCH  30  32
BRANCH  30  48
ATOM     48  O   LIG d   1       5.730   0.457  -7.291  0.00  0.00    -0.382 OA
ATOM     49  H   LIG d   1       5.968   0.320  -8.219  0.00  0.00     0.210 HD
ENDBRANCH  30  48
ENDBRANCH  27  30
ENDBRANCH   1  27
TORSDOF 11
ENDMDL
MODEL 3
REMARK VINA RESULT:      -5.7      1.848      3.674
REMARK  11 active torsions:
REMARK  status: ('A' for Active; 'I' for Inactive)
REMARK    1  A    between atoms: C_1  and  C_2 
REMARK    2  A    between atoms: C_2  and  C_4 
REMARK    3  A    between atoms: C_2  and  N_12 
REMARK    4  A    between atoms: C_4  and  C_5 
REMARK    5  A    between atoms: C_5  and  C_6 
REMARK    6  A    between atoms: N_12  and  C_13 
REMARK    7  A    between atoms: C_13  and  C_14 
REMARK    8  A    between atoms: C_14  and  C_16 
REMARK    9  A    between atoms: C_14  and  O_26 
REMARK   10  A    between atoms: C_19  and  O_25 
REMARK   11  A    between atoms: C_20  and  C_22 
REMARK       I    between atoms: C_22  and  N_24 
ROOT
ATOM      1  N   LIG d   1       2.343  -0.706  -4.279  0.00  0.00     0.231 N 
ATOM      2  H   LIG d   1       2.532  -1.643  -4.601  0.00  0.00     0.202 HD
ATOM      3  H   LIG d   1       1.355  -0.521  -4.344  0.00  0.00     0.202 HD
ENDROOT
BRANCH   1   4
ATOM      4  C   LIG d   1       2.774  -0.573  -2.880  0.00  0.00    -0.025 C 
ATOM      5  H   LIG d   1       1.898  -0.490  -2.237  0.00  0.00     0.085 H 
BRANCH   4   6
ATOM      6  C   LIG d   1       3.638   0.681  -2.729  0.00  0.00    -0.022 C 
ATOM      7  H   LIG d   1       3.803   0.883  -1.671  0.00  0.00     0.028 H 
ATOM      8  H   LIG d   1       4.596   0.524  -3.224  0.00  0.00     0.028 H 
ATOM      9  H   LIG d   1       3.128   1.529  -3.186  0.00  0.00     0.028 H 
ENDBRANCH   4   6
BRANCH   4  10
ATOM     10  C   LIG d   1       3.587  -1.805  -2.476  0.00  0.00    -0.006 C 
ATOM     11  H   LIG d   1       3.340  -2.084  -1.452  0.00  0.00     0.032 H 
ATOM     12  H   LIG d   1       3.350  -2.632  -3.146  0.00  0.00     0.032 H 
BRANCH  10  13
ATOM     13  C   LIG d   1       5.080  -1.483  -2.571  0.00  0.00    -0.023 C 
ATOM     14  H   LIG d   1       5.210  -0.461  -2.924  0.00  0.00     0.032 H 
ATOM     15  H   LIG d   1       5.538  -1.590  -1.587  0.00  0.00     0.032 H 
BRANCH  13  16
ATOM     16  C   LIG d   1       5.739  -2.435  -3.536  0.00  0.00    -0.047 A 
ATOM     17  C   LIG d   1       4.964  -3.258  -4.332  0.00  0.00    -0.059 A 
ATOM     18  C   LIG d   1       5.567  -4.129  -5.220  0.00  0.00    -0.061 A 
ATOM     19  H   LIG d   1       3.887  -3.219  -4.263  0.00  0.00     0.062 H 
ATOM     20  C   LIG d   1       6.947  -4.182  -5.305  0.00  0.00    -0.062 A 
ATOM     21  H   LIG d   1       4.963  -4.769  -5.846  0.00  0.00     0.062 H 
ATOM     22  C   LIG d   1       7.721  -3.363  -4.505  0.00  0.00    -0.061 A 
ATOM     23  H   LIG d   1       7.419  -4.864  -5.998  0.00  0.00     0.062 H 
ATOM     24  C   LIG d   1       7.118  -2.490  -3.620  0.00  0.00    -0.059 A 
ATOM     25  H   LIG d   1       8.799  -3.406  -4.572  0.00  0.00     0.062 H 
ATOM     26  H   LIG d   1       7.723  -1.850  -2.996  0.00  0.00     0.062 H 
ENDBRANCH  13  16
ENDBRANCH  10  13
ENDBRANCH   4  10
ENDBRANCH   1   4
BRANCH   1  27
ATOM     27  C   LIG d   1       3.080   0.256  -5.110  0.00  0.00    -0.003 C 
ATOM     28  H   LIG d   1       2.463   1.138  -5.278  0.00  0.00     0.084 H 
ATOM     29  H   LIG d   1       3.999   0.545  -4.602  0.00  0.00     0.084 H 
BRANCH  27  30
ATOM     30  C   LIG d   1       3.420  -0.390  -6.454  0.00  0.00     0.120 C 
ATOM     31  H   LIG d   1       3.003  -1.398  -6.490  0.00  0.00     0.070 H 
BRANCH  30  32
ATOM     32  C   LIG d   1       4.917  -0.463  -6.612  0.00  0.00    -0.013 A 
ATOM     33  C   LIG d   1       5.731   0.293  -5.796  0.00  0.00    -0.040 A 
ATOM     34  C   LIG d   1       7.119   0.224  -5.939  0.00  0.00     0.078 A 
ATOM     35  H   LIG d   1       5.296   0.936  -5.046  0.00  0.00     0.063 H 
ATOM     36  C   LIG d   1       7.673  -0.611  -6.920  0.00  0.00     0.129 A 
ATOM     37  C   LIG d   1       6.839  -1.361  -7.735  0.00  0.00    -0.019 A 
ATOM     38  C   LIG d   1       5.469  -1.286  -7.580  0.00  0.00    -0.052 A 
ATOM     39  H   LIG d   1       7.262  -2.005  -8.492  0.00  0.00     0.065 H 
ATOM     40  H   LIG d   1       4.824  -1.872  -8.219  0.00  0.00     0.062 H 
BRANCH  34  41
ATOM     41  C   LIG d   1       7.996   1.026  -5.065  0.00  0.00     0.245 C 
ATOM     42  O   LIG d   1       7.764   2.206  -4.889  0.00  0.00    -0.270 OA
ATOM     43  N   LIG d   1       9.056   0.450  -4.463  0.00  0.00    -0.325 N 
ATOM     44  H   LIG d   1       9.240  -0.491  -4.604  0.00  0.00     0.145 HD
ATOM     45  H   LIG d   1       9.632   0.977  -3.889  0.00  0.00     0.145 HD
ENDBRANCH  34  41
BRANCH  36  46
ATOM     46  O   LIG d   1       9.019  -0.684  -7.070  0.00  0.00    -0.506 OA
ATOM     47  H   LIG d   1       9.518  -0.273  -6.350  0.00  0.00     0.292 HD
ENDBRANCH  36  46
ENDBRANCH  30  32
BRANCH  30  48
ATOM     48  O   LIG d   1       2.867   0.391  -7.514  0.00  0.00    -0.382 OA
ATOM     49  H   LIG d   1       2.382   1.174  -7.214  0.00  0.00     0.210 HD
ENDBRANCH  30  48
ENDBRANCH  27  30
ENDBRANCH   1  27
TORSDOF 11
ENDMDL
MODEL 4
REMARK VINA RESULT:      -5.7      1.967      4.378
REMARK  11 active torsions:
REMARK  status: ('A' for Active; 'I' for Inactive)
REMARK    1  A    between atoms: C_1  and  C_2 
REMARK    2  A    between atoms: C_2  and  C_4 
REMARK    3  A    between atoms: C_2  and  N_12 
REMARK    4  A    between atoms: C_4  and  C_5 
REMARK    5  A    between atoms: C_5  and  C_6 
REMARK    6  A    between atoms: N_12  and  C_13 
REMARK    7  A    between atoms: C_13  and  C_14 
REMARK    8  A    between atoms: C_14  and  C_16 
REMARK    9  A    between atoms: C_14  and  O_26 
REMARK   10  A    between atoms: C_19  and  O_25 
REMARK   11  A    between atoms: C_20  and  C_22 
REMARK       I    between atoms: C_22  and  N_24 
ROOT
ATOM      1  N   LIG d   1       8.988   0.397  -4.610  0.00  0.00     0.231 N 
ATOM      2  H   LIG d   1       9.877   0.781  -4.329  0.00  0.00     0.202 HD
ATOM      3  H   LIG d   1       8.665  -0.253  -3.909  0.00  0.00     0.202 HD
ENDROOT
BRANCH   1   4
ATOM      4  C   LIG d   1       8.009   1.483  -4.757  0.00  0.00    -0.025 C 
ATOM      5  H   LIG d   1       7.463   1.356  -5.691  0.00  0.00     0.085 H 
BRANCH   4   6
ATOM      6  C   LIG d   1       8.739   2.828  -4.772  0.00  0.00    -0.022 C 
ATOM      7  H   LIG d   1       8.261   3.492  -5.492  0.00  0.00     0.028 H 
ATOM      8  H   LIG d   1       8.695   3.276  -3.779  0.00  0.00     0.028 H 
ATOM      9  H   LIG d   1       9.780   2.673  -5.055  0.00  0.00     0.028 H 
ENDBRANCH   4   6
BRANCH   4  10
ATOM     10  C   LIG d   1       7.027   1.447  -3.584  0.00  0.00    -0.006 C 
ATOM     11  H   LIG d   1       7.401   2.079  -2.778  0.00  0.00     0.032 H 
ATOM     12  H   LIG d   1       6.056   1.816  -3.913  0.00  0.00     0.032 H 
BRANCH  10  13
ATOM     13  C   LIG d   1       6.884   0.010  -3.083  0.00  0.00    -0.023 C 
ATOM     14  H   LIG d   1       7.393  -0.667  -3.768  0.00  0.00     0.032 H 
ATOM     15  H   LIG d   1       7.330  -0.076  -2.091  0.00  0.00     0.032 H 
BRANCH  13  16
ATOM     16  C   LIG d   1       5.424  -0.355  -3.009  0.00  0.00    -0.047 A 
ATOM     17  C   LIG d   1       4.462   0.569  -3.372  0.00  0.00    -0.059 A 
ATOM     18  C   LIG d   1       3.123   0.235  -3.309  0.00  0.00    -0.061 A 
ATOM     19  H   LIG d   1       4.758   1.552  -3.711  0.00  0.00     0.062 H 
ATOM     20  C   LIG d   1       2.744  -1.022  -2.872  0.00  0.00    -0.062 A 
ATOM     21  H   LIG d   1       2.371   0.955  -3.598  0.00  0.00     0.062 H 
ATOM     22  C   LIG d   1       3.706  -1.943  -2.502  0.00  0.00    -0.061 A 
ATOM     23  H   LIG d   1       1.697  -1.282  -2.820  0.00  0.00     0.062 H 
ATOM     24  C   LIG d   1       5.046  -1.610  -2.570  0.00  0.00    -0.059 A 
ATOM     25  H   LIG d   1       3.410  -2.925  -2.161  0.00  0.00     0.062 H 
ATOM     26  H   LIG d   1       5.796  -2.330  -2.282  0.00  0.00     0.062 H 
ENDBRANCH  13  16
ENDBRANCH  10  13
ENDBRANCH   4  10
ENDBRANCH   1   4
BRANCH   1  27
ATOM     27  C   LIG d   1       9.140  -0.302  -5.894  0.00  0.00    -0.003 C 
ATOM     28  H   LIG d   1       8.321  -0.025  -6.558  0.00  0.00     0.084 H 
ATOM     29  H   LIG d   1      10.089  -0.021  -6.350  0.00  0.00     0.084 H 
BRANCH  27  30
ATOM     30  C   LIG d   1       9.114  -1.813  -5.657  0.00  0.00     0.120 C 
ATOM     31  H   LIG d   1       9.699  -2.312  -6.430  0.00  0.00     0.070 H 
BRANCH  30  32
ATOM     32  C   LIG d   1       7.691  -2.305  -5.710  0.00  0.00    -0.013 A 
ATOM     33  C   LIG d   1       6.731  -1.565  -6.366  0.00  0.00    -0.040 A 
ATOM     34  C   LIG d   1       5.413  -2.023  -6.419  0.00  0.00     0.078 A 
ATOM     35  H   LIG d   1       7.000  -0.633  -6.841  0.00  0.00     0.063 H 
ATOM     36  C   LIG d   1       5.074  -3.232  -5.794  0.00  0.00     0.129 A 
ATOM     37  C   LIG d   1       6.051  -3.961  -5.134  0.00  0.00    -0.019 A 
ATOM     38  C   LIG d   1       7.352  -3.499  -5.094  0.00  0.00    -0.052 A 
ATOM     39  H   LIG d   1       5.795  -4.893  -4.652  0.00  0.00     0.065 H 
ATOM     40  H   LIG d   1       8.109  -4.072  -4.578  0.00  0.00     0.062 H 
BRANCH  34  41
ATOM     41  C   LIG d   1       4.382  -1.238  -7.124  0.00  0.00     0.245 C 
ATOM     42  O   LIG d   1       3.681  -1.770  -7.963  0.00  0.00    -0.270 OA
ATOM     43  N   LIG d   1       4.219   0.070  -6.839  0.00  0.00    -0.325 N 
ATOM     44  H   LIG d   1       4.779   0.493  -6.171  0.00  0.00     0.145 HD
ATOM     45  H   LIG d   1       3.541   0.586  -7.302  0.00  0.00     0.145 HD
ENDBRANCH  34  41
BRANCH  36  46
ATOM     46  O   LIG d   1       3.797  -3.685  -5.836  0.00  0.00    -0.506 OA
ATOM     47  H   LIG d   1       3.723  -4.644  -5.931  0.00  0.00     0.292 HD
ENDBRANCH  36  46
ENDBRANCH  30  32
BRANCH  30  48
ATOM     48  O   LIG d   1       9.672  -2.104  -4.375  0.00  0.00    -0.382 OA
ATOM     49  H   LIG d   1      10.224  -2.899  -4.357  0.00  0.00     0.210 HD
ENDBRANCH  30  48
ENDBRANCH  27  30
ENDBRANCH   1  27
TORSDOF 11
ENDMDL
MODEL 5
REMARK VINA RESULT:      -5.6      2.475      5.529
REMARK  11 active torsions:
REMARK  status: ('A' for Active; 'I' for Inactive)
REMARK    1  A    between atoms: C_1  and  C_2 
REMARK    2  A    between atoms: C_2  and  C_4 
REMARK    3  A    between atoms: C_2  and  N_12 
REMARK    4  A    between atoms: C_4  and  C_5 
REMARK    5  A    between atoms: C_5  and  C_6 
REMARK    6  A    between atoms: N_12  and  C_13 
REMARK    7  A    between atoms: C_13  and  C_14 
REMARK    8  A    between atoms: C_14  and  C_16 
REMARK    9  A    between atoms: C_14  and  O_26 
REMARK   10  A    between atoms: C_19  and  O_25 
REMARK   11  A    between atoms: C_20  and  C_22 
REMARK       I    between atoms: C_22  and  N_24 
ROOT
ATOM      1  N   LIG d   1       3.699   0.588  -4.784  0.00  0.00     0.231 N 
ATOM      2  H   LIG d   1       4.091   1.509  -4.912  0.00  0.00     0.202 HD
ATOM      3  H   LIG d   1       4.436  -0.099  -4.825  0.00  0.00     0.202 HD
ENDROOT
BRANCH   1   4
ATOM      4  C   LIG d   1       3.036   0.516  -3.475  0.00  0.00    -0.025 C 
ATOM      5  H   LIG d   1       2.062   1.001  -3.534  0.00  0.00     0.085 H 
BRANCH   4   6
ATOM      6  C   LIG d   1       3.896   1.225  -2.427  0.00  0.00    -0.022 C 
ATOM      7  H   LIG d   1       4.136   0.528  -1.623  0.00  0.00     0.028 H 
ATOM      8  H   LIG d   1       4.818   1.576  -2.891  0.00  0.00     0.028 H 
ATOM      9  H   LIG d   1       3.347   2.073  -2.020  0.00  0.00     0.028 H 
ENDBRANCH   4   6
BRANCH   4  10
ATOM     10  C   LIG d   1       2.852  -0.951  -3.077  0.00  0.00    -0.006 C 
ATOM     11  H   LIG d   1       1.947  -1.053  -2.476  0.00  0.00     0.032 H 
ATOM     12  H   LIG d   1       2.762  -1.562  -3.975  0.00  0.00     0.032 H 
BRANCH  10  13
ATOM     13  C   LIG d   1       4.061  -1.414  -2.262  0.00  0.00    -0.023 C 
ATOM     14  H   LIG d   1       4.527  -0.554  -1.783  0.00  0.00     0.032 H 
ATOM     15  H   LIG d   1       3.736  -2.122  -1.500  0.00  0.00     0.032 H 
BRANCH  13  16
ATOM     16  C   LIG d   1       5.056  -2.081  -3.175  0.00  0.00    -0.047 A 
ATOM     17  C   LIG d   1       4.632  -3.036  -4.080  0.00  0.00    -0.059 A 
ATOM     18  C   LIG d   1       5.544  -3.646  -4.921  0.00  0.00    -0.061 A 
ATOM     19  H   LIG d   1       3.586  -3.303  -4.134  0.00  0.00     0.062 H 
ATOM     20  C   LIG d   1       6.883  -3.308  -4.849  0.00  0.00    -0.062 A 
ATOM     21  H   LIG d   1       5.212  -4.389  -5.631  0.00  0.00     0.062 H 
ATOM     22  C   LIG d   1       7.308  -2.358  -3.940  0.00  0.00    -0.061 A 
ATOM     23  H   LIG d   1       7.597  -3.787  -5.504  0.00  0.00     0.062 H 
ATOM     24  C   LIG d   1       6.396  -1.745  -3.102  0.00  0.00    -0.059 A 
ATOM     25  H   LIG d   1       8.354  -2.094  -3.884  0.00  0.00     0.062 H 
ATOM     26  H   LIG d   1       6.728  -1.002  -2.393  0.00  0.00     0.062 H 
ENDBRANCH  13  16
ENDBRANCH  10  13
ENDBRANCH   4  10
ENDBRANCH   1   4
BRANCH   1  27
ATOM     27  C   LIG d   1       2.719   0.320  -5.845  0.00  0.00    -0.003 C 
ATOM     28  H   LIG d   1       2.397  -0.719  -5.789  0.00  0.00     0.084 H 
ATOM     29  H   LIG d   1       1.857   0.974  -5.715  0.00  0.00     0.084 H 
BRANCH  27  30
ATOM     30  C   LIG d   1       3.360   0.583  -7.209  0.00  0.00     0.120 C 
ATOM     31  H   LIG d   1       3.015   1.544  -7.593  0.00  0.00     0.070 H 
BRANCH  30  32
ATOM     32  C   LIG d   1       2.965  -0.510  -8.168  0.00  0.00    -0.013 A 
ATOM     33  C   LIG d   1       3.463  -1.784  -8.001  0.00  0.00    -0.040 A 
ATOM     34  C   LIG d   1       3.094  -2.798  -8.887  0.00  0.00     0.078 A 
ATOM     35  H   LIG d   1       4.135  -1.998  -7.183  0.00  0.00     0.063 H 
ATOM     36  C   LIG d   1       2.225  -2.508  -9.948  0.00  0.00     0.129 A 
ATOM     37  C   LIG d   1       1.738  -1.220 -10.105  0.00  0.00    -0.019 A 
ATOM     38  C   LIG d   1       2.107  -0.227  -9.218  0.00  0.00    -0.052 A 
ATOM     39  H   LIG d   1       1.067  -0.992 -10.921  0.00  0.00     0.065 H 
ATOM     40  H   LIG d   1       1.724   0.775  -9.345  0.00  0.00     0.062 H 
BRANCH  34  41
ATOM     41  C   LIG d   1       3.619  -4.166  -8.710  0.00  0.00     0.245 C 
ATOM     42  O   LIG d   1       4.269  -4.686  -9.596  0.00  0.00    -0.270 OA
ATOM     43  N   LIG d   1       3.377  -4.837  -7.567  0.00  0.00    -0.325 N 
ATOM     44  H   LIG d   1       2.859  -4.421  -6.861  0.00  0.00     0.145 HD
ATOM     45  H   LIG d   1       3.722  -5.736  -7.451  0.00  0.00     0.145 HD
ENDBRANCH  34  41
BRANCH  36  46
ATOM     46  O   LIG d   1       1.863  -3.484 -10.817  0.00  0.00    -0.506 OA
ATOM     47  H   LIG d   1       2.600  -3.853 -11.324  0.00  0.00     0.292 HD
ENDBRANCH  36  46
ENDBRANCH  30  32
BRANCH  30  48
ATOM     48  O   LIG d   1       4.781   0.607  -7.071  0.00  0.00    -0.382 OA
ATOM     49  H   LIG d   1       5.164   1.495  -7.097  0.00  0.00     0.210 HD
ENDBRANCH  30  48
ENDBRANCH  27  30
ENDBRANCH   1  27
TORSDOF 11
ENDMDL
MODEL 6
REMARK VINA RESULT:      -5.6      1.957      2.933
REMARK  11 active torsions:
REMARK  status: ('A' for Active; 'I' for Inactive)
REMARK    1  A    between atoms: C_1  and  C_2 
REMARK    2  A    between atoms: C_2  and  C_4 
REMARK    3  A    between atoms: C_2  and  N_12 
REMARK    4  A    between atoms: C_4  and  C_5 
REMARK    5  A    between atoms: C_5  and  C_6 
REMARK    6  A    between atoms: N_12  and  C_13 
REMARK    7  A    between atoms: C_13  and  C_14 
REMARK    8  A    between atoms: C_14  and  C_16 
REMARK    9  A    between atoms: C_14  and  O_26 
REMARK   10  A    between atoms: C_19  and  O_25 
REMARK   11  A    between atoms: C_20  and  C_22 
REMARK       I    between atoms: C_22  and  N_24 
ROOT
ATOM      1  N   LIG d   1       4.623   0.314  -7.354  0.00  0.00     0.231 N 
ATOM      2  H   LIG d   1       4.696   0.247  -8.358  0.00  0.00     0.202 HD
ATOM      3  H   LIG d   1       4.759   1.272  -7.070  0.00  0.00     0.202 HD
ENDROOT
BRANCH   1   4
ATOM      4  C   LIG d   1       3.291  -0.137  -6.928  0.00  0.00    -0.025 C 
ATOM      5  H   LIG d   1       3.374  -1.105  -6.437  0.00  0.00     0.085 H 
BRANCH   4   6
ATOM      6  C   LIG d   1       2.380  -0.263  -8.152  0.00  0.00    -0.022 C 
ATOM      7  H   LIG d   1       1.891   0.693  -8.341  0.00  0.00     0.028 H 
ATOM      8  H   LIG d   1       2.975  -0.545  -9.020  0.00  0.00     0.028 H 
ATOM      9  H   LIG d   1       1.625  -1.026  -7.964  0.00  0.00     0.028 H 
ENDBRANCH   4   6
BRANCH   4  10
ATOM     10  C   LIG d   1       2.696   0.881  -5.952  0.00  0.00    -0.006 C 
ATOM     11  H   LIG d   1       3.494   1.497  -5.539  0.00  0.00     0.032 H 
ATOM     12  H   LIG d   1       1.982   1.515  -6.478  0.00  0.00     0.032 H 
BRANCH  10  13
ATOM     13  C   LIG d   1       1.982   0.142  -4.818  0.00  0.00    -0.023 C 
ATOM     14  H   LIG d   1       1.124   0.725  -4.488  0.00  0.00     0.032 H 
ATOM     15  H   LIG d   1       1.644  -0.832  -5.175  0.00  0.00     0.032 H 
BRANCH  13  16
ATOM     16  C   LIG d   1       2.934  -0.049  -3.666  0.00  0.00    -0.047 A 
ATOM     17  C   LIG d   1       3.514   1.050  -3.060  0.00  0.00    -0.059 A 
ATOM     18  C   LIG d   1       4.385   0.877  -2.000  0.00  0.00    -0.061 A 
ATOM     19  H   LIG d   1       3.285   2.045  -3.412  0.00  0.00     0.062 H 
ATOM     20  C   LIG d   1       4.682  -0.398  -1.552  0.00  0.00    -0.062 A 
ATOM     21  H   LIG d   1       4.834   1.735  -1.523  0.00  0.00     0.062 H 
ATOM     22  C   LIG d   1       4.106  -1.497  -2.162  0.00  0.00    -0.061 A 
ATOM     23  H   LIG d   1       5.364  -0.534  -0.725  0.00  0.00     0.062 H 
ATOM     24  C   LIG d   1       3.233  -1.323  -3.219  0.00  0.00    -0.059 A 
ATOM     25  H   LIG d   1       4.339  -2.492  -1.812  0.00  0.00     0.062 H 
ATOM     26  H   LIG d   1       2.783  -2.181  -3.694  0.00  0.00     0.062 H 
ENDBRANCH  13  16
ENDBRANCH  10  13
ENDBRANCH   4  10
ENDBRANCH   1   4
BRANCH   1  27
ATOM     27  C   LIG d   1       5.648  -0.533  -6.730  0.00  0.00    -0.003 C 
ATOM     28  H   LIG d   1       5.552  -0.482  -5.645  0.00  0.00     0.084 H 
ATOM     29  H   LIG d   1       5.516  -1.564  -7.058  0.00  0.00     0.084 H 
BRANCH  27  30
ATOM     30  C   LIG d   1       7.036  -0.040  -7.141  0.00  0.00     0.120 C 
ATOM     31  H   LIG d   1       7.696  -0.895  -7.292  0.00  0.00     0.070 H 
BRANCH  30  32
ATOM     32  C   LIG d   1       7.598   0.842  -6.056  0.00  0.00    -0.013 A 
ATOM     33  C   LIG d   1       8.477   1.853  -6.378  0.00  0.00    -0.040 A 
ATOM     34  C   LIG d   1       8.994   2.673  -5.373  0.00  0.00     0.078 A 
ATOM     35  H   LIG d   1       8.762   2.014  -7.407  0.00  0.00     0.063 H 
ATOM     36  C   LIG d   1       8.621   2.454  -4.039  0.00  0.00     0.129 A 
ATOM     37  C   LIG d   1       7.740   1.428  -3.732  0.00  0.00    -0.019 A 
ATOM     38  C   LIG d   1       7.232   0.628  -4.737  0.00  0.00    -0.052 A 
ATOM     39  H   LIG d   1       7.449   1.256  -2.707  0.00  0.00     0.065 H 
ATOM     40  H   LIG d   1       6.546  -0.170  -4.492  0.00  0.00     0.062 H 
BRANCH  34  41
ATOM     41  C   LIG d   1       9.931   3.762  -5.711  0.00  0.00     0.245 C 
ATOM     42  O   LIG d   1      10.991   3.506  -6.249  0.00  0.00    -0.270 OA
ATOM     43  N   LIG d   1       9.611   5.039  -5.424  0.00  0.00    -0.325 N 
ATOM     44  H   LIG d   1       8.766   5.242  -4.995  0.00  0.00     0.145 HD
ATOM     45  H   LIG d   1      10.227   5.754  -5.647  0.00  0.00     0.145 HD
ENDBRANCH  34  41
BRANCH  36  46
ATOM     46  O   LIG d   1       9.120   3.241  -3.054  0.00  0.00    -0.506 OA
ATOM     47  H   LIG d   1       9.635   2.762  -2.391  0.00  0.00     0.292 HD
ENDBRANCH  36  46
ENDBRANCH  30  32
BRANCH  30  48
ATOM     48  O   LIG d   1       6.937   0.704  -8.356  0.00  0.00    -0.382 OA
ATOM     49  H   LIG d   1       7.778   1.068  -8.665  0.00  0.00     0.210 HD
ENDBRANCH  30  48
ENDBRANCH  27  30
ENDBRANCH   1  27
TORSDOF 11
ENDMDL
MODEL 7
REMARK VINA RESULT:      -5.6      1.705      2.455
REMARK  11 active torsions:
REMARK  status: ('A' for Active; 'I' for Inactive)
REMARK    1  A    between atoms: C_1  and  C_2 
REMARK    2  A    between atoms: C_2  and  C_4 
REMARK    3  A    between atoms: C_2  and  N_12 
REMARK    4  A    between atoms: C_4  and  C_5 
REMARK    5  A    between atoms: C_5  and  C_6 
REMARK    6  A    between atoms: N_12  and  C_13 
REMARK    7  A    between atoms: C_13  and  C_14 
REMARK    8  A    between atoms: C_14  and  C_16 
REMARK    9  A    between atoms: C_14  and  O_26 
REMARK   10  A    between atoms: C_19  and  O_25 
REMARK   11  A    between atoms: C_20  and  C_22 
REMARK       I    between atoms: C_22  and  N_24 
ROOT
ATOM      1  N   LIG d   1       4.091   0.541  -8.819  0.00  0.00     0.231 N 
ATOM      2  H   LIG d   1       3.787   0.374  -9.767  0.00  0.00     0.202 HD
ATOM      3  H   LIG d   1       4.574   1.425  -8.772  0.00  0.00     0.202 HD
ENDROOT
BRANCH   1   4
ATOM      4  C   LIG d   1       2.923   0.573  -7.928  0.00  0.00    -0.025 C 
ATOM      5  H   LIG d   1       2.076   0.097  -8.421  0.00  0.00     0.085 H 
BRANCH   4   6
ATOM      6  C   LIG d   1       2.572   2.025  -7.600  0.00  0.00    -0.022 C 
ATOM      7  H   LIG d   1       2.574   2.615  -8.517  0.00  0.00     0.028 H 
ATOM      8  H   LIG d   1       1.583   2.066  -7.143  0.00  0.00     0.028 H 
ATOM      9  H   LIG d   1       3.309   2.430  -6.907  0.00  0.00     0.028 H 
ENDBRANCH   4   6
BRANCH   4  10
ATOM     10  C   LIG d   1       3.248  -0.179  -6.635  0.00  0.00    -0.006 C 
ATOM     11  H   LIG d   1       2.834  -1.186  -6.686  0.00  0.00     0.032 H 
ATOM     12  H   LIG d   1       4.329  -0.236  -6.510  0.00  0.00     0.032 H 
BRANCH  10  13
ATOM     13  C   LIG d   1       2.635   0.564  -5.446  0.00  0.00    -0.023 C 
ATOM     14  H   LIG d   1       2.821   1.633  -5.550  0.00  0.00     0.032 H 
ATOM     15  H   LIG d   1       1.560   0.384  -5.420  0.00  0.00     0.032 H 
BRANCH  13  16
ATOM     16  C   LIG d   1       3.258   0.068  -4.168  0.00  0.00    -0.047 A 
ATOM     17  C   LIG d   1       3.403  -1.290  -3.951  0.00  0.00    -0.059 A 
ATOM     18  C   LIG d   1       3.978  -1.746  -2.780  0.00  0.00    -0.061 A 
ATOM     19  H   LIG d   1       3.070  -1.994  -4.699  0.00  0.00     0.062 H 
ATOM     20  C   LIG d   1       4.400  -0.843  -1.820  0.00  0.00    -0.062 A 
ATOM     21  H   LIG d   1       4.096  -2.806  -2.612  0.00  0.00     0.062 H 
ATOM     22  C   LIG d   1       4.250   0.514  -2.034  0.00  0.00    -0.061 A 
ATOM     23  H   LIG d   1       4.847  -1.200  -0.904  0.00  0.00     0.062 H 
ATOM     24  C   LIG d   1       3.679   0.970  -3.207  0.00  0.00    -0.059 A 
ATOM     25  H   LIG d   1       4.579   1.218  -1.285  0.00  0.00     0.062 H 
ATOM     26  H   LIG d   1       3.562   2.030  -3.374  0.00  0.00     0.062 H 
ENDBRANCH  13  16
ENDBRANCH  10  13
ENDBRANCH   4  10
ENDBRANCH   1   4
BRANCH   1  27
ATOM     27  C   LIG d   1       4.998  -0.536  -8.399  0.00  0.00    -0.003 C 
ATOM     28  H   LIG d   1       4.537  -1.106  -7.592  0.00  0.00     0.084 H 
ATOM     29  H   LIG d   1       5.193  -1.196  -9.244  0.00  0.00     0.084 H 
BRANCH  27  30
ATOM     30  C   LIG d   1       6.314   0.069  -7.908  0.00  0.00     0.120 C 
ATOM     31  H   LIG d   1       7.106  -0.157  -8.623  0.00  0.00     0.070 H 
BRANCH  30  32
ATOM     32  C   LIG d   1       6.667  -0.519  -6.566  0.00  0.00    -0.013 A 
ATOM     33  C   LIG d   1       6.612  -1.883  -6.378  0.00  0.00    -0.040 A 
ATOM     34  C   LIG d   1       6.944  -2.428  -5.135  0.00  0.00     0.078 A 
ATOM     35  H   LIG d   1       6.316  -2.529  -7.190  0.00  0.00     0.063 H 
ATOM     36  C   LIG d   1       7.322  -1.580  -4.085  0.00  0.00     0.129 A 
ATOM     37  C   LIG d   1       7.367  -0.209  -4.291  0.00  0.00    -0.019 A 
ATOM     38  C   LIG d   1       7.041   0.316  -5.526  0.00  0.00    -0.052 A 
ATOM     39  H   LIG d   1       7.658   0.448  -3.485  0.00  0.00     0.065 H 
ATOM     40  H   LIG d   1       7.078   1.385  -5.680  0.00  0.00     0.062 H 
BRANCH  34  41
ATOM     41  C   LIG d   1       6.892  -3.888  -4.928  0.00  0.00     0.245 C 
ATOM     42  O   LIG d   1       7.882  -4.484  -4.549  0.00  0.00    -0.270 OA
ATOM     43  N   LIG d   1       5.747  -4.561  -5.158  0.00  0.00    -0.325 N 
ATOM     44  H   LIG d   1       4.958  -4.085  -5.461  0.00  0.00     0.145 HD
ATOM     45  H   LIG d   1       5.713  -5.520  -5.022  0.00  0.00     0.145 HD
ENDBRANCH  34  41
BRANCH  36  46
ATOM     46  O   LIG d   1       7.643  -2.098  -2.873  0.00  0.00    -0.506 OA
ATOM     47  H   LIG d   1       7.102  -1.759  -2.146  0.00  0.00     0.292 HD
ENDBRANCH  36  46
ENDBRANCH  30  32
BRANCH  30  48
ATOM     48  O   LIG d   1       6.172   1.485  -7.786  0.00  0.00    -0.382 OA
ATOM     49  H   LIG d   1       5.685   1.896  -8.514  0.00  0.00     0.210 HD
ENDBRANCH  30  48
ENDBRANCH  27  30
ENDBRANCH   1  27
TORSDOF 11
ENDMDL
MODEL 8
REMARK VINA RESULT:      -5.5      4.402      6.845
REMARK  11 active torsions:
REMARK  status: ('A' for Active; 'I' for Inactive)
REMARK    1  A    between atoms: C_1  and  C_2 
REMARK    2  A    between atoms: C_2  and  C_4 
REMARK    3  A    between atoms: C_2  and  N_12 
REMARK    4  A    between atoms: C_4  and  C_5 
REMARK    5  A    between atoms: C_5  and  C_6 
REMARK    6  A    between atoms: N_12  and  C_13 
REMARK    7  A    between atoms: C_13  and  C_14 
REMARK    8  A    between atoms: C_14  and  C_16 
REMARK    9  A    between atoms: C_14  and  O_26 
REMARK   10  A    between atoms: C_19  and  O_25 
REMARK   11  A    between atoms: C_20  and  C_22 
REMARK       I    between atoms: C_22  and  N_24 
ROOT
ATOM      1  N   LIG d   1       9.958   0.875  -4.338  0.00  0.00     0.231 N 
ATOM      2  H   LIG d   1       9.771   0.586  -3.389  0.00  0.00     0.202 HD
ATOM      3  H   LIG d   1      10.673   0.286  -4.735  0.00  0.00     0.202 HD
ENDROOT
BRANCH   1   4
ATOM      4  C   LIG d   1       8.729   0.757  -5.136  0.00  0.00    -0.025 C 
ATOM      5  H   LIG d   1       8.685  -0.231  -5.591  0.00  0.00     0.085 H 
BRANCH   4   6
ATOM      6  C   LIG d   1       8.729   1.824  -6.233  0.00  0.00    -0.022 C 
ATOM      7  H   LIG d   1       7.705   2.017  -6.551  0.00  0.00     0.028 H 
ATOM      8  H   LIG d   1       9.169   2.743  -5.846  0.00  0.00     0.028 H 
ATOM      9  H   LIG d   1       9.313   1.470  -7.082  0.00  0.00     0.028 H 
ENDBRANCH   4   6
BRANCH   4  10
ATOM     10  C   LIG d   1       7.511   0.956  -4.230  0.00  0.00    -0.006 C 
ATOM     11  H   LIG d   1       7.740   1.709  -3.475  0.00  0.00     0.032 H 
ATOM     12  H   LIG d   1       6.664   1.288  -4.829  0.00  0.00     0.032 H 
BRANCH  10  13
ATOM     13  C   LIG d   1       7.165  -0.366  -3.544  0.00  0.00    -0.023 C 
ATOM     14  H   LIG d   1       7.331  -1.190  -4.237  0.00  0.00     0.032 H 
ATOM     15  H   LIG d   1       7.798  -0.497  -2.666  0.00  0.00     0.032 H 
BRANCH  13  16
ATOM     16  C   LIG d   1       5.719  -0.350  -3.122  0.00  0.00    -0.047 A 
ATOM     17  C   LIG d   1       5.012  -1.535  -3.031  0.00  0.00    -0.059 A 
ATOM     18  C   LIG d   1       3.686  -1.521  -2.641  0.00  0.00    -0.061 A 
ATOM     19  H   LIG d   1       5.497  -2.472  -3.261  0.00  0.00     0.062 H 
ATOM     20  C   LIG d   1       3.064  -0.320  -2.350  0.00  0.00    -0.062 A 
ATOM     21  H   LIG d   1       3.135  -2.447  -2.565  0.00  0.00     0.062 H 
ATOM     22  C   LIG d   1       3.769   0.865  -2.447  0.00  0.00    -0.061 A 
ATOM     23  H   LIG d   1       2.027  -0.309  -2.047  0.00  0.00     0.062 H 
ATOM     24  C   LIG d   1       5.096   0.851  -2.834  0.00  0.00    -0.059 A 
ATOM     25  H   LIG d   1       3.282   1.802  -2.220  0.00  0.00     0.062 H 
ATOM     26  H   LIG d   1       5.646   1.776  -2.909  0.00  0.00     0.062 H 
ENDBRANCH  13  16
ENDBRANCH  10  13
ENDBRANCH   4  10
ENDBRANCH   1   4
BRANCH   1  27
ATOM     27  C   LIG d   1      10.413   2.272  -4.344  0.00  0.00    -0.003 C 
ATOM     28  H   LIG d   1      11.494   2.301  -4.478  0.00  0.00     0.084 H 
ATOM     29  H   LIG d   1       9.931   2.806  -5.162  0.00  0.00     0.084 H 
BRANCH  27  30
ATOM     30  C   LIG d   1      10.045   2.933  -3.015  0.00  0.00     0.120 C 
ATOM     31  H   LIG d   1       9.100   2.525  -2.655  0.00  0.00     0.070 H 
BRANCH  30  32
ATOM     32  C   LIG d   1       9.905   4.420  -3.215  0.00  0.00    -0.013 A 
ATOM     33  C   LIG d   1       9.859   5.259  -2.124  0.00  0.00    -0.040 A 
ATOM     34  C   LIG d   1       9.733   6.638  -2.309  0.00  0.00     0.078 A 
ATOM     35  H   LIG d   1       9.923   4.852  -1.126  0.00  0.00     0.063 H 
ATOM     36  C   LIG d   1       9.645   7.156  -3.609  0.00  0.00     0.129 A 
ATOM     37  C   LIG d   1       9.688   6.297  -4.696  0.00  0.00    -0.019 A 
ATOM     38  C   LIG d   1       9.818   4.937  -4.498  0.00  0.00    -0.052 A 
ATOM     39  H   LIG d   1       9.622   6.692  -5.699  0.00  0.00     0.065 H 
ATOM     40  H   LIG d   1       9.851   4.272  -5.349  0.00  0.00     0.062 H 
BRANCH  34  41
ATOM     41  C   LIG d   1       9.688   7.543  -1.145  0.00  0.00     0.245 C 
ATOM     42  O   LIG d   1       8.643   8.079  -0.831  0.00  0.00    -0.270 OA
ATOM     43  N   LIG d   1      10.807   7.776  -0.430  0.00  0.00    -0.325 N 
ATOM     44  H   LIG d   1      11.640   7.349  -0.681  0.00  0.00     0.145 HD
ATOM     45  H   LIG d   1      10.777   8.370   0.336  0.00  0.00     0.145 HD
ENDBRANCH  34  41
BRANCH  36  46
ATOM     46  O   LIG d   1       9.519   8.493  -3.801  0.00  0.00    -0.506 OA
ATOM     47  H   LIG d   1       9.365   8.995  -2.989  0.00  0.00     0.292 HD
ENDBRANCH  36  46
ENDBRANCH  30  32
BRANCH  30  48
ATOM     48  O   LIG d   1      11.071   2.676  -2.054  0.00  0.00    -0.382 OA
ATOM     49  H   LIG d   1      11.959   2.918  -2.352  0.00  0.00     0.210 HD
ENDBRANCH  30  48
ENDBRANCH  27  30
ENDBRANCH   1  27
TORSDOF 11
ENDMDL
MODEL 9
REMARK VINA RESULT:      -5.5      2.296      4.133
REMARK  11 active torsions:
REMARK  status: ('A' for Active; 'I' for Inactive)
REMARK    1  A    between atoms: C_1  and  C_2 
REMARK    2  A    between atoms: C_2  and  C_4 
REMARK    3  A    between atoms: C_2  and  N_12 
REMARK    4  A    between atoms: C_4  and  C_5 
REMARK    5  A    between atoms: C_5  and  C_6 
REMARK    6  A    between atoms: N_12  and  C_13 
REMARK    7  A    between atoms: C_13  and  C_14 
REMARK    8  A    between atoms: C_14  and  C_16 
REMARK    9  A    between atoms: C_14  and  O_26 
REMARK   10  A    between atoms: C_19  and  O_25 
REMARK   11  A    between atoms: C_20  and  C_22 
REMARK       I    between atoms: C_22  and  N_24 
ROOT
ATOM      1  N   LIG d   1       3.897   0.612  -4.660  0.00  0.00     0.231 N 
ATOM      2  H   LIG d   1       4.085   1.585  -4.846  0.00  0.00     0.202 HD
ATOM      3  H   LIG d   1       4.768   0.121  -4.530  0.00  0.00     0.202 HD
ENDROOT
BRANCH   1   4
ATOM      4  C   LIG d   1       3.084   0.495  -3.441  0.00  0.00    -0.025 C 
ATOM      5  H   LIG d   1       2.125   0.988  -3.596  0.00  0.00     0.085 H 
BRANCH   4   6
ATOM      6  C   LIG d   1       3.816   1.159  -2.273  0.00  0.00    -0.022 C 
ATOM      7  H   LIG d   1       4.851   0.817  -2.253  0.00  0.00     0.028 H 
ATOM      8  H   LIG d   1       3.793   2.241  -2.398  0.00  0.00     0.028 H 
ATOM      9  H   LIG d   1       3.326   0.889  -1.338  0.00  0.00     0.028 H 
ENDBRANCH   4   6
BRANCH   4  10
ATOM     10  C   LIG d   1       2.851  -0.984  -3.124  0.00  0.00    -0.006 C 
ATOM     11  H   LIG d   1       1.926  -1.093  -2.557  0.00  0.00     0.032 H 
ATOM     12  H   LIG d   1       2.776  -1.548  -4.054  0.00  0.00     0.032 H 
BRANCH  10  13
ATOM     13  C   LIG d   1       4.022  -1.518  -2.297  0.00  0.00    -0.023 C 
ATOM     14  H   LIG d   1       4.475  -0.701  -1.738  0.00  0.00     0.032 H 
ATOM     15  H   LIG d   1       3.659  -2.277  -1.602  0.00  0.00     0.032 H 
BRANCH  13  16
ATOM     16  C   LIG d   1       5.048  -2.129  -3.215  0.00  0.00    -0.047 A 
ATOM     17  C   LIG d   1       4.689  -3.155  -4.069  0.00  0.00    -0.059 A 
ATOM     18  C   LIG d   1       5.629  -3.714  -4.914  0.00  0.00    -0.061 A 
ATOM     19  H   LIG d   1       3.671  -3.517  -4.079  0.00  0.00     0.062 H 
ATOM     20  C   LIG d   1       6.933  -3.252  -4.897  0.00  0.00    -0.062 A 
ATOM     21  H   LIG d   1       5.347  -4.512  -5.585  0.00  0.00     0.062 H 
ATOM     22  C   LIG d   1       7.294  -2.231  -4.039  0.00  0.00    -0.061 A 
ATOM     23  H   LIG d   1       7.669  -3.690  -5.556  0.00  0.00     0.062 H 
ATOM     24  C   LIG d   1       6.353  -1.669  -3.197  0.00  0.00    -0.059 A 
ATOM     25  H   LIG d   1       8.313  -1.870  -4.027  0.00  0.00     0.062 H 
ATOM     26  H   LIG d   1       6.635  -0.871  -2.527  0.00  0.00     0.062 H 
ENDBRANCH  13  16
ENDBRANCH  10  13
ENDBRANCH   4  10
ENDBRANCH   1   4
BRANCH   1  27
ATOM     27  C   LIG d   1       3.167   0.027  -5.793  0.00  0.00    -0.003 C 
ATOM     28  H   LIG d   1       2.364  -0.608  -5.420  0.00  0.00     0.084 H 
ATOM     29  H   LIG d   1       2.745   0.825  -6.403  0.00  0.00     0.084 H 
BRANCH  27  30
ATOM     30  C   LIG d   1       4.128  -0.810  -6.639  0.00  0.00     0.120 C 
ATOM     31  H   LIG d   1       4.697  -1.477  -5.990  0.00  0.00     0.070 H 
BRANCH  30  32
ATOM     32  C   LIG d   1       5.076   0.103  -7.373  0.00  0.00    -0.013 A 
ATOM     33  C   LIG d   1       6.408   0.135  -7.023  0.00  0.00    -0.040 A 
ATOM     34  C   LIG d   1       7.288   0.978  -7.706  0.00  0.00     0.078 A 
ATOM     35  H   LIG d   1       6.772  -0.493  -6.224  0.00  0.00     0.063 H 
ATOM     36  C   LIG d   1       6.804   1.793  -8.740  0.00  0.00     0.129 A 
ATOM     37  C   LIG d   1       5.460   1.752  -9.075  0.00  0.00    -0.019 A 
ATOM     38  C   LIG d   1       4.602   0.911  -8.395  0.00  0.00    -0.052 A 
ATOM     39  H   LIG d   1       5.083   2.378  -9.871  0.00  0.00     0.065 H 
ATOM     40  H   LIG d   1       3.555   0.883  -8.661  0.00  0.00     0.062 H 
BRANCH  34  41
ATOM     41  C   LIG d   1       8.717   1.014  -7.341  0.00  0.00     0.245 C 
ATOM     42  O   LIG d   1       9.401   0.016  -7.464  0.00  0.00    -0.270 OA
ATOM     43  N   LIG d   1       9.263   2.152  -6.869  0.00  0.00    -0.325 N 
ATOM     44  H   LIG d   1       8.717   2.947  -6.770  0.00  0.00     0.145 HD
ATOM     45  H   LIG d   1      10.202   2.175  -6.628  0.00  0.00     0.145 HD
ENDBRANCH  34  41
BRANCH  36  46
ATOM     46  O   LIG d   1       7.649   2.618  -9.407  0.00  0.00    -0.506 OA
ATOM     47  H   LIG d   1       8.559   2.293  -9.457  0.00  0.00     0.292 HD
ENDBRANCH  36  46
ENDBRANCH  30  32
BRANCH  30  48
ATOM     48  O   LIG d   1       3.384  -1.583  -7.582  0.00  0.00    -0.382 OA
ATOM     49  H   LIG d   1       3.649  -2.512  -7.625  0.00  0.00     0.210 HD
ENDBRANCH  30  48
ENDBRANCH  27  30
ENDBRANCH   1  27
TORSDOF 11
ENDMDL
MODEL 10
REMARK VINA RESULT:      -5.4      1.325      1.573
REMARK  11 active torsions:
REMARK  status: ('A' for Active; 'I' for Inactive)
REMARK    1  A    between atoms: C_1  and  C_2 
REMARK    2  A    between atoms: C_2  and  C_4 
REMARK    3  A    between atoms: C_2  and  N_12 
REMARK    4  A    between atoms: C_4  and  C_5 
REMARK    5  A    between atoms: C_5  and  C_6 
REMARK    6  A    between atoms: N_12  and  C_13 
REMARK    7  A    between atoms: C_13  and  C_14 
REMARK    8  A    between atoms: C_14  and  C_16 
REMARK    9  A    between atoms: C_14  and  O_26 
REMARK   10  A    between atoms: C_19  and  O_25 
REMARK   11  A    between atoms: C_20  and  C_22 
REMARK       I    between atoms: C_22  and  N_24 
ROOT
ATOM      1  N   LIG d   1       3.983  -1.482  -8.041  0.00  0.00     0.231 N 
ATOM      2  H   LIG d   1       3.621  -1.987  -8.835  0.00  0.00     0.202 HD
ATOM      3  H   LIG d   1       4.805  -0.967  -8.316  0.00  0.00     0.202 HD
ENDROOT
BRANCH   1   4
ATOM      4  C   LIG d   1       2.963  -0.546  -7.548  0.00  0.00    -0.025 C 
ATOM      5  H   LIG d   1       2.101  -1.106  -7.187  0.00  0.00     0.085 H 
BRANCH   4   6
ATOM      6  C   LIG d   1       2.529   0.380  -8.686  0.00  0.00    -0.022 C 
ATOM      7  H   LIG d   1       1.935  -0.183  -9.406  0.00  0.00     0.028 H 
ATOM      8  H   LIG d   1       1.931   1.198  -8.281  0.00  0.00     0.028 H 
ATOM      9  H   LIG d   1       3.411   0.785  -9.181  0.00  0.00     0.028 H 
ENDBRANCH   4   6
BRANCH   4  10
ATOM     10  C   LIG d   1       3.545   0.288  -6.405  0.00  0.00    -0.006 C 
ATOM     11  H   LIG d   1       4.464  -0.177  -6.047  0.00  0.00     0.032 H 
ATOM     12  H   LIG d   1       3.763   1.294  -6.763  0.00  0.00     0.032 H 
BRANCH  10  13
ATOM     13  C   LIG d   1       2.533   0.362  -5.261  0.00  0.00    -0.023 C 
ATOM     14  H   LIG d   1       2.138   1.374  -5.189  0.00  0.00     0.032 H 
ATOM     15  H   LIG d   1       1.715  -0.334  -5.453  0.00  0.00     0.032 H 
BRANCH  13  16
ATOM     16  C   LIG d   1       3.209  -0.005  -3.966  0.00  0.00    -0.047 A 
ATOM     17  C   LIG d   1       3.203  -1.318  -3.530  0.00  0.00    -0.059 A 
ATOM     18  C   LIG d   1       3.826  -1.656  -2.344  0.00  0.00    -0.061 A 
ATOM     19  H   LIG d   1       2.714  -2.080  -4.120  0.00  0.00     0.062 H 
ATOM     20  C   LIG d   1       4.449  -0.680  -1.588  0.00  0.00    -0.062 A 
ATOM     21  H   LIG d   1       3.826  -2.682  -2.007  0.00  0.00     0.062 H 
ATOM     22  C   LIG d   1       4.449   0.633  -2.020  0.00  0.00    -0.061 A 
ATOM     23  H   LIG d   1       4.934  -0.944  -0.659  0.00  0.00     0.062 H 
ATOM     24  C   LIG d   1       3.830   0.971  -3.208  0.00  0.00    -0.059 A 
ATOM     25  H   LIG d   1       4.935   1.396  -1.428  0.00  0.00     0.062 H 
ATOM     26  H   LIG d   1       3.831   1.996  -3.545  0.00  0.00     0.062 H 
ENDBRANCH  13  16
ENDBRANCH  10  13
ENDBRANCH   4  10
ENDBRANCH   1   4
BRANCH   1  27
ATOM     27  C   LIG d   1       4.333  -2.431  -6.975  0.00  0.00    -0.003 C 
ATOM     28  H   LIG d   1       4.048  -2.014  -6.009  0.00  0.00     0.084 H 
ATOM     29  H   LIG d   1       3.802  -3.369  -7.136  0.00  0.00     0.084 H 
BRANCH  27  30
ATOM     30  C   LIG d   1       5.841  -2.685  -6.995  0.00  0.00     0.120 C 
ATOM     31  H   LIG d   1       6.043  -3.694  -6.633  0.00  0.00     0.070 H 
BRANCH  30  32
ATOM     32  C   LIG d   1       6.531  -1.686  -6.103  0.00  0.00    -0.013 A 
ATOM     33  C   LIG d   1       7.095  -0.553  -6.648  0.00  0.00    -0.040 A 
ATOM     34  C   LIG d   1       7.731   0.376  -5.821  0.00  0.00     0.078 A 
ATOM     35  H   LIG d   1       7.043  -0.383  -7.713  0.00  0.00     0.063 H 
ATOM     36  C   LIG d   1       7.798   0.142  -4.440  0.00  0.00     0.129 A 
ATOM     37  C   LIG d   1       7.229  -1.006  -3.909  0.00  0.00    -0.019 A 
ATOM     38  C   LIG d   1       6.599  -1.913  -4.738  0.00  0.00    -0.052 A 
ATOM     39  H   LIG d   1       7.277  -1.189  -2.846  0.00  0.00     0.065 H 
ATOM     40  H   LIG d   1       6.158  -2.806  -4.318  0.00  0.00     0.062 H 
BRANCH  34  41
ATOM     41  C   LIG d   1       8.333   1.593  -6.397  0.00  0.00     0.245 C 
ATOM     42  O   LIG d   1       7.718   2.244  -7.220  0.00  0.00    -0.270 OA
ATOM     43  N   LIG d   1       9.564   1.983  -6.011  0.00  0.00    -0.325 N 
ATOM     44  H   LIG d   1      10.054   1.463  -5.356  0.00  0.00     0.145 HD
ATOM     45  H   LIG d   1       9.959   2.784  -6.390  0.00  0.00     0.145 HD
ENDBRANCH  34  41
BRANCH  36  46
ATOM     46  O   LIG d   1       8.416   1.035  -3.628  0.00  0.00    -0.506 OA
ATOM     47  H   LIG d   1       8.049   1.929  -3.675  0.00  0.00     0.292 HD
ENDBRANCH  36  46
ENDBRANCH  30  32
BRANCH  30  48
ATOM     48  O   LIG d   1       6.330  -2.551  -8.330  0.00  0.00    -0.382 OA
ATOM     49  H   LIG d   1       7.270  -2.333  -8.384  0.00  0.00     0.210 HD
ENDBRANCH  30  48
ENDBRANCH  27  30
ENDBRANCH   1  27
TORSDOF 11
ENDMDL
