MODEL 1
REMARK VINA RESULT:      -6.3      0.000      0.000
REMARK  7 active torsions:
REMARK  status: ('A' for Active; 'I' for Inactive)
REMARK    1  A    between atoms: C_1  and  C_2 
REMARK    2  A    between atoms: C_2  and  O_3 
REMARK    3  A    between atoms: O_3  and  C_4 
REMARK    4  A    between atoms: C_4  and  C_6 
REMARK    5  A    between atoms: N_7  and  N_8 
REMARK    6  A    between atoms: N_8  and  C_9 
REMARK    7  A    between atoms: C_13  and  C_15 
ROOT
ATOM      1  C   LIG d   1       4.445  -0.889  -8.122  0.00  0.00     0.241 C 
ATOM      2  N   LIG d   1       4.581  -0.790  -6.816  0.00  0.00    -0.164 NA
ATOM      3  C   LIG d   1       3.815  -2.042  -8.691  0.00  0.00     0.128 C 
ATOM      4  N   LIG d   1       3.316  -2.958  -9.143  0.00  0.00    -0.189 NA
ENDROOT
BRANCH   1   5
ATOM      5  C   LIG d   1       4.938   0.185  -8.996  0.00  0.00     0.370 C 
ATOM      6  O   LIG d   1       5.263  -0.063 -10.141  0.00  0.00    -0.242 OA
BRANCH   5   7
ATOM      7  O   LIG d   1       5.032   1.446  -8.527  0.00  0.00    -0.460 OA
BRANCH   7   8
ATOM      8  C   LIG d   1       4.210   2.453  -9.176  0.00  0.00     0.090 C 
ATOM      9  H   LIG d   1       4.545   3.445  -8.874  0.00  0.00     0.070 H 
ATOM     10  H   LIG d   1       4.299   2.352 -10.258  0.00  0.00     0.070 H 
BRANCH   8  11
ATOM     11  C   LIG d   1       2.750   2.260  -8.764  0.00  0.00    -0.031 C 
ATOM     12  H   LIG d   1       2.158   1.993  -9.640  0.00  0.00     0.026 H 
ATOM     13  H   LIG d   1       2.683   1.462  -8.024  0.00  0.00     0.026 H 
ATOM     14  H   LIG d   1       2.367   3.186  -8.336  0.00  0.00     0.026 H 
ENDBRANCH   8  11
ENDBRANCH   7   8
ENDBRANCH   5   7
ENDBRANCH   1   5
BRANCH   2  15
ATOM     15  N   LIG d   1       4.149  -1.733  -6.049  0.00  0.00    -0.236 N 
ATOM     16  H   LIG d   1       3.798  -2.550  -6.436  0.00  0.00     0.174 HD
BRANCH  15  17
ATOM     17  C   LIG d   1       4.185  -1.577  -4.663  0.00  0.00     0.049 A 
ATOM     18  C   LIG d   1       4.283  -0.307  -4.108  0.00  0.00    -0.028 A 
ATOM     19  C   LIG d   1       4.311  -0.156  -2.735  0.00  0.00     0.057 A 
ATOM     20  H   LIG d   1       4.332   0.562  -4.748  0.00  0.00     0.064 H 
ATOM     21  C   LIG d   1       4.253  -1.266  -1.914  0.00  0.00    -0.050 A 
ATOM     22  C   LIG d   1       4.155  -2.532  -2.463  0.00  0.00    -0.059 A 
ATOM     23  H   LIG d   1       4.279  -1.145  -0.841  0.00  0.00     0.062 H 
ATOM     24  C   LIG d   1       4.120  -2.691  -3.834  0.00  0.00    -0.039 A 
ATOM     25  H   LIG d   1       4.106  -3.397  -1.819  0.00  0.00     0.062 H 
ATOM     26  H   LIG d   1       4.044  -3.679  -4.262  0.00  0.00     0.064 H 
BRANCH  19  27
ATOM     27  C   LIG d   1       4.411   1.222  -2.131  0.00  0.00     0.417 C 
ATOM     28  F   LIG d   1       4.828   1.118  -0.800  0.00  0.00    -0.166 F 
ATOM     29  F   LIG d   1       5.339   1.981  -2.853  0.00  0.00    -0.166 F 
ATOM     30  F   LIG d   1       3.159   1.845  -2.182  0.00  0.00    -0.166 F 
ENDBRANCH  19  27
ENDBRANCH  15  17
ENDBRANCH   2  15
TORSDOF 7
ENDMDL
MODEL 2
REMARK VINA RESULT:      -6.3      2.162      2.964
REMARK  7 active torsions:
REMARK  status: ('A' for Active; 'I' for Inactive)
REMARK    1  A    between atoms: C_1  and  C_2 
REMARK    2  A    between atoms: C_2  and  O_3 
REMARK    3  A    between atoms: O_3  and  C_4 
REMARK    4  A    between atoms: C_4  and  C_6 
REMARK    5  A    between atoms: N_7  and  N_8 
REMARK    6  A    between atoms: N_8  and  C_9 
REMARK    7  A    between atoms: C_13  and  C_15 
ROOT
ATOM      1  C   LIG d   1       3.521   0.497  -8.101  0.00  0.00     0.241 C 
ATOM      2  N   LIG d   1       3.013   1.038  -7.013  0.00  0.00    -0.164 NA
ATOM      3  C   LIG d   1       3.514  -0.925  -8.264  0.00  0.00     0.128 C 
ATOM      4  N   LIG d   1       3.510  -2.055  -8.393  0.00  0.00    -0.189 NA
ENDROOT
BRANCH   1   5
ATOM      5  C   LIG d   1       4.094   1.354  -9.149  0.00  0.00     0.370 C 
ATOM      6  O   LIG d   1       3.983   2.563  -9.074  0.00  0.00    -0.242 OA
BRANCH   5   7
ATOM      7  O   LIG d   1       4.741   0.801 -10.194  0.00  0.00    -0.460 OA
BRANCH   7   8
ATOM      8  C   LIG d   1       4.023   0.734 -11.455  0.00  0.00     0.090 C 
ATOM      9  H   LIG d   1       2.973   0.973 -11.287  0.00  0.00     0.070 H 
ATOM     10  H   LIG d   1       4.452   1.449 -12.156  0.00  0.00     0.070 H 
BRANCH   8  11
ATOM     11  C   LIG d   1       4.138  -0.679 -12.031  0.00  0.00    -0.031 C 
ATOM     12  H   LIG d   1       4.363  -1.381 -11.229  0.00  0.00     0.026 H 
ATOM     13  H   LIG d   1       3.195  -0.957 -12.503  0.00  0.00     0.026 H 
ATOM     14  H   LIG d   1       4.937  -0.705 -12.772  0.00  0.00     0.026 H 
ENDBRANCH   8  11
ENDBRANCH   7   8
ENDBRANCH   5   7
ENDBRANCH   1   5
BRANCH   2  15
ATOM     15  N   LIG d   1       2.511   0.286  -6.093  0.00  0.00    -0.236 N 
ATOM     16  H   LIG d   1       1.818  -0.354  -6.315  0.00  0.00     0.174 HD
BRANCH  15  17
ATOM     17  C   LIG d   1       2.965   0.395  -4.778  0.00  0.00     0.049 A 
ATOM     18  C   LIG d   1       3.474  -0.719  -4.122  0.00  0.00    -0.028 A 
ATOM     19  C   LIG d   1       3.930  -0.605  -2.823  0.00  0.00     0.057 A 
ATOM     20  H   LIG d   1       3.519  -1.672  -4.629  0.00  0.00     0.064 H 
ATOM     21  C   LIG d   1       3.868   0.612  -2.171  0.00  0.00    -0.050 A 
ATOM     22  C   LIG d   1       3.361   1.724  -2.821  0.00  0.00    -0.059 A 
ATOM     23  H   LIG d   1       4.220   0.697  -1.154  0.00  0.00     0.062 H 
ATOM     24  C   LIG d   1       2.911   1.619  -4.121  0.00  0.00    -0.039 A 
ATOM     25  H   LIG d   1       3.318   2.674  -2.310  0.00  0.00     0.062 H 
ATOM     26  H   LIG d   1       2.515   2.487  -4.628  0.00  0.00     0.064 H 
BRANCH  19  27
ATOM     27  C   LIG d   1       4.488  -1.811  -2.113  0.00  0.00     0.417 C 
ATOM     28  F   LIG d   1       5.650  -2.240  -2.764  0.00  0.00    -0.166 F 
ATOM     29  F   LIG d   1       4.794  -1.474  -0.790  0.00  0.00    -0.166 F 
ATOM     30  F   LIG d   1       3.539  -2.840  -2.124  0.00  0.00    -0.166 F 
ENDBRANCH  19  27
ENDBRANCH  15  17
ENDBRANCH   2  15
TORSDOF 7
ENDMDL
MODEL 3
REMARK VINA RESULT:      -6.1      3.992      5.521
REMARK  7 active torsions:
REMARK  status: ('A' for Active; 'I' for Inactive)
REMARK    1  A    between atoms: C_1  and  C_2 
REMARK    2  A    between atoms: C_2  and  O_3 
REMARK    3  A    between atoms: O_3  and  C_4 
REMARK    4  A    between atoms: C_4  and  C_6 
REMARK    5  A    between atoms: N_7  and  N_8 
REMARK    6  A    between atoms: N_8  and  C_9 
REMARK    7  A    between atoms: C_13  and  C_15 
ROOT
ATOM      1  C   LIG d   1       4.326  -5.402  -6.187  0.00  0.00     0.241 C 
ATOM      2  N   LIG d   1       4.369  -4.698  -5.075  0.00  0.00    -0.164 NA
ATOM      3  C   LIG d   1       3.898  -4.788  -7.407  0.00  0.00     0.128 C 
ATOM      4  N   LIG d   1       3.558  -4.300  -8.376  0.00  0.00    -0.189 NA
ENDROOT
BRANCH   1   5
ATOM      5  C   LIG d   1       4.718  -6.819  -6.176  0.00  0.00     0.370 C 
ATOM      6  O   LIG d   1       5.152  -7.338  -7.186  0.00  0.00    -0.242 OA
BRANCH   5   7
ATOM      7  O   LIG d   1       4.596  -7.543  -5.045  0.00  0.00    -0.460 OA
BRANCH   7   8
ATOM      8  C   LIG d   1       4.764  -8.981  -5.162  0.00  0.00     0.090 C 
ATOM      9  H   LIG d   1       3.861  -9.482  -4.812  0.00  0.00     0.070 H 
ATOM     10  H   LIG d   1       4.944  -9.242  -6.204  0.00  0.00     0.070 H 
BRANCH   8  11
ATOM     11  C   LIG d   1       5.956  -9.425  -4.311  0.00  0.00    -0.031 C 
ATOM     12  H   LIG d   1       5.928  -8.909  -3.351  0.00  0.00     0.026 H 
ATOM     13  H   LIG d   1       5.903 -10.502  -4.146  0.00  0.00     0.026 H 
ATOM     14  H   LIG d   1       6.883  -9.181  -4.828  0.00  0.00     0.026 H 
ENDBRANCH   8  11
ENDBRANCH   7   8
ENDBRANCH   5   7
ENDBRANCH   1   5
BRANCH   2  15
ATOM     15  N   LIG d   1       4.024  -3.455  -5.084  0.00  0.00    -0.236 N 
ATOM     16  H   LIG d   1       3.254  -3.170  -5.600  0.00  0.00     0.174 HD
BRANCH  15  17
ATOM     17  C   LIG d   1       4.760  -2.522  -4.355  0.00  0.00     0.049 A 
ATOM     18  C   LIG d   1       4.117  -1.452  -3.743  0.00  0.00    -0.028 A 
ATOM     19  C   LIG d   1       4.849  -0.534  -3.015  0.00  0.00     0.057 A 
ATOM     20  H   LIG d   1       3.046  -1.342  -3.832  0.00  0.00     0.064 H 
ATOM     21  C   LIG d   1       6.220  -0.671  -2.905  0.00  0.00    -0.050 A 
ATOM     22  C   LIG d   1       6.864  -1.734  -3.512  0.00  0.00    -0.059 A 
ATOM     23  H   LIG d   1       6.790   0.051  -2.339  0.00  0.00     0.062 H 
ATOM     24  C   LIG d   1       6.139  -2.659  -4.236  0.00  0.00    -0.039 A 
ATOM     25  H   LIG d   1       7.934  -1.840  -3.421  0.00  0.00     0.062 H 
ATOM     26  H   LIG d   1       6.641  -3.489  -4.710  0.00  0.00     0.064 H 
BRANCH  19  27
ATOM     27  C   LIG d   1       4.152   0.623  -2.346  0.00  0.00     0.417 C 
ATOM     28  F   LIG d   1       4.665   0.793  -1.056  0.00  0.00    -0.166 F 
ATOM     29  F   LIG d   1       4.365   1.789  -3.089  0.00  0.00    -0.166 F 
ATOM     30  F   LIG d   1       2.779   0.361  -2.272  0.00  0.00    -0.166 F 
ENDBRANCH  19  27
ENDBRANCH  15  17
ENDBRANCH   2  15
TORSDOF 7
ENDMDL
MODEL 4
REMARK VINA RESULT:      -6.1      2.354      3.424
REMARK  7 active torsions:
REMARK  status: ('A' for Active; 'I' for Inactive)
REMARK    1  A    between atoms: C_1  and  C_2 
REMARK    2  A    between atoms: C_2  and  O_3 
REMARK    3  A    between atoms: O_3  and  C_4 
REMARK    4  A    between atoms: C_4  and  C_6 
REMARK    5  A    between atoms: N_7  and  N_8 
REMARK    6  A    between atoms: N_8  and  C_9 
REMARK    7  A    between atoms: C_13  and  C_15 
ROOT
ATOM      1  C   LIG d   1       4.582   0.487  -9.167  0.00  0.00     0.241 C 
ATOM      2  N   LIG d   1       4.300  -0.282  -8.135  0.00  0.00    -0.164 NA
ATOM      3  C   LIG d   1       5.469   1.599  -9.011  0.00  0.00     0.128 C 
ATOM      4  N   LIG d   1       6.173   2.483  -8.886  0.00  0.00    -0.189 NA
ENDROOT
BRANCH   1   5
ATOM      5  C   LIG d   1       3.986   0.201 -10.480  0.00  0.00     0.370 C 
ATOM      6  O   LIG d   1       3.975   1.059 -11.343  0.00  0.00    -0.242 OA
BRANCH   5   7
ATOM      7  O   LIG d   1       3.451  -1.011 -10.729  0.00  0.00    -0.460 OA
BRANCH   7   8
ATOM      8  C   LIG d   1       2.046  -1.048 -11.098  0.00  0.00     0.090 C 
ATOM      9  H   LIG d   1       1.567  -0.118 -10.796  0.00  0.00     0.070 H 
ATOM     10  H   LIG d   1       1.958  -1.170 -12.178  0.00  0.00     0.070 H 
BRANCH   8  11
ATOM     11  C   LIG d   1       1.367  -2.225 -10.395  0.00  0.00    -0.031 C 
ATOM     12  H   LIG d   1       1.644  -3.154 -10.893  0.00  0.00     0.026 H 
ATOM     13  H   LIG d   1       1.689  -2.261  -9.354  0.00  0.00     0.026 H 
ATOM     14  H   LIG d   1       0.285  -2.099 -10.437  0.00  0.00     0.026 H 
ENDBRANCH   8  11
ENDBRANCH   7   8
ENDBRANCH   5   7
ENDBRANCH   1   5
BRANCH   2  15
ATOM     15  N   LIG d   1       4.822  -0.031  -6.983  0.00  0.00    -0.236 N 
ATOM     16  H   LIG d   1       5.745   0.259  -6.922  0.00  0.00     0.174 HD
BRANCH  15  17
ATOM     17  C   LIG d   1       4.060  -0.180  -5.824  0.00  0.00     0.049 A 
ATOM     18  C   LIG d   1       4.586  -0.848  -4.725  0.00  0.00    -0.028 A 
ATOM     19  C   LIG d   1       3.831  -0.987  -3.577  0.00  0.00     0.057 A 
ATOM     20  H   LIG d   1       5.587  -1.253  -4.766  0.00  0.00     0.064 H 
ATOM     21  C   LIG d   1       2.549  -0.474  -3.525  0.00  0.00    -0.050 A 
ATOM     22  C   LIG d   1       2.021   0.192  -4.617  0.00  0.00    -0.059 A 
ATOM     23  H   LIG d   1       1.958  -0.588  -2.627  0.00  0.00     0.062 H 
ATOM     24  C   LIG d   1       2.772   0.340  -5.765  0.00  0.00    -0.039 A 
ATOM     25  H   LIG d   1       1.020   0.595  -4.571  0.00  0.00     0.062 H 
ATOM     26  H   LIG d   1       2.359   0.860  -6.618  0.00  0.00     0.064 H 
BRANCH  19  27
ATOM     27  C   LIG d   1       4.403  -1.705  -2.382  0.00  0.00     0.417 C 
ATOM     28  F   LIG d   1       4.388  -0.852  -1.274  0.00  0.00    -0.166 F 
ATOM     29  F   LIG d   1       3.632  -2.840  -2.106  0.00  0.00    -0.166 F 
ATOM     30  F   LIG d   1       5.720  -2.092  -2.657  0.00  0.00    -0.166 F 
ENDBRANCH  19  27
ENDBRANCH  15  17
ENDBRANCH   2  15
TORSDOF 7
ENDMDL
MODEL 5
REMARK VINA RESULT:      -5.9      4.465      6.870
REMARK  7 active torsions:
REMARK  status: ('A' for Active; 'I' for Inactive)
REMARK    1  A    between atoms: C_1  and  C_2 
REMARK    2  A    between atoms: C_2  and  O_3 
REMARK    3  A    between atoms: O_3  and  C_4 
REMARK    4  A    between atoms: C_4  and  C_6 
REMARK    5  A    between atoms: N_7  and  N_8 
REMARK    6  A    between atoms: N_8  and  C_9 
REMARK    7  A    between atoms: C_13  and  C_15 
ROOT
ATOM      1  C   LIG d   1       4.619  -0.601  -5.100  0.00  0.00     0.241 C 
ATOM      2  N   LIG d   1       3.662   0.219  -5.481  0.00  0.00    -0.164 NA
ATOM      3  C   LIG d   1       4.675  -1.930  -5.627  0.00  0.00     0.128 C 
ATOM      4  N   LIG d   1       4.718  -2.987  -6.044  0.00  0.00    -0.189 NA
ENDROOT
BRANCH   1   5
ATOM      5  C   LIG d   1       5.632  -0.149  -4.135  0.00  0.00     0.370 C 
ATOM      6  O   LIG d   1       6.408   0.737  -4.437  0.00  0.00    -0.242 OA
BRANCH   5   7
ATOM      7  O   LIG d   1       5.702  -0.718  -2.915  0.00  0.00    -0.460 OA
BRANCH   7   8
ATOM      8  C   LIG d   1       4.561  -0.533  -2.035  0.00  0.00     0.090 C 
ATOM      9  H   LIG d   1       3.654  -0.855  -2.545  0.00  0.00     0.070 H 
ATOM     10  H   LIG d   1       4.701  -1.126  -1.131  0.00  0.00     0.070 H 
BRANCH   8  11
ATOM     11  C   LIG d   1       4.441   0.945  -1.663  0.00  0.00    -0.031 C 
ATOM     12  H   LIG d   1       3.449   1.137  -1.254  0.00  0.00     0.026 H 
ATOM     13  H   LIG d   1       5.195   1.195  -0.916  0.00  0.00     0.026 H 
ATOM     14  H   LIG d   1       4.592   1.558  -2.551  0.00  0.00     0.026 H 
ENDBRANCH   8  11
ENDBRANCH   7   8
ENDBRANCH   5   7
ENDBRANCH   1   5
BRANCH   2  15
ATOM     15  N   LIG d   1       2.772  -0.176  -6.327  0.00  0.00    -0.236 N 
ATOM     16  H   LIG d   1       2.075  -0.788  -6.047  0.00  0.00     0.174 HD
BRANCH  15  17
ATOM     17  C   LIG d   1       2.815   0.275  -7.646  0.00  0.00     0.049 A 
ATOM     18  C   LIG d   1       2.427  -0.566  -8.683  0.00  0.00    -0.028 A 
ATOM     19  C   LIG d   1       2.463  -0.113  -9.987  0.00  0.00     0.057 A 
ATOM     20  H   LIG d   1       2.091  -1.570  -8.468  0.00  0.00     0.064 H 
ATOM     21  C   LIG d   1       2.897   1.170 -10.264  0.00  0.00    -0.050 A 
ATOM     22  C   LIG d   1       3.285   2.010  -9.235  0.00  0.00    -0.059 A 
ATOM     23  H   LIG d   1       2.929   1.520 -11.285  0.00  0.00     0.062 H 
ATOM     24  C   LIG d   1       3.245   1.567  -7.928  0.00  0.00    -0.039 A 
ATOM     25  H   LIG d   1       3.620   3.013  -9.454  0.00  0.00     0.062 H 
ATOM     26  H   LIG d   1       3.548   2.222  -7.125  0.00  0.00     0.064 H 
BRANCH  19  27
ATOM     27  C   LIG d   1       2.036  -1.021 -11.111  0.00  0.00     0.417 C 
ATOM     28  F   LIG d   1       2.204  -2.354 -10.723  0.00  0.00    -0.166 F 
ATOM     29  F   LIG d   1       0.689  -0.790 -11.412  0.00  0.00    -0.166 F 
ATOM     30  F   LIG d   1       2.817  -0.761 -12.243  0.00  0.00    -0.166 F 
ENDBRANCH  19  27
ENDBRANCH  15  17
ENDBRANCH   2  15
TORSDOF 7
ENDMDL
MODEL 6
REMARK VINA RESULT:      -5.9      2.239      2.831
REMARK  7 active torsions:
REMARK  status: ('A' for Active; 'I' for Inactive)
REMARK    1  A    between atoms: C_1  and  C_2 
REMARK    2  A    between atoms: C_2  and  O_3 
REMARK    3  A    between atoms: O_3  and  C_4 
REMARK    4  A    between atoms: C_4  and  C_6 
REMARK    5  A    between atoms: N_7  and  N_8 
REMARK    6  A    between atoms: N_8  and  C_9 
REMARK    7  A    between atoms: C_13  and  C_15 
ROOT
ATOM      1  C   LIG d   1       3.309   0.671  -8.027  0.00  0.00     0.241 C 
ATOM      2  N   LIG d   1       3.224   0.900  -6.733  0.00  0.00    -0.164 NA
ATOM      3  C   LIG d   1       2.796  -0.548  -8.573  0.00  0.00     0.128 C 
ATOM      4  N   LIG d   1       2.390  -1.517  -9.007  0.00  0.00    -0.189 NA
ENDROOT
BRANCH   1   5
ATOM      5  C   LIG d   1       3.930   1.669  -8.910  0.00  0.00     0.370 C 
ATOM      6  O   LIG d   1       3.312   2.109  -9.861  0.00  0.00    -0.242 OA
BRANCH   5   7
ATOM      7  O   LIG d   1       5.186   2.096  -8.667  0.00  0.00    -0.460 OA
BRANCH   7   8
ATOM      8  C   LIG d   1       6.265   1.164  -8.945  0.00  0.00     0.090 C 
ATOM      9  H   LIG d   1       5.848   0.218  -9.289  0.00  0.00     0.070 H 
ATOM     10  H   LIG d   1       6.913   1.579  -9.717  0.00  0.00     0.070 H 
BRANCH   8  11
ATOM     11  C   LIG d   1       7.076   0.931  -7.669  0.00  0.00    -0.031 C 
ATOM     12  H   LIG d   1       6.411   0.964  -6.806  0.00  0.00     0.026 H 
ATOM     13  H   LIG d   1       7.558  -0.046  -7.718  0.00  0.00     0.026 H 
ATOM     14  H   LIG d   1       7.835   1.706  -7.573  0.00  0.00     0.026 H 
ENDBRANCH   8  11
ENDBRANCH   7   8
ENDBRANCH   5   7
ENDBRANCH   1   5
BRANCH   2  15
ATOM     15  N   LIG d   1       2.680   0.025  -5.957  0.00  0.00    -0.236 N 
ATOM     16  H   LIG d   1       1.806  -0.336  -6.172  0.00  0.00     0.174 HD
BRANCH  15  17
ATOM     17  C   LIG d   1       3.347  -0.400  -4.808  0.00  0.00     0.049 A 
ATOM     18  C   LIG d   1       4.730  -0.541  -4.817  0.00  0.00    -0.028 A 
ATOM     19  C   LIG d   1       5.388  -0.954  -3.675  0.00  0.00     0.057 A 
ATOM     20  H   LIG d   1       5.290  -0.321  -5.715  0.00  0.00     0.064 H 
ATOM     21  C   LIG d   1       4.672  -1.239  -2.528  0.00  0.00    -0.050 A 
ATOM     22  C   LIG d   1       3.295  -1.100  -2.515  0.00  0.00    -0.059 A 
ATOM     23  H   LIG d   1       5.188  -1.567  -1.638  0.00  0.00     0.062 H 
ATOM     24  C   LIG d   1       2.631  -0.681  -3.650  0.00  0.00    -0.039 A 
ATOM     25  H   LIG d   1       2.739  -1.320  -1.616  0.00  0.00     0.062 H 
ATOM     26  H   LIG d   1       1.557  -0.573  -3.639  0.00  0.00     0.064 H 
BRANCH  19  27
ATOM     27  C   LIG d   1       6.887  -1.100  -3.682  0.00  0.00     0.417 C 
ATOM     28  F   LIG d   1       7.319  -1.413  -4.976  0.00  0.00    -0.166 F 
ATOM     29  F   LIG d   1       7.476   0.101  -3.272  0.00  0.00    -0.166 F 
ATOM     30  F   LIG d   1       7.260  -2.125  -2.805  0.00  0.00    -0.166 F 
ENDBRANCH  19  27
ENDBRANCH  15  17
ENDBRANCH   2  15
TORSDOF 7
ENDMDL
MODEL 7
REMARK VINA RESULT:      -5.9      4.621      6.908
REMARK  7 active torsions:
REMARK  status: ('A' for Active; 'I' for Inactive)
REMARK    1  A    between atoms: C_1  and  C_2 
REMARK    2  A    between atoms: C_2  and  O_3 
REMARK    3  A    between atoms: O_3  and  C_4 
REMARK    4  A    between atoms: C_4  and  C_6 
REMARK    5  A    between atoms: N_7  and  N_8 
REMARK    6  A    between atoms: N_8  and  C_9 
REMARK    7  A    between atoms: C_13  and  C_15 
ROOT
ATOM      1  C   LIG d   1       3.809  -0.042  -3.776  0.00  0.00     0.241 C 
ATOM      2  N   LIG d   1       3.376   0.464  -4.913  0.00  0.00    -0.164 NA
ATOM      3  C   LIG d   1       3.879  -1.461  -3.604  0.00  0.00     0.128 C 
ATOM      4  N   LIG d   1       3.934  -2.589  -3.468  0.00  0.00    -0.189 NA
ENDROOT
BRANCH   1   5
ATOM      5  C   LIG d   1       4.221   0.852  -2.684  0.00  0.00     0.370 C 
ATOM      6  O   LIG d   1       3.381   1.443  -2.032  0.00  0.00    -0.242 OA
BRANCH   5   7
ATOM      7  O   LIG d   1       5.529   1.016  -2.404  0.00  0.00    -0.460 OA
BRANCH   7   8
ATOM      8  C   LIG d   1       6.481   0.492  -3.368  0.00  0.00     0.090 C 
ATOM      9  H   LIG d   1       7.037  -0.331  -2.918  0.00  0.00     0.070 H 
ATOM     10  H   LIG d   1       5.946   0.132  -4.247  0.00  0.00     0.070 H 
BRANCH   8  11
ATOM     11  C   LIG d   1       7.452   1.600  -3.779  0.00  0.00    -0.031 C 
ATOM     12  H   LIG d   1       6.888   2.469  -4.118  0.00  0.00     0.026 H 
ATOM     13  H   LIG d   1       8.068   1.879  -2.924  0.00  0.00     0.026 H 
ATOM     14  H   LIG d   1       8.090   1.243  -4.587  0.00  0.00     0.026 H 
ENDBRANCH   8  11
ENDBRANCH   7   8
ENDBRANCH   5   7
ENDBRANCH   1   5
BRANCH   2  15
ATOM     15  N   LIG d   1       3.014  -0.320  -5.871  0.00  0.00    -0.236 N 
ATOM     16  H   LIG d   1       2.819  -1.252  -5.687  0.00  0.00     0.174 HD
BRANCH  15  17
ATOM     17  C   LIG d   1       2.904   0.173  -7.171  0.00  0.00     0.049 A 
ATOM     18  C   LIG d   1       2.713  -0.702  -8.234  0.00  0.00    -0.028 A 
ATOM     19  C   LIG d   1       2.596  -0.210  -9.519  0.00  0.00     0.057 A 
ATOM     20  H   LIG d   1       2.649  -1.766  -8.054  0.00  0.00     0.064 H 
ATOM     21  C   LIG d   1       2.683   1.150  -9.751  0.00  0.00    -0.050 A 
ATOM     22  C   LIG d   1       2.873   2.024  -8.696  0.00  0.00    -0.059 A 
ATOM     23  H   LIG d   1       2.597   1.532 -10.758  0.00  0.00     0.062 H 
ATOM     24  C   LIG d   1       2.983   1.540  -7.408  0.00  0.00    -0.039 A 
ATOM     25  H   LIG d   1       2.936   3.086  -8.880  0.00  0.00     0.062 H 
ATOM     26  H   LIG d   1       3.132   2.223  -6.584  0.00  0.00     0.064 H 
BRANCH  19  27
ATOM     27  C   LIG d   1       2.383  -1.157 -10.671  0.00  0.00     0.417 C 
ATOM     28  F   LIG d   1       2.499  -0.459 -11.878  0.00  0.00    -0.166 F 
ATOM     29  F   LIG d   1       3.345  -2.173 -10.626  0.00  0.00    -0.166 F 
ATOM     30  F   LIG d   1       1.105  -1.722 -10.580  0.00  0.00    -0.166 F 
ENDBRANCH  19  27
ENDBRANCH  15  17
ENDBRANCH   2  15
TORSDOF 7
ENDMDL
MODEL 8
REMARK VINA RESULT:      -5.9      3.098      3.911
REMARK  7 active torsions:
REMARK  status: ('A' for Active; 'I' for Inactive)
REMARK    1  A    between atoms: C_1  and  C_2 
REMARK    2  A    between atoms: C_2  and  O_3 
REMARK    3  A    between atoms: O_3  and  C_4 
REMARK    4  A    between atoms: C_4  and  C_6 
REMARK    5  A    between atoms: N_7  and  N_8 
REMARK    6  A    between atoms: N_8  and  C_9 
REMARK    7  A    between atoms: C_13  and  C_15 
ROOT
ATOM      1  C   LIG d   1       6.729   1.010  -7.735  0.00  0.00     0.241 C 
ATOM      2  N   LIG d   1       6.151   0.178  -6.892  0.00  0.00    -0.164 NA
ATOM      3  C   LIG d   1       5.955   1.645  -8.758  0.00  0.00     0.128 C 
ATOM      4  N   LIG d   1       5.341   2.149  -9.570  0.00  0.00    -0.189 NA
ENDROOT
BRANCH   1   5
ATOM      5  C   LIG d   1       8.168   1.287  -7.623  0.00  0.00     0.370 C 
ATOM      6  O   LIG d   1       8.828   1.492  -8.624  0.00  0.00    -0.242 OA
BRANCH   5   7
ATOM      7  O   LIG d   1       8.759   1.312  -6.411  0.00  0.00    -0.460 OA
BRANCH   7   8
ATOM      8  C   LIG d   1       9.264   2.594  -5.951  0.00  0.00     0.090 C 
ATOM      9  H   LIG d   1      10.344   2.533  -5.821  0.00  0.00     0.070 H 
ATOM     10  H   LIG d   1       9.028   3.363  -6.686  0.00  0.00     0.070 H 
BRANCH   8  11
ATOM     11  C   LIG d   1       8.609   2.949  -4.615  0.00  0.00    -0.031 C 
ATOM     12  H   LIG d   1       8.810   2.159  -3.891  0.00  0.00     0.026 H 
ATOM     13  H   LIG d   1       9.018   3.890  -4.247  0.00  0.00     0.026 H 
ATOM     14  H   LIG d   1       7.532   3.049  -4.752  0.00  0.00     0.026 H 
ENDBRANCH   8  11
ENDBRANCH   7   8
ENDBRANCH   5   7
ENDBRANCH   1   5
BRANCH   2  15
ATOM     15  N   LIG d   1       4.889  -0.065  -6.990  0.00  0.00    -0.236 N 
ATOM     16  H   LIG d   1       4.479  -0.156  -7.864  0.00  0.00     0.174 HD
BRANCH  15  17
ATOM     17  C   LIG d   1       4.112  -0.196  -5.839  0.00  0.00     0.049 A 
ATOM     18  C   LIG d   1       4.628  -0.837  -4.719  0.00  0.00    -0.028 A 
ATOM     19  C   LIG d   1       3.859  -0.957  -3.578  0.00  0.00     0.057 A 
ATOM     20  H   LIG d   1       5.632  -1.236  -4.739  0.00  0.00     0.064 H 
ATOM     21  C   LIG d   1       2.573  -0.452  -3.553  0.00  0.00    -0.050 A 
ATOM     22  C   LIG d   1       2.055   0.187  -4.666  0.00  0.00    -0.059 A 
ATOM     23  H   LIG d   1       1.972  -0.552  -2.662  0.00  0.00     0.062 H 
ATOM     24  C   LIG d   1       2.820   0.317  -5.807  0.00  0.00    -0.039 A 
ATOM     25  H   LIG d   1       1.051   0.584  -4.642  0.00  0.00     0.062 H 
ATOM     26  H   LIG d   1       2.416   0.816  -6.676  0.00  0.00     0.064 H 
BRANCH  19  27
ATOM     27  C   LIG d   1       4.420  -1.647  -2.362  0.00  0.00     0.417 C 
ATOM     28  F   LIG d   1       4.382  -0.773  -1.271  0.00  0.00    -0.166 F 
ATOM     29  F   LIG d   1       3.655  -2.783  -2.075  0.00  0.00    -0.166 F 
ATOM     30  F   LIG d   1       5.744  -2.027  -2.610  0.00  0.00    -0.166 F 
ENDBRANCH  19  27
ENDBRANCH  15  17
ENDBRANCH   2  15
TORSDOF 7
ENDMDL
MODEL 9
REMARK VINA RESULT:      -5.8      4.020      5.163
REMARK  7 active torsions:
REMARK  status: ('A' for Active; 'I' for Inactive)
REMARK    1  A    between atoms: C_1  and  C_2 
REMARK    2  A    between atoms: C_2  and  O_3 
REMARK    3  A    between atoms: O_3  and  C_4 
REMARK    4  A    between atoms: C_4  and  C_6 
REMARK    5  A    between atoms: N_7  and  N_8 
REMARK    6  A    between atoms: N_8  and  C_9 
REMARK    7  A    between atoms: C_13  and  C_15 
ROOT
ATOM      1  C   LIG d   1       8.074   1.045  -4.657  0.00  0.00     0.241 C 
ATOM      2  N   LIG d   1       7.456   0.492  -3.634  0.00  0.00    -0.164 NA
ATOM      3  C   LIG d   1       8.128   0.365  -5.915  0.00  0.00     0.128 C 
ATOM      4  N   LIG d   1       8.171  -0.177  -6.913  0.00  0.00    -0.189 NA
ENDROOT
BRANCH   1   5
ATOM      5  C   LIG d   1       8.708   2.363  -4.507  0.00  0.00     0.370 C 
ATOM      6  O   LIG d   1       9.027   3.001  -5.492  0.00  0.00    -0.242 OA
BRANCH   5   7
ATOM      7  O   LIG d   1       8.936   2.866  -3.276  0.00  0.00    -0.460 OA
BRANCH   7   8
ATOM      8  C   LIG d   1       9.661   4.123  -3.202  0.00  0.00     0.090 C 
ATOM      9  H   LIG d   1       9.996   4.408  -4.199  0.00  0.00     0.070 H 
ATOM     10  H   LIG d   1       9.005   4.896  -2.803  0.00  0.00     0.070 H 
BRANCH   8  11
ATOM     11  C   LIG d   1      10.873   3.958  -2.283  0.00  0.00    -0.031 C 
ATOM     12  H   LIG d   1      11.781   3.925  -2.884  0.00  0.00     0.026 H 
ATOM     13  H   LIG d   1      10.924   4.801  -1.594  0.00  0.00     0.026 H 
ATOM     14  H   LIG d   1      10.777   3.031  -1.718  0.00  0.00     0.026 H 
ENDBRANCH   8  11
ENDBRANCH   7   8
ENDBRANCH   5   7
ENDBRANCH   1   5
BRANCH   2  15
ATOM     15  N   LIG d   1       6.901  -0.665  -3.765  0.00  0.00    -0.236 N 
ATOM     16  H   LIG d   1       7.434  -1.432  -4.024  0.00  0.00     0.174 HD
BRANCH  15  17
ATOM     17  C   LIG d   1       5.532  -0.811  -3.536  0.00  0.00     0.049 A 
ATOM     18  C   LIG d   1       4.616  -0.156  -4.349  0.00  0.00    -0.028 A 
ATOM     19  C   LIG d   1       3.262  -0.310  -4.124  0.00  0.00     0.057 A 
ATOM     20  H   LIG d   1       4.961   0.469  -5.160  0.00  0.00     0.064 H 
ATOM     21  C   LIG d   1       2.818  -1.105  -3.084  0.00  0.00    -0.050 A 
ATOM     22  C   LIG d   1       3.727  -1.759  -2.272  0.00  0.00    -0.059 A 
ATOM     23  H   LIG d   1       1.759  -1.219  -2.907  0.00  0.00     0.062 H 
ATOM     24  C   LIG d   1       5.082  -1.615  -2.495  0.00  0.00    -0.039 A 
ATOM     25  H   LIG d   1       3.377  -2.382  -1.463  0.00  0.00     0.062 H 
ATOM     26  H   LIG d   1       5.791  -2.126  -1.861  0.00  0.00     0.064 H 
BRANCH  19  27
ATOM     27  C   LIG d   1       2.267   0.395  -5.010  0.00  0.00     0.417 C 
ATOM     28  F   LIG d   1       0.978  -0.069  -4.726  0.00  0.00    -0.166 F 
ATOM     29  F   LIG d   1       2.327   1.774  -4.774  0.00  0.00    -0.166 F 
ATOM     30  F   LIG d   1       2.571   0.138  -6.351  0.00  0.00    -0.166 F 
ENDBRANCH  19  27
ENDBRANCH  15  17
ENDBRANCH   2  15
TORSDOF 7
ENDMDL
MODEL 10
REMARK VINA RESULT:      -5.8      5.129      6.355
REMARK  7 active torsions:
REMARK  status: ('A' for Active; 'I' for Inactive)
REMARK    1  A    between atoms: C_1  and  C_2 
REMARK    2  A    between atoms: C_2  and  O_3 
REMARK    3  A    between atoms: O_3  and  C_4 
REMARK    4  A    between atoms: C_4  and  C_6 
REMARK    5  A    between atoms: N_7  and  N_8 
REMARK    6  A    between atoms: N_8  and  C_9 
REMARK    7  A    between atoms: C_13  and  C_15 
ROOT
ATOM      1  C   LIG d   1       9.531   3.032  -3.989  0.00  0.00     0.241 C 
ATOM      2  N   LIG d   1       9.107   1.893  -3.483  0.00  0.00    -0.164 NA
ATOM      3  C   LIG d   1       9.476   3.253  -5.402  0.00  0.00     0.128 C 
ATOM      4  N   LIG d   1       9.433   3.427  -6.525  0.00  0.00    -0.189 NA
ENDROOT
BRANCH   1   5
ATOM      5  C   LIG d   1      10.059   4.079  -3.102  0.00  0.00     0.370 C 
ATOM      6  O   LIG d   1      10.880   3.797  -2.250  0.00  0.00    -0.242 OA
BRANCH   5   7
ATOM      7  O   LIG d   1       9.634   5.352  -3.232  0.00  0.00    -0.460 OA
BRANCH   7   8
ATOM      8  C   LIG d   1      10.348   6.366  -2.476  0.00  0.00     0.090 C 
ATOM      9  H   LIG d   1      11.058   5.885  -1.804  0.00  0.00     0.070 H 
ATOM     10  H   LIG d   1      10.883   7.021  -3.163  0.00  0.00     0.070 H 
BRANCH   8  11
ATOM     11  C   LIG d   1       9.350   7.189  -1.660  0.00  0.00    -0.031 C 
ATOM     12  H   LIG d   1       9.529   7.026  -0.597  0.00  0.00     0.026 H 
ATOM     13  H   LIG d   1       9.476   8.247  -1.891  0.00  0.00     0.026 H 
ATOM     14  H   LIG d   1       8.335   6.881  -1.909  0.00  0.00     0.026 H 
ENDBRANCH   8  11
ENDBRANCH   7   8
ENDBRANCH   5   7
ENDBRANCH   1   5
BRANCH   2  15
ATOM     15  N   LIG d   1       8.644   0.974  -4.261  0.00  0.00    -0.236 N 
ATOM     16  H   LIG d   1       9.092   0.776  -5.097  0.00  0.00     0.174 HD
BRANCH  15  17
ATOM     17  C   LIG d   1       7.497   0.266  -3.899  0.00  0.00     0.049 A 
ATOM     18  C   LIG d   1       6.435   0.925  -3.292  0.00  0.00    -0.028 A 
ATOM     19  C   LIG d   1       5.298   0.222  -2.942  0.00  0.00     0.057 A 
ATOM     20  H   LIG d   1       6.495   1.986  -3.099  0.00  0.00     0.064 H 
ATOM     21  C   LIG d   1       5.222  -1.136  -3.184  0.00  0.00    -0.050 A 
ATOM     22  C   LIG d   1       6.277  -1.796  -3.789  0.00  0.00    -0.059 A 
ATOM     23  H   LIG d   1       4.333  -1.684  -2.906  0.00  0.00     0.062 H 
ATOM     24  C   LIG d   1       7.413  -1.099  -4.147  0.00  0.00    -0.039 A 
ATOM     25  H   LIG d   1       6.212  -2.856  -3.979  0.00  0.00     0.062 H 
ATOM     26  H   LIG d   1       8.238  -1.614  -4.618  0.00  0.00     0.064 H 
BRANCH  19  27
ATOM     27  C   LIG d   1       4.143   0.937  -2.290  0.00  0.00     0.417 C 
ATOM     28  F   LIG d   1       3.020   0.102  -2.287  0.00  0.00    -0.166 F 
ATOM     29  F   LIG d   1       4.481   1.266  -0.972  0.00  0.00    -0.166 F 
ATOM     30  F   LIG d   1       3.854   2.106  -3.003  0.00  0.00    -0.166 F 
ENDBRANCH  19  27
ENDBRANCH  15  17
ENDBRANCH   2  15
TORSDOF 7
ENDMDL
