MODEL 1
REMARK VINA RESULT:      -5.9      0.000      0.000
REMARK  9 active torsions:
REMARK  status: ('A' for Active; 'I' for Inactive)
REMARK    1  A    between atoms: C_1  and  C_2 
REMARK    2  A    between atoms: C_10  and  C_14 
REMARK    3  A    between atoms: C_18  and  C_20 
REMARK    4  A    between atoms: C_20  and  N_53 
REMARK    5  A    between atoms: C_21  and  C_22 
REMARK    6  A    between atoms: C_21  and  N_53 
REMARK    7  A    between atoms: C_22  and  C_23 
REMARK    8  A    between atoms: C_23  and  O_24 
REMARK    9  A    between atoms: O_24  and  C_25 
ROOT
ATOM      1  C   LIG d   1       3.264   0.782  -3.696  0.00  0.00    -0.073 C 
ATOM      2  C   LIG d   1       3.800  -0.372  -3.956  0.00  0.00    -0.064 C 
ATOM      3  C   LIG d   1       3.661  -0.953  -5.348  0.00  0.00    -0.024 C 
ATOM      4  C   LIG d   1       5.048  -1.263  -5.922  0.00  0.00     0.018 C 
ATOM      5  H   LIG d   1       5.540  -0.379  -6.330  0.00  0.00     0.035 H 
ATOM      6  C   LIG d   1       5.910  -2.034  -4.909  0.00  0.00     0.108 C 
ATOM      7  H   LIG d   1       6.923  -2.102  -5.306  0.00  0.00     0.074 H 
ATOM      8  C   LIG d   1       5.978  -1.412  -3.539  0.00  0.00    -0.006 C 
ATOM      9  C   LIG d   1       4.579  -1.187  -2.962  0.00  0.00    -0.007 C 
ATOM     10  C   LIG d   1       4.663  -0.543  -1.591  0.00  0.00    -0.043 C 
ATOM     11  C   LIG d   1       4.692   0.981  -1.697  0.00  0.00    -0.049 C 
ATOM     12  C   LIG d   1       3.384   1.444  -2.350  0.00  0.00    -0.032 C 
ATOM     13  O   LIG d   1       5.343  -3.373  -4.922  0.00  0.00    -0.461 OA
ATOM     14  C   LIG d   1       5.071  -3.673  -6.213  0.00  0.00     0.316 C 
ATOM     15  O   LIG d   1       5.023  -4.785  -6.679  0.00  0.00    -0.250 OA
ATOM     16  C   LIG d   1       4.832  -2.386  -6.983  0.00  0.00     0.102 C 
ATOM     17  H   LIG d   1       3.813  -2.356  -7.369  0.00  0.00     0.047 H 
ATOM     18  H   LIG d   1       3.075  -1.871  -5.302  0.00  0.00     0.031 H 
ATOM     19  H   LIG d   1       3.155  -0.233  -5.992  0.00  0.00     0.031 H 
ATOM     20  H   LIG d   1       6.493  -0.454  -3.607  0.00  0.00     0.031 H 
ATOM     21  H   LIG d   1       6.536  -2.071  -2.874  0.00  0.00     0.031 H 
ATOM     22  H   LIG d   1       3.798  -0.844  -1.001  0.00  0.00     0.027 H 
ATOM     23  H   LIG d   1       5.571  -0.883  -1.092  0.00  0.00     0.027 H 
ATOM     24  H   LIG d   1       5.538   1.292  -2.308  0.00  0.00     0.027 H 
ATOM     25  H   LIG d   1       4.778   1.418  -0.701  0.00  0.00     0.027 H 
ATOM     26  H   LIG d   1       3.400   2.526  -2.476  0.00  0.00     0.031 H 
ATOM     27  H   LIG d   1       2.537   1.159  -1.726  0.00  0.00     0.031 H 
ENDROOT
BRANCH  16  28
ATOM     28  C   LIG d   1       5.842  -2.246  -8.124  0.00  0.00    -0.020 C 
ATOM     29  H   LIG d   1       6.823  -2.007  -7.713  0.00  0.00     0.082 H 
ATOM     30  H   LIG d   1       5.898  -3.184  -8.677  0.00  0.00     0.082 H 
BRANCH  28  31
ATOM     31  N   LIG d   1       5.405  -1.164  -9.027  0.00  0.00     0.228 N 
ATOM     32  H   LIG d   1       6.051  -1.105  -9.822  0.00  0.00     0.201 HD
ATOM     33  H   LIG d   1       5.408  -0.274  -8.514  0.00  0.00     0.201 HD
BRANCH  31  34
ATOM     34  C   LIG d   1       4.042  -1.432  -9.525  0.00  0.00    -0.032 C 
ATOM     35  H   LIG d   1       4.096  -2.045 -10.426  0.00  0.00     0.081 H 
ATOM     36  H   LIG d   1       3.469  -1.958  -8.762  0.00  0.00     0.081 H 
BRANCH  34  37
ATOM     37  C   LIG d   1       3.358  -0.103  -9.853  0.00  0.00     0.011 C 
ATOM     38  H   LIG d   1       4.016   0.499 -10.478  0.00  0.00     0.034 H 
ATOM     39  H   LIG d   1       2.427  -0.296 -10.386  0.00  0.00     0.034 H 
BRANCH  37  40
ATOM     40  C   LIG d   1       3.057   0.648  -8.555  0.00  0.00     0.052 C 
ATOM     41  H   LIG d   1       2.145   1.232  -8.676  0.00  0.00     0.056 H 
ATOM     42  H   LIG d   1       2.926  -0.067  -7.743  0.00  0.00     0.056 H 
BRANCH  40  43
ATOM     43  O   LIG d   1       4.145   1.523  -8.248  0.00  0.00    -0.383 OA
BRANCH  43  44
ATOM     44  C   LIG d   1       4.421   2.487  -9.265  0.00  0.00     0.036 C 
ATOM     45  H   LIG d   1       3.901   2.208 -10.181  0.00  0.00     0.052 H 
ATOM     46  H   LIG d   1       4.077   3.469  -8.938  0.00  0.00     0.052 H 
ATOM     47  H   LIG d   1       5.494   2.522  -9.452  0.00  0.00     0.052 H 
ENDBRANCH  43  44
ENDBRANCH  40  43
ENDBRANCH  37  40
ENDBRANCH  34  37
ENDBRANCH  31  34
ENDBRANCH  28  31
ENDBRANCH  16  28
BRANCH   1  48
ATOM     48  C   LIG d   1       2.492   1.485  -4.782  0.00  0.00    -0.043 C 
ATOM     49  H   LIG d   1       2.395   2.542  -4.533  0.00  0.00     0.027 H 
ATOM     50  H   LIG d   1       3.023   1.383  -5.729  0.00  0.00     0.027 H 
ATOM     51  H   LIG d   1       1.502   1.039  -4.871  0.00  0.00     0.027 H 
ENDBRANCH   1  48
BRANCH   9  52
ATOM     52  C   LIG d   1       3.895  -2.546  -2.806  0.00  0.00    -0.056 C 
ATOM     53  H   LIG d   1       2.865  -2.399  -2.481  0.00  0.00     0.024 H 
ATOM     54  H   LIG d   1       3.903  -3.068  -3.763  0.00  0.00     0.024 H 
ATOM     55  H   LIG d   1       4.430  -3.138  -2.064  0.00  0.00     0.024 H 
ENDBRANCH   9  52
TORSDOF 9
ENDMDL
MODEL 2
REMARK VINA RESULT:      -5.5      4.968      6.716
REMARK  9 active torsions:
REMARK  status: ('A' for Active; 'I' for Inactive)
REMARK    1  A    between atoms: C_1  and  C_2 
REMARK    2  A    between atoms: C_10  and  C_14 
REMARK    3  A    between atoms: C_18  and  C_20 
REMARK    4  A    between atoms: C_20  and  N_53 
REMARK    5  A    between atoms: C_21  and  C_22 
REMARK    6  A    between atoms: C_21  and  N_53 
REMARK    7  A    between atoms: C_22  and  C_23 
REMARK    8  A    between atoms: C_23  and  O_24 
REMARK    9  A    between atoms: O_24  and  C_25 
ROOT
ATOM      1  C   LIG d   1       4.563  -0.146  -2.613  0.00  0.00    -0.073 C 
ATOM      2  C   LIG d   1       5.426   0.008  -3.571  0.00  0.00    -0.064 C 
ATOM      3  C   LIG d   1       6.274   1.263  -3.604  0.00  0.00    -0.024 C 
ATOM      4  C   LIG d   1       7.759   0.886  -3.632  0.00  0.00     0.018 C 
ATOM      5  H   LIG d   1       8.148   0.638  -2.644  0.00  0.00     0.035 H 
ATOM      6  C   LIG d   1       8.039  -0.195  -4.690  0.00  0.00     0.108 C 
ATOM      7  H   LIG d   1       9.071  -0.528  -4.572  0.00  0.00     0.074 H 
ATOM      8  C   LIG d   1       7.138  -1.399  -4.613  0.00  0.00    -0.006 C 
ATOM      9  C   LIG d   1       5.664  -0.993  -4.666  0.00  0.00    -0.007 C 
ATOM     10  C   LIG d   1       4.770  -2.215  -4.568  0.00  0.00    -0.043 C 
ATOM     11  C   LIG d   1       4.459  -2.558  -3.112  0.00  0.00    -0.049 C 
ATOM     12  C   LIG d   1       3.706  -1.377  -2.488  0.00  0.00    -0.032 C 
ATOM     13  O   LIG d   1       7.954   0.528  -5.951  0.00  0.00    -0.461 OA
ATOM     14  C   LIG d   1       8.568   1.718  -5.764  0.00  0.00     0.316 C 
ATOM     15  O   LIG d   1       9.088   2.381  -6.628  0.00  0.00    -0.250 OA
ATOM     16  C   LIG d   1       8.496   2.090  -4.294  0.00  0.00     0.102 C 
ATOM     17  H   LIG d   1       7.924   3.008  -4.160  0.00  0.00     0.047 H 
ATOM     18  H   LIG d   1       6.031   1.842  -4.495  0.00  0.00     0.031 H 
ATOM     19  H   LIG d   1       6.070   1.862  -2.716  0.00  0.00     0.031 H 
ATOM     20  H   LIG d   1       7.329  -1.928  -3.680  0.00  0.00     0.031 H 
ATOM     21  H   LIG d   1       7.356  -2.062  -5.450  0.00  0.00     0.031 H 
ATOM     22  H   LIG d   1       3.836  -2.018  -5.096  0.00  0.00     0.027 H 
ATOM     23  H   LIG d   1       5.270  -3.063  -5.035  0.00  0.00     0.027 H 
ATOM     24  H   LIG d   1       5.388  -2.730  -2.568  0.00  0.00     0.027 H 
ATOM     25  H   LIG d   1       3.837  -3.453  -3.069  0.00  0.00     0.027 H 
ATOM     26  H   LIG d   1       3.512  -1.581  -1.436  0.00  0.00     0.031 H 
ATOM     27  H   LIG d   1       2.763  -1.221  -3.012  0.00  0.00     0.031 H 
ENDROOT
BRANCH  16  28
ATOM     28  C   LIG d   1       9.901   2.246  -3.709  0.00  0.00    -0.020 C 
ATOM     29  H   LIG d   1       9.845   2.237  -2.621  0.00  0.00     0.082 H 
ATOM     30  H   LIG d   1      10.529   1.421  -4.047  0.00  0.00     0.082 H 
BRANCH  28  31
ATOM     31  N   LIG d   1      10.476   3.526  -4.165  0.00  0.00     0.228 N 
ATOM     32  H   LIG d   1      10.511   3.536  -5.190  0.00  0.00     0.201 HD
ATOM     33  H   LIG d   1      11.426   3.623  -3.788  0.00  0.00     0.201 HD
BRANCH  31  34
ATOM     34  C   LIG d   1       9.649   4.654  -3.695  0.00  0.00    -0.032 C 
ATOM     35  H   LIG d   1       9.679   5.461  -4.429  0.00  0.00     0.081 H 
ATOM     36  H   LIG d   1       8.620   4.323  -3.561  0.00  0.00     0.081 H 
BRANCH  34  37
ATOM     37  C   LIG d   1      10.201   5.159  -2.361  0.00  0.00     0.011 C 
ATOM     38  H   LIG d   1       9.862   4.505  -1.557  0.00  0.00     0.034 H 
ATOM     39  H   LIG d   1      11.291   5.158  -2.394  0.00  0.00     0.034 H 
BRANCH  37  40
ATOM     40  C   LIG d   1       9.700   6.582  -2.107  0.00  0.00     0.052 C 
ATOM     41  H   LIG d   1      10.372   7.295  -2.584  0.00  0.00     0.056 H 
ATOM     42  H   LIG d   1       8.698   6.694  -2.522  0.00  0.00     0.056 H 
BRANCH  40  43
ATOM     43  O   LIG d   1       9.662   6.830  -0.700  0.00  0.00    -0.383 OA
BRANCH  43  44
ATOM     44  C   LIG d   1      10.642   7.767  -0.248  0.00  0.00     0.036 C 
ATOM     45  H   LIG d   1      10.154   8.705   0.013  0.00  0.00     0.052 H 
ATOM     46  H   LIG d   1      11.152   7.367   0.628  0.00  0.00     0.052 H 
ATOM     47  H   LIG d   1      11.367   7.944  -1.042  0.00  0.00     0.052 H 
ENDBRANCH  43  44
ENDBRANCH  40  43
ENDBRANCH  37  40
ENDBRANCH  34  37
ENDBRANCH  31  34
ENDBRANCH  28  31
ENDBRANCH  16  28
BRANCH   1  48
ATOM     48  C   LIG d   1       4.413   0.948  -1.588  0.00  0.00    -0.043 C 
ATOM     49  H   LIG d   1       5.022   0.712  -0.714  0.00  0.00     0.027 H 
ATOM     50  H   LIG d   1       4.743   1.894  -2.015  0.00  0.00     0.027 H 
ATOM     51  H   LIG d   1       3.367   1.027  -1.292  0.00  0.00     0.027 H 
ENDBRANCH   1  48
BRANCH   9  52
ATOM     52  C   LIG d   1       5.396  -0.316  -6.010  0.00  0.00    -0.056 C 
ATOM     53  H   LIG d   1       5.633  -1.007  -6.819  0.00  0.00     0.024 H 
ATOM     54  H   LIG d   1       4.345  -0.033  -6.072  0.00  0.00     0.024 H 
ATOM     55  H   LIG d   1       6.018   0.575  -6.098  0.00  0.00     0.024 H 
ENDBRANCH   9  52
TORSDOF 9
ENDMDL
MODEL 3
REMARK VINA RESULT:      -5.1      2.125      2.914
REMARK  9 active torsions:
REMARK  status: ('A' for Active; 'I' for Inactive)
REMARK    1  A    between atoms: C_1  and  C_2 
REMARK    2  A    between atoms: C_10  and  C_14 
REMARK    3  A    between atoms: C_18  and  C_20 
REMARK    4  A    between atoms: C_20  and  N_53 
REMARK    5  A    between atoms: C_21  and  C_22 
REMARK    6  A    between atoms: C_21  and  N_53 
REMARK    7  A    between atoms: C_22  and  C_23 
REMARK    8  A    between atoms: C_23  and  O_24 
REMARK    9  A    between atoms: O_24  and  C_25 
ROOT
ATOM      1  C   LIG d   1       3.277   0.648  -3.794  0.00  0.00    -0.073 C 
ATOM      2  C   LIG d   1       3.824  -0.525  -3.903  0.00  0.00    -0.064 C 
ATOM      3  C   LIG d   1       3.746  -1.255  -5.229  0.00  0.00    -0.024 C 
ATOM      4  C   LIG d   1       5.156  -1.618  -5.705  0.00  0.00     0.018 C 
ATOM      5  H   LIG d   1       5.665  -0.782  -6.185  0.00  0.00     0.035 H 
ATOM      6  C   LIG d   1       5.974  -2.270  -4.578  0.00  0.00     0.108 C 
ATOM      7  H   LIG d   1       7.003  -2.376  -4.921  0.00  0.00     0.074 H 
ATOM      8  C   LIG d   1       5.982  -1.502  -3.282  0.00  0.00    -0.006 C 
ATOM      9  C   LIG d   1       4.559  -1.222  -2.793  0.00  0.00    -0.007 C 
ATOM     10  C   LIG d   1       4.584  -0.433  -1.499  0.00  0.00    -0.043 C 
ATOM     11  C   LIG d   1       4.617   1.071  -1.768  0.00  0.00    -0.049 C 
ATOM     12  C   LIG d   1       3.339   1.453  -2.524  0.00  0.00    -0.032 C 
ATOM     13  O   LIG d   1       5.407  -3.606  -4.469  0.00  0.00    -0.461 OA
ATOM     14  C   LIG d   1       5.192  -4.045  -5.731  0.00  0.00     0.316 C 
ATOM     15  O   LIG d   1       5.165  -5.202  -6.074  0.00  0.00    -0.250 OA
ATOM     16  C   LIG d   1       4.986  -2.851  -6.645  0.00  0.00     0.102 C 
ATOM     17  H   LIG d   1       3.986  -2.868  -7.076  0.00  0.00     0.047 H 
ATOM     18  H   LIG d   1       3.158  -2.164  -5.108  0.00  0.00     0.031 H 
ATOM     19  H   LIG d   1       3.268  -0.611  -5.968  0.00  0.00     0.031 H 
ATOM     20  H   LIG d   1       6.500  -0.555  -3.432  0.00  0.00     0.031 H 
ATOM     21  H   LIG d   1       6.510  -2.083  -2.526  0.00  0.00     0.031 H 
ATOM     22  H   LIG d   1       3.694  -0.672  -0.917  0.00  0.00     0.027 H 
ATOM     23  H   LIG d   1       5.469  -0.712  -0.927  0.00  0.00     0.027 H 
ATOM     24  H   LIG d   1       5.489   1.317  -2.373  0.00  0.00     0.027 H 
ATOM     25  H   LIG d   1       4.660   1.614  -0.823  0.00  0.00     0.027 H 
ATOM     26  H   LIG d   1       3.360   2.515  -2.766  0.00  0.00     0.031 H 
ATOM     27  H   LIG d   1       2.465   1.234  -1.909  0.00  0.00     0.031 H 
ENDROOT
BRANCH  16  28
ATOM     28  C   LIG d   1       6.045  -2.831  -7.750  0.00  0.00    -0.020 C 
ATOM     29  H   LIG d   1       5.611  -3.210  -8.675  0.00  0.00     0.082 H 
ATOM     30  H   LIG d   1       6.393  -1.810  -7.903  0.00  0.00     0.082 H 
BRANCH  28  31
ATOM     31  N   LIG d   1       7.179  -3.686  -7.348  0.00  0.00     0.228 N 
ATOM     32  H   LIG d   1       7.137  -4.570  -7.869  0.00  0.00     0.201 HD
ATOM     33  H   LIG d   1       7.118  -3.878  -6.342  0.00  0.00     0.201 HD
BRANCH  31  34
ATOM     34  C   LIG d   1       8.457  -3.010  -7.638  0.00  0.00    -0.032 C 
ATOM     35  H   LIG d   1       9.129  -3.700  -8.150  0.00  0.00     0.081 H 
ATOM     36  H   LIG d   1       8.277  -2.141  -8.271  0.00  0.00     0.081 H 
BRANCH  34  37
ATOM     37  C   LIG d   1       9.095  -2.559  -6.322  0.00  0.00     0.011 C 
ATOM     38  H   LIG d   1       8.374  -2.670  -5.513  0.00  0.00     0.034 H 
ATOM     39  H   LIG d   1       9.972  -3.174  -6.115  0.00  0.00     0.034 H 
BRANCH  37  40
ATOM     40  C   LIG d   1       9.515  -1.093  -6.436  0.00  0.00     0.052 C 
ATOM     41  H   LIG d   1      10.009  -0.783  -5.515  0.00  0.00     0.056 H 
ATOM     42  H   LIG d   1      10.202  -0.975  -7.274  0.00  0.00     0.056 H 
BRANCH  40  43
ATOM     43  O   LIG d   1       8.358  -0.282  -6.653  0.00  0.00    -0.383 OA
BRANCH  43  44
ATOM     44  C   LIG d   1       8.113   0.670  -5.616  0.00  0.00     0.036 C 
ATOM     45  H   LIG d   1       8.691   0.403  -4.732  0.00  0.00     0.052 H 
ATOM     46  H   LIG d   1       8.408   1.663  -5.956  0.00  0.00     0.052 H 
ATOM     47  H   LIG d   1       7.051   0.671  -5.367  0.00  0.00     0.052 H 
ENDBRANCH  43  44
ENDBRANCH  40  43
ENDBRANCH  37  40
ENDBRANCH  34  37
ENDBRANCH  31  34
ENDBRANCH  28  31
ENDBRANCH  16  28
BRANCH   1  48
ATOM     48  C   LIG d   1       2.553   1.225  -4.983  0.00  0.00    -0.043 C 
ATOM     49  H   LIG d   1       2.610   0.525  -5.817  0.00  0.00     0.027 H 
ATOM     50  H   LIG d   1       1.508   1.396  -4.724  0.00  0.00     0.027 H 
ATOM     51  H   LIG d   1       3.017   2.169  -5.267  0.00  0.00     0.027 H 
ENDBRANCH   1  48
BRANCH   9  52
ATOM     52  C   LIG d   1       3.869  -2.560  -2.520  0.00  0.00    -0.056 C 
ATOM     53  H   LIG d   1       2.792  -2.445  -2.645  0.00  0.00     0.024 H 
ATOM     54  H   LIG d   1       4.238  -3.309  -3.221  0.00  0.00     0.024 H 
ATOM     55  H   LIG d   1       4.086  -2.878  -1.501  0.00  0.00     0.024 H 
ENDBRANCH   9  52
TORSDOF 9
ENDMDL
MODEL 4
REMARK VINA RESULT:      -5.1      1.654      2.349
REMARK  9 active torsions:
REMARK  status: ('A' for Active; 'I' for Inactive)
REMARK    1  A    between atoms: C_1  and  C_2 
REMARK    2  A    between atoms: C_10  and  C_14 
REMARK    3  A    between atoms: C_18  and  C_20 
REMARK    4  A    between atoms: C_20  and  N_53 
REMARK    5  A    between atoms: C_21  and  C_22 
REMARK    6  A    between atoms: C_21  and  N_53 
REMARK    7  A    between atoms: C_22  and  C_23 
REMARK    8  A    between atoms: C_23  and  O_24 
REMARK    9  A    between atoms: O_24  and  C_25 
ROOT
ATOM      1  C   LIG d   1       4.537  -1.218  -2.521  0.00  0.00    -0.073 C 
ATOM      2  C   LIG d   1       5.224  -1.481  -3.592  0.00  0.00    -0.064 C 
ATOM      3  C   LIG d   1       5.024  -2.812  -4.288  0.00  0.00    -0.024 C 
ATOM      4  C   LIG d   1       4.646  -2.579  -5.755  0.00  0.00     0.018 C 
ATOM      5  H   LIG d   1       3.590  -2.341  -5.883  0.00  0.00     0.035 H 
ATOM      6  C   LIG d   1       5.589  -1.560  -6.417  0.00  0.00     0.108 C 
ATOM      7  H   LIG d   1       5.194  -1.324  -7.406  0.00  0.00     0.074 H 
ATOM      8  C   LIG d   1       5.761  -0.274  -5.654  0.00  0.00    -0.006 C 
ATOM      9  C   LIG d   1       6.213  -0.537  -4.216  0.00  0.00    -0.007 C 
ATOM     10  C   LIG d   1       6.364   0.766  -3.455  0.00  0.00    -0.043 C 
ATOM     11  C   LIG d   1       5.048   1.178  -2.797  0.00  0.00    -0.049 C 
ATOM     12  C   LIG d   1       4.651   0.092  -1.790  0.00  0.00    -0.032 C 
ATOM     13  O   LIG d   1       6.824  -2.306  -6.605  0.00  0.00    -0.461 OA
ATOM     14  C   LIG d   1       6.476  -3.544  -7.024  0.00  0.00     0.316 C 
ATOM     15  O   LIG d   1       7.166  -4.278  -7.690  0.00  0.00    -0.250 OA
ATOM     16  C   LIG d   1       5.081  -3.866  -6.519  0.00  0.00     0.102 C 
ATOM     17  H   LIG d   1       5.107  -4.721  -5.844  0.00  0.00     0.047 H 
ATOM     18  H   LIG d   1       5.946  -3.389  -4.239  0.00  0.00     0.031 H 
ATOM     19  H   LIG d   1       4.225  -3.363  -3.791  0.00  0.00     0.031 H 
ATOM     20  H   LIG d   1       4.812   0.261  -5.636  0.00  0.00     0.031 H 
ATOM     21  H   LIG d   1       6.508   0.342  -6.155  0.00  0.00     0.031 H 
ATOM     22  H   LIG d   1       7.126   0.644  -2.685  0.00  0.00     0.027 H 
ATOM     23  H   LIG d   1       6.678   1.549  -4.146  0.00  0.00     0.027 H 
ATOM     24  H   LIG d   1       4.272   1.276  -3.556  0.00  0.00     0.027 H 
ATOM     25  H   LIG d   1       5.177   2.129  -2.279  0.00  0.00     0.027 H 
ATOM     26  H   LIG d   1       3.692   0.343  -1.339  0.00  0.00     0.031 H 
ATOM     27  H   LIG d   1       5.413   0.013  -1.013  0.00  0.00     0.031 H 
ENDROOT
BRANCH  16  28
ATOM     28  C   LIG d   1       4.135  -4.139  -7.691  0.00  0.00    -0.020 C 
ATOM     29  H   LIG d   1       4.182  -5.195  -7.958  0.00  0.00     0.082 H 
ATOM     30  H   LIG d   1       3.116  -3.882  -7.403  0.00  0.00     0.082 H 
BRANCH  28  31
ATOM     31  N   LIG d   1       4.547  -3.317  -8.845  0.00  0.00     0.228 N 
ATOM     32  H   LIG d   1       4.996  -3.918  -9.546  0.00  0.00     0.201 HD
ATOM     33  H   LIG d   1       5.212  -2.601  -8.531  0.00  0.00     0.201 HD
BRANCH  31  34
ATOM     34  C   LIG d   1       3.373  -2.658  -9.449  0.00  0.00    -0.032 C 
ATOM     35  H   LIG d   1       3.197  -3.065 -10.446  0.00  0.00     0.081 H 
ATOM     36  H   LIG d   1       2.495  -2.831  -8.827  0.00  0.00     0.081 H 
BRANCH  34  37
ATOM     37  C   LIG d   1       3.639  -1.155  -9.552  0.00  0.00     0.011 C 
ATOM     38  H   LIG d   1       4.680  -0.953  -9.301  0.00  0.00     0.034 H 
ATOM     39  H   LIG d   1       3.438  -0.820 -10.569  0.00  0.00     0.034 H 
BRANCH  37  40
ATOM     40  C   LIG d   1       2.724  -0.409  -8.579  0.00  0.00     0.052 C 
ATOM     41  H   LIG d   1       1.837  -1.009  -8.379  0.00  0.00     0.056 H 
ATOM     42  H   LIG d   1       3.257  -0.228  -7.645  0.00  0.00     0.056 H 
BRANCH  40  43
ATOM     43  O   LIG d   1       2.336   0.841  -9.154  0.00  0.00    -0.383 OA
BRANCH  43  44
ATOM     44  C   LIG d   1       2.910   1.980  -8.511  0.00  0.00     0.036 C 
ATOM     45  H   LIG d   1       3.961   1.786  -8.298  0.00  0.00     0.052 H 
ATOM     46  H   LIG d   1       2.826   2.848  -9.166  0.00  0.00     0.052 H 
ATOM     47  H   LIG d   1       2.381   2.176  -7.578  0.00  0.00     0.052 H 
ENDBRANCH  43  44
ENDBRANCH  40  43
ENDBRANCH  37  40
ENDBRANCH  34  37
ENDBRANCH  31  34
ENDBRANCH  28  31
ENDBRANCH  16  28
BRANCH   1  48
ATOM     48  C   LIG d   1       3.591  -2.263  -1.991  0.00  0.00    -0.043 C 
ATOM     49  H   LIG d   1       3.656  -3.159  -2.609  0.00  0.00     0.027 H 
ATOM     50  H   LIG d   1       3.861  -2.510  -0.964  0.00  0.00     0.027 H 
ATOM     51  H   LIG d   1       2.572  -1.877  -2.016  0.00  0.00     0.027 H 
ENDBRANCH   1  48
BRANCH   9  52
ATOM     52  C   LIG d   1       7.580  -1.224  -4.256  0.00  0.00    -0.056 C 
ATOM     53  H   LIG d   1       7.743  -1.649  -5.247  0.00  0.00     0.024 H 
ATOM     54  H   LIG d   1       8.360  -0.494  -4.041  0.00  0.00     0.024 H 
ATOM     55  H   LIG d   1       7.609  -2.017  -3.510  0.00  0.00     0.024 H 
ENDBRANCH   9  52
TORSDOF 9
ENDMDL
MODEL 5
REMARK VINA RESULT:      -4.9      3.132      4.278
REMARK  9 active torsions:
REMARK  status: ('A' for Active; 'I' for Inactive)
REMARK    1  A    between atoms: C_1  and  C_2 
REMARK    2  A    between atoms: C_10  and  C_14 
REMARK    3  A    between atoms: C_18  and  C_20 
REMARK    4  A    between atoms: C_20  and  N_53 
REMARK    5  A    between atoms: C_21  and  C_22 
REMARK    6  A    between atoms: C_21  and  N_53 
REMARK    7  A    between atoms: C_22  and  C_23 
REMARK    8  A    between atoms: C_23  and  O_24 
REMARK    9  A    between atoms: O_24  and  C_25 
ROOT
ATOM      1  C   LIG d   1       3.450  -0.087  -5.356  0.00  0.00    -0.073 C 
ATOM      2  C   LIG d   1       4.389  -0.693  -4.692  0.00  0.00    -0.064 C 
ATOM      3  C   LIG d   1       5.391  -1.544  -5.444  0.00  0.00    -0.024 C 
ATOM      4  C   LIG d   1       6.814  -1.066  -5.134  0.00  0.00     0.018 C 
ATOM      5  H   LIG d   1       7.100  -0.193  -5.722  0.00  0.00     0.035 H 
ATOM      6  C   LIG d   1       7.023  -0.883  -3.622  0.00  0.00     0.108 C 
ATOM      7  H   LIG d   1       7.993  -0.409  -3.468  0.00  0.00     0.074 H 
ATOM      8  C   LIG d   1       5.972  -0.049  -2.939  0.00  0.00    -0.006 C 
ATOM      9  C   LIG d   1       4.568  -0.598  -3.204  0.00  0.00    -0.007 C 
ATOM     10  C   LIG d   1       3.521   0.262  -2.524  0.00  0.00    -0.043 C 
ATOM     11  C   LIG d   1       3.071   1.407  -3.432  0.00  0.00    -0.049 C 
ATOM     12  C   LIG d   1       2.437   0.804  -4.690  0.00  0.00    -0.032 C 
ATOM     13  O   LIG d   1       7.116  -2.245  -3.120  0.00  0.00    -0.461 OA
ATOM     14  C   LIG d   1       7.864  -2.941  -4.007  0.00  0.00     0.316 C 
ATOM     15  O   LIG d   1       8.522  -3.921  -3.752  0.00  0.00    -0.250 OA
ATOM     16  C   LIG d   1       7.742  -2.296  -5.376  0.00  0.00     0.102 C 
ATOM     17  H   LIG d   1       7.285  -2.986  -6.084  0.00  0.00     0.047 H 
ATOM     18  H   LIG d   1       5.285  -2.585  -5.139  0.00  0.00     0.031 H 
ATOM     19  H   LIG d   1       5.206  -1.461  -6.516  0.00  0.00     0.031 H 
ATOM     20  H   LIG d   1       6.030   0.974  -3.310  0.00  0.00     0.031 H 
ATOM     21  H   LIG d   1       6.158  -0.050  -1.864  0.00  0.00     0.031 H 
ATOM     22  H   LIG d   1       2.658  -0.355  -2.275  0.00  0.00     0.027 H 
ATOM     23  H   LIG d   1       3.939   0.678  -1.607  0.00  0.00     0.027 H 
ATOM     24  H   LIG d   1       3.932   2.015  -3.710  0.00  0.00     0.027 H 
ATOM     25  H   LIG d   1       2.338   2.024  -2.911  0.00  0.00     0.027 H 
ATOM     26  H   LIG d   1       2.147   1.602  -5.373  0.00  0.00     0.031 H 
ATOM     27  H   LIG d   1       1.559   0.218  -4.417  0.00  0.00     0.031 H 
ENDROOT
BRANCH  16  28
ATOM     28  C   LIG d   1       9.113  -1.842  -5.880  0.00  0.00    -0.020 C 
ATOM     29  H   LIG d   1       9.816  -1.815  -5.047  0.00  0.00     0.082 H 
ATOM     30  H   LIG d   1       9.472  -2.539  -6.637  0.00  0.00     0.082 H 
BRANCH  28  31
ATOM     31  N   LIG d   1       8.990  -0.493  -6.468  0.00  0.00     0.228 N 
ATOM     32  H   LIG d   1       8.177  -0.019  -6.059  0.00  0.00     0.201 HD
ATOM     33  H   LIG d   1       8.863  -0.577  -7.483  0.00  0.00     0.201 HD
BRANCH  31  34
ATOM     34  C   LIG d   1      10.205   0.298  -6.194  0.00  0.00    -0.032 C 
ATOM     35  H   LIG d   1      11.071  -0.363  -6.154  0.00  0.00     0.081 H 
ATOM     36  H   LIG d   1      10.347   1.036  -6.983  0.00  0.00     0.081 H 
BRANCH  34  37
ATOM     37  C   LIG d   1      10.046   1.011  -4.850  0.00  0.00     0.011 C 
ATOM     38  H   LIG d   1       9.813   0.280  -4.076  0.00  0.00     0.034 H 
ATOM     39  H   LIG d   1      10.975   1.523  -4.598  0.00  0.00     0.034 H 
BRANCH  37  40
ATOM     40  C   LIG d   1       8.910   2.032  -4.945  0.00  0.00     0.052 C 
ATOM     41  H   LIG d   1       8.985   2.572  -5.888  0.00  0.00     0.056 H 
ATOM     42  H   LIG d   1       7.952   1.514  -4.898  0.00  0.00     0.056 H 
BRANCH  40  43
ATOM     43  O   LIG d   1       9.006   2.954  -3.858  0.00  0.00    -0.383 OA
BRANCH  43  44
ATOM     44  C   LIG d   1      10.172   2.781  -3.050  0.00  0.00     0.036 C 
ATOM     45  H   LIG d   1       9.898   2.295  -2.115  0.00  0.00     0.052 H 
ATOM     46  H   LIG d   1      10.895   2.161  -3.583  0.00  0.00     0.052 H 
ATOM     47  H   LIG d   1      10.615   3.754  -2.838  0.00  0.00     0.052 H 
ENDBRANCH  43  44
ENDBRANCH  40  43
ENDBRANCH  37  40
ENDBRANCH  34  37
ENDBRANCH  31  34
ENDBRANCH  28  31
ENDBRANCH  16  28
BRANCH   1  48
ATOM     48  C   LIG d   1       3.374  -0.283  -6.848  0.00  0.00    -0.043 C 
ATOM     49  H   LIG d   1       3.348  -1.349  -7.073  0.00  0.00     0.027 H 
ATOM     50  H   LIG d   1       2.470   0.191  -7.230  0.00  0.00     0.027 H 
ATOM     51  H   LIG d   1       4.248   0.167  -7.318  0.00  0.00     0.027 H 
ENDBRANCH   1  48
BRANCH   9  52
ATOM     52  C   LIG d   1       4.480  -2.007  -2.614  0.00  0.00    -0.056 C 
ATOM     53  H   LIG d   1       3.440  -2.241  -2.387  0.00  0.00     0.024 H 
ATOM     54  H   LIG d   1       4.867  -2.727  -3.335  0.00  0.00     0.024 H 
ATOM     55  H   LIG d   1       5.072  -2.055  -1.699  0.00  0.00     0.024 H 
ENDBRANCH   9  52
TORSDOF 9
ENDMDL
MODEL 6
REMARK VINA RESULT:      -4.9      2.082      5.613
REMARK  9 active torsions:
REMARK  status: ('A' for Active; 'I' for Inactive)
REMARK    1  A    between atoms: C_1  and  C_2 
REMARK    2  A    between atoms: C_10  and  C_14 
REMARK    3  A    between atoms: C_18  and  C_20 
REMARK    4  A    between atoms: C_20  and  N_53 
REMARK    5  A    between atoms: C_21  and  C_22 
REMARK    6  A    between atoms: C_21  and  N_53 
REMARK    7  A    between atoms: C_22  and  C_23 
REMARK    8  A    between atoms: C_23  and  O_24 
REMARK    9  A    between atoms: O_24  and  C_25 
ROOT
ATOM      1  C   LIG d   1       2.913   0.021  -8.872  0.00  0.00    -0.073 C 
ATOM      2  C   LIG d   1       3.748  -0.922  -8.553  0.00  0.00    -0.064 C 
ATOM      3  C   LIG d   1       4.595  -0.767  -7.307  0.00  0.00    -0.024 C 
ATOM      4  C   LIG d   1       4.381  -1.970  -6.381  0.00  0.00     0.018 C 
ATOM      5  H   LIG d   1       3.472  -1.884  -5.785  0.00  0.00     0.035 H 
ATOM      6  C   LIG d   1       4.485  -3.294  -7.156  0.00  0.00     0.108 C 
ATOM      7  H   LIG d   1       4.185  -4.103  -6.489  0.00  0.00     0.074 H 
ATOM      8  C   LIG d   1       3.637  -3.363  -8.398  0.00  0.00    -0.006 C 
ATOM      9  C   LIG d   1       3.930  -2.191  -9.337  0.00  0.00    -0.007 C 
ATOM     10  C   LIG d   1       3.055  -2.265 -10.574  0.00  0.00    -0.043 C 
ATOM     11  C   LIG d   1       1.723  -1.549 -10.353  0.00  0.00    -0.049 C 
ATOM     12  C   LIG d   1       2.012  -0.069 -10.073  0.00  0.00    -0.032 C 
ATOM     13  O   LIG d   1       5.911  -3.437  -7.405  0.00  0.00    -0.461 OA
ATOM     14  C   LIG d   1       6.548  -3.058  -6.273  0.00  0.00     0.316 C 
ATOM     15  O   LIG d   1       7.639  -3.438  -5.924  0.00  0.00    -0.250 OA
ATOM     16  C   LIG d   1       5.672  -2.078  -5.513  0.00  0.00     0.102 C 
ATOM     17  H   LIG d   1       6.163  -1.108  -5.436  0.00  0.00     0.047 H 
ATOM     18  H   LIG d   1       5.646  -0.709  -7.587  0.00  0.00     0.031 H 
ATOM     19  H   LIG d   1       4.308   0.147  -6.785  0.00  0.00     0.031 H 
ATOM     20  H   LIG d   1       2.585  -3.338  -8.115  0.00  0.00     0.031 H 
ATOM     21  H   LIG d   1       3.843  -4.298  -8.920  0.00  0.00     0.031 H 
ATOM     22  H   LIG d   1       3.577  -1.799 -11.410  0.00  0.00     0.027 H 
ATOM     23  H   LIG d   1       2.862  -3.311 -10.814  0.00  0.00     0.027 H 
ATOM     24  H   LIG d   1       1.205  -1.990  -9.502  0.00  0.00     0.027 H 
ATOM     25  H   LIG d   1       1.104  -1.639 -11.247  0.00  0.00     0.027 H 
ATOM     26  H   LIG d   1       1.078   0.454  -9.869  0.00  0.00     0.031 H 
ATOM     27  H   LIG d   1       2.505   0.381 -10.935  0.00  0.00     0.031 H 
ENDROOT
BRANCH  16  28
ATOM     28  C   LIG d   1       5.339  -2.621  -4.123  0.00  0.00    -0.020 C 
ATOM     29  H   LIG d   1       5.508  -3.698  -4.103  0.00  0.00     0.082 H 
ATOM     30  H   LIG d   1       5.976  -2.140  -3.381  0.00  0.00     0.082 H 
BRANCH  28  31
ATOM     31  N   LIG d   1       3.923  -2.337  -3.819  0.00  0.00     0.228 N 
ATOM     32  H   LIG d   1       3.347  -3.132  -4.115  0.00  0.00     0.201 HD
ATOM     33  H   LIG d   1       3.631  -1.493  -4.327  0.00  0.00     0.201 HD
BRANCH  31  34
ATOM     34  C   LIG d   1       3.744  -2.118  -2.371  0.00  0.00    -0.032 C 
ATOM     35  H   LIG d   1       2.682  -2.148  -2.124  0.00  0.00     0.081 H 
ATOM     36  H   LIG d   1       4.266  -2.897  -1.816  0.00  0.00     0.081 H 
BRANCH  34  37
ATOM     37  C   LIG d   1       4.317  -0.751  -1.995  0.00  0.00     0.011 C 
ATOM     38  H   LIG d   1       4.235  -0.607  -0.918  0.00  0.00     0.034 H 
ATOM     39  H   LIG d   1       5.366  -0.703  -2.289  0.00  0.00     0.034 H 
BRANCH  37  40
ATOM     40  C   LIG d   1       3.534   0.346  -2.718  0.00  0.00     0.052 C 
ATOM     41  H   LIG d   1       2.886  -0.104  -3.469  0.00  0.00     0.056 H 
ATOM     42  H   LIG d   1       2.928   0.895  -1.997  0.00  0.00     0.056 H 
BRANCH  40  43
ATOM     43  O   LIG d   1       4.448   1.244  -3.352  0.00  0.00    -0.383 OA
BRANCH  43  44
ATOM     44  C   LIG d   1       5.821   0.978  -3.060  0.00  0.00     0.036 C 
ATOM     45  H   LIG d   1       6.254   0.380  -3.861  0.00  0.00     0.052 H 
ATOM     46  H   LIG d   1       6.364   1.920  -2.976  0.00  0.00     0.052 H 
ATOM     47  H   LIG d   1       5.893   0.432  -2.119  0.00  0.00     0.052 H 
ENDBRANCH  43  44
ENDBRANCH  40  43
ENDBRANCH  37  40
ENDBRANCH  34  37
ENDBRANCH  31  34
ENDBRANCH  28  31
ENDBRANCH  16  28
BRANCH   1  48
ATOM     48  C   LIG d   1       2.844   1.252  -8.006  0.00  0.00    -0.043 C 
ATOM     49  H   LIG d   1       2.289   2.032  -8.527  0.00  0.00     0.027 H 
ATOM     50  H   LIG d   1       2.340   1.011  -7.071  0.00  0.00     0.027 H 
ATOM     51  H   LIG d   1       3.854   1.604  -7.794  0.00  0.00     0.027 H 
ENDBRANCH   1  48
BRANCH   9  52
ATOM     52  C   LIG d   1       5.390  -2.281  -9.783  0.00  0.00    -0.056 C 
ATOM     53  H   LIG d   1       5.710  -3.323  -9.769  0.00  0.00     0.024 H 
ATOM     54  H   LIG d   1       5.487  -1.885 -10.793  0.00  0.00     0.024 H 
ATOM     55  H   LIG d   1       6.013  -1.700  -9.103  0.00  0.00     0.024 H 
ENDBRANCH   9  52
TORSDOF 9
ENDMDL
MODEL 7
REMARK VINA RESULT:      -4.9      4.972      6.951
REMARK  9 active torsions:
REMARK  status: ('A' for Active; 'I' for Inactive)
REMARK    1  A    between atoms: C_1  and  C_2 
REMARK    2  A    between atoms: C_10  and  C_14 
REMARK    3  A    between atoms: C_18  and  C_20 
REMARK    4  A    between atoms: C_20  and  N_53 
REMARK    5  A    between atoms: C_21  and  C_22 
REMARK    6  A    between atoms: C_21  and  N_53 
REMARK    7  A    between atoms: C_22  and  C_23 
REMARK    8  A    between atoms: C_23  and  O_24 
REMARK    9  A    between atoms: O_24  and  C_25 
ROOT
ATOM      1  C   LIG d   1       4.396  -0.206  -2.651  0.00  0.00    -0.073 C 
ATOM      2  C   LIG d   1       5.296  -0.057  -3.577  0.00  0.00    -0.064 C 
ATOM      3  C   LIG d   1       6.131   1.207  -3.597  0.00  0.00    -0.024 C 
ATOM      4  C   LIG d   1       7.620   0.845  -3.560  0.00  0.00     0.018 C 
ATOM      5  H   LIG d   1       7.972   0.616  -2.553  0.00  0.00     0.035 H 
ATOM      6  C   LIG d   1       7.953  -0.248  -4.589  0.00  0.00     0.108 C 
ATOM      7  H   LIG d   1       8.982  -0.569  -4.425  0.00  0.00     0.074 H 
ATOM      8  C   LIG d   1       7.062  -1.461  -4.529  0.00  0.00    -0.006 C 
ATOM      9  C   LIG d   1       5.586  -1.073  -4.646  0.00  0.00    -0.007 C 
ATOM     10  C   LIG d   1       4.702  -2.302  -4.564  0.00  0.00    -0.043 C 
ATOM     11  C   LIG d   1       4.338  -2.626  -3.116  0.00  0.00    -0.049 C 
ATOM     12  C   LIG d   1       3.549  -1.444  -2.540  0.00  0.00    -0.032 C 
ATOM     13  O   LIG d   1       7.909   0.454  -5.863  0.00  0.00    -0.461 OA
ATOM     14  C   LIG d   1       8.503   1.654  -5.671  0.00  0.00     0.316 C 
ATOM     15  O   LIG d   1       9.051   2.309  -6.525  0.00  0.00    -0.250 OA
ATOM     16  C   LIG d   1       8.370   2.047  -4.211  0.00  0.00     0.102 C 
ATOM     17  H   LIG d   1       7.783   2.961  -4.114  0.00  0.00     0.047 H 
ATOM     18  H   LIG d   1       5.918   1.769  -4.505  0.00  0.00     0.031 H 
ATOM     19  H   LIG d   1       5.885   1.817  -2.727  0.00  0.00     0.031 H 
ATOM     20  H   LIG d   1       7.221  -1.974  -3.580  0.00  0.00     0.031 H 
ATOM     21  H   LIG d   1       7.319  -2.134  -5.347  0.00  0.00     0.031 H 
ATOM     22  H   LIG d   1       3.788  -2.123  -5.131  0.00  0.00     0.027 H 
ATOM     23  H   LIG d   1       5.229  -3.151  -4.998  0.00  0.00     0.027 H 
ATOM     24  H   LIG d   1       5.246  -2.780  -2.534  0.00  0.00     0.027 H 
ATOM     25  H   LIG d   1       3.724  -3.527  -3.083  0.00  0.00     0.027 H 
ATOM     26  H   LIG d   1       3.315  -1.634  -1.494  0.00  0.00     0.031 H 
ATOM     27  H   LIG d   1       2.625  -1.306  -3.104  0.00  0.00     0.031 H 
ENDROOT
BRANCH  16  28
ATOM     28  C   LIG d   1       9.749   2.227  -3.574  0.00  0.00    -0.020 C 
ATOM     29  H   LIG d   1      10.079   3.257  -3.707  0.00  0.00     0.082 H 
ATOM     30  H   LIG d   1       9.691   1.998  -2.510  0.00  0.00     0.082 H 
BRANCH  28  31
ATOM     31  N   LIG d   1      10.706   1.312  -4.227  0.00  0.00     0.228 N 
ATOM     32  H   LIG d   1      10.686   1.469  -5.241  0.00  0.00     0.201 HD
ATOM     33  H   LIG d   1      10.438   0.342  -4.024  0.00  0.00     0.201 HD
BRANCH  31  34
ATOM     34  C   LIG d   1      12.071   1.554  -3.723  0.00  0.00    -0.032 C 
ATOM     35  H   LIG d   1      12.532   2.365  -4.288  0.00  0.00     0.081 H 
ATOM     36  H   LIG d   1      12.030   1.825  -2.668  0.00  0.00     0.081 H 
BRANCH  34  37
ATOM     37  C   LIG d   1      12.901   0.280  -3.891  0.00  0.00     0.011 C 
ATOM     38  H   LIG d   1      12.390  -0.552  -3.408  0.00  0.00     0.034 H 
ATOM     39  H   LIG d   1      13.023   0.064  -4.953  0.00  0.00     0.034 H 
BRANCH  37  40
ATOM     40  C   LIG d   1      14.275   0.478  -3.250  0.00  0.00     0.052 C 
ATOM     41  H   LIG d   1      14.974   0.855  -3.995  0.00  0.00     0.056 H 
ATOM     42  H   LIG d   1      14.195   1.195  -2.432  0.00  0.00     0.056 H 
BRANCH  40  43
ATOM     43  O   LIG d   1      14.748  -0.772  -2.741  0.00  0.00    -0.383 OA
BRANCH  43  44
ATOM     44  C   LIG d   1      15.822  -1.337  -3.496  0.00  0.00     0.036 C 
ATOM     45  H   LIG d   1      15.440  -2.137  -4.129  0.00  0.00     0.052 H 
ATOM     46  H   LIG d   1      16.274  -0.565  -4.120  0.00  0.00     0.052 H 
ATOM     47  H   LIG d   1      16.572  -1.739  -2.815  0.00  0.00     0.052 H 
ENDBRANCH  43  44
ENDBRANCH  40  43
ENDBRANCH  37  40
ENDBRANCH  34  37
ENDBRANCH  31  34
ENDBRANCH  28  31
ENDBRANCH  16  28
BRANCH   1  48
ATOM     48  C   LIG d   1       4.195   0.901  -1.650  0.00  0.00    -0.043 C 
ATOM     49  H   LIG d   1       3.178   1.286  -1.734  0.00  0.00     0.027 H 
ATOM     50  H   LIG d   1       4.355   0.515  -0.644  0.00  0.00     0.027 H 
ATOM     51  H   LIG d   1       4.905   1.704  -1.849  0.00  0.00     0.027 H 
ENDBRANCH   1  48
BRANCH   9  52
ATOM     52  C   LIG d   1       5.365  -0.418  -6.010  0.00  0.00    -0.056 C 
ATOM     53  H   LIG d   1       6.128  -0.765  -6.707  0.00  0.00     0.024 H 
ATOM     54  H   LIG d   1       4.378  -0.689  -6.387  0.00  0.00     0.024 H 
ATOM     55  H   LIG d   1       5.430   0.665  -5.908  0.00  0.00     0.024 H 
ENDBRANCH   9  52
TORSDOF 9
ENDMDL
MODEL 8
REMARK VINA RESULT:      -4.8      3.701      5.672
REMARK  9 active torsions:
REMARK  status: ('A' for Active; 'I' for Inactive)
REMARK    1  A    between atoms: C_1  and  C_2 
REMARK    2  A    between atoms: C_10  and  C_14 
REMARK    3  A    between atoms: C_18  and  C_20 
REMARK    4  A    between atoms: C_20  and  N_53 
REMARK    5  A    between atoms: C_21  and  C_22 
REMARK    6  A    between atoms: C_21  and  N_53 
REMARK    7  A    between atoms: C_22  and  C_23 
REMARK    8  A    between atoms: C_23  and  O_24 
REMARK    9  A    between atoms: O_24  and  C_25 
ROOT
ATOM      1  C   LIG d   1      10.732   0.017  -4.937  0.00  0.00    -0.073 C 
ATOM      2  C   LIG d   1       9.454   0.160  -5.126  0.00  0.00    -0.064 C 
ATOM      3  C   LIG d   1       8.626  -1.050  -5.507  0.00  0.00    -0.024 C 
ATOM      4  C   LIG d   1       7.479  -1.229  -4.506  0.00  0.00     0.018 C 
ATOM      5  H   LIG d   1       7.797  -1.723  -3.587  0.00  0.00     0.035 H 
ATOM      6  C   LIG d   1       6.738   0.097  -4.265  0.00  0.00     0.108 C 
ATOM      7  H   LIG d   1       6.033  -0.051  -3.447  0.00  0.00     0.074 H 
ATOM      8  C   LIG d   1       7.630   1.261  -3.920  0.00  0.00    -0.006 C 
ATOM      9  C   LIG d   1       8.717   1.461  -4.978  0.00  0.00    -0.007 C 
ATOM     10  C   LIG d   1       9.617   2.624  -4.607  0.00  0.00    -0.043 C 
ATOM     11  C   LIG d   1      10.780   2.165  -3.728  0.00  0.00    -0.049 C 
ATOM     12  C   LIG d   1      11.620   1.160  -4.525  0.00  0.00    -0.032 C 
ATOM     13  O   LIG d   1       5.965   0.286  -5.483  0.00  0.00    -0.461 OA
ATOM     14  C   LIG d   1       5.461  -0.923  -5.820  0.00  0.00     0.316 C 
ATOM     15  O   LIG d   1       4.455  -1.109  -6.461  0.00  0.00    -0.250 OA
ATOM     16  C   LIG d   1       6.364  -2.011  -5.267  0.00  0.00     0.102 C 
ATOM     17  H   LIG d   1       6.795  -2.599  -6.077  0.00  0.00     0.047 H 
ATOM     18  H   LIG d   1       8.216  -0.910  -6.506  0.00  0.00     0.031 H 
ATOM     19  H   LIG d   1       9.257  -1.939  -5.496  0.00  0.00     0.031 H 
ATOM     20  H   LIG d   1       8.102   1.075  -2.955  0.00  0.00     0.031 H 
ATOM     21  H   LIG d   1       7.026   2.166  -3.854  0.00  0.00     0.031 H 
ATOM     22  H   LIG d   1      10.014   3.073  -5.517  0.00  0.00     0.027 H 
ATOM     23  H   LIG d   1       9.034   3.369  -4.066  0.00  0.00     0.027 H 
ATOM     24  H   LIG d   1      10.394   1.688  -2.827  0.00  0.00     0.027 H 
ATOM     25  H   LIG d   1      11.396   3.022  -3.455  0.00  0.00     0.027 H 
ATOM     26  H   LIG d   1      12.431   0.785  -3.902  0.00  0.00     0.031 H 
ATOM     27  H   LIG d   1      12.031   1.642  -5.412  0.00  0.00     0.031 H 
ENDROOT
BRANCH  16  28
ATOM     28  C   LIG d   1       5.591  -2.914  -4.304  0.00  0.00    -0.020 C 
ATOM     29  H   LIG d   1       5.535  -3.921  -4.716  0.00  0.00     0.082 H 
ATOM     30  H   LIG d   1       6.102  -2.942  -3.341  0.00  0.00     0.082 H 
BRANCH  28  31
ATOM     31  N   LIG d   1       4.228  -2.376  -4.126  0.00  0.00     0.228 N 
ATOM     32  H   LIG d   1       3.552  -3.017  -4.556  0.00  0.00     0.201 HD
ATOM     33  H   LIG d   1       4.166  -1.457  -4.579  0.00  0.00     0.201 HD
BRANCH  31  34
ATOM     34  C   LIG d   1       3.918  -2.232  -2.690  0.00  0.00    -0.032 C 
ATOM     35  H   LIG d   1       3.039  -2.828  -2.444  0.00  0.00     0.081 H 
ATOM     36  H   LIG d   1       4.766  -2.574  -2.096  0.00  0.00     0.081 H 
BRANCH  34  37
ATOM     37  C   LIG d   1       3.639  -0.760  -2.383  0.00  0.00     0.011 C 
ATOM     38  H   LIG d   1       3.107  -0.682  -1.435  0.00  0.00     0.034 H 
ATOM     39  H   LIG d   1       4.582  -0.218  -2.315  0.00  0.00     0.034 H 
BRANCH  37  40
ATOM     40  C   LIG d   1       2.783  -0.159  -3.499  0.00  0.00     0.052 C 
ATOM     41  H   LIG d   1       2.879  -0.767  -4.398  0.00  0.00     0.056 H 
ATOM     42  H   LIG d   1       1.739  -0.137  -3.186  0.00  0.00     0.056 H 
BRANCH  40  43
ATOM     43  O   LIG d   1       3.225   1.172  -3.774  0.00  0.00    -0.383 OA
BRANCH  43  44
ATOM     44  C   LIG d   1       3.918   1.790  -2.687  0.00  0.00     0.036 C 
ATOM     45  H   LIG d   1       4.992   1.709  -2.848  0.00  0.00     0.052 H 
ATOM     46  H   LIG d   1       3.638   2.842  -2.628  0.00  0.00     0.052 H 
ATOM     47  H   LIG d   1       3.652   1.290  -1.756  0.00  0.00     0.052 H 
ENDBRANCH  43  44
ENDBRANCH  40  43
ENDBRANCH  37  40
ENDBRANCH  34  37
ENDBRANCH  31  34
ENDBRANCH  28  31
ENDBRANCH  16  28
BRANCH   1  48
ATOM     48  C   LIG d   1      11.348  -1.343  -5.138  0.00  0.00    -0.043 C 
ATOM     49  H   LIG d   1      10.908  -1.815  -6.017  0.00  0.00     0.027 H 
ATOM     50  H   LIG d   1      12.423  -1.237  -5.282  0.00  0.00     0.027 H 
ATOM     51  H   LIG d   1      11.158  -1.961  -4.260  0.00  0.00     0.027 H 
ENDBRANCH   1  48
BRANCH   9  52
ATOM     52  C   LIG d   1       8.042   1.790  -6.310  0.00  0.00    -0.056 C 
ATOM     53  H   LIG d   1       7.352   0.988  -6.575  0.00  0.00     0.024 H 
ATOM     54  H   LIG d   1       7.492   2.726  -6.217  0.00  0.00     0.024 H 
ATOM     55  H   LIG d   1       8.800   1.889  -7.087  0.00  0.00     0.024 H 
ENDBRANCH   9  52
TORSDOF 9
ENDMDL
MODEL 9
REMARK VINA RESULT:      -4.8      2.287      3.373
REMARK  9 active torsions:
REMARK  status: ('A' for Active; 'I' for Inactive)
REMARK    1  A    between atoms: C_1  and  C_2 
REMARK    2  A    between atoms: C_10  and  C_14 
REMARK    3  A    between atoms: C_18  and  C_20 
REMARK    4  A    between atoms: C_20  and  N_53 
REMARK    5  A    between atoms: C_21  and  C_22 
REMARK    6  A    between atoms: C_21  and  N_53 
REMARK    7  A    between atoms: C_22  and  C_23 
REMARK    8  A    between atoms: C_23  and  O_24 
REMARK    9  A    between atoms: O_24  and  C_25 
ROOT
ATOM      1  C   LIG d   1       4.430   0.277  -3.570  0.00  0.00    -0.073 C 
ATOM      2  C   LIG d   1       4.369  -0.354  -4.704  0.00  0.00    -0.064 C 
ATOM      3  C   LIG d   1       3.188  -0.109  -5.622  0.00  0.00    -0.024 C 
ATOM      4  C   LIG d   1       3.686   0.338  -7.000  0.00  0.00     0.018 C 
ATOM      5  H   LIG d   1       3.942   1.398  -7.030  0.00  0.00     0.035 H 
ATOM      6  C   LIG d   1       4.810  -0.579  -7.511  0.00  0.00     0.108 C 
ATOM      7  H   LIG d   1       5.224  -0.138  -8.418  0.00  0.00     0.074 H 
ATOM      8  C   LIG d   1       5.935  -0.799  -6.534  0.00  0.00    -0.006 C 
ATOM      9  C   LIG d   1       5.412  -1.319  -5.193  0.00  0.00    -0.007 C 
ATOM     10  C   LIG d   1       6.554  -1.517  -4.214  0.00  0.00    -0.043 C 
ATOM     11  C   LIG d   1       6.836  -0.238  -3.427  0.00  0.00    -0.049 C 
ATOM     12  C   LIG d   1       5.583   0.117  -2.618  0.00  0.00    -0.032 C 
ATOM     13  O   LIG d   1       4.113  -1.797  -7.893  0.00  0.00    -0.461 OA
ATOM     14  C   LIG d   1       2.972  -1.419  -8.514  0.00  0.00     0.316 C 
ATOM     15  O   LIG d   1       2.374  -2.069  -9.338  0.00  0.00    -0.250 OA
ATOM     16  C   LIG d   1       2.561  -0.048  -8.009  0.00  0.00     0.102 C 
ATOM     17  H   LIG d   1       1.597  -0.100  -7.504  0.00  0.00     0.047 H 
ATOM     18  H   LIG d   1       2.613  -1.028  -5.725  0.00  0.00     0.031 H 
ATOM     19  H   LIG d   1       2.554   0.669  -5.196  0.00  0.00     0.031 H 
ATOM     20  H   LIG d   1       6.456   0.145  -6.371  0.00  0.00     0.031 H 
ATOM     21  H   LIG d   1       6.633  -1.525  -6.950  0.00  0.00     0.031 H 
ATOM     22  H   LIG d   1       6.294  -2.315  -3.518  0.00  0.00     0.027 H 
ATOM     23  H   LIG d   1       7.450  -1.803  -4.764  0.00  0.00     0.027 H 
ATOM     24  H   LIG d   1       7.071   0.573  -4.116  0.00  0.00     0.027 H 
ATOM     25  H   LIG d   1       7.676  -0.400  -2.751  0.00  0.00     0.027 H 
ATOM     26  H   LIG d   1       5.746   1.051  -2.081  0.00  0.00     0.031 H 
ATOM     27  H   LIG d   1       5.363  -0.681  -1.908  0.00  0.00     0.031 H 
ENDROOT
BRANCH  16  28
ATOM     28  C   LIG d   1       2.508   0.956  -9.162  0.00  0.00    -0.020 C 
ATOM     29  H   LIG d   1       1.472   1.244  -9.345  0.00  0.00     0.082 H 
ATOM     30  H   LIG d   1       3.091   1.840  -8.902  0.00  0.00     0.082 H 
BRANCH  28  31
ATOM     31  N   LIG d   1       3.070   0.331 -10.374  0.00  0.00     0.228 N 
ATOM     32  H   LIG d   1       2.383   0.390 -11.135  0.00  0.00     0.201 HD
ATOM     33  H   LIG d   1       3.282  -0.655 -10.179  0.00  0.00     0.201 HD
BRANCH  31  34
ATOM     34  C   LIG d   1       4.307   1.023 -10.781  0.00  0.00    -0.032 C 
ATOM     35  H   LIG d   1       4.102   1.670 -11.635  0.00  0.00     0.081 H 
ATOM     36  H   LIG d   1       4.681   1.623  -9.952  0.00  0.00     0.081 H 
BRANCH  34  37
ATOM     37  C   LIG d   1       5.358  -0.018 -11.172  0.00  0.00     0.011 C 
ATOM     38  H   LIG d   1       6.112   0.448 -11.806  0.00  0.00     0.034 H 
ATOM     39  H   LIG d   1       5.832  -0.411 -10.272  0.00  0.00     0.034 H 
BRANCH  37  40
ATOM     40  C   LIG d   1       4.685  -1.161 -11.935  0.00  0.00     0.052 C 
ATOM     41  H   LIG d   1       5.445  -1.852 -12.299  0.00  0.00     0.056 H 
ATOM     42  H   LIG d   1       4.002  -1.689 -11.270  0.00  0.00     0.056 H 
BRANCH  40  43
ATOM     43  O   LIG d   1       3.954  -0.628 -13.042  0.00  0.00    -0.383 OA
BRANCH  43  44
ATOM     44  C   LIG d   1       3.186  -1.601 -13.753  0.00  0.00     0.036 C 
ATOM     45  H   LIG d   1       2.655  -1.117 -14.572  0.00  0.00     0.052 H 
ATOM     46  H   LIG d   1       3.851  -2.367 -14.154  0.00  0.00     0.052 H 
ATOM     47  H   LIG d   1       2.467  -2.062 -13.076  0.00  0.00     0.052 H 
ENDBRANCH  43  44
ENDBRANCH  40  43
ENDBRANCH  37  40
ENDBRANCH  34  37
ENDBRANCH  31  34
ENDBRANCH  28  31
ENDBRANCH  16  28
BRANCH   1  48
ATOM     48  C   LIG d   1       3.304   1.205  -3.194  0.00  0.00    -0.043 C 
ATOM     49  H   LIG d   1       2.349   0.718  -3.397  0.00  0.00     0.027 H 
ATOM     50  H   LIG d   1       3.370   1.445  -2.134  0.00  0.00     0.027 H 
ATOM     51  H   LIG d   1       3.377   2.120  -3.781  0.00  0.00     0.027 H 
ENDBRANCH   1  48
BRANCH   9  52
ATOM     52  C   LIG d   1       4.746  -2.676  -5.426  0.00  0.00    -0.056 C 
ATOM     53  H   LIG d   1       4.278  -3.015  -4.502  0.00  0.00     0.024 H 
ATOM     54  H   LIG d   1       3.988  -2.580  -6.204  0.00  0.00     0.024 H 
ATOM     55  H   LIG d   1       5.498  -3.400  -5.740  0.00  0.00     0.024 H 
ENDBRANCH   9  52
TORSDOF 9
ENDMDL
MODEL 10
REMARK VINA RESULT:      -4.8      4.278      6.565
REMARK  9 active torsions:
REMARK  status: ('A' for Active; 'I' for Inactive)
REMARK    1  A    between atoms: C_1  and  C_2 
REMARK    2  A    between atoms: C_10  and  C_14 
REMARK    3  A    between atoms: C_18  and  C_20 
REMARK    4  A    between atoms: C_20  and  N_53 
REMARK    5  A    between atoms: C_21  and  C_22 
REMARK    6  A    between atoms: C_21  and  N_53 
REMARK    7  A    between atoms: C_22  and  C_23 
REMARK    8  A    between atoms: C_23  and  O_24 
REMARK    9  A    between atoms: O_24  and  C_25 
ROOT
ATOM      1  C   LIG d   1       7.384  -4.119  -4.743  0.00  0.00    -0.073 C 
ATOM      2  C   LIG d   1       6.646  -3.094  -4.439  0.00  0.00    -0.064 C 
ATOM      3  C   LIG d   1       7.258  -1.951  -3.653  0.00  0.00    -0.024 C 
ATOM      4  C   LIG d   1       7.072  -0.637  -4.420  0.00  0.00     0.018 C 
ATOM      5  H   LIG d   1       7.813  -0.504  -5.209  0.00  0.00     0.035 H 
ATOM      6  C   LIG d   1       5.623  -0.475  -4.906  0.00  0.00     0.108 C 
ATOM      7  H   LIG d   1       5.578   0.395  -5.561  0.00  0.00     0.074 H 
ATOM      8  C   LIG d   1       5.074  -1.662  -5.653  0.00  0.00    -0.006 C 
ATOM      9  C   LIG d   1       5.203  -2.945  -4.829  0.00  0.00    -0.007 C 
ATOM     10  C   LIG d   1       4.662  -4.133  -5.603  0.00  0.00    -0.043 C 
ATOM     11  C   LIG d   1       5.749  -4.769  -6.469  0.00  0.00    -0.049 C 
ATOM     12  C   LIG d   1       6.864  -5.278  -5.548  0.00  0.00    -0.032 C 
ATOM     13  O   LIG d   1       4.888  -0.149  -3.693  0.00  0.00    -0.461 OA
ATOM     14  C   LIG d   1       5.654   0.717  -2.990  0.00  0.00     0.316 C 
ATOM     15  O   LIG d   1       5.244   1.534  -2.201  0.00  0.00    -0.250 OA
ATOM     16  C   LIG d   1       7.113   0.494  -3.347  0.00  0.00     0.102 C 
ATOM     17  H   LIG d   1       7.675   0.171  -2.471  0.00  0.00     0.047 H 
ATOM     18  H   LIG d   1       6.769  -1.876  -2.683  0.00  0.00     0.031 H 
ATOM     19  H   LIG d   1       8.322  -2.140  -3.510  0.00  0.00     0.031 H 
ATOM     20  H   LIG d   1       5.623  -1.781  -6.586  0.00  0.00     0.031 H 
ATOM     21  H   LIG d   1       4.021  -1.487  -5.877  0.00  0.00     0.031 H 
ATOM     22  H   LIG d   1       4.286  -4.876  -4.899  0.00  0.00     0.027 H 
ATOM     23  H   LIG d   1       3.845  -3.801  -6.242  0.00  0.00     0.027 H 
ATOM     24  H   LIG d   1       6.151  -4.026  -7.158  0.00  0.00     0.027 H 
ATOM     25  H   LIG d   1       5.329  -5.603  -7.033  0.00  0.00     0.027 H 
ATOM     26  H   LIG d   1       7.671  -5.697  -6.148  0.00  0.00     0.031 H 
ATOM     27  H   LIG d   1       6.470  -6.042  -4.878  0.00  0.00     0.031 H 
ENDROOT
BRANCH  16  28
ATOM     28  C   LIG d   1       7.723   1.768  -3.935  0.00  0.00    -0.020 C 
ATOM     29  H   LIG d   1       7.572   1.779  -5.014  0.00  0.00     0.082 H 
ATOM     30  H   LIG d   1       7.241   2.640  -3.492  0.00  0.00     0.082 H 
BRANCH  28  31
ATOM     31  N   LIG d   1       9.168   1.794  -3.636  0.00  0.00     0.228 N 
ATOM     32  H   LIG d   1       9.562   0.860  -3.790  0.00  0.00     0.201 HD
ATOM     33  H   LIG d   1       9.306   2.068  -2.656  0.00  0.00     0.201 HD
BRANCH  31  34
ATOM     34  C   LIG d   1       9.854   2.763  -4.511  0.00  0.00    -0.032 C 
ATOM     35  H   LIG d   1      10.910   2.503  -4.590  0.00  0.00     0.081 H 
ATOM     36  H   LIG d   1       9.402   2.746  -5.503  0.00  0.00     0.081 H 
BRANCH  34  37
ATOM     37  C   LIG d   1       9.717   4.165  -3.913  0.00  0.00     0.011 C 
ATOM     38  H   LIG d   1      10.242   4.882  -4.544  0.00  0.00     0.034 H 
ATOM     39  H   LIG d   1       8.663   4.434  -3.857  0.00  0.00     0.034 H 
BRANCH  37  40
ATOM     40  C   LIG d   1      10.324   4.180  -2.508  0.00  0.00     0.052 C 
ATOM     41  H   LIG d   1       9.696   3.599  -1.834  0.00  0.00     0.056 H 
ATOM     42  H   LIG d   1      11.323   3.745  -2.539  0.00  0.00     0.056 H 
BRANCH  40  43
ATOM     43  O   LIG d   1      10.407   5.529  -2.041  0.00  0.00    -0.383 OA
BRANCH  43  44
ATOM     44  C   LIG d   1       9.591   6.447  -2.770  0.00  0.00     0.036 C 
ATOM     45  H   LIG d   1       9.730   7.452  -2.372  0.00  0.00     0.052 H 
ATOM     46  H   LIG d   1       9.875   6.431  -3.822  0.00  0.00     0.052 H 
ATOM     47  H   LIG d   1       8.544   6.161  -2.671  0.00  0.00     0.052 H 
ENDBRANCH  43  44
ENDBRANCH  40  43
ENDBRANCH  37  40
ENDBRANCH  34  37
ENDBRANCH  31  34
ENDBRANCH  28  31
ENDBRANCH  16  28
BRANCH   1  48
ATOM     48  C   LIG d   1       8.815  -4.148  -4.272  0.00  0.00    -0.043 C 
ATOM     49  H   LIG d   1       9.476  -4.292  -5.127  0.00  0.00     0.027 H 
ATOM     50  H   LIG d   1       9.055  -3.205  -3.782  0.00  0.00     0.027 H 
ATOM     51  H   LIG d   1       8.948  -4.969  -3.567  0.00  0.00     0.027 H 
ENDBRANCH   1  48
BRANCH   9  52
ATOM     52  C   LIG d   1       4.369  -2.789  -3.556  0.00  0.00    -0.056 C 
ATOM     53  H   LIG d   1       4.247  -3.763  -3.081  0.00  0.00     0.024 H 
ATOM     54  H   LIG d   1       4.877  -2.111  -2.870  0.00  0.00     0.024 H 
ATOM     55  H   LIG d   1       3.390  -2.383  -3.811  0.00  0.00     0.024 H 
ENDBRANCH   9  52
TORSDOF 9
ENDMDL
