MODEL 1
REMARK VINA RESULT:      -5.7      0.000      0.000
REMARK  3 active torsions:
REMARK  status: ('A' for Active; 'I' for Inactive)
REMARK    1  A    between atoms: C_4  and  C_7 
REMARK    2  A    between atoms: C_8  and  C_15 
REMARK    3  A    between atoms: C_15  and  O_16 
ROOT
ATOM      1  C   LIG d   1       5.022  -2.633  -4.246  0.00  0.00     0.095 A 
ATOM      2  C   LIG d   1       6.310  -2.928  -4.532  0.00  0.00     0.072 A 
ATOM      3  N   LIG d   1       6.330  -4.190  -5.126  0.00  0.00    -0.319 N 
ATOM      4  C   LIG d   1       5.033  -4.593  -5.165  0.00  0.00     0.170 A 
ATOM      5  N   LIG d   1       4.256  -3.678  -4.647  0.00  0.00    -0.222 NA
ATOM      6  S   LIG d   1       5.016  -6.204  -5.917  0.00  0.00    -0.086 SA
ATOM      7  C   LIG d   1       6.811  -6.406  -6.218  0.00  0.00     0.019 A 
ATOM      8  C   LIG d   1       7.357  -5.082  -5.661  0.00  0.00     0.035 A 
ATOM      9  H   LIG d   1       7.023  -6.500  -7.284  0.00  0.00     0.040 H 
ATOM     10  H   LIG d   1       7.209  -7.258  -5.666  0.00  0.00     0.040 H 
ATOM     11  H   LIG d   1       7.886  -4.560  -6.459  0.00  0.00     0.050 H 
ATOM     12  H   LIG d   1       8.067  -5.309  -4.866  0.00  0.00     0.050 H 
ENDROOT
BRANCH   1  13
ATOM     13  C   LIG d   1       4.534  -1.389  -3.602  0.00  0.00     0.002 A 
ATOM     14  C   LIG d   1       4.830  -1.131  -2.266  0.00  0.00    -0.052 A 
ATOM     15  C   LIG d   1       4.373   0.029  -1.672  0.00  0.00    -0.061 A 
ATOM     16  H   LIG d   1       5.415  -1.837  -1.695  0.00  0.00     0.062 H 
ATOM     17  C   LIG d   1       3.623   0.933  -2.402  0.00  0.00    -0.062 A 
ATOM     18  H   LIG d   1       4.603   0.231  -0.637  0.00  0.00     0.062 H 
ATOM     19  C   LIG d   1       3.327   0.682  -3.729  0.00  0.00    -0.061 A 
ATOM     20  H   LIG d   1       3.268   1.839  -1.934  0.00  0.00     0.062 H 
ATOM     21  C   LIG d   1       3.782  -0.471  -4.335  0.00  0.00    -0.052 A 
ATOM     22  H   LIG d   1       2.741   1.392  -4.295  0.00  0.00     0.062 H 
ATOM     23  H   LIG d   1       3.553  -0.665  -5.371  0.00  0.00     0.062 H 
ENDBRANCH   1  13
BRANCH   2  24
ATOM     24  C   LIG d   1       7.505  -2.052  -4.260  0.00  0.00     0.086 C 
ATOM     25  H   LIG d   1       8.225  -2.159  -5.071  0.00  0.00     0.062 H 
ATOM     26  H   LIG d   1       7.185  -1.013  -4.192  0.00  0.00     0.062 H 
BRANCH  24  27
ATOM     27  O   LIG d   1       8.113  -2.445  -3.028  0.00  0.00    -0.389 OA
ATOM     28  H   LIG d   1       7.920  -3.355  -2.767  0.00  0.00     0.210 HD
ENDBRANCH  24  27
ENDBRANCH   2  24
TORSDOF 3
ENDMDL
MODEL 2
REMARK VINA RESULT:      -5.6      2.242      2.597
REMARK  3 active torsions:
REMARK  status: ('A' for Active; 'I' for Inactive)
REMARK    1  A    between atoms: C_4  and  C_7 
REMARK    2  A    between atoms: C_8  and  C_15 
REMARK    3  A    between atoms: C_15  and  O_16 
ROOT
ATOM      1  C   LIG d   1       6.665  -2.292  -3.885  0.00  0.00     0.095 A 
ATOM      2  C   LIG d   1       6.248  -2.968  -4.979  0.00  0.00     0.072 A 
ATOM      3  N   LIG d   1       7.216  -3.929  -5.273  0.00  0.00    -0.319 N 
ATOM      4  C   LIG d   1       8.177  -3.777  -4.324  0.00  0.00     0.170 A 
ATOM      5  N   LIG d   1       7.857  -2.812  -3.503  0.00  0.00    -0.222 NA
ATOM      6  S   LIG d   1       9.433  -4.988  -4.665  0.00  0.00    -0.086 SA
ATOM      7  C   LIG d   1       8.691  -5.772  -6.145  0.00  0.00     0.019 A 
ATOM      8  C   LIG d   1       7.392  -4.964  -6.289  0.00  0.00     0.035 A 
ATOM      9  H   LIG d   1       8.478  -6.827  -5.965  0.00  0.00     0.040 H 
ATOM     10  H   LIG d   1       9.331  -5.648  -7.019  0.00  0.00     0.040 H 
ATOM     11  H   LIG d   1       6.547  -5.650  -6.235  0.00  0.00     0.050 H 
ATOM     12  H   LIG d   1       7.389  -4.490  -7.271  0.00  0.00     0.050 H 
ENDROOT
BRANCH   1  13
ATOM     13  C   LIG d   1       5.946  -1.175  -3.223  0.00  0.00     0.002 A 
ATOM     14  C   LIG d   1       4.888  -1.441  -2.356  0.00  0.00    -0.052 A 
ATOM     15  C   LIG d   1       4.224  -0.397  -1.743  0.00  0.00    -0.061 A 
ATOM     16  H   LIG d   1       4.588  -2.460  -2.164  0.00  0.00     0.062 H 
ATOM     17  C   LIG d   1       4.607   0.909  -1.989  0.00  0.00    -0.062 A 
ATOM     18  H   LIG d   1       3.404  -0.601  -1.071  0.00  0.00     0.062 H 
ATOM     19  C   LIG d   1       5.657   1.178  -2.849  0.00  0.00    -0.061 A 
ATOM     20  H   LIG d   1       4.084   1.723  -1.508  0.00  0.00     0.062 H 
ATOM     21  C   LIG d   1       6.332   0.143  -3.463  0.00  0.00    -0.052 A 
ATOM     22  H   LIG d   1       5.952   2.200  -3.036  0.00  0.00     0.062 H 
ATOM     23  H   LIG d   1       7.153   0.353  -4.131  0.00  0.00     0.062 H 
ENDBRANCH   1  13
BRANCH   2  24
ATOM     24  C   LIG d   1       4.971  -2.727  -5.742  0.00  0.00     0.086 C 
ATOM     25  H   LIG d   1       4.605  -1.723  -5.529  0.00  0.00     0.062 H 
ATOM     26  H   LIG d   1       5.163  -2.826  -6.810  0.00  0.00     0.062 H 
BRANCH  24  27
ATOM     27  O   LIG d   1       3.990  -3.687  -5.343  0.00  0.00    -0.389 OA
ATOM     28  H   LIG d   1       3.696  -4.267  -6.057  0.00  0.00     0.210 HD
ENDBRANCH  24  27
ENDBRANCH   2  24
TORSDOF 3
ENDMDL
MODEL 3
REMARK VINA RESULT:      -5.6      3.503      4.042
REMARK  3 active torsions:
REMARK  status: ('A' for Active; 'I' for Inactive)
REMARK    1  A    between atoms: C_4  and  C_7 
REMARK    2  A    between atoms: C_8  and  C_15 
REMARK    3  A    between atoms: C_15  and  O_16 
ROOT
ATOM      1  C   LIG d   1       4.017  -0.428  -5.839  0.00  0.00     0.095 A 
ATOM      2  C   LIG d   1       4.311  -1.644  -6.350  0.00  0.00     0.072 A 
ATOM      3  N   LIG d   1       3.955  -1.631  -7.699  0.00  0.00    -0.319 N 
ATOM      4  C   LIG d   1       3.458  -0.387  -7.930  0.00  0.00     0.170 A 
ATOM      5  N   LIG d   1       3.492   0.327  -6.835  0.00  0.00    -0.222 NA
ATOM      6  S   LIG d   1       2.992  -0.330  -9.645  0.00  0.00    -0.086 SA
ATOM      7  C   LIG d   1       3.461  -2.031 -10.135  0.00  0.00     0.019 A 
ATOM      8  C   LIG d   1       4.001  -2.584  -8.806  0.00  0.00     0.035 A 
ATOM      9  H   LIG d   1       4.238  -2.019 -10.899  0.00  0.00     0.040 H 
ATOM     10  H   LIG d   1       2.592  -2.597 -10.471  0.00  0.00     0.040 H 
ATOM     11  H   LIG d   1       5.036  -2.893  -8.953  0.00  0.00     0.050 H 
ATOM     12  H   LIG d   1       3.413  -3.461  -8.534  0.00  0.00     0.050 H 
ENDROOT
BRANCH   1  13
ATOM     13  C   LIG d   1       4.226   0.002  -4.435  0.00  0.00     0.002 A 
ATOM     14  C   LIG d   1       5.514   0.243  -3.962  0.00  0.00    -0.052 A 
ATOM     15  C   LIG d   1       5.703   0.643  -2.654  0.00  0.00    -0.061 A 
ATOM     16  H   LIG d   1       6.364   0.116  -4.617  0.00  0.00     0.062 H 
ATOM     17  C   LIG d   1       4.615   0.806  -1.815  0.00  0.00    -0.062 A 
ATOM     18  H   LIG d   1       6.700   0.831  -2.286  0.00  0.00     0.062 H 
ATOM     19  C   LIG d   1       3.334   0.568  -2.280  0.00  0.00    -0.061 A 
ATOM     20  H   LIG d   1       4.766   1.119  -0.792  0.00  0.00     0.062 H 
ATOM     21  C   LIG d   1       3.133   0.173  -3.586  0.00  0.00    -0.052 A 
ATOM     22  H   LIG d   1       2.488   0.697  -1.620  0.00  0.00     0.062 H 
ATOM     23  H   LIG d   1       2.133  -0.009  -3.949  0.00  0.00     0.062 H 
ENDBRANCH   1  13
BRANCH   2  24
ATOM     24  C   LIG d   1       4.913  -2.803  -5.599  0.00  0.00     0.086 C 
ATOM     25  H   LIG d   1       5.782  -3.175  -6.142  0.00  0.00     0.062 H 
ATOM     26  H   LIG d   1       5.218  -2.473  -4.607  0.00  0.00     0.062 H 
BRANCH  24  27
ATOM     27  O   LIG d   1       3.945  -3.848  -5.478  0.00  0.00    -0.389 OA
ATOM     28  H   LIG d   1       3.061  -3.538  -5.243  0.00  0.00     0.210 HD
ENDBRANCH  24  27
ENDBRANCH   2  24
TORSDOF 3
ENDMDL
MODEL 4
REMARK VINA RESULT:      -5.5      3.719      4.568
REMARK  3 active torsions:
REMARK  status: ('A' for Active; 'I' for Inactive)
REMARK    1  A    between atoms: C_4  and  C_7 
REMARK    2  A    between atoms: C_8  and  C_15 
REMARK    3  A    between atoms: C_15  and  O_16 
ROOT
ATOM      1  C   LIG d   1       3.990  -0.234  -5.754  0.00  0.00     0.095 A 
ATOM      2  C   LIG d   1       5.023  -0.150  -6.622  0.00  0.00     0.072 A 
ATOM      3  N   LIG d   1       4.487   0.057  -7.894  0.00  0.00    -0.319 N 
ATOM      4  C   LIG d   1       3.140   0.086  -7.719  0.00  0.00     0.170 A 
ATOM      5  N   LIG d   1       2.841  -0.085  -6.458  0.00  0.00    -0.222 NA
ATOM      6  S   LIG d   1       2.418   0.349  -9.322  0.00  0.00    -0.086 SA
ATOM      7  C   LIG d   1       3.949   0.431 -10.324  0.00  0.00     0.019 A 
ATOM      8  C   LIG d   1       5.022   0.230  -9.242  0.00  0.00     0.035 A 
ATOM      9  H   LIG d   1       4.053   1.406 -10.803  0.00  0.00     0.040 H 
ATOM     10  H   LIG d   1       3.980  -0.370 -11.062  0.00  0.00     0.040 H 
ATOM     11  H   LIG d   1       5.683   1.097  -9.243  0.00  0.00     0.050 H 
ATOM     12  H   LIG d   1       5.609  -0.652  -9.500  0.00  0.00     0.050 H 
ENDROOT
BRANCH   1  13
ATOM     13  C   LIG d   1       4.096  -0.456  -4.291  0.00  0.00     0.002 A 
ATOM     14  C   LIG d   1       4.226   0.629  -3.427  0.00  0.00    -0.052 A 
ATOM     15  C   LIG d   1       4.324   0.416  -2.067  0.00  0.00    -0.061 A 
ATOM     16  H   LIG d   1       4.250   1.635  -3.821  0.00  0.00     0.062 H 
ATOM     17  C   LIG d   1       4.293  -0.871  -1.562  0.00  0.00    -0.062 A 
ATOM     18  H   LIG d   1       4.423   1.256  -1.396  0.00  0.00     0.062 H 
ATOM     19  C   LIG d   1       4.164  -1.952  -2.416  0.00  0.00    -0.061 A 
ATOM     20  H   LIG d   1       4.370  -1.034  -0.497  0.00  0.00     0.062 H 
ATOM     21  C   LIG d   1       4.060  -1.751  -3.777  0.00  0.00    -0.052 A 
ATOM     22  H   LIG d   1       4.141  -2.955  -2.016  0.00  0.00     0.062 H 
ATOM     23  H   LIG d   1       3.956  -2.595  -4.442  0.00  0.00     0.062 H 
ENDBRANCH   1  13
BRANCH   2  24
ATOM     24  C   LIG d   1       6.486  -0.260  -6.279  0.00  0.00     0.086 C 
ATOM     25  H   LIG d   1       6.617  -0.982  -5.475  0.00  0.00     0.062 H 
ATOM     26  H   LIG d   1       7.040  -0.588  -7.158  0.00  0.00     0.062 H 
BRANCH  24  27
ATOM     27  O   LIG d   1       6.973   1.016  -5.858  0.00  0.00    -0.389 OA
ATOM     28  H   LIG d   1       7.935   1.065  -5.784  0.00  0.00     0.210 HD
ENDBRANCH  24  27
ENDBRANCH   2  24
TORSDOF 3
ENDMDL
MODEL 5
REMARK VINA RESULT:      -5.5      2.271      2.650
REMARK  3 active torsions:
REMARK  status: ('A' for Active; 'I' for Inactive)
REMARK    1  A    between atoms: C_4  and  C_7 
REMARK    2  A    between atoms: C_8  and  C_15 
REMARK    3  A    between atoms: C_15  and  O_16 
ROOT
ATOM      1  C   LIG d   1       4.540  -2.305  -4.698  0.00  0.00     0.095 A 
ATOM      2  C   LIG d   1       4.503  -2.276  -6.049  0.00  0.00     0.072 A 
ATOM      3  N   LIG d   1       4.589  -3.593  -6.500  0.00  0.00    -0.319 N 
ATOM      4  C   LIG d   1       4.676  -4.355  -5.379  0.00  0.00     0.170 A 
ATOM      5  N   LIG d   1       4.648  -3.600  -4.312  0.00  0.00    -0.222 NA
ATOM      6  S   LIG d   1       4.788  -6.047  -5.914  0.00  0.00    -0.086 SA
ATOM      7  C   LIG d   1       4.722  -5.788  -7.725  0.00  0.00     0.019 A 
ATOM      8  C   LIG d   1       4.605  -4.257  -7.802  0.00  0.00     0.035 A 
ATOM      9  H   LIG d   1       3.845  -6.270  -8.159  0.00  0.00     0.040 H 
ATOM     10  H   LIG d   1       5.636  -6.136  -8.207  0.00  0.00     0.040 H 
ATOM     11  H   LIG d   1       3.686  -4.005  -8.330  0.00  0.00     0.050 H 
ATOM     12  H   LIG d   1       5.450  -3.876  -8.376  0.00  0.00     0.050 H 
ENDROOT
BRANCH   1  13
ATOM     13  C   LIG d   1       4.481  -1.127  -3.798  0.00  0.00     0.002 A 
ATOM     14  C   LIG d   1       3.256  -0.693  -3.295  0.00  0.00    -0.052 A 
ATOM     15  C   LIG d   1       3.207   0.403  -2.457  0.00  0.00    -0.061 A 
ATOM     16  H   LIG d   1       2.347  -1.213  -3.559  0.00  0.00     0.062 H 
ATOM     17  C   LIG d   1       4.371   1.069  -2.118  0.00  0.00    -0.062 A 
ATOM     18  H   LIG d   1       2.259   0.740  -2.066  0.00  0.00     0.062 H 
ATOM     19  C   LIG d   1       5.589   0.643  -2.615  0.00  0.00    -0.061 A 
ATOM     20  H   LIG d   1       4.328   1.927  -1.463  0.00  0.00     0.062 H 
ATOM     21  C   LIG d   1       5.651  -0.455  -3.448  0.00  0.00    -0.052 A 
ATOM     22  H   LIG d   1       6.495   1.167  -2.346  0.00  0.00     0.062 H 
ATOM     23  H   LIG d   1       6.602  -0.790  -3.833  0.00  0.00     0.062 H 
ENDBRANCH   1  13
BRANCH   2  24
ATOM     24  C   LIG d   1       4.387  -1.045  -6.910  0.00  0.00     0.086 C 
ATOM     25  H   LIG d   1       4.953  -0.231  -6.457  0.00  0.00     0.062 H 
ATOM     26  H   LIG d   1       4.785  -1.258  -7.902  0.00  0.00     0.062 H 
BRANCH  24  27
ATOM     27  O   LIG d   1       3.013  -0.667  -7.019  0.00  0.00    -0.389 OA
ATOM     28  H   LIG d   1       2.439  -1.079  -6.360  0.00  0.00     0.210 HD
ENDBRANCH  24  27
ENDBRANCH   2  24
TORSDOF 3
ENDMDL
MODEL 6
REMARK VINA RESULT:      -5.4      4.292      5.746
REMARK  3 active torsions:
REMARK  status: ('A' for Active; 'I' for Inactive)
REMARK    1  A    between atoms: C_4  and  C_7 
REMARK    2  A    between atoms: C_8  and  C_15 
REMARK    3  A    between atoms: C_15  and  O_16 
ROOT
ATOM      1  C   LIG d   1       3.612  -0.194  -6.490  0.00  0.00     0.095 A 
ATOM      2  C   LIG d   1       4.237  -1.256  -5.934  0.00  0.00     0.072 A 
ATOM      3  N   LIG d   1       4.192  -1.091  -4.549  0.00  0.00    -0.319 N 
ATOM      4  C   LIG d   1       3.533   0.080  -4.344  0.00  0.00     0.170 A 
ATOM      5  N   LIG d   1       3.189   0.614  -5.487  0.00  0.00    -0.222 NA
ATOM      6  S   LIG d   1       3.456   0.326  -2.586  0.00  0.00    -0.086 SA
ATOM      7  C   LIG d   1       4.335  -1.184  -2.038  0.00  0.00     0.019 A 
ATOM      8  C   LIG d   1       4.662  -1.843  -3.388  0.00  0.00     0.035 A 
ATOM      9  H   LIG d   1       3.685  -1.822  -1.438  0.00  0.00     0.040 H 
ATOM     10  H   LIG d   1       5.245  -0.934  -1.493  0.00  0.00     0.040 H 
ATOM     11  H   LIG d   1       4.207  -2.834  -3.410  0.00  0.00     0.050 H 
ATOM     12  H   LIG d   1       5.743  -1.957  -3.462  0.00  0.00     0.050 H 
ENDROOT
BRANCH   1  13
ATOM     13  C   LIG d   1       3.428   0.048  -7.942  0.00  0.00     0.002 A 
ATOM     14  C   LIG d   1       2.356  -0.532  -8.617  0.00  0.00    -0.052 A 
ATOM     15  C   LIG d   1       2.191  -0.304  -9.969  0.00  0.00    -0.061 A 
ATOM     16  H   LIG d   1       1.657  -1.160  -8.085  0.00  0.00     0.062 H 
ATOM     17  C   LIG d   1       3.086   0.500 -10.651  0.00  0.00    -0.062 A 
ATOM     18  H   LIG d   1       1.360  -0.751 -10.494  0.00  0.00     0.062 H 
ATOM     19  C   LIG d   1       4.152   1.078  -9.986  0.00  0.00    -0.061 A 
ATOM     20  H   LIG d   1       2.953   0.676 -11.709  0.00  0.00     0.062 H 
ATOM     21  C   LIG d   1       4.324   0.861  -8.634  0.00  0.00    -0.052 A 
ATOM     22  H   LIG d   1       4.848   1.705 -10.524  0.00  0.00     0.062 H 
ATOM     23  H   LIG d   1       5.155   1.315  -8.115  0.00  0.00     0.062 H 
ENDBRANCH   1  13
BRANCH   2  24
ATOM     24  C   LIG d   1       4.865  -2.408  -6.674  0.00  0.00     0.086 C 
ATOM     25  H   LIG d   1       5.112  -2.096  -7.688  0.00  0.00     0.062 H 
ATOM     26  H   LIG d   1       5.772  -2.719  -6.157  0.00  0.00     0.062 H 
BRANCH  24  27
ATOM     27  O   LIG d   1       3.946  -3.501  -6.723  0.00  0.00    -0.389 OA
ATOM     28  H   LIG d   1       3.847  -3.969  -5.883  0.00  0.00     0.210 HD
ENDBRANCH  24  27
ENDBRANCH   2  24
TORSDOF 3
ENDMDL
MODEL 7
REMARK VINA RESULT:      -5.2      3.902      4.868
REMARK  3 active torsions:
REMARK  status: ('A' for Active; 'I' for Inactive)
REMARK    1  A    between atoms: C_4  and  C_7 
REMARK    2  A    between atoms: C_8  and  C_15 
REMARK    3  A    between atoms: C_15  and  O_16 
ROOT
ATOM      1  C   LIG d   1       4.805  -0.556  -5.867  0.00  0.00     0.095 A 
ATOM      2  C   LIG d   1       3.880  -0.012  -6.689  0.00  0.00     0.072 A 
ATOM      3  N   LIG d   1       4.437   0.047  -7.967  0.00  0.00    -0.319 N 
ATOM      4  C   LIG d   1       5.686  -0.472  -7.842  0.00  0.00     0.170 A 
ATOM      5  N   LIG d   1       5.909  -0.830  -6.604  0.00  0.00    -0.222 NA
ATOM      6  S   LIG d   1       6.431  -0.414  -9.455  0.00  0.00    -0.086 SA
ATOM      7  C   LIG d   1       5.048   0.336 -10.392  0.00  0.00     0.019 A 
ATOM      8  C   LIG d   1       3.998   0.508  -9.282  0.00  0.00     0.035 A 
ATOM      9  H   LIG d   1       4.689  -0.339 -11.170  0.00  0.00     0.040 H 
ATOM     10  H   LIG d   1       5.335   1.299 -10.813  0.00  0.00     0.040 H 
ATOM     11  H   LIG d   1       3.102  -0.048  -9.563  0.00  0.00     0.050 H 
ATOM     12  H   LIG d   1       3.741   1.565  -9.212  0.00  0.00     0.050 H 
ENDROOT
BRANCH   1  13
ATOM     13  C   LIG d   1       4.642  -0.804  -4.413  0.00  0.00     0.002 A 
ATOM     14  C   LIG d   1       4.139  -2.023  -3.964  0.00  0.00    -0.052 A 
ATOM     15  C   LIG d   1       3.990  -2.247  -2.610  0.00  0.00    -0.061 A 
ATOM     16  H   LIG d   1       3.866  -2.790  -4.673  0.00  0.00     0.062 H 
ATOM     17  C   LIG d   1       4.339  -1.264  -1.701  0.00  0.00    -0.062 A 
ATOM     18  H   LIG d   1       3.601  -3.192  -2.260  0.00  0.00     0.062 H 
ATOM     19  C   LIG d   1       4.838  -0.052  -2.142  0.00  0.00    -0.061 A 
ATOM     20  H   LIG d   1       4.220  -1.444  -0.642  0.00  0.00     0.062 H 
ATOM     21  C   LIG d   1       4.997   0.181  -3.493  0.00  0.00    -0.052 A 
ATOM     22  H   LIG d   1       5.109   0.711  -1.428  0.00  0.00     0.062 H 
ATOM     23  H   LIG d   1       5.389   1.126  -3.836  0.00  0.00     0.062 H 
ENDBRANCH   1  13
BRANCH   2  24
ATOM     24  C   LIG d   1       2.499   0.446  -6.297  0.00  0.00     0.086 C 
ATOM     25  H   LIG d   1       1.898   0.596  -7.193  0.00  0.00     0.062 H 
ATOM     26  H   LIG d   1       2.031  -0.310  -5.667  0.00  0.00     0.062 H 
BRANCH  24  27
ATOM     27  O   LIG d   1       2.592   1.676  -5.574  0.00  0.00    -0.389 OA
ATOM     28  H   LIG d   1       3.497   1.992  -5.452  0.00  0.00     0.210 HD
ENDBRANCH  24  27
ENDBRANCH   2  24
TORSDOF 3
ENDMDL
MODEL 8
REMARK VINA RESULT:      -5.2      3.221      3.822
REMARK  3 active torsions:
REMARK  status: ('A' for Active; 'I' for Inactive)
REMARK    1  A    between atoms: C_4  and  C_7 
REMARK    2  A    between atoms: C_8  and  C_15 
REMARK    3  A    between atoms: C_15  and  O_16 
ROOT
ATOM      1  C   LIG d   1       4.350  -1.207  -5.659  0.00  0.00     0.095 A 
ATOM      2  C   LIG d   1       3.797  -0.783  -6.817  0.00  0.00     0.072 A 
ATOM      3  N   LIG d   1       3.989  -1.787  -7.766  0.00  0.00    -0.319 N 
ATOM      4  C   LIG d   1       4.658  -2.776  -7.117  0.00  0.00     0.170 A 
ATOM      5  N   LIG d   1       4.874  -2.438  -5.872  0.00  0.00    -0.222 NA
ATOM      6  S   LIG d   1       4.922  -4.080  -8.297  0.00  0.00    -0.086 SA
ATOM      7  C   LIG d   1       4.118  -3.322  -9.758  0.00  0.00     0.019 A 
ATOM      8  C   LIG d   1       3.653  -1.978  -9.175  0.00  0.00     0.035 A 
ATOM      9  H   LIG d   1       3.269  -3.919 -10.093  0.00  0.00     0.040 H 
ATOM     10  H   LIG d   1       4.833  -3.173 -10.567  0.00  0.00     0.040 H 
ATOM     11  H   LIG d   1       2.570  -1.907  -9.286  0.00  0.00     0.050 H 
ATOM     12  H   LIG d   1       4.112  -1.175  -9.753  0.00  0.00     0.050 H 
ENDROOT
BRANCH   1  13
ATOM     13  C   LIG d   1       4.383  -0.453  -4.381  0.00  0.00     0.002 A 
ATOM     14  C   LIG d   1       3.236  -0.357  -3.596  0.00  0.00    -0.052 A 
ATOM     15  C   LIG d   1       3.273   0.345  -2.408  0.00  0.00    -0.061 A 
ATOM     16  H   LIG d   1       2.320  -0.831  -3.916  0.00  0.00     0.062 H 
ATOM     17  C   LIG d   1       4.446   0.952  -1.998  0.00  0.00    -0.062 A 
ATOM     18  H   LIG d   1       2.385   0.420  -1.798  0.00  0.00     0.062 H 
ATOM     19  C   LIG d   1       5.588   0.860  -2.773  0.00  0.00    -0.061 A 
ATOM     20  H   LIG d   1       4.471   1.501  -1.067  0.00  0.00     0.062 H 
ATOM     21  C   LIG d   1       5.564   0.156  -3.959  0.00  0.00    -0.052 A 
ATOM     22  H   LIG d   1       6.501   1.336  -2.447  0.00  0.00     0.062 H 
ATOM     23  H   LIG d   1       6.456   0.082  -4.563  0.00  0.00     0.062 H 
ENDBRANCH   1  13
BRANCH   2  24
ATOM     24  C   LIG d   1       3.100   0.534  -7.042  0.00  0.00     0.086 C 
ATOM     25  H   LIG d   1       2.120   0.354  -7.483  0.00  0.00     0.062 H 
ATOM     26  H   LIG d   1       2.982   1.049  -6.089  0.00  0.00     0.062 H 
BRANCH  24  27
ATOM     27  O   LIG d   1       3.880   1.341  -7.927  0.00  0.00    -0.389 OA
ATOM     28  H   LIG d   1       3.497   2.210  -8.106  0.00  0.00     0.210 HD
ENDBRANCH  24  27
ENDBRANCH   2  24
TORSDOF 3
ENDMDL
MODEL 9
REMARK VINA RESULT:      -4.8      5.829      6.547
REMARK  3 active torsions:
REMARK  status: ('A' for Active; 'I' for Inactive)
REMARK    1  A    between atoms: C_4  and  C_7 
REMARK    2  A    between atoms: C_8  and  C_15 
REMARK    3  A    between atoms: C_15  and  O_16 
ROOT
ATOM      1  C   LIG d   1       2.368  -1.658  -9.892  0.00  0.00     0.095 A 
ATOM      2  C   LIG d   1       3.002  -2.751  -9.414  0.00  0.00     0.072 A 
ATOM      3  N   LIG d   1       2.271  -3.870  -9.815  0.00  0.00    -0.319 N 
ATOM      4  C   LIG d   1       1.219  -3.380 -10.523  0.00  0.00     0.170 A 
ATOM      5  N   LIG d   1       1.272  -2.075 -10.572  0.00  0.00    -0.222 NA
ATOM      6  S   LIG d   1       0.260  -4.780 -11.053  0.00  0.00    -0.086 SA
ATOM      7  C   LIG d   1       1.266  -6.122 -10.319  0.00  0.00     0.019 A 
ATOM      8  C   LIG d   1       2.389  -5.316  -9.647  0.00  0.00     0.035 A 
ATOM      9  H   LIG d   1       1.665  -6.781 -11.091  0.00  0.00     0.040 H 
ATOM     10  H   LIG d   1       0.693  -6.686  -9.583  0.00  0.00     0.040 H 
ATOM     11  H   LIG d   1       3.344  -5.636 -10.064  0.00  0.00     0.050 H 
ATOM     12  H   LIG d   1       2.385  -5.544  -8.580  0.00  0.00     0.050 H 
ENDROOT
BRANCH   1  13
ATOM     13  C   LIG d   1       2.794  -0.249  -9.701  0.00  0.00     0.002 A 
ATOM     14  C   LIG d   1       2.513   0.410  -8.507  0.00  0.00    -0.052 A 
ATOM     15  C   LIG d   1       2.912   1.721  -8.335  0.00  0.00    -0.061 A 
ATOM     16  H   LIG d   1       1.985  -0.102  -7.717  0.00  0.00     0.062 H 
ATOM     17  C   LIG d   1       3.589   2.378  -9.347  0.00  0.00    -0.062 A 
ATOM     18  H   LIG d   1       2.697   2.233  -7.410  0.00  0.00     0.062 H 
ATOM     19  C   LIG d   1       3.870   1.728 -10.535  0.00  0.00    -0.061 A 
ATOM     20  H   LIG d   1       3.899   3.403  -9.208  0.00  0.00     0.062 H 
ATOM     21  C   LIG d   1       3.481   0.416 -10.715  0.00  0.00    -0.052 A 
ATOM     22  H   LIG d   1       4.400   2.246 -11.321  0.00  0.00     0.062 H 
ATOM     23  H   LIG d   1       3.704  -0.091 -11.641  0.00  0.00     0.062 H 
ENDBRANCH   1  13
BRANCH   2  24
ATOM     24  C   LIG d   1       4.269  -2.761  -8.598  0.00  0.00     0.086 C 
ATOM     25  H   LIG d   1       4.874  -3.622  -8.878  0.00  0.00     0.062 H 
ATOM     26  H   LIG d   1       4.829  -1.845  -8.788  0.00  0.00     0.062 H 
BRANCH  24  27
ATOM     27  O   LIG d   1       3.941  -2.840  -7.209  0.00  0.00    -0.389 OA
ATOM     28  H   LIG d   1       3.918  -1.984  -6.762  0.00  0.00     0.210 HD
ENDBRANCH  24  27
ENDBRANCH   2  24
TORSDOF 3
ENDMDL
MODEL 10
REMARK VINA RESULT:      -4.7      3.555      4.354
REMARK  3 active torsions:
REMARK  status: ('A' for Active; 'I' for Inactive)
REMARK    1  A    between atoms: C_4  and  C_7 
REMARK    2  A    between atoms: C_8  and  C_15 
REMARK    3  A    between atoms: C_15  and  O_16 
ROOT
ATOM      1  C   LIG d   1       4.265  -1.255  -7.533  0.00  0.00     0.095 A 
ATOM      2  C   LIG d   1       4.691  -1.559  -6.287  0.00  0.00     0.072 A 
ATOM      3  N   LIG d   1       4.643  -2.947  -6.154  0.00  0.00    -0.319 N 
ATOM      4  C   LIG d   1       4.182  -3.410  -7.346  0.00  0.00     0.170 A 
ATOM      5  N   LIG d   1       3.957  -2.415  -8.164  0.00  0.00    -0.222 NA
ATOM      6  S   LIG d   1       4.106  -5.182  -7.215  0.00  0.00    -0.086 SA
ATOM      7  C   LIG d   1       4.710  -5.377  -5.497  0.00  0.00     0.019 A 
ATOM      8  C   LIG d   1       4.954  -3.912  -5.101  0.00  0.00     0.035 A 
ATOM      9  H   LIG d   1       5.637  -5.950  -5.469  0.00  0.00     0.040 H 
ATOM     10  H   LIG d   1       3.950  -5.834  -4.863  0.00  0.00     0.040 H 
ATOM     11  H   LIG d   1       6.002  -3.797  -4.825  0.00  0.00     0.050 H 
ATOM     12  H   LIG d   1       4.340  -3.684  -4.229  0.00  0.00     0.050 H 
ENDROOT
BRANCH   1  13
ATOM     13  C   LIG d   1       4.148   0.108  -8.107  0.00  0.00     0.002 A 
ATOM     14  C   LIG d   1       5.257   0.718  -8.689  0.00  0.00    -0.052 A 
ATOM     15  C   LIG d   1       5.142   1.987  -9.222  0.00  0.00    -0.061 A 
ATOM     16  H   LIG d   1       6.204   0.201  -8.724  0.00  0.00     0.062 H 
ATOM     17  C   LIG d   1       3.929   2.651  -9.177  0.00  0.00    -0.062 A 
ATOM     18  H   LIG d   1       5.999   2.461  -9.674  0.00  0.00     0.062 H 
ATOM     19  C   LIG d   1       2.825   2.049  -8.600  0.00  0.00    -0.061 A 
ATOM     20  H   LIG d   1       3.843   3.644  -9.594  0.00  0.00     0.062 H 
ATOM     21  C   LIG d   1       2.927   0.779  -8.070  0.00  0.00    -0.052 A 
ATOM     22  H   LIG d   1       1.881   2.572  -8.568  0.00  0.00     0.062 H 
ATOM     23  H   LIG d   1       2.065   0.309  -7.622  0.00  0.00     0.062 H 
ENDBRANCH   1  13
BRANCH   2  24
ATOM     24  C   LIG d   1       5.138  -0.578  -5.234  0.00  0.00     0.086 C 
ATOM     25  H   LIG d   1       4.793   0.420  -5.500  0.00  0.00     0.062 H 
ATOM     26  H   LIG d   1       4.718  -0.865  -4.271  0.00  0.00     0.062 H 
BRANCH  24  27
ATOM     27  O   LIG d   1       6.565  -0.584  -5.153  0.00  0.00    -0.389 OA
ATOM     28  H   LIG d   1       6.954   0.290  -5.021  0.00  0.00     0.210 HD
ENDBRANCH  24  27
ENDBRANCH   2  24
TORSDOF 3
ENDMDL
