MODEL 1
REMARK VINA RESULT:      -5.9      0.000      0.000
REMARK  4 active torsions:
REMARK  status: ('A' for Active; 'I' for Inactive)
REMARK    1  A    between atoms: C_1  and  C_2 
REMARK    2  A    between atoms: C_2  and  O_3 
REMARK    3  A    between atoms: O_3  and  C_4 
REMARK    4  A    between atoms: C_4  and  C_6 
ROOT
ATOM      1  C   LIG d   1       4.907  -3.866  -4.819  0.00  0.00     0.125 A 
ATOM      2  C   LIG d   1       5.890  -2.982  -5.152  0.00  0.00    -0.022 A 
ATOM      3  C   LIG d   1       5.785  -1.878  -4.285  0.00  0.00     0.011 A 
ATOM      4  C   LIG d   1       6.529  -0.631  -4.138  0.00  0.00     0.027 A 
ATOM      5  C   LIG d   1       7.624  -0.326  -4.980  0.00  0.00    -0.044 A 
ATOM      6  C   LIG d   1       8.283   0.850  -4.800  0.00  0.00     0.024 A 
ATOM      7  C   LIG d   1       7.864   1.735  -3.783  0.00  0.00     0.337 A 
ATOM      8  O   LIG d   1       8.456   2.788  -3.625  0.00  0.00    -0.245 OA
ATOM      9  O   LIG d   1       6.823   1.435  -2.990  0.00  0.00    -0.422 OA
ATOM     10  C   LIG d   1       6.145   0.276  -3.140  0.00  0.00     0.140 A 
ATOM     11  C   LIG d   1       5.065  -0.025  -2.311  0.00  0.00    -0.017 A 
ATOM     12  C   LIG d   1       4.368  -1.188  -2.446  0.00  0.00    -0.034 A 
ATOM     13  C   LIG d   1       4.704  -2.129  -3.420  0.00  0.00     0.048 A 
ATOM     14  N   LIG d   1       4.178  -3.350  -3.769  0.00  0.00    -0.349 N 
ATOM     15  H   LIG d   1       3.418  -3.779  -3.345  0.00  0.00     0.166 HD
ATOM     16  H   LIG d   1       6.620  -3.107  -5.938  0.00  0.00     0.065 H 
ATOM     17  H   LIG d   1       7.932  -1.015  -5.752  0.00  0.00     0.063 H 
ATOM     18  H   LIG d   1       9.121   1.105  -5.430  0.00  0.00     0.069 H 
ATOM     19  H   LIG d   1       4.775   0.679  -1.545  0.00  0.00     0.066 H 
ATOM     20  H   LIG d   1       3.537  -1.386  -1.785  0.00  0.00     0.064 H 
ENDROOT
BRANCH   1  21
ATOM     21  C   LIG d   1       4.662  -5.156  -5.477  0.00  0.00     0.356 C 
ATOM     22  O   LIG d   1       3.579  -5.388  -5.978  0.00  0.00    -0.243 OA
BRANCH  21  23
ATOM     23  O   LIG d   1       5.640  -6.084  -5.525  0.00  0.00    -0.460 OA
BRANCH  23  24
ATOM     24  C   LIG d   1       5.232  -7.451  -5.621  0.00  0.00     0.090 C 
ATOM     25  H   LIG d   1       5.162  -7.736  -6.670  0.00  0.00     0.070 H 
ATOM     26  H   LIG d   1       4.260  -7.575  -5.145  0.00  0.00     0.070 H 
BRANCH  24  27
ATOM     27  C   LIG d   1       6.260  -8.340  -4.918  0.00  0.00    -0.031 C 
ATOM     28  H   LIG d   1       5.743  -9.120  -4.359  0.00  0.00     0.026 H 
ATOM     29  H   LIG d   1       6.914  -8.797  -5.661  0.00  0.00     0.026 H 
ATOM     30  H   LIG d   1       6.854  -7.736  -4.233  0.00  0.00     0.026 H 
ENDBRANCH  24  27
ENDBRANCH  23  24
ENDBRANCH  21  23
ENDBRANCH   1  21
TORSDOF 4
ENDMDL
MODEL 2
REMARK VINA RESULT:      -5.8      1.922      3.004
REMARK  4 active torsions:
REMARK  status: ('A' for Active; 'I' for Inactive)
REMARK    1  A    between atoms: C_1  and  C_2 
REMARK    2  A    between atoms: C_2  and  O_3 
REMARK    3  A    between atoms: O_3  and  C_4 
REMARK    4  A    between atoms: C_4  and  C_6 
ROOT
ATOM      1  C   LIG d   1       5.505  -5.001  -5.447  0.00  0.00     0.125 A 
ATOM      2  C   LIG d   1       4.570  -4.168  -4.909  0.00  0.00    -0.022 A 
ATOM      3  C   LIG d   1       5.247  -3.073  -4.341  0.00  0.00     0.011 A 
ATOM      4  C   LIG d   1       4.817  -1.872  -3.632  0.00  0.00     0.027 A 
ATOM      5  C   LIG d   1       3.447  -1.616  -3.388  0.00  0.00    -0.044 A 
ATOM      6  C   LIG d   1       3.100  -0.482  -2.723  0.00  0.00     0.024 A 
ATOM      7  C   LIG d   1       4.106   0.410  -2.292  0.00  0.00     0.337 A 
ATOM      8  O   LIG d   1       3.792   1.424  -1.696  0.00  0.00    -0.245 OA
ATOM      9  O   LIG d   1       5.403   0.155  -2.529  0.00  0.00    -0.422 OA
ATOM     10  C   LIG d   1       5.785  -0.961  -3.187  0.00  0.00     0.140 A 
ATOM     11  C   LIG d   1       7.134  -1.215  -3.428  0.00  0.00    -0.017 A 
ATOM     12  C   LIG d   1       7.540  -2.335  -4.089  0.00  0.00    -0.034 A 
ATOM     13  C   LIG d   1       6.622  -3.277  -4.555  0.00  0.00     0.048 A 
ATOM     14  N   LIG d   1       6.758  -4.467  -5.230  0.00  0.00    -0.349 N 
ATOM     15  H   LIG d   1       7.597  -4.866  -5.508  0.00  0.00     0.166 HD
ATOM     16  H   LIG d   1       3.500  -4.320  -4.919  0.00  0.00     0.065 H 
ATOM     17  H   LIG d   1       2.689  -2.307  -3.725  0.00  0.00     0.063 H 
ATOM     18  H   LIG d   1       2.061  -0.264  -2.525  0.00  0.00     0.069 H 
ATOM     19  H   LIG d   1       7.874  -0.508  -3.082  0.00  0.00     0.066 H 
ATOM     20  H   LIG d   1       8.595  -2.497  -4.256  0.00  0.00     0.064 H 
ENDROOT
BRANCH   1  21
ATOM     21  C   LIG d   1       5.224  -6.265  -6.140  0.00  0.00     0.356 C 
ATOM     22  O   LIG d   1       5.562  -6.413  -7.298  0.00  0.00    -0.243 OA
BRANCH  21  23
ATOM     23  O   LIG d   1       4.590  -7.262  -5.490  0.00  0.00    -0.460 OA
BRANCH  23  24
ATOM     24  C   LIG d   1       5.373  -8.403  -5.130  0.00  0.00     0.090 C 
ATOM     25  H   LIG d   1       6.198  -8.089  -4.491  0.00  0.00     0.070 H 
ATOM     26  H   LIG d   1       5.768  -8.871  -6.030  0.00  0.00     0.070 H 
BRANCH  24  27
ATOM     27  C   LIG d   1       4.496  -9.405  -4.376  0.00  0.00    -0.031 C 
ATOM     28  H   LIG d   1       4.508 -10.362  -4.898  0.00  0.00     0.026 H 
ATOM     29  H   LIG d   1       4.883  -9.537  -3.365  0.00  0.00     0.026 H 
ATOM     30  H   LIG d   1       3.474  -9.030  -4.328  0.00  0.00     0.026 H 
ENDBRANCH  24  27
ENDBRANCH  23  24
ENDBRANCH  21  23
ENDBRANCH   1  21
TORSDOF 4
ENDMDL
MODEL 3
REMARK VINA RESULT:      -5.7      2.549      3.230
REMARK  4 active torsions:
REMARK  status: ('A' for Active; 'I' for Inactive)
REMARK    1  A    between atoms: C_1  and  C_2 
REMARK    2  A    between atoms: C_2  and  O_3 
REMARK    3  A    between atoms: O_3  and  C_4 
REMARK    4  A    between atoms: C_4  and  C_6 
ROOT
ATOM      1  C   LIG d   1       4.907  -4.963  -5.926  0.00  0.00     0.125 A 
ATOM      2  C   LIG d   1       4.761  -4.347  -4.719  0.00  0.00    -0.022 A 
ATOM      3  C   LIG d   1       4.565  -2.974  -4.960  0.00  0.00     0.011 A 
ATOM      4  C   LIG d   1       4.353  -1.814  -4.099  0.00  0.00     0.027 A 
ATOM      5  C   LIG d   1       4.309  -1.944  -2.691  0.00  0.00    -0.044 A 
ATOM      6  C   LIG d   1       4.109  -0.832  -1.935  0.00  0.00     0.024 A 
ATOM      7  C   LIG d   1       3.950   0.420  -2.567  0.00  0.00     0.337 A 
ATOM      8  O   LIG d   1       3.771   1.415  -1.887  0.00  0.00    -0.245 OA
ATOM      9  O   LIG d   1       3.993   0.531  -3.904  0.00  0.00    -0.422 OA
ATOM     10  C   LIG d   1       4.190  -0.552  -4.686  0.00  0.00     0.140 A 
ATOM     11  C   LIG d   1       4.233  -0.425  -6.074  0.00  0.00    -0.017 A 
ATOM     12  C   LIG d   1       4.431  -1.505  -6.881  0.00  0.00    -0.034 A 
ATOM     13  C   LIG d   1       4.599  -2.786  -6.353  0.00  0.00     0.048 A 
ATOM     14  N   LIG d   1       4.815  -4.017  -6.926  0.00  0.00    -0.349 N 
ATOM     15  H   LIG d   1       4.891  -4.193  -7.877  0.00  0.00     0.166 HD
ATOM     16  H   LIG d   1       4.788  -4.826  -3.752  0.00  0.00     0.065 H 
ATOM     17  H   LIG d   1       4.433  -2.910  -2.223  0.00  0.00     0.063 H 
ATOM     18  H   LIG d   1       4.072  -0.906  -0.859  0.00  0.00     0.069 H 
ATOM     19  H   LIG d   1       4.107   0.550  -6.519  0.00  0.00     0.066 H 
ATOM     20  H   LIG d   1       4.459  -1.367  -7.952  0.00  0.00     0.064 H 
ENDROOT
BRANCH   1  21
ATOM     21  C   LIG d   1       5.132  -6.400  -6.128  0.00  0.00     0.356 C 
ATOM     22  O   LIG d   1       5.765  -6.788  -7.091  0.00  0.00    -0.243 OA
BRANCH  21  23
ATOM     23  O   LIG d   1       4.636  -7.290  -5.245  0.00  0.00    -0.460 OA
BRANCH  23  24
ATOM     24  C   LIG d   1       5.148  -8.623  -5.309  0.00  0.00     0.090 C 
ATOM     25  H   LIG d   1       6.214  -8.614  -5.081  0.00  0.00     0.070 H 
ATOM     26  H   LIG d   1       4.995  -9.023  -6.311  0.00  0.00     0.070 H 
BRANCH  24  27
ATOM     27  C   LIG d   1       4.416  -9.501  -4.292  0.00  0.00    -0.031 C 
ATOM     28  H   LIG d   1       4.803 -10.519  -4.346  0.00  0.00     0.026 H 
ATOM     29  H   LIG d   1       4.574  -9.104  -3.289  0.00  0.00     0.026 H 
ATOM     30  H   LIG d   1       3.350  -9.505  -4.518  0.00  0.00     0.026 H 
ENDBRANCH  24  27
ENDBRANCH  23  24
ENDBRANCH  21  23
ENDBRANCH   1  21
TORSDOF 4
ENDMDL
MODEL 4
REMARK VINA RESULT:      -5.7      1.876      6.930
REMARK  4 active torsions:
REMARK  status: ('A' for Active; 'I' for Inactive)
REMARK    1  A    between atoms: C_1  and  C_2 
REMARK    2  A    between atoms: C_2  and  O_3 
REMARK    3  A    between atoms: O_3  and  C_4 
REMARK    4  A    between atoms: C_4  and  C_6 
ROOT
ATOM      1  C   LIG d   1       7.366   1.150  -3.911  0.00  0.00     0.125 A 
ATOM      2  C   LIG d   1       7.353  -0.018  -4.613  0.00  0.00    -0.022 A 
ATOM      3  C   LIG d   1       6.299  -0.807  -4.113  0.00  0.00     0.011 A 
ATOM      4  C   LIG d   1       5.782  -2.132  -4.440  0.00  0.00     0.027 A 
ATOM      5  C   LIG d   1       6.366  -2.916  -5.463  0.00  0.00    -0.044 A 
ATOM      6  C   LIG d   1       5.845  -4.144  -5.726  0.00  0.00     0.024 A 
ATOM      7  C   LIG d   1       4.740  -4.607  -4.980  0.00  0.00     0.337 A 
ATOM      8  O   LIG d   1       4.276  -5.708  -5.218  0.00  0.00    -0.245 OA
ATOM      9  O   LIG d   1       4.194  -3.854  -4.011  0.00  0.00    -0.422 OA
ATOM     10  C   LIG d   1       4.686  -2.630  -3.722  0.00  0.00     0.140 A 
ATOM     11  C   LIG d   1       4.111  -1.856  -2.714  0.00  0.00    -0.017 A 
ATOM     12  C   LIG d   1       4.592  -0.619  -2.406  0.00  0.00    -0.034 A 
ATOM     13  C   LIG d   1       5.680  -0.071  -3.086  0.00  0.00     0.048 A 
ATOM     14  N   LIG d   1       6.354   1.122  -2.976  0.00  0.00    -0.349 N 
ATOM     15  H   LIG d   1       6.149   1.830  -2.344  0.00  0.00     0.166 HD
ATOM     16  H   LIG d   1       8.029  -0.291  -5.411  0.00  0.00     0.065 H 
ATOM     17  H   LIG d   1       7.210  -2.546  -6.025  0.00  0.00     0.063 H 
ATOM     18  H   LIG d   1       6.273  -4.760  -6.502  0.00  0.00     0.069 H 
ATOM     19  H   LIG d   1       3.267  -2.247  -2.165  0.00  0.00     0.066 H 
ATOM     20  H   LIG d   1       4.120  -0.050  -1.618  0.00  0.00     0.064 H 
ENDROOT
BRANCH   1  21
ATOM     21  C   LIG d   1       8.310   2.256  -4.115  0.00  0.00     0.356 C 
ATOM     22  O   LIG d   1       8.375   2.811  -5.196  0.00  0.00    -0.243 OA
BRANCH  21  23
ATOM     23  O   LIG d   1       9.106   2.658  -3.103  0.00  0.00    -0.460 OA
BRANCH  23  24
ATOM     24  C   LIG d   1      10.187   3.532  -3.436  0.00  0.00     0.090 C 
ATOM     25  H   LIG d   1      10.233   3.658  -4.517  0.00  0.00     0.070 H 
ATOM     26  H   LIG d   1      11.123   3.103  -3.080  0.00  0.00     0.070 H 
BRANCH  24  27
ATOM     27  C   LIG d   1       9.965   4.893  -2.772  0.00  0.00    -0.031 C 
ATOM     28  H   LIG d   1      10.925   5.392  -2.638  0.00  0.00     0.026 H 
ATOM     29  H   LIG d   1       9.321   5.505  -3.403  0.00  0.00     0.026 H 
ATOM     30  H   LIG d   1       9.492   4.749  -1.800  0.00  0.00     0.026 H 
ENDBRANCH  24  27
ENDBRANCH  23  24
ENDBRANCH  21  23
ENDBRANCH   1  21
TORSDOF 4
ENDMDL
MODEL 5
REMARK VINA RESULT:      -5.7      6.140      8.288
REMARK  4 active torsions:
REMARK  status: ('A' for Active; 'I' for Inactive)
REMARK    1  A    between atoms: C_1  and  C_2 
REMARK    2  A    between atoms: C_2  and  O_3 
REMARK    3  A    between atoms: O_3  and  C_4 
REMARK    4  A    between atoms: C_4  and  C_6 
ROOT
ATOM      1  C   LIG d   1       3.127   0.434  -6.944  0.00  0.00     0.125 A 
ATOM      2  C   LIG d   1       2.429  -0.418  -7.746  0.00  0.00    -0.022 A 
ATOM      3  C   LIG d   1       2.865  -0.213  -9.070  0.00  0.00     0.011 A 
ATOM      4  C   LIG d   1       2.508  -0.803 -10.356  0.00  0.00     0.027 A 
ATOM      5  C   LIG d   1       1.526  -1.817 -10.452  0.00  0.00    -0.044 A 
ATOM      6  C   LIG d   1       1.233  -2.332 -11.675  0.00  0.00     0.024 A 
ATOM      7  C   LIG d   1       1.909  -1.850 -12.816  0.00  0.00     0.337 A 
ATOM      8  O   LIG d   1       1.643  -2.314 -13.911  0.00  0.00    -0.245 OA
ATOM      9  O   LIG d   1       2.840  -0.887 -12.713  0.00  0.00    -0.422 OA
ATOM     10  C   LIG d   1       3.157  -0.352 -11.514  0.00  0.00     0.140 A 
ATOM     11  C   LIG d   1       4.125   0.647 -11.419  0.00  0.00    -0.017 A 
ATOM     12  C   LIG d   1       4.459   1.201 -10.220  0.00  0.00    -0.034 A 
ATOM     13  C   LIG d   1       3.848   0.791  -9.033  0.00  0.00     0.048 A 
ATOM     14  N   LIG d   1       3.989   1.177  -7.721  0.00  0.00    -0.349 N 
ATOM     15  H   LIG d   1       4.597   1.861  -7.396  0.00  0.00     0.166 HD
ATOM     16  H   LIG d   1       1.678  -1.125  -7.426  0.00  0.00     0.065 H 
ATOM     17  H   LIG d   1       1.018  -2.176  -9.569  0.00  0.00     0.063 H 
ATOM     18  H   LIG d   1       0.486  -3.107 -11.774  0.00  0.00     0.069 H 
ATOM     19  H   LIG d   1       4.620   0.990 -12.315  0.00  0.00     0.066 H 
ATOM     20  H   LIG d   1       5.214   1.973 -10.186  0.00  0.00     0.064 H 
ENDROOT
BRANCH   1  21
ATOM     21  C   LIG d   1       2.980   0.545  -5.487  0.00  0.00     0.356 C 
ATOM     22  O   LIG d   1       2.518   1.557  -4.997  0.00  0.00    -0.243 OA
BRANCH  21  23
ATOM     23  O   LIG d   1       3.359  -0.477  -4.692  0.00  0.00    -0.460 OA
BRANCH  23  24
ATOM     24  C   LIG d   1       2.766  -0.542  -3.392  0.00  0.00     0.090 C 
ATOM     25  H   LIG d   1       2.265  -1.502  -3.269  0.00  0.00     0.070 H 
ATOM     26  H   LIG d   1       2.040   0.263  -3.284  0.00  0.00     0.070 H 
BRANCH  24  27
ATOM     27  C   LIG d   1       3.855  -0.394  -2.327  0.00  0.00    -0.031 C 
ATOM     28  H   LIG d   1       3.584   0.409  -1.641  0.00  0.00     0.026 H 
ATOM     29  H   LIG d   1       3.952  -1.328  -1.775  0.00  0.00     0.026 H 
ATOM     30  H   LIG d   1       4.803  -0.155  -2.809  0.00  0.00     0.026 H 
ENDBRANCH  24  27
ENDBRANCH  23  24
ENDBRANCH  21  23
ENDBRANCH   1  21
TORSDOF 4
ENDMDL
MODEL 6
REMARK VINA RESULT:      -5.7      5.280      6.903
REMARK  4 active torsions:
REMARK  status: ('A' for Active; 'I' for Inactive)
REMARK    1  A    between atoms: C_1  and  C_2 
REMARK    2  A    between atoms: C_2  and  O_3 
REMARK    3  A    between atoms: O_3  and  C_4 
REMARK    4  A    between atoms: C_4  and  C_6 
ROOT
ATOM      1  C   LIG d   1       3.381  -0.142  -5.578  0.00  0.00     0.125 A 
ATOM      2  C   LIG d   1       4.034  -0.815  -6.567  0.00  0.00    -0.022 A 
ATOM      3  C   LIG d   1       3.911  -0.063  -7.750  0.00  0.00     0.011 A 
ATOM      4  C   LIG d   1       4.379  -0.246  -9.121  0.00  0.00     0.027 A 
ATOM      5  C   LIG d   1       5.137  -1.381  -9.491  0.00  0.00    -0.044 A 
ATOM      6  C   LIG d   1       5.548  -1.502 -10.782  0.00  0.00     0.024 A 
ATOM      7  C   LIG d   1       5.214  -0.500 -11.717  0.00  0.00     0.337 A 
ATOM      8  O   LIG d   1       5.583  -0.612 -12.873  0.00  0.00    -0.245 OA
ATOM      9  O   LIG d   1       4.494   0.573 -11.354  0.00  0.00    -0.422 OA
ATOM     10  C   LIG d   1       4.068   0.727 -10.081  0.00  0.00     0.140 A 
ATOM     11  C   LIG d   1       3.321   1.846  -9.715  0.00  0.00    -0.017 A 
ATOM     12  C   LIG d   1       2.882   2.020  -8.437  0.00  0.00    -0.034 A 
ATOM     13  C   LIG d   1       3.161   1.085  -7.438  0.00  0.00     0.048 A 
ATOM     14  N   LIG d   1       2.842   1.014  -6.102  0.00  0.00    -0.349 N 
ATOM     15  H   LIG d   1       2.323   1.669  -5.609  0.00  0.00     0.166 HD
ATOM     16  H   LIG d   1       4.554  -1.755  -6.462  0.00  0.00     0.065 H 
ATOM     17  H   LIG d   1       5.385  -2.139  -8.763  0.00  0.00     0.063 H 
ATOM     18  H   LIG d   1       6.128  -2.360 -11.089  0.00  0.00     0.069 H 
ATOM     19  H   LIG d   1       3.085   2.591 -10.460  0.00  0.00     0.066 H 
ATOM     20  H   LIG d   1       2.305   2.899  -8.191  0.00  0.00     0.064 H 
ENDROOT
BRANCH   1  21
ATOM     21  C   LIG d   1       3.266  -0.580  -4.181  0.00  0.00     0.356 C 
ATOM     22  O   LIG d   1       3.546  -1.723  -3.876  0.00  0.00    -0.243 OA
BRANCH  21  23
ATOM     23  O   LIG d   1       2.849   0.287  -3.235  0.00  0.00    -0.460 OA
BRANCH  23  24
ATOM     24  C   LIG d   1       3.767   1.309  -2.842  0.00  0.00     0.090 C 
ATOM     25  H   LIG d   1       3.213   2.195  -2.532  0.00  0.00     0.070 H 
ATOM     26  H   LIG d   1       4.413   1.561  -3.682  0.00  0.00     0.070 H 
BRANCH  24  27
ATOM     27  C   LIG d   1       4.621   0.807  -1.676  0.00  0.00    -0.031 C 
ATOM     28  H   LIG d   1       4.076   0.945  -0.741  0.00  0.00     0.026 H 
ATOM     29  H   LIG d   1       4.842  -0.251  -1.816  0.00  0.00     0.026 H 
ATOM     30  H   LIG d   1       5.552   1.371  -1.639  0.00  0.00     0.026 H 
ENDBRANCH  24  27
ENDBRANCH  23  24
ENDBRANCH  21  23
ENDBRANCH   1  21
TORSDOF 4
ENDMDL
MODEL 7
REMARK VINA RESULT:      -5.5      6.806     10.155
REMARK  4 active torsions:
REMARK  status: ('A' for Active; 'I' for Inactive)
REMARK    1  A    between atoms: C_1  and  C_2 
REMARK    2  A    between atoms: C_2  and  O_3 
REMARK    3  A    between atoms: O_3  and  C_4 
REMARK    4  A    between atoms: C_4  and  C_6 
ROOT
ATOM      1  C   LIG d   1      10.224   4.590  -2.423  0.00  0.00     0.125 A 
ATOM      2  C   LIG d   1       9.831   5.894  -2.478  0.00  0.00    -0.022 A 
ATOM      3  C   LIG d   1      10.304   6.534  -1.317  0.00  0.00     0.011 A 
ATOM      4  C   LIG d   1      10.214   7.896  -0.802  0.00  0.00     0.027 A 
ATOM      5  C   LIG d   1       9.533   8.908  -1.520  0.00  0.00    -0.044 A 
ATOM      6  C   LIG d   1       9.478  10.161  -0.994  0.00  0.00     0.024 A 
ATOM      7  C   LIG d   1      10.098  10.425   0.245  0.00  0.00     0.337 A 
ATOM      8  O   LIG d   1      10.047  11.549   0.713  0.00  0.00    -0.245 OA
ATOM      9  O   LIG d   1      10.742   9.457   0.917  0.00  0.00    -0.422 OA
ATOM     10  C   LIG d   1      10.816   8.201   0.427  0.00  0.00     0.140 A 
ATOM     11  C   LIG d   1      11.487   7.203   1.132  0.00  0.00    -0.017 A 
ATOM     12  C   LIG d   1      11.573   5.930   0.655  0.00  0.00    -0.034 A 
ATOM     13  C   LIG d   1      10.994   5.568  -0.562  0.00  0.00     0.048 A 
ATOM     14  N   LIG d   1      10.927   4.383  -1.256  0.00  0.00    -0.349 N 
ATOM     15  H   LIG d   1      11.313   3.539  -0.971  0.00  0.00     0.166 HD
ATOM     16  H   LIG d   1       9.261   6.355  -3.272  0.00  0.00     0.065 H 
ATOM     17  H   LIG d   1       9.064   8.689  -2.467  0.00  0.00     0.063 H 
ATOM     18  H   LIG d   1       8.964  10.949  -1.523  0.00  0.00     0.069 H 
ATOM     19  H   LIG d   1      11.949   7.445   2.078  0.00  0.00     0.066 H 
ATOM     20  H   LIG d   1      12.101   5.184   1.232  0.00  0.00     0.064 H 
ENDROOT
BRANCH   1  21
ATOM     21  C   LIG d   1       9.938   3.570  -3.440  0.00  0.00     0.356 C 
ATOM     22  O   LIG d   1      10.496   3.612  -4.519  0.00  0.00    -0.243 OA
BRANCH  21  23
ATOM     23  O   LIG d   1       9.054   2.585  -3.177  0.00  0.00    -0.460 OA
BRANCH  23  24
ATOM     24  C   LIG d   1       8.151   2.226  -4.224  0.00  0.00     0.090 C 
ATOM     25  H   LIG d   1       8.713   1.820  -5.066  0.00  0.00     0.070 H 
ATOM     26  H   LIG d   1       7.601   3.109  -4.548  0.00  0.00     0.070 H 
BRANCH  24  27
ATOM     27  C   LIG d   1       7.168   1.172  -3.711  0.00  0.00    -0.031 C 
ATOM     28  H   LIG d   1       6.203   1.641  -3.514  0.00  0.00     0.026 H 
ATOM     29  H   LIG d   1       7.046   0.392  -4.462  0.00  0.00     0.026 H 
ATOM     30  H   LIG d   1       7.553   0.734  -2.791  0.00  0.00     0.026 H 
ENDBRANCH  24  27
ENDBRANCH  23  24
ENDBRANCH  21  23
ENDBRANCH   1  21
TORSDOF 4
ENDMDL
MODEL 8
REMARK VINA RESULT:      -5.3      4.832      6.913
REMARK  4 active torsions:
REMARK  status: ('A' for Active; 'I' for Inactive)
REMARK    1  A    between atoms: C_1  and  C_2 
REMARK    2  A    between atoms: C_2  and  O_3 
REMARK    3  A    between atoms: O_3  and  C_4 
REMARK    4  A    between atoms: C_4  and  C_6 
ROOT
ATOM      1  C   LIG d   1       4.863  -1.235  -5.839  0.00  0.00     0.125 A 
ATOM      2  C   LIG d   1       4.366  -2.048  -6.813  0.00  0.00    -0.022 A 
ATOM      3  C   LIG d   1       3.652  -1.242  -7.721  0.00  0.00     0.011 A 
ATOM      4  C   LIG d   1       2.906  -1.513  -8.946  0.00  0.00     0.027 A 
ATOM      5  C   LIG d   1       2.788  -2.826  -9.458  0.00  0.00    -0.044 A 
ATOM      6  C   LIG d   1       2.081  -3.023 -10.603  0.00  0.00     0.024 A 
ATOM      7  C   LIG d   1       1.484  -1.921 -11.252  0.00  0.00     0.337 A 
ATOM      8  O   LIG d   1       0.851  -2.100 -12.277  0.00  0.00    -0.245 OA
ATOM      9  O   LIG d   1       1.603  -0.679 -10.756  0.00  0.00    -0.422 OA
ATOM     10  C   LIG d   1       2.298  -0.446  -9.621  0.00  0.00     0.140 A 
ATOM     11  C   LIG d   1       2.414   0.848  -9.115  0.00  0.00    -0.017 A 
ATOM     12  C   LIG d   1       3.110   1.105  -7.972  0.00  0.00    -0.034 A 
ATOM     13  C   LIG d   1       3.737   0.083  -7.257  0.00  0.00     0.048 A 
ATOM     14  N   LIG d   1       4.479   0.064  -6.100  0.00  0.00    -0.349 N 
ATOM     15  H   LIG d   1       4.697   0.837  -5.556  0.00  0.00     0.166 HD
ATOM     16  H   LIG d   1       4.498  -3.118  -6.879  0.00  0.00     0.065 H 
ATOM     17  H   LIG d   1       3.251  -3.659  -8.949  0.00  0.00     0.063 H 
ATOM     18  H   LIG d   1       1.977  -4.016 -11.013  0.00  0.00     0.069 H 
ATOM     19  H   LIG d   1       1.943   1.665  -9.641  0.00  0.00     0.066 H 
ATOM     20  H   LIG d   1       3.178   2.120  -7.611  0.00  0.00     0.064 H 
ENDROOT
BRANCH   1  21
ATOM     21  C   LIG d   1       5.672  -1.672  -4.694  0.00  0.00     0.356 C 
ATOM     22  O   LIG d   1       6.802  -1.247  -4.548  0.00  0.00    -0.243 OA
BRANCH  21  23
ATOM     23  O   LIG d   1       5.161  -2.546  -3.803  0.00  0.00    -0.460 OA
BRANCH  23  24
ATOM     24  C   LIG d   1       3.982  -2.142  -3.102  0.00  0.00     0.090 C 
ATOM     25  H   LIG d   1       3.489  -3.020  -2.685  0.00  0.00     0.070 H 
ATOM     26  H   LIG d   1       3.305  -1.638  -3.790  0.00  0.00     0.070 H 
BRANCH  24  27
ATOM     27  C   LIG d   1       4.364  -1.186  -1.970  0.00  0.00    -0.031 C 
ATOM     28  H   LIG d   1       5.170  -1.624  -1.382  0.00  0.00     0.026 H 
ATOM     29  H   LIG d   1       4.695  -0.237  -2.392  0.00  0.00     0.026 H 
ATOM     30  H   LIG d   1       3.498  -1.018  -1.330  0.00  0.00     0.026 H 
ENDBRANCH  24  27
ENDBRANCH  23  24
ENDBRANCH  21  23
ENDBRANCH   1  21
TORSDOF 4
ENDMDL
MODEL 9
REMARK VINA RESULT:      -5.3      3.496      7.687
REMARK  4 active torsions:
REMARK  status: ('A' for Active; 'I' for Inactive)
REMARK    1  A    between atoms: C_1  and  C_2 
REMARK    2  A    between atoms: C_2  and  O_3 
REMARK    3  A    between atoms: O_3  and  C_4 
REMARK    4  A    between atoms: C_4  and  C_6 
ROOT
ATOM      1  C   LIG d   1       9.064   2.388  -4.572  0.00  0.00     0.125 A 
ATOM      2  C   LIG d   1       7.932   2.192  -3.838  0.00  0.00    -0.022 A 
ATOM      3  C   LIG d   1       7.577   0.834  -3.952  0.00  0.00     0.011 A 
ATOM      4  C   LIG d   1       6.491   0.022  -3.414  0.00  0.00     0.027 A 
ATOM      5  C   LIG d   1       5.500   0.585  -2.576  0.00  0.00    -0.044 A 
ATOM      6  C   LIG d   1       4.509  -0.217  -2.102  0.00  0.00     0.024 A 
ATOM      7  C   LIG d   1       4.490  -1.583  -2.453  0.00  0.00     0.337 A 
ATOM      8  O   LIG d   1       3.600  -2.299  -2.027  0.00  0.00    -0.245 OA
ATOM      9  O   LIG d   1       5.436  -2.106  -3.249  0.00  0.00    -0.422 OA
ATOM     10  C   LIG d   1       6.435  -1.341  -3.739  0.00  0.00     0.140 A 
ATOM     11  C   LIG d   1       7.412  -1.894  -4.565  0.00  0.00    -0.017 A 
ATOM     12  C   LIG d   1       8.428  -1.139  -5.070  0.00  0.00    -0.034 A 
ATOM     13  C   LIG d   1       8.535   0.222  -4.781  0.00  0.00     0.048 A 
ATOM     14  N   LIG d   1       9.433   1.194  -5.153  0.00  0.00    -0.349 N 
ATOM     15  H   LIG d   1      10.202   1.062  -5.730  0.00  0.00     0.166 HD
ATOM     16  H   LIG d   1       7.403   2.942  -3.269  0.00  0.00     0.065 H 
ATOM     17  H   LIG d   1       5.529   1.633  -2.317  0.00  0.00     0.063 H 
ATOM     18  H   LIG d   1       3.741   0.190  -1.461  0.00  0.00     0.069 H 
ATOM     19  H   LIG d   1       7.363  -2.944  -4.811  0.00  0.00     0.066 H 
ATOM     20  H   LIG d   1       9.166  -1.604  -5.707  0.00  0.00     0.064 H 
ENDROOT
BRANCH   1  21
ATOM     21  C   LIG d   1       9.771   3.667  -4.723  0.00  0.00     0.356 C 
ATOM     22  O   LIG d   1       9.525   4.391  -5.668  0.00  0.00    -0.243 OA
BRANCH  21  23
ATOM     23  O   LIG d   1      10.693   4.038  -3.811  0.00  0.00    -0.460 OA
BRANCH  23  24
ATOM     24  C   LIG d   1      10.728   5.421  -3.449  0.00  0.00     0.090 C 
ATOM     25  H   LIG d   1      10.142   5.998  -4.165  0.00  0.00     0.070 H 
ATOM     26  H   LIG d   1      11.759   5.772  -3.456  0.00  0.00     0.070 H 
BRANCH  24  27
ATOM     27  C   LIG d   1      10.138   5.596  -2.048  0.00  0.00    -0.031 C 
ATOM     28  H   LIG d   1      10.505   6.527  -1.614  0.00  0.00     0.026 H 
ATOM     29  H   LIG d   1       9.051   5.628  -2.112  0.00  0.00     0.026 H 
ATOM     30  H   LIG d   1      10.442   4.759  -1.420  0.00  0.00     0.026 H 
ENDBRANCH  24  27
ENDBRANCH  23  24
ENDBRANCH  21  23
ENDBRANCH   1  21
TORSDOF 4
ENDMDL
MODEL 10
REMARK VINA RESULT:      -5.2      2.628      3.916
REMARK  4 active torsions:
REMARK  status: ('A' for Active; 'I' for Inactive)
REMARK    1  A    between atoms: C_1  and  C_2 
REMARK    2  A    between atoms: C_2  and  O_3 
REMARK    3  A    between atoms: O_3  and  C_4 
REMARK    4  A    between atoms: C_4  and  C_6 
ROOT
ATOM      1  C   LIG d   1       8.752  -3.186  -4.458  0.00  0.00     0.125 A 
ATOM      2  C   LIG d   1       7.563  -2.993  -3.821  0.00  0.00    -0.022 A 
ATOM      3  C   LIG d   1       7.296  -1.611  -3.819  0.00  0.00     0.011 A 
ATOM      4  C   LIG d   1       6.207  -0.789  -3.302  0.00  0.00     0.027 A 
ATOM      5  C   LIG d   1       5.105  -1.370  -2.632  0.00  0.00    -0.044 A 
ATOM      6  C   LIG d   1       4.116  -0.558  -2.169  0.00  0.00     0.024 A 
ATOM      7  C   LIG d   1       4.209   0.836  -2.367  0.00  0.00     0.337 A 
ATOM      8  O   LIG d   1       3.322   1.560  -1.951  0.00  0.00    -0.245 OA
ATOM      9  O   LIG d   1       5.260   1.375  -3.006  0.00  0.00    -0.422 OA
ATOM     10  C   LIG d   1       6.260   0.601  -3.478  0.00  0.00     0.140 A 
ATOM     11  C   LIG d   1       7.347   1.172  -4.139  0.00  0.00    -0.017 A 
ATOM     12  C   LIG d   1       8.366   0.408  -4.622  0.00  0.00    -0.034 A 
ATOM     13  C   LIG d   1       8.367  -0.980  -4.478  0.00  0.00     0.048 A 
ATOM     14  N   LIG d   1       9.250  -1.964  -4.856  0.00  0.00    -0.349 N 
ATOM     15  H   LIG d   1      10.087  -1.822  -5.327  0.00  0.00     0.166 HD
ATOM     16  H   LIG d   1       6.936  -3.763  -3.394  0.00  0.00     0.065 H 
ATOM     17  H   LIG d   1       5.048  -2.439  -2.489  0.00  0.00     0.063 H 
ATOM     18  H   LIG d   1       3.265  -0.978  -1.654  0.00  0.00     0.069 H 
ATOM     19  H   LIG d   1       7.381   2.243  -4.270  0.00  0.00     0.066 H 
ATOM     20  H   LIG d   1       9.192   0.887  -5.129  0.00  0.00     0.064 H 
ENDROOT
BRANCH   1  21
ATOM     21  C   LIG d   1       9.399  -4.486  -4.680  0.00  0.00     0.356 C 
ATOM     22  O   LIG d   1      10.201  -4.912  -3.871  0.00  0.00    -0.243 OA
BRANCH  21  23
ATOM     23  O   LIG d   1       9.104  -5.206  -5.781  0.00  0.00    -0.460 OA
BRANCH  23  24
ATOM     24  C   LIG d   1       8.509  -6.490  -5.576  0.00  0.00     0.090 C 
ATOM     25  H   LIG d   1       8.872  -6.913  -4.640  0.00  0.00     0.070 H 
ATOM     26  H   LIG d   1       8.776  -7.150  -6.400  0.00  0.00     0.070 H 
BRANCH  24  27
ATOM     27  C   LIG d   1       6.987  -6.342  -5.514  0.00  0.00    -0.031 C 
ATOM     28  H   LIG d   1       6.552  -6.669  -6.459  0.00  0.00     0.026 H 
ATOM     29  H   LIG d   1       6.595  -6.954  -4.702  0.00  0.00     0.026 H 
ATOM     30  H   LIG d   1       6.731  -5.297  -5.339  0.00  0.00     0.026 H 
ENDBRANCH  24  27
ENDBRANCH  23  24
ENDBRANCH  21  23
ENDBRANCH   1  21
TORSDOF 4
ENDMDL
