MODEL 1
REMARK VINA RESULT:      -6.2      0.000      0.000
REMARK  7 active torsions:
REMARK  status: ('A' for Active; 'I' for Inactive)
REMARK    1  A    between atoms: C_1  and  C_2 
REMARK    2  A    between atoms: C_2  and  C_3 
REMARK    3  A    between atoms: C_2  and  C_4 
REMARK    4  A    between atoms: C_4  and  O_5 
REMARK    5  A    between atoms: O_5  and  C_6 
REMARK    6  A    between atoms: C_6  and  C_8 
REMARK    7  A    between atoms: C_8  and  C_9 
ROOT
ATOM      1  C   LIG d   1       3.101   0.210  -6.179  0.00  0.00     0.311 C 
ATOM      2  O   LIG d   1       4.307   0.228  -6.133  0.00  0.00    -0.251 OA
ENDROOT
BRANCH   1   3
ATOM      3  O   LIG d   1       2.476  -0.020  -7.344  0.00  0.00    -0.464 OA
BRANCH   3   4
ATOM      4  C   LIG d   1       3.306  -0.095  -8.533  0.00  0.00     0.095 C 
ATOM      5  H   LIG d   1       4.353   0.009  -8.252  0.00  0.00     0.070 H 
ATOM      6  H   LIG d   1       3.155  -1.058  -9.022  0.00  0.00     0.070 H 
BRANCH   4   7
ATOM      7  C   LIG d   1       2.921   1.030  -9.495  0.00  0.00    -0.012 C 
ATOM      8  H   LIG d   1       1.845   1.011  -9.666  0.00  0.00     0.033 H 
BRANCH   7   9
ATOM      9  C   LIG d   1       3.317   2.378  -8.887  0.00  0.00    -0.060 C 
ATOM     10  H   LIG d   1       3.953   2.213  -8.018  0.00  0.00     0.023 H 
ATOM     11  H   LIG d   1       3.858   2.966  -9.628  0.00  0.00     0.023 H 
ATOM     12  H   LIG d   1       2.419   2.916  -8.581  0.00  0.00     0.023 H 
ENDBRANCH   7   9
BRANCH   7  13
ATOM     13  C   LIG d   1       3.652   0.838 -10.825  0.00  0.00    -0.060 C 
ATOM     14  H   LIG d   1       3.685  -0.224 -11.071  0.00  0.00     0.023 H 
ATOM     15  H   LIG d   1       3.125   1.378 -11.612  0.00  0.00     0.023 H 
ATOM     16  H   LIG d   1       4.669   1.221 -10.739  0.00  0.00     0.023 H 
ENDBRANCH   7  13
ENDBRANCH   4   7
ENDBRANCH   3   4
ENDBRANCH   1   3
BRANCH   1  17
ATOM     17  C   LIG d   1       2.296   0.448  -4.927  0.00  0.00     0.070 C 
ATOM     18  H   LIG d   1       1.369  -0.123  -4.978  0.00  0.00     0.043 H 
ATOM     19  H   LIG d   1       2.065   1.509  -4.839  0.00  0.00     0.043 H 
BRANCH  17  20
ATOM     20  C   LIG d   1       3.093   0.006  -3.726  0.00  0.00    -0.037 A 
ATOM     21  C   LIG d   1       3.708   0.946  -2.921  0.00  0.00    -0.058 A 
ATOM     22  C   LIG d   1       4.434   0.540  -1.817  0.00  0.00    -0.061 A 
ATOM     23  H   LIG d   1       3.619   1.996  -3.151  0.00  0.00     0.062 H 
ATOM     24  C   LIG d   1       4.553  -0.806  -1.524  0.00  0.00    -0.062 A 
ATOM     25  H   LIG d   1       4.912   1.274  -1.185  0.00  0.00     0.062 H 
ATOM     26  C   LIG d   1       3.936  -1.746  -2.329  0.00  0.00    -0.061 A 
ATOM     27  H   LIG d   1       5.123  -1.123  -0.663  0.00  0.00     0.062 H 
ATOM     28  C   LIG d   1       3.207  -1.339  -3.430  0.00  0.00    -0.058 A 
ATOM     29  H   LIG d   1       4.026  -2.797  -2.098  0.00  0.00     0.062 H 
ATOM     30  H   LIG d   1       2.725  -2.073  -4.059  0.00  0.00     0.062 H 
ENDBRANCH  17  20
ENDBRANCH   1  17
TORSDOF 7
ENDMDL
MODEL 2
REMARK VINA RESULT:      -6.1      1.885      3.249
REMARK  7 active torsions:
REMARK  status: ('A' for Active; 'I' for Inactive)
REMARK    1  A    between atoms: C_1  and  C_2 
REMARK    2  A    between atoms: C_2  and  C_3 
REMARK    3  A    between atoms: C_2  and  C_4 
REMARK    4  A    between atoms: C_4  and  O_5 
REMARK    5  A    between atoms: O_5  and  C_6 
REMARK    6  A    between atoms: C_6  and  C_8 
REMARK    7  A    between atoms: C_8  and  C_9 
ROOT
ATOM      1  C   LIG d   1       3.086   0.248  -6.196  0.00  0.00     0.311 C 
ATOM      2  O   LIG d   1       2.474  -0.087  -7.181  0.00  0.00    -0.251 OA
ENDROOT
BRANCH   1   3
ATOM      3  O   LIG d   1       4.427   0.313  -6.229  0.00  0.00    -0.464 OA
BRANCH   3   4
ATOM      4  C   LIG d   1       5.126  -0.798  -6.848  0.00  0.00     0.095 C 
ATOM      5  H   LIG d   1       4.461  -1.660  -6.900  0.00  0.00     0.070 H 
ATOM      6  H   LIG d   1       5.437  -0.518  -7.853  0.00  0.00     0.070 H 
BRANCH   4   7
ATOM      7  C   LIG d   1       6.357  -1.154  -6.013  0.00  0.00    -0.012 C 
ATOM      8  H   LIG d   1       7.218  -1.278  -6.668  0.00  0.00     0.033 H 
BRANCH   7   9
ATOM      9  C   LIG d   1       6.636  -0.031  -5.011  0.00  0.00    -0.060 C 
ATOM     10  H   LIG d   1       6.019   0.834  -5.253  0.00  0.00     0.023 H 
ATOM     11  H   LIG d   1       6.400  -0.375  -4.004  0.00  0.00     0.023 H 
ATOM     12  H   LIG d   1       7.689   0.248  -5.062  0.00  0.00     0.023 H 
ENDBRANCH   7   9
BRANCH   7  13
ATOM     13  C   LIG d   1       6.101  -2.458  -5.256  0.00  0.00    -0.060 C 
ATOM     14  H   LIG d   1       6.358  -2.326  -4.205  0.00  0.00     0.023 H 
ATOM     15  H   LIG d   1       5.047  -2.727  -5.341  0.00  0.00     0.023 H 
ATOM     16  H   LIG d   1       6.714  -3.253  -5.682  0.00  0.00     0.023 H 
ENDBRANCH   7  13
ENDBRANCH   4   7
ENDBRANCH   3   4
ENDBRANCH   1   3
BRANCH   1  17
ATOM     17  C   LIG d   1       2.346   0.593  -4.930  0.00  0.00     0.070 C 
ATOM     18  H   LIG d   1       1.359   0.129  -4.949  0.00  0.00     0.043 H 
ATOM     19  H   LIG d   1       2.237   1.674  -4.855  0.00  0.00     0.043 H 
BRANCH  17  20
ATOM     20  C   LIG d   1       3.118   0.082  -3.740  0.00  0.00    -0.037 A 
ATOM     21  C   LIG d   1       3.164  -1.274  -3.477  0.00  0.00    -0.058 A 
ATOM     22  C   LIG d   1       3.877  -1.743  -2.390  0.00  0.00    -0.061 A 
ATOM     23  H   LIG d   1       2.647  -1.968  -4.123  0.00  0.00     0.062 H 
ATOM     24  C   LIG d   1       4.535  -0.855  -1.560  0.00  0.00    -0.062 A 
ATOM     25  H   LIG d   1       3.917  -2.803  -2.185  0.00  0.00     0.062 H 
ATOM     26  C   LIG d   1       4.490   0.502  -1.824  0.00  0.00    -0.061 A 
ATOM     27  H   LIG d   1       5.089  -1.220  -0.708  0.00  0.00     0.062 H 
ATOM     28  C   LIG d   1       3.781   0.970  -2.914  0.00  0.00    -0.058 A 
ATOM     29  H   LIG d   1       5.007   1.196  -1.177  0.00  0.00     0.062 H 
ATOM     30  H   LIG d   1       3.745   2.029  -3.120  0.00  0.00     0.062 H 
ENDBRANCH  17  20
ENDBRANCH   1  17
TORSDOF 7
ENDMDL
MODEL 3
REMARK VINA RESULT:      -6.0      2.894      4.147
REMARK  7 active torsions:
REMARK  status: ('A' for Active; 'I' for Inactive)
REMARK    1  A    between atoms: C_1  and  C_2 
REMARK    2  A    between atoms: C_2  and  C_3 
REMARK    3  A    between atoms: C_2  and  C_4 
REMARK    4  A    between atoms: C_4  and  O_5 
REMARK    5  A    between atoms: O_5  and  C_6 
REMARK    6  A    between atoms: C_6  and  C_8 
REMARK    7  A    between atoms: C_8  and  C_9 
ROOT
ATOM      1  C   LIG d   1       4.778  -3.026  -3.866  0.00  0.00     0.311 C 
ATOM      2  O   LIG d   1       4.383  -3.896  -4.606  0.00  0.00    -0.251 OA
ENDROOT
BRANCH   1   3
ATOM      3  O   LIG d   1       5.984  -2.472  -4.064  0.00  0.00    -0.464 OA
BRANCH   3   4
ATOM      4  C   LIG d   1       6.460  -2.401  -5.434  0.00  0.00     0.095 C 
ATOM      5  H   LIG d   1       7.421  -2.908  -5.511  0.00  0.00     0.070 H 
ATOM      6  H   LIG d   1       5.741  -2.884  -6.095  0.00  0.00     0.070 H 
BRANCH   4   7
ATOM      7  C   LIG d   1       6.623  -0.935  -5.841  0.00  0.00    -0.012 C 
ATOM      8  H   LIG d   1       7.459  -0.840  -6.533  0.00  0.00     0.033 H 
BRANCH   7   9
ATOM      9  C   LIG d   1       5.340  -0.449  -6.520  0.00  0.00    -0.060 C 
ATOM     10  H   LIG d   1       4.885  -1.273  -7.070  0.00  0.00     0.023 H 
ATOM     11  H   LIG d   1       4.643  -0.087  -5.764  0.00  0.00     0.023 H 
ATOM     12  H   LIG d   1       5.580   0.359  -7.212  0.00  0.00     0.023 H 
ENDBRANCH   7   9
BRANCH   7  13
ATOM     13  C   LIG d   1       6.892  -0.088  -4.596  0.00  0.00    -0.060 C 
ATOM     14  H   LIG d   1       6.490   0.915  -4.745  0.00  0.00     0.023 H 
ATOM     15  H   LIG d   1       6.411  -0.547  -3.732  0.00  0.00     0.023 H 
ATOM     16  H   LIG d   1       7.966  -0.026  -4.423  0.00  0.00     0.023 H 
ENDBRANCH   7  13
ENDBRANCH   4   7
ENDBRANCH   3   4
ENDBRANCH   1   3
BRANCH   1  17
ATOM     17  C   LIG d   1       3.915  -2.564  -2.720  0.00  0.00     0.070 C 
ATOM     18  H   LIG d   1       4.350  -2.902  -1.780  0.00  0.00     0.043 H 
ATOM     19  H   LIG d   1       2.914  -2.980  -2.828  0.00  0.00     0.043 H 
BRANCH  17  20
ATOM     20  C   LIG d   1       3.837  -1.059  -2.725  0.00  0.00    -0.037 A 
ATOM     21  C   LIG d   1       3.116  -0.407  -3.709  0.00  0.00    -0.058 A 
ATOM     22  C   LIG d   1       3.041   0.973  -3.710  0.00  0.00    -0.061 A 
ATOM     23  H   LIG d   1       2.610  -0.976  -4.474  0.00  0.00     0.062 H 
ATOM     24  C   LIG d   1       3.694   1.702  -2.734  0.00  0.00    -0.062 A 
ATOM     25  H   LIG d   1       2.475   1.483  -4.476  0.00  0.00     0.062 H 
ATOM     26  C   LIG d   1       4.413   1.050  -1.749  0.00  0.00    -0.061 A 
ATOM     27  H   LIG d   1       3.638   2.781  -2.737  0.00  0.00     0.062 H 
ATOM     28  C   LIG d   1       4.485  -0.330  -1.746  0.00  0.00    -0.058 A 
ATOM     29  H   LIG d   1       4.921   1.619  -0.984  0.00  0.00     0.062 H 
ATOM     30  H   LIG d   1       5.047  -0.840  -0.977  0.00  0.00     0.062 H 
ENDBRANCH  17  20
ENDBRANCH   1  17
TORSDOF 7
ENDMDL
MODEL 4
REMARK VINA RESULT:      -5.7      0.932      1.850
REMARK  7 active torsions:
REMARK  status: ('A' for Active; 'I' for Inactive)
REMARK    1  A    between atoms: C_1  and  C_2 
REMARK    2  A    between atoms: C_2  and  C_3 
REMARK    3  A    between atoms: C_2  and  C_4 
REMARK    4  A    between atoms: C_4  and  O_5 
REMARK    5  A    between atoms: O_5  and  C_6 
REMARK    6  A    between atoms: C_6  and  C_8 
REMARK    7  A    between atoms: C_8  and  C_9 
ROOT
ATOM      1  C   LIG d   1       3.546  -0.086  -6.480  0.00  0.00     0.311 C 
ATOM      2  O   LIG d   1       3.886  -1.227  -6.686  0.00  0.00    -0.251 OA
ENDROOT
BRANCH   1   3
ATOM      3  O   LIG d   1       4.053   0.910  -7.222  0.00  0.00    -0.464 OA
BRANCH   3   4
ATOM      4  C   LIG d   1       4.624   0.549  -8.508  0.00  0.00     0.095 C 
ATOM      5  H   LIG d   1       5.689   0.350  -8.389  0.00  0.00     0.070 H 
ATOM      6  H   LIG d   1       4.128  -0.343  -8.889  0.00  0.00     0.070 H 
BRANCH   4   7
ATOM      7  C   LIG d   1       4.428   1.703  -9.494  0.00  0.00    -0.012 C 
ATOM      8  H   LIG d   1       5.351   2.274  -9.573  0.00  0.00     0.033 H 
BRANCH   7   9
ATOM      9  C   LIG d   1       4.056   1.141 -10.868  0.00  0.00    -0.060 C 
ATOM     10  H   LIG d   1       3.093   1.546 -11.178  0.00  0.00     0.023 H 
ATOM     11  H   LIG d   1       4.819   1.420 -11.594  0.00  0.00     0.023 H 
ATOM     12  H   LIG d   1       3.990   0.054 -10.810  0.00  0.00     0.023 H 
ENDBRANCH   7   9
BRANCH   7  13
ATOM     13  C   LIG d   1       3.305   2.614  -8.995  0.00  0.00    -0.060 C 
ATOM     14  H   LIG d   1       3.684   3.257  -8.201  0.00  0.00     0.023 H 
ATOM     15  H   LIG d   1       2.943   3.229  -9.819  0.00  0.00     0.023 H 
ATOM     16  H   LIG d   1       2.487   2.005  -8.609  0.00  0.00     0.023 H 
ENDBRANCH   7  13
ENDBRANCH   4   7
ENDBRANCH   3   4
ENDBRANCH   1   3
BRANCH   1  17
ATOM     17  C   LIG d   1       2.552   0.218  -5.389  0.00  0.00     0.070 C 
ATOM     18  H   LIG d   1       1.706  -0.465  -5.468  0.00  0.00     0.043 H 
ATOM     19  H   LIG d   1       2.201   1.244  -5.493  0.00  0.00     0.043 H 
BRANCH  17  20
ATOM     20  C   LIG d   1       3.212   0.046  -4.045  0.00  0.00    -0.037 A 
ATOM     21  C   LIG d   1       3.389  -1.221  -3.519  0.00  0.00    -0.058 A 
ATOM     22  C   LIG d   1       4.000  -1.378  -2.289  0.00  0.00    -0.061 A 
ATOM     23  H   LIG d   1       3.055  -2.086  -4.071  0.00  0.00     0.062 H 
ATOM     24  C   LIG d   1       4.423  -0.270  -1.580  0.00  0.00    -0.062 A 
ATOM     25  H   LIG d   1       4.142  -2.367  -1.879  0.00  0.00     0.062 H 
ATOM     26  C   LIG d   1       4.247   0.996  -2.107  0.00  0.00    -0.061 A 
ATOM     27  H   LIG d   1       4.897  -0.392  -0.617  0.00  0.00     0.062 H 
ATOM     28  C   LIG d   1       3.641   1.154  -3.339  0.00  0.00    -0.058 A 
ATOM     29  H   LIG d   1       4.581   1.863  -1.555  0.00  0.00     0.062 H 
ATOM     30  H   LIG d   1       3.502   2.143  -3.750  0.00  0.00     0.062 H 
ENDBRANCH  17  20
ENDBRANCH   1  17
TORSDOF 7
ENDMDL
MODEL 5
REMARK VINA RESULT:      -5.7      1.355      2.213
REMARK  7 active torsions:
REMARK  status: ('A' for Active; 'I' for Inactive)
REMARK    1  A    between atoms: C_1  and  C_2 
REMARK    2  A    between atoms: C_2  and  C_3 
REMARK    3  A    between atoms: C_2  and  C_4 
REMARK    4  A    between atoms: C_4  and  O_5 
REMARK    5  A    between atoms: O_5  and  C_6 
REMARK    6  A    between atoms: C_6  and  C_8 
REMARK    7  A    between atoms: C_8  and  C_9 
ROOT
ATOM      1  C   LIG d   1       3.201   0.160  -6.316  0.00  0.00     0.311 C 
ATOM      2  O   LIG d   1       4.397   0.312  -6.254  0.00  0.00    -0.251 OA
ENDROOT
BRANCH   1   3
ATOM      3  O   LIG d   1       2.635  -0.258  -7.460  0.00  0.00    -0.464 OA
BRANCH   3   4
ATOM      4  C   LIG d   1       3.316  -1.316  -8.184  0.00  0.00     0.095 C 
ATOM      5  H   LIG d   1       4.378  -1.084  -8.251  0.00  0.00     0.070 H 
ATOM      6  H   LIG d   1       3.183  -2.261  -7.657  0.00  0.00     0.070 H 
BRANCH   4   7
ATOM      7  C   LIG d   1       2.728  -1.429  -9.592  0.00  0.00    -0.012 C 
ATOM      8  H   LIG d   1       3.462  -1.089 -10.321  0.00  0.00     0.033 H 
BRANCH   7   9
ATOM      9  C   LIG d   1       2.364  -2.888  -9.876  0.00  0.00    -0.060 C 
ATOM     10  H   LIG d   1       2.273  -3.038 -10.952  0.00  0.00     0.023 H 
ATOM     11  H   LIG d   1       3.143  -3.541  -9.483  0.00  0.00     0.023 H 
ATOM     12  H   LIG d   1       1.414  -3.126  -9.396  0.00  0.00     0.023 H 
ENDBRANCH   7   9
BRANCH   7  13
ATOM     13  C   LIG d   1       1.471  -0.563  -9.690  0.00  0.00    -0.060 C 
ATOM     14  H   LIG d   1       1.695   0.340 -10.259  0.00  0.00     0.023 H 
ATOM     15  H   LIG d   1       0.682  -1.122 -10.194  0.00  0.00     0.023 H 
ATOM     16  H   LIG d   1       1.139  -0.287  -8.689  0.00  0.00     0.023 H 
ENDBRANCH   7  13
ENDBRANCH   4   7
ENDBRANCH   3   4
ENDBRANCH   1   3
BRANCH   1  17
ATOM     17  C   LIG d   1       2.343   0.439  -5.109  0.00  0.00     0.070 C 
ATOM     18  H   LIG d   1       1.423  -0.142  -5.176  0.00  0.00     0.043 H 
ATOM     19  H   LIG d   1       2.101   1.500  -5.073  0.00  0.00     0.043 H 
BRANCH  17  20
ATOM     20  C   LIG d   1       3.091   0.051  -3.860  0.00  0.00    -0.037 A 
ATOM     21  C   LIG d   1       3.243  -1.283  -3.530  0.00  0.00    -0.058 A 
ATOM     22  C   LIG d   1       3.934  -1.638  -2.387  0.00  0.00    -0.061 A 
ATOM     23  H   LIG d   1       2.825  -2.047  -4.168  0.00  0.00     0.062 H 
ATOM     24  C   LIG d   1       4.465  -0.659  -1.568  0.00  0.00    -0.062 A 
ATOM     25  H   LIG d   1       4.056  -2.680  -2.131  0.00  0.00     0.062 H 
ATOM     26  C   LIG d   1       4.314   0.675  -1.898  0.00  0.00    -0.061 A 
ATOM     27  H   LIG d   1       5.001  -0.936  -0.673  0.00  0.00     0.062 H 
ATOM     28  C   LIG d   1       3.627   1.030  -3.043  0.00  0.00    -0.058 A 
ATOM     29  H   LIG d   1       4.732   1.440  -1.260  0.00  0.00     0.062 H 
ATOM     30  H   LIG d   1       3.509   2.072  -3.301  0.00  0.00     0.062 H 
ENDBRANCH  17  20
ENDBRANCH   1  17
TORSDOF 7
ENDMDL
MODEL 6
REMARK VINA RESULT:      -5.6      1.140      6.214
REMARK  7 active torsions:
REMARK  status: ('A' for Active; 'I' for Inactive)
REMARK    1  A    between atoms: C_1  and  C_2 
REMARK    2  A    between atoms: C_2  and  C_3 
REMARK    3  A    between atoms: C_2  and  C_4 
REMARK    4  A    between atoms: C_4  and  O_5 
REMARK    5  A    between atoms: O_5  and  C_6 
REMARK    6  A    between atoms: C_6  and  C_8 
REMARK    7  A    between atoms: C_8  and  C_9 
ROOT
ATOM      1  C   LIG d   1       3.913  -0.141  -6.008  0.00  0.00     0.311 C 
ATOM      2  O   LIG d   1       5.014   0.106  -6.438  0.00  0.00    -0.251 OA
ENDROOT
BRANCH   1   3
ATOM      3  O   LIG d   1       3.777  -0.833  -4.866  0.00  0.00    -0.464 OA
BRANCH   3   4
ATOM      4  C   LIG d   1       2.850  -0.305  -3.881  0.00  0.00     0.095 C 
ATOM      5  H   LIG d   1       2.822   0.781  -3.956  0.00  0.00     0.070 H 
ATOM      6  H   LIG d   1       1.855  -0.708  -4.066  0.00  0.00     0.070 H 
BRANCH   4   7
ATOM      7  C   LIG d   1       3.312  -0.708  -2.479  0.00  0.00    -0.012 C 
ATOM      8  H   LIG d   1       2.458  -0.715  -1.803  0.00  0.00     0.033 H 
BRANCH   7   9
ATOM      9  C   LIG d   1       3.934  -2.106  -2.530  0.00  0.00    -0.060 C 
ATOM     10  H   LIG d   1       3.435  -2.752  -1.809  0.00  0.00     0.023 H 
ATOM     11  H   LIG d   1       3.817  -2.520  -3.532  0.00  0.00     0.023 H 
ATOM     12  H   LIG d   1       4.995  -2.040  -2.285  0.00  0.00     0.023 H 
ENDBRANCH   7   9
BRANCH   7  13
ATOM     13  C   LIG d   1       4.353   0.294  -1.978  0.00  0.00    -0.060 C 
ATOM     14  H   LIG d   1       4.620   0.976  -2.785  0.00  0.00     0.023 H 
ATOM     15  H   LIG d   1       3.938   0.863  -1.144  0.00  0.00     0.023 H 
ATOM     16  H   LIG d   1       5.242  -0.241  -1.645  0.00  0.00     0.023 H 
ENDBRANCH   7  13
ENDBRANCH   4   7
ENDBRANCH   3   4
ENDBRANCH   1   3
BRANCH   1  17
ATOM     17  C   LIG d   1       2.691   0.329  -6.754  0.00  0.00     0.070 C 
ATOM     18  H   LIG d   1       2.269   1.198  -6.250  0.00  0.00     0.043 H 
ATOM     19  H   LIG d   1       1.951  -0.470  -6.778  0.00  0.00     0.043 H 
BRANCH  17  20
ATOM     20  C   LIG d   1       3.074   0.702  -8.163  0.00  0.00    -0.037 A 
ATOM     21  C   LIG d   1       3.241   2.031  -8.505  0.00  0.00    -0.058 A 
ATOM     22  C   LIG d   1       3.599   2.372  -9.796  0.00  0.00    -0.061 A 
ATOM     23  H   LIG d   1       3.097   2.801  -7.763  0.00  0.00     0.062 H 
ATOM     24  C   LIG d   1       3.778   1.386 -10.747  0.00  0.00    -0.062 A 
ATOM     25  H   LIG d   1       3.733   3.410 -10.063  0.00  0.00     0.062 H 
ATOM     26  C   LIG d   1       3.612   0.056 -10.405  0.00  0.00    -0.061 A 
ATOM     27  H   LIG d   1       4.054   1.652 -11.757  0.00  0.00     0.062 H 
ATOM     28  C   LIG d   1       3.260  -0.285  -9.113  0.00  0.00    -0.058 A 
ATOM     29  H   LIG d   1       3.757  -0.715 -11.147  0.00  0.00     0.062 H 
ATOM     30  H   LIG d   1       3.130  -1.323  -8.845  0.00  0.00     0.062 H 
ENDBRANCH  17  20
ENDBRANCH   1  17
TORSDOF 7
ENDMDL
MODEL 7
REMARK VINA RESULT:      -5.5      3.625      5.238
REMARK  7 active torsions:
REMARK  status: ('A' for Active; 'I' for Inactive)
REMARK    1  A    between atoms: C_1  and  C_2 
REMARK    2  A    between atoms: C_2  and  C_3 
REMARK    3  A    between atoms: C_2  and  C_4 
REMARK    4  A    between atoms: C_4  and  O_5 
REMARK    5  A    between atoms: O_5  and  C_6 
REMARK    6  A    between atoms: C_6  and  C_8 
REMARK    7  A    between atoms: C_8  and  C_9 
ROOT
ATOM      1  C   LIG d   1       4.829  -3.029  -4.048  0.00  0.00     0.311 C 
ATOM      2  O   LIG d   1       4.293  -3.665  -4.923  0.00  0.00    -0.251 OA
ENDROOT
BRANCH   1   3
ATOM      3  O   LIG d   1       6.121  -2.682  -4.164  0.00  0.00    -0.464 OA
BRANCH   3   4
ATOM      4  C   LIG d   1       6.792  -3.046  -5.399  0.00  0.00     0.095 C 
ATOM      5  H   LIG d   1       6.127  -3.660  -6.006  0.00  0.00     0.070 H 
ATOM      6  H   LIG d   1       7.055  -2.143  -5.950  0.00  0.00     0.070 H 
BRANCH   4   7
ATOM      7  C   LIG d   1       8.061  -3.836  -5.076  0.00  0.00    -0.012 C 
ATOM      8  H   LIG d   1       8.836  -3.593  -5.802  0.00  0.00     0.033 H 
BRANCH   7   9
ATOM      9  C   LIG d   1       8.546  -3.468  -3.671  0.00  0.00    -0.060 C 
ATOM     10  H   LIG d   1       7.938  -3.984  -2.929  0.00  0.00     0.023 H 
ATOM     11  H   LIG d   1       9.589  -3.765  -3.557  0.00  0.00     0.023 H 
ATOM     12  H   LIG d   1       8.458  -2.390  -3.527  0.00  0.00     0.023 H 
ENDBRANCH   7   9
BRANCH   7  13
ATOM     13  C   LIG d   1       7.758  -5.334  -5.133  0.00  0.00    -0.060 C 
ATOM     14  H   LIG d   1       8.188  -5.757  -6.042  0.00  0.00     0.023 H 
ATOM     15  H   LIG d   1       8.192  -5.827  -4.262  0.00  0.00     0.023 H 
ATOM     16  H   LIG d   1       6.679  -5.487  -5.137  0.00  0.00     0.023 H 
ENDBRANCH   7  13
ENDBRANCH   4   7
ENDBRANCH   3   4
ENDBRANCH   1   3
BRANCH   1  17
ATOM     17  C   LIG d   1       4.048  -2.624  -2.824  0.00  0.00     0.070 C 
ATOM     18  H   LIG d   1       4.576  -2.956  -1.930  0.00  0.00     0.043 H 
ATOM     19  H   LIG d   1       3.061  -3.085  -2.854  0.00  0.00     0.043 H 
BRANCH  17  20
ATOM     20  C   LIG d   1       3.902  -1.124  -2.794  0.00  0.00    -0.037 A 
ATOM     21  C   LIG d   1       4.495  -0.393  -1.781  0.00  0.00    -0.058 A 
ATOM     22  C   LIG d   1       4.365   0.983  -1.757  0.00  0.00    -0.061 A 
ATOM     23  H   LIG d   1       5.062  -0.895  -1.013  0.00  0.00     0.062 H 
ATOM     24  C   LIG d   1       3.635   1.627  -2.739  0.00  0.00    -0.062 A 
ATOM     25  H   LIG d   1       4.831   1.556  -0.968  0.00  0.00     0.062 H 
ATOM     26  C   LIG d   1       3.044   0.895  -3.752  0.00  0.00    -0.061 A 
ATOM     27  H   LIG d   1       3.531   2.702  -2.718  0.00  0.00     0.062 H 
ATOM     28  C   LIG d   1       3.177  -0.480  -3.779  0.00  0.00    -0.058 A 
ATOM     29  H   LIG d   1       2.476   1.398  -4.521  0.00  0.00     0.062 H 
ATOM     30  H   LIG d   1       2.715  -1.052  -4.570  0.00  0.00     0.062 H 
ENDBRANCH  17  20
ENDBRANCH   1  17
TORSDOF 7
ENDMDL
MODEL 8
REMARK VINA RESULT:      -5.4      2.124      3.031
REMARK  7 active torsions:
REMARK  status: ('A' for Active; 'I' for Inactive)
REMARK    1  A    between atoms: C_1  and  C_2 
REMARK    2  A    between atoms: C_2  and  C_3 
REMARK    3  A    between atoms: C_2  and  C_4 
REMARK    4  A    between atoms: C_4  and  O_5 
REMARK    5  A    between atoms: O_5  and  C_6 
REMARK    6  A    between atoms: C_6  and  C_8 
REMARK    7  A    between atoms: C_8  and  C_9 
ROOT
ATOM      1  C   LIG d   1       6.211  -1.937  -5.725  0.00  0.00     0.311 C 
ATOM      2  O   LIG d   1       7.122  -1.920  -6.518  0.00  0.00    -0.251 OA
ENDROOT
BRANCH   1   3
ATOM      3  O   LIG d   1       4.955  -1.706  -6.139  0.00  0.00    -0.464 OA
BRANCH   3   4
ATOM      4  C   LIG d   1       4.717  -0.471  -6.864  0.00  0.00     0.095 C 
ATOM      5  H   LIG d   1       5.289   0.335  -6.405  0.00  0.00     0.070 H 
ATOM      6  H   LIG d   1       5.029  -0.592  -7.901  0.00  0.00     0.070 H 
BRANCH   4   7
ATOM      7  C   LIG d   1       3.227  -0.131  -6.816  0.00  0.00    -0.012 C 
ATOM      8  H   LIG d   1       2.644  -1.012  -7.078  0.00  0.00     0.033 H 
BRANCH   7   9
ATOM      9  C   LIG d   1       2.854   0.326  -5.403  0.00  0.00    -0.060 C 
ATOM     10  H   LIG d   1       3.761   0.514  -4.830  0.00  0.00     0.023 H 
ATOM     11  H   LIG d   1       2.264   1.242  -5.461  0.00  0.00     0.023 H 
ATOM     12  H   LIG d   1       2.269  -0.453  -4.912  0.00  0.00     0.023 H 
ENDBRANCH   7   9
BRANCH   7  13
ATOM     13  C   LIG d   1       2.928   0.993  -7.809  0.00  0.00    -0.060 C 
ATOM     14  H   LIG d   1       3.831   1.232  -8.371  0.00  0.00     0.023 H 
ATOM     15  H   LIG d   1       2.146   0.672  -8.498  0.00  0.00     0.023 H 
ATOM     16  H   LIG d   1       2.593   1.878  -7.268  0.00  0.00     0.023 H 
ENDBRANCH   7  13
ENDBRANCH   4   7
ENDBRANCH   3   4
ENDBRANCH   1   3
BRANCH   1  17
ATOM     17  C   LIG d   1       6.485  -2.218  -4.270  0.00  0.00     0.070 C 
ATOM     18  H   LIG d   1       7.560  -2.194  -4.092  0.00  0.00     0.043 H 
ATOM     19  H   LIG d   1       6.096  -3.202  -4.010  0.00  0.00     0.043 H 
BRANCH  17  20
ATOM     20  C   LIG d   1       5.811  -1.171  -3.420  0.00  0.00    -0.037 A 
ATOM     21  C   LIG d   1       6.197   0.153  -3.520  0.00  0.00    -0.058 A 
ATOM     22  C   LIG d   1       5.575   1.113  -2.745  0.00  0.00    -0.061 A 
ATOM     23  H   LIG d   1       6.981   0.437  -4.205  0.00  0.00     0.062 H 
ATOM     24  C   LIG d   1       4.575   0.749  -1.863  0.00  0.00    -0.062 A 
ATOM     25  H   LIG d   1       5.874   2.148  -2.824  0.00  0.00     0.062 H 
ATOM     26  C   LIG d   1       4.188  -0.574  -1.764  0.00  0.00    -0.061 A 
ATOM     27  H   LIG d   1       4.092   1.499  -1.254  0.00  0.00     0.062 H 
ATOM     28  C   LIG d   1       4.807  -1.534  -2.543  0.00  0.00    -0.058 A 
ATOM     29  H   LIG d   1       3.404  -0.859  -1.078  0.00  0.00     0.062 H 
ATOM     30  H   LIG d   1       4.505  -2.569  -2.466  0.00  0.00     0.062 H 
ENDBRANCH  17  20
ENDBRANCH   1  17
TORSDOF 7
ENDMDL
MODEL 9
REMARK VINA RESULT:      -5.3      2.481      3.545
REMARK  7 active torsions:
REMARK  status: ('A' for Active; 'I' for Inactive)
REMARK    1  A    between atoms: C_1  and  C_2 
REMARK    2  A    between atoms: C_2  and  C_3 
REMARK    3  A    between atoms: C_2  and  C_4 
REMARK    4  A    between atoms: C_4  and  O_5 
REMARK    5  A    between atoms: O_5  and  C_6 
REMARK    6  A    between atoms: C_6  and  C_8 
REMARK    7  A    between atoms: C_8  and  C_9 
ROOT
ATOM      1  C   LIG d   1       7.225   0.356  -5.672  0.00  0.00     0.311 C 
ATOM      2  O   LIG d   1       7.433   1.474  -6.078  0.00  0.00    -0.251 OA
ENDROOT
BRANCH   1   3
ATOM      3  O   LIG d   1       6.635  -0.550  -6.469  0.00  0.00    -0.464 OA
BRANCH   3   4
ATOM      4  C   LIG d   1       5.497  -0.099  -7.250  0.00  0.00     0.095 C 
ATOM      5  H   LIG d   1       5.321   0.959  -7.056  0.00  0.00     0.070 H 
ATOM      6  H   LIG d   1       5.703  -0.245  -8.310  0.00  0.00     0.070 H 
BRANCH   4   7
ATOM      7  C   LIG d   1       4.258  -0.904  -6.855  0.00  0.00    -0.012 C 
ATOM      8  H   LIG d   1       3.604  -1.013  -7.719  0.00  0.00     0.033 H 
BRANCH   7   9
ATOM      9  C   LIG d   1       4.685  -2.288  -6.361  0.00  0.00    -0.060 C 
ATOM     10  H   LIG d   1       5.480  -2.673  -6.998  0.00  0.00     0.023 H 
ATOM     11  H   LIG d   1       5.045  -2.212  -5.334  0.00  0.00     0.023 H 
ATOM     12  H   LIG d   1       3.831  -2.966  -6.397  0.00  0.00     0.023 H 
ENDBRANCH   7   9
BRANCH   7  13
ATOM     13  C   LIG d   1       3.510  -0.173  -5.738  0.00  0.00    -0.060 C 
ATOM     14  H   LIG d   1       3.278   0.843  -6.060  0.00  0.00     0.023 H 
ATOM     15  H   LIG d   1       2.584  -0.703  -5.513  0.00  0.00     0.023 H 
ATOM     16  H   LIG d   1       4.134  -0.137  -4.845  0.00  0.00     0.023 H 
ENDBRANCH   7  13
ENDBRANCH   4   7
ENDBRANCH   3   4
ENDBRANCH   1   3
BRANCH   1  17
ATOM     17  C   LIG d   1       7.625  -0.023  -4.269  0.00  0.00     0.070 C 
ATOM     18  H   LIG d   1       8.279   0.747  -3.859  0.00  0.00     0.043 H 
ATOM     19  H   LIG d   1       8.154  -0.975  -4.287  0.00  0.00     0.043 H 
BRANCH  17  20
ATOM     20  C   LIG d   1       6.393  -0.146  -3.410  0.00  0.00    -0.037 A 
ATOM     21  C   LIG d   1       5.760   0.990  -2.942  0.00  0.00    -0.058 A 
ATOM     22  C   LIG d   1       4.627   0.876  -2.159  0.00  0.00    -0.061 A 
ATOM     23  H   LIG d   1       6.148   1.966  -3.192  0.00  0.00     0.062 H 
ATOM     24  C   LIG d   1       4.133  -0.373  -1.836  0.00  0.00    -0.062 A 
ATOM     25  H   LIG d   1       4.130   1.764  -1.796  0.00  0.00     0.062 H 
ATOM     26  C   LIG d   1       4.765  -1.510  -2.305  0.00  0.00    -0.061 A 
ATOM     27  H   LIG d   1       3.249  -0.462  -1.220  0.00  0.00     0.062 H 
ATOM     28  C   LIG d   1       5.895  -1.396  -3.092  0.00  0.00    -0.058 A 
ATOM     29  H   LIG d   1       4.377  -2.486  -2.055  0.00  0.00     0.062 H 
ATOM     30  H   LIG d   1       6.390  -2.283  -3.458  0.00  0.00     0.062 H 
ENDBRANCH  17  20
ENDBRANCH   1  17
TORSDOF 7
ENDMDL
MODEL 10
REMARK VINA RESULT:      -4.9      2.804      4.262
REMARK  7 active torsions:
REMARK  status: ('A' for Active; 'I' for Inactive)
REMARK    1  A    between atoms: C_1  and  C_2 
REMARK    2  A    between atoms: C_2  and  C_3 
REMARK    3  A    between atoms: C_2  and  C_4 
REMARK    4  A    between atoms: C_4  and  O_5 
REMARK    5  A    between atoms: O_5  and  C_6 
REMARK    6  A    between atoms: C_6  and  C_8 
REMARK    7  A    between atoms: C_8  and  C_9 
ROOT
ATOM      1  C   LIG d   1       5.768  -0.217  -6.329  0.00  0.00     0.311 C 
ATOM      2  O   LIG d   1       5.970   0.642  -7.153  0.00  0.00    -0.251 OA
ENDROOT
BRANCH   1   3
ATOM      3  O   LIG d   1       6.793  -0.929  -5.836  0.00  0.00    -0.464 OA
BRANCH   3   4
ATOM      4  C   LIG d   1       7.050  -2.223  -6.444  0.00  0.00     0.095 C 
ATOM      5  H   LIG d   1       6.151  -2.569  -6.953  0.00  0.00     0.070 H 
ATOM      6  H   LIG d   1       7.863  -2.131  -7.164  0.00  0.00     0.070 H 
BRANCH   4   7
ATOM      7  C   LIG d   1       7.441  -3.227  -5.358  0.00  0.00    -0.012 C 
ATOM      8  H   LIG d   1       8.389  -3.694  -5.619  0.00  0.00     0.033 H 
BRANCH   7   9
ATOM      9  C   LIG d   1       7.582  -2.500  -4.019  0.00  0.00    -0.060 C 
ATOM     10  H   LIG d   1       7.371  -3.193  -3.205  0.00  0.00     0.023 H 
ATOM     11  H   LIG d   1       8.598  -2.118  -3.917  0.00  0.00     0.023 H 
ATOM     12  H   LIG d   1       6.875  -1.670  -3.980  0.00  0.00     0.023 H 
ENDBRANCH   7   9
BRANCH   7  13
ATOM     13  C   LIG d   1       6.357  -4.301  -5.243  0.00  0.00    -0.060 C 
ATOM     14  H   LIG d   1       6.823  -5.270  -5.067  0.00  0.00     0.023 H 
ATOM     15  H   LIG d   1       5.694  -4.060  -4.412  0.00  0.00     0.023 H 
ATOM     16  H   LIG d   1       5.782  -4.337  -6.168  0.00  0.00     0.023 H 
ENDBRANCH   7  13
ENDBRANCH   4   7
ENDBRANCH   3   4
ENDBRANCH   1   3
BRANCH   1  17
ATOM     17  C   LIG d   1       4.364  -0.491  -5.856  0.00  0.00     0.070 C 
ATOM     18  H   LIG d   1       3.984  -1.388  -6.345  0.00  0.00     0.043 H 
ATOM     19  H   LIG d   1       3.725   0.355  -6.104  0.00  0.00     0.043 H 
BRANCH  17  20
ATOM     20  C   LIG d   1       4.368  -0.697  -4.363  0.00  0.00    -0.037 A 
ATOM     21  C   LIG d   1       4.773   0.325  -3.525  0.00  0.00    -0.058 A 
ATOM     22  C   LIG d   1       4.771   0.138  -2.156  0.00  0.00    -0.061 A 
ATOM     23  H   LIG d   1       5.085   1.272  -3.940  0.00  0.00     0.062 H 
ATOM     24  C   LIG d   1       4.376  -1.075  -1.624  0.00  0.00    -0.062 A 
ATOM     25  H   LIG d   1       5.084   0.937  -1.500  0.00  0.00     0.062 H 
ATOM     26  C   LIG d   1       3.970  -2.098  -2.462  0.00  0.00    -0.061 A 
ATOM     27  H   LIG d   1       4.378  -1.224  -0.554  0.00  0.00     0.062 H 
ATOM     28  C   LIG d   1       3.967  -1.908  -3.831  0.00  0.00    -0.058 A 
ATOM     29  H   LIG d   1       3.657  -3.045  -2.047  0.00  0.00     0.062 H 
ATOM     30  H   LIG d   1       3.650  -2.707  -4.486  0.00  0.00     0.062 H 
ENDBRANCH  17  20
ENDBRANCH   1  17
TORSDOF 7
ENDMDL
