MODEL 1
REMARK VINA RESULT:      -6.0      0.000      0.000
REMARK  10 active torsions:
REMARK  status: ('A' for Active; 'I' for Inactive)
REMARK    1  A    between atoms: C_1  and  N_2 
REMARK    2  A    between atoms: N_2  and  C_3 
REMARK    3  A    between atoms: N_2  and  C_4 
REMARK    4  A    between atoms: C_4  and  C_6 
REMARK    5  A    between atoms: C_9  and  C_12 
REMARK       I    between atoms: C_12  and  N_14 
REMARK    6  A    between atoms: N_14  and  C_15 
REMARK    7  A    between atoms: C_18  and  O_31 
REMARK    8  A    between atoms: C_20  and  C_21 
REMARK       I    between atoms: C_21  and  N_23 
REMARK    9  A    between atoms: N_23  and  C_24 
REMARK   10  A    between atoms: O_31  and  C_32 
ROOT
ATOM      1  C   LIG d   1       5.549  -6.088  -6.487  0.00  0.00     0.046 A 
ATOM      2  C   LIG d   1       5.386  -7.095  -7.429  0.00  0.00    -0.036 A 
ATOM      3  C   LIG d   1       4.590  -6.886  -8.535  0.00  0.00    -0.018 A 
ATOM      4  C   LIG d   1       3.941  -5.670  -8.715  0.00  0.00     0.121 A 
ATOM      5  C   LIG d   1       4.089  -4.659  -7.786  0.00  0.00    -0.006 A 
ATOM      6  C   LIG d   1       4.893  -4.860  -6.660  0.00  0.00     0.062 A 
ATOM      7  H   LIG d   1       5.888  -8.043  -7.295  0.00  0.00     0.064 H 
ATOM      8  H   LIG d   1       4.469  -7.673  -9.267  0.00  0.00     0.066 H 
ATOM      9  H   LIG d   1       3.584  -3.714  -7.927  0.00  0.00     0.066 H 
ENDROOT
BRANCH   1  10
ATOM     10  N   LIG d   1       6.359  -6.296  -5.372  0.00  0.00    -0.281 N 
ATOM     11  C   LIG d   1       7.699  -6.255  -5.496  0.00  0.00     0.248 C 
ATOM     12  O   LIG d   1       8.203  -5.940  -6.557  0.00  0.00    -0.270 OA
ATOM     13  H   LIG d   1       5.903  -6.493  -4.390  0.00  0.00     0.155 HD
BRANCH  11  14
ATOM     14  C   LIG d   1       8.559  -6.590  -4.341  0.00  0.00     0.037 A 
ATOM     15  C   LIG d   1       9.270  -5.584  -3.682  0.00  0.00    -0.049 A 
ATOM     16  C   LIG d   1      10.071  -5.897  -2.607  0.00  0.00    -0.046 A 
ATOM     17  H   LIG d   1       9.190  -4.559  -4.017  0.00  0.00     0.062 H 
ATOM     18  C   LIG d   1      10.174  -7.220  -2.176  0.00  0.00     0.061 A 
ATOM     19  H   LIG d   1      10.620  -5.119  -2.098  0.00  0.00     0.063 H 
ATOM     20  C   LIG d   1       9.467  -8.227  -2.834  0.00  0.00    -0.046 A 
ATOM     21  C   LIG d   1       8.660  -7.913  -3.906  0.00  0.00    -0.049 A 
ATOM     22  H   LIG d   1       9.548  -9.250  -2.501  0.00  0.00     0.063 H 
ATOM     23  H   LIG d   1       8.107  -8.691  -4.412  0.00  0.00     0.062 H 
BRANCH  18  24
ATOM     24  C   LIG d   1      11.038  -7.557  -1.020  0.00  0.00     0.270 C 
ATOM     25  N   LIG d   1      10.695  -7.184   0.179  0.00  0.00    -0.288 N 
ATOM     26  H   LIG d   1       9.765  -6.616   0.333  0.00  0.00     0.301 HD
ATOM     27  H   LIG d   1      11.335  -7.434   1.037  0.00  0.00     0.301 HD
BRANCH  24  28
ATOM     28  N   LIG d   1      12.203  -8.268  -1.214  0.00  0.00    -0.229 N 
BRANCH  28  29
ATOM     29  C   LIG d   1      12.372  -9.581  -0.585  0.00  0.00     0.069 C 
ATOM     30  H   LIG d   1      12.061 -10.367  -1.288  0.00  0.00     0.069 H 
ATOM     31  H   LIG d   1      11.753  -9.635   0.323  0.00  0.00     0.069 H 
ATOM     32  H   LIG d   1      13.429  -9.725  -0.318  0.00  0.00     0.069 H 
ENDBRANCH  28  29
BRANCH  28  33
ATOM     33  C   LIG d   1      13.270  -7.711  -2.047  0.00  0.00     0.069 C 
ATOM     34  H   LIG d   1      13.425  -6.654  -1.787  0.00  0.00     0.069 H 
ATOM     35  H   LIG d   1      12.987  -7.790  -3.107  0.00  0.00     0.069 H 
ATOM     36  H   LIG d   1      14.201  -8.272  -1.874  0.00  0.00     0.069 H 
ENDBRANCH  28  33
ENDBRANCH  24  28
ENDBRANCH  18  24
ENDBRANCH  11  14
ENDBRANCH   1  10
BRANCH   6  37
ATOM     37  C   LIG d   1       5.055  -3.785  -5.664  0.00  0.00     0.251 C 
ATOM     38  O   LIG d   1       6.162  -3.346  -5.418  0.00  0.00    -0.270 OA
ATOM     39  N   LIG d   1       3.977  -3.288  -5.026  0.00  0.00    -0.266 N 
ATOM     40  H   LIG d   1       2.987  -3.738  -5.188  0.00  0.00     0.157 HD
BRANCH  39  41
ATOM     41  C   LIG d   1       4.117  -2.206  -4.158  0.00  0.00     0.125 A 
ATOM     42  N   LIG d   1       4.235  -0.983  -4.650  0.00  0.00    -0.239 NA
ATOM     43  C   LIG d   1       4.369   0.069  -3.866  0.00  0.00     0.048 A 
ATOM     44  C   LIG d   1       4.393  -0.072  -2.491  0.00  0.00     0.059 A 
ATOM     45  H   LIG d   1       4.462   1.052  -4.302  0.00  0.00     0.085 H 
ATOM     46  C   LIG d   1       4.271  -1.340  -1.934  0.00  0.00    -0.039 A 
ATOM     47 CL   LIG d   1       4.569   1.320  -1.470  0.00  0.00    -0.082 Cl
ATOM     48  C   LIG d   1       4.132  -2.422  -2.785  0.00  0.00    -0.020 A 
ATOM     49  H   LIG d   1       4.291  -1.477  -0.864  0.00  0.00     0.063 H 
ATOM     50  H   LIG d   1       4.036  -3.422  -2.387  0.00  0.00     0.065 H 
ENDBRANCH  39  41
ENDBRANCH   6  37
BRANCH   4  51
ATOM     51  O   LIG d   1       3.158  -5.475  -9.810  0.00  0.00    -0.495 OA
BRANCH  51  52
ATOM     52  C   LIG d   1       3.733  -4.746 -10.897  0.00  0.00     0.079 C 
ATOM     53  H   LIG d   1       4.803  -4.581 -10.703  0.00  0.00     0.066 H 
ATOM     54  H   LIG d   1       3.225  -3.775 -10.995  0.00  0.00     0.066 H 
ATOM     55  H   LIG d   1       3.612  -5.319 -11.827  0.00  0.00     0.066 H 
ENDBRANCH  51  52
ENDBRANCH   4  51
TORSDOF 10
ENDMDL
MODEL 2
REMARK VINA RESULT:      -6.0      5.961     10.329
REMARK  10 active torsions:
REMARK  status: ('A' for Active; 'I' for Inactive)
REMARK    1  A    between atoms: C_1  and  N_2 
REMARK    2  A    between atoms: N_2  and  C_3 
REMARK    3  A    between atoms: N_2  and  C_4 
REMARK    4  A    between atoms: C_4  and  C_6 
REMARK    5  A    between atoms: C_9  and  C_12 
REMARK       I    between atoms: C_12  and  N_14 
REMARK    6  A    between atoms: N_14  and  C_15 
REMARK    7  A    between atoms: C_18  and  O_31 
REMARK    8  A    between atoms: C_20  and  C_21 
REMARK       I    between atoms: C_21  and  N_23 
REMARK    9  A    between atoms: N_23  and  C_24 
REMARK   10  A    between atoms: O_31  and  C_32 
ROOT
ATOM      1  C   LIG d   1       7.885   1.638  -8.842  0.00  0.00     0.046 A 
ATOM      2  C   LIG d   1       8.688   2.475  -9.605  0.00  0.00    -0.036 A 
ATOM      3  C   LIG d   1       9.744   3.143  -9.021  0.00  0.00    -0.018 A 
ATOM      4  C   LIG d   1      10.009   2.990  -7.665  0.00  0.00     0.121 A 
ATOM      5  C   LIG d   1       9.217   2.165  -6.890  0.00  0.00    -0.006 A 
ATOM      6  C   LIG d   1       8.144   1.483  -7.472  0.00  0.00     0.062 A 
ATOM      7  H   LIG d   1       8.487   2.599 -10.659  0.00  0.00     0.064 H 
ATOM      8  H   LIG d   1      10.368   3.790  -9.621  0.00  0.00     0.066 H 
ATOM      9  H   LIG d   1       9.425   2.047  -5.837  0.00  0.00     0.066 H 
ENDROOT
BRANCH   1  10
ATOM     10  N   LIG d   1       6.821   0.958  -9.433  0.00  0.00    -0.281 N 
ATOM     11  C   LIG d   1       5.620   1.557  -9.548  0.00  0.00     0.248 C 
ATOM     12  O   LIG d   1       5.488   2.722  -9.228  0.00  0.00    -0.270 OA
ATOM     13  H   LIG d   1       6.963  -0.068  -9.805  0.00  0.00     0.155 HD
BRANCH  11  14
ATOM     14  C   LIG d   1       4.462   0.798 -10.067  0.00  0.00     0.037 A 
ATOM     15  C   LIG d   1       3.317   0.645  -9.282  0.00  0.00    -0.049 A 
ATOM     16  C   LIG d   1       2.239  -0.063  -9.765  0.00  0.00    -0.046 A 
ATOM     17  H   LIG d   1       3.278   1.083  -8.294  0.00  0.00     0.062 H 
ATOM     18  C   LIG d   1       2.291  -0.628 -11.040  0.00  0.00     0.061 A 
ATOM     19  H   LIG d   1       1.355  -0.180  -9.158  0.00  0.00     0.063 H 
ATOM     20  C   LIG d   1       3.434  -0.478 -11.825  0.00  0.00    -0.046 A 
ATOM     21  C   LIG d   1       4.511   0.236 -11.344  0.00  0.00    -0.049 A 
ATOM     22  H   LIG d   1       3.474  -0.916 -12.811  0.00  0.00     0.063 H 
ATOM     23  H   LIG d   1       5.394   0.357 -11.954  0.00  0.00     0.062 H 
BRANCH  18  24
ATOM     24  C   LIG d   1       1.131  -1.390 -11.559  0.00  0.00     0.270 C 
ATOM     25  N   LIG d   1       0.010  -0.779 -11.809  0.00  0.00    -0.288 N 
ATOM     26  H   LIG d   1      -0.077   0.303 -11.633  0.00  0.00     0.301 HD
ATOM     27  H   LIG d   1      -0.851  -1.345 -12.195  0.00  0.00     0.301 HD
BRANCH  24  28
ATOM     28  N   LIG d   1       1.242  -2.746 -11.780  0.00  0.00    -0.229 N 
BRANCH  28  29
ATOM     29  C   LIG d   1       1.426  -3.659 -10.647  0.00  0.00     0.069 C 
ATOM     30  H   LIG d   1       0.721  -3.396  -9.846  0.00  0.00     0.069 H 
ATOM     31  H   LIG d   1       2.457  -3.573 -10.272  0.00  0.00     0.069 H 
ATOM     32  H   LIG d   1       1.240  -4.691 -10.976  0.00  0.00     0.069 H 
ENDBRANCH  28  29
BRANCH  28  33
ATOM     33  C   LIG d   1       1.176  -3.275 -13.144  0.00  0.00     0.069 C 
ATOM     34  H   LIG d   1       2.184  -3.569 -13.472  0.00  0.00     0.069 H 
ATOM     35  H   LIG d   1       0.782  -2.501 -13.818  0.00  0.00     0.069 H 
ATOM     36  H   LIG d   1       0.513  -4.152 -13.165  0.00  0.00     0.069 H 
ENDBRANCH  28  33
ENDBRANCH  24  28
ENDBRANCH  18  24
ENDBRANCH  11  14
ENDBRANCH   1  10
BRANCH   6  37
ATOM     37  C   LIG d   1       7.294   0.601  -6.651  0.00  0.00     0.251 C 
ATOM     38  O   LIG d   1       7.029  -0.521  -7.038  0.00  0.00    -0.270 OA
ATOM     39  N   LIG d   1       6.810   1.037  -5.471  0.00  0.00    -0.266 N 
ATOM     40  H   LIG d   1       6.983   2.078  -5.157  0.00  0.00     0.157 HD
BRANCH  39  41
ATOM     41  C   LIG d   1       6.090   0.172  -4.649  0.00  0.00     0.125 A 
ATOM     42  N   LIG d   1       4.767   0.182  -4.688  0.00  0.00    -0.239 NA
ATOM     43  C   LIG d   1       4.046  -0.620  -3.928  0.00  0.00     0.048 A 
ATOM     44  C   LIG d   1       4.654  -1.506  -3.057  0.00  0.00     0.059 A 
ATOM     45  H   LIG d   1       2.969  -0.585  -3.986  0.00  0.00     0.085 H 
ATOM     46  C   LIG d   1       6.041  -1.547  -2.988  0.00  0.00    -0.039 A 
ATOM     47 CL   LIG d   1       3.694  -2.556  -2.063  0.00  0.00    -0.082 Cl
ATOM     48  C   LIG d   1       6.768  -0.694  -3.798  0.00  0.00    -0.020 A 
ATOM     49  H   LIG d   1       6.540  -2.227  -2.313  0.00  0.00     0.063 H 
ATOM     50  H   LIG d   1       7.848  -0.699  -3.769  0.00  0.00     0.065 H 
ENDBRANCH  39  41
ENDBRANCH   6  37
BRANCH   4  51
ATOM     51  O   LIG d   1      11.053   3.653  -7.100  0.00  0.00    -0.495 OA
BRANCH  51  52
ATOM     52  C   LIG d   1      10.824   4.258  -5.825  0.00  0.00     0.079 C 
ATOM     53  H   LIG d   1      10.931   5.349  -5.913  0.00  0.00     0.066 H 
ATOM     54  H   LIG d   1      11.557   3.875  -5.101  0.00  0.00     0.066 H 
ATOM     55  H   LIG d   1       9.807   4.016  -5.482  0.00  0.00     0.066 H 
ENDBRANCH  51  52
ENDBRANCH   4  51
TORSDOF 10
ENDMDL
MODEL 3
REMARK VINA RESULT:      -5.9      6.838      8.559
REMARK  10 active torsions:
REMARK  status: ('A' for Active; 'I' for Inactive)
REMARK    1  A    between atoms: C_1  and  N_2 
REMARK    2  A    between atoms: N_2  and  C_3 
REMARK    3  A    between atoms: N_2  and  C_4 
REMARK    4  A    between atoms: C_4  and  C_6 
REMARK    5  A    between atoms: C_9  and  C_12 
REMARK       I    between atoms: C_12  and  N_14 
REMARK    6  A    between atoms: N_14  and  C_15 
REMARK    7  A    between atoms: C_18  and  O_31 
REMARK    8  A    between atoms: C_20  and  C_21 
REMARK       I    between atoms: C_21  and  N_23 
REMARK    9  A    between atoms: N_23  and  C_24 
REMARK   10  A    between atoms: O_31  and  C_32 
ROOT
ATOM      1  C   LIG d   1       4.197   0.693 -10.140  0.00  0.00     0.046 A 
ATOM      2  C   LIG d   1       4.022   0.405 -11.487  0.00  0.00    -0.036 A 
ATOM      3  C   LIG d   1       2.950  -0.359 -11.898  0.00  0.00    -0.018 A 
ATOM      4  C   LIG d   1       2.041  -0.852 -10.969  0.00  0.00     0.121 A 
ATOM      5  C   LIG d   1       2.203  -0.578  -9.624  0.00  0.00    -0.006 A 
ATOM      6  C   LIG d   1       3.286   0.195  -9.197  0.00  0.00     0.062 A 
ATOM      7  H   LIG d   1       4.726   0.784 -12.214  0.00  0.00     0.064 H 
ATOM      8  H   LIG d   1       2.817  -0.577 -12.948  0.00  0.00     0.066 H 
ATOM      9  H   LIG d   1       1.495  -0.962  -8.904  0.00  0.00     0.066 H 
ENDROOT
BRANCH   1  10
ATOM     10  N   LIG d   1       5.277   1.470  -9.724  0.00  0.00    -0.281 N 
ATOM     11  C   LIG d   1       6.359   0.882  -9.177  0.00  0.00     0.248 C 
ATOM     12  O   LIG d   1       6.435  -0.330  -9.133  0.00  0.00    -0.270 OA
ATOM     13  H   LIG d   1       5.247   2.563  -9.844  0.00  0.00     0.155 HD
BRANCH  11  14
ATOM     14  C   LIG d   1       7.453   1.711  -8.629  0.00  0.00     0.037 A 
ATOM     15  C   LIG d   1       8.107   2.636  -9.447  0.00  0.00    -0.049 A 
ATOM     16  C   LIG d   1       9.127   3.408  -8.937  0.00  0.00    -0.046 A 
ATOM     17  H   LIG d   1       7.811   2.745 -10.481  0.00  0.00     0.062 H 
ATOM     18  C   LIG d   1       9.509   3.265  -7.603  0.00  0.00     0.061 A 
ATOM     19  H   LIG d   1       9.632   4.122  -9.570  0.00  0.00     0.063 H 
ATOM     20  C   LIG d   1       8.858   2.341  -6.785  0.00  0.00    -0.046 A 
ATOM     21  C   LIG d   1       7.833   1.573  -7.293  0.00  0.00    -0.049 A 
ATOM     22  H   LIG d   1       9.155   2.231  -5.752  0.00  0.00     0.063 H 
ATOM     23  H   LIG d   1       7.325   0.861  -6.658  0.00  0.00     0.062 H 
BRANCH  18  24
ATOM     24  C   LIG d   1      10.607   4.095  -7.055  0.00  0.00     0.270 C 
ATOM     25  N   LIG d   1      11.845   3.779  -7.297  0.00  0.00    -0.288 N 
ATOM     26  H   LIG d   1      12.077   2.894  -7.909  0.00  0.00     0.301 HD
ATOM     27  H   LIG d   1      12.661   4.394  -6.890  0.00  0.00     0.301 HD
BRANCH  24  28
ATOM     28  N   LIG d   1      10.316   5.204  -6.289  0.00  0.00    -0.229 N 
BRANCH  28  29
ATOM     29  C   LIG d   1       9.947   6.465  -6.938  0.00  0.00     0.069 C 
ATOM     30  H   LIG d   1       8.852   6.545  -6.988  0.00  0.00     0.069 H 
ATOM     31  H   LIG d   1      10.364   6.489  -7.955  0.00  0.00     0.069 H 
ATOM     32  H   LIG d   1      10.350   7.307  -6.357  0.00  0.00     0.069 H 
ENDBRANCH  28  29
BRANCH  28  33
ATOM     33  C   LIG d   1      10.376   5.122  -4.828  0.00  0.00     0.069 C 
ATOM     34  H   LIG d   1      11.416   5.251  -4.496  0.00  0.00     0.069 H 
ATOM     35  H   LIG d   1      10.006   4.139  -4.500  0.00  0.00     0.069 H 
ATOM     36  H   LIG d   1       9.750   5.913  -4.390  0.00  0.00     0.069 H 
ENDBRANCH  28  33
ENDBRANCH  24  28
ENDBRANCH  18  24
ENDBRANCH  11  14
ENDBRANCH   1  10
BRANCH   6  37
ATOM     37  C   LIG d   1       3.465   0.490  -7.763  0.00  0.00     0.251 C 
ATOM     38  O   LIG d   1       3.100   1.559  -7.313  0.00  0.00    -0.270 OA
ATOM     39  N   LIG d   1       4.033  -0.424  -6.952  0.00  0.00    -0.266 N 
ATOM     40  H   LIG d   1       4.435  -1.358  -7.372  0.00  0.00     0.157 HD
BRANCH  39  41
ATOM     41  C   LIG d   1       4.113  -0.186  -5.580  0.00  0.00     0.125 A 
ATOM     42  N   LIG d   1       5.292   0.044  -5.024  0.00  0.00    -0.239 NA
ATOM     43  C   LIG d   1       5.412   0.273  -3.730  0.00  0.00     0.048 A 
ATOM     44  C   LIG d   1       4.303   0.282  -2.905  0.00  0.00     0.059 A 
ATOM     45  H   LIG d   1       6.390   0.457  -3.310  0.00  0.00     0.085 H 
ATOM     46  C   LIG d   1       3.047   0.046  -3.452  0.00  0.00    -0.039 A 
ATOM     47 CL   LIG d   1       4.476   0.587  -1.206  0.00  0.00    -0.082 Cl
ATOM     48  C   LIG d   1       2.954  -0.191  -4.812  0.00  0.00    -0.020 A 
ATOM     49  H   LIG d   1       2.165   0.043  -2.830  0.00  0.00     0.063 H 
ATOM     50  H   LIG d   1       1.994  -0.379  -5.271  0.00  0.00     0.065 H 
ENDBRANCH  39  41
ENDBRANCH   6  37
BRANCH   4  51
ATOM     51  O   LIG d   1       0.987  -1.604 -11.385  0.00  0.00    -0.495 OA
BRANCH  51  52
ATOM     52  C   LIG d   1       1.004  -2.050 -12.743  0.00  0.00     0.079 C 
ATOM     53  H   LIG d   1       0.119  -1.661 -13.268  0.00  0.00     0.066 H 
ATOM     54  H   LIG d   1       0.991  -3.149 -12.768  0.00  0.00     0.066 H 
ATOM     55  H   LIG d   1       1.915  -1.683 -13.238  0.00  0.00     0.066 H 
ENDBRANCH  51  52
ENDBRANCH   4  51
TORSDOF 10
ENDMDL
MODEL 4
REMARK VINA RESULT:      -5.9     10.913     14.347
REMARK  10 active torsions:
REMARK  status: ('A' for Active; 'I' for Inactive)
REMARK    1  A    between atoms: C_1  and  N_2 
REMARK    2  A    between atoms: N_2  and  C_3 
REMARK    3  A    between atoms: N_2  and  C_4 
REMARK    4  A    between atoms: C_4  and  C_6 
REMARK    5  A    between atoms: C_9  and  C_12 
REMARK       I    between atoms: C_12  and  N_14 
REMARK    6  A    between atoms: N_14  and  C_15 
REMARK    7  A    between atoms: C_18  and  O_31 
REMARK    8  A    between atoms: C_20  and  C_21 
REMARK       I    between atoms: C_21  and  N_23 
REMARK    9  A    between atoms: N_23  and  C_24 
REMARK   10  A    between atoms: O_31  and  C_32 
ROOT
ATOM      1  C   LIG d   1       9.358   9.986  -5.062  0.00  0.00     0.046 A 
ATOM      2  C   LIG d   1       9.080  10.875  -4.033  0.00  0.00    -0.036 A 
ATOM      3  C   LIG d   1       9.257  12.230  -4.223  0.00  0.00    -0.018 A 
ATOM      4  C   LIG d   1       9.718  12.715  -5.441  0.00  0.00     0.121 A 
ATOM      5  C   LIG d   1      10.004  11.843  -6.474  0.00  0.00    -0.006 A 
ATOM      6  C   LIG d   1       9.829  10.468  -6.292  0.00  0.00     0.062 A 
ATOM      7  H   LIG d   1       8.721  10.505  -3.084  0.00  0.00     0.064 H 
ATOM      8  H   LIG d   1       9.035  12.918  -3.420  0.00  0.00     0.066 H 
ATOM      9  H   LIG d   1      10.362  12.222  -7.420  0.00  0.00     0.066 H 
ENDROOT
BRANCH   1  10
ATOM     10  N   LIG d   1       9.174   8.617  -4.873  0.00  0.00    -0.281 N 
ATOM     11  C   LIG d   1      10.158   7.874  -4.330  0.00  0.00     0.248 C 
ATOM     12  O   LIG d   1      11.167   8.410  -3.916  0.00  0.00    -0.270 OA
ATOM     13  H   LIG d   1       8.225   8.143  -5.167  0.00  0.00     0.155 HD
BRANCH  11  14
ATOM     14  C   LIG d   1      10.010   6.406  -4.236  0.00  0.00     0.037 A 
ATOM     15  C   LIG d   1       9.836   5.645  -5.395  0.00  0.00    -0.049 A 
ATOM     16  C   LIG d   1       9.698   4.277  -5.307  0.00  0.00    -0.046 A 
ATOM     17  H   LIG d   1       9.809   6.130  -6.360  0.00  0.00     0.062 H 
ATOM     18  C   LIG d   1       9.731   3.652  -4.061  0.00  0.00     0.061 A 
ATOM     19  H   LIG d   1       9.563   3.690  -6.203  0.00  0.00     0.063 H 
ATOM     20  C   LIG d   1       9.904   4.411  -2.902  0.00  0.00    -0.046 A 
ATOM     21  C   LIG d   1      10.049   5.778  -2.990  0.00  0.00    -0.049 A 
ATOM     22  H   LIG d   1       9.929   3.926  -1.938  0.00  0.00     0.063 H 
ATOM     23  H   LIG d   1      10.188   6.365  -2.094  0.00  0.00     0.062 H 
BRANCH  18  24
ATOM     24  C   LIG d   1       9.582   2.181  -3.966  0.00  0.00     0.270 C 
ATOM     25  N   LIG d   1       8.476   1.667  -3.513  0.00  0.00    -0.288 N 
ATOM     26  H   LIG d   1       7.652   2.325  -3.199  0.00  0.00     0.301 HD
ATOM     27  H   LIG d   1       8.365   0.575  -3.443  0.00  0.00     0.301 HD
BRANCH  24  28
ATOM     28  N   LIG d   1      10.614   1.357  -4.361  0.00  0.00    -0.229 N 
BRANCH  28  29
ATOM     29  C   LIG d   1      11.943   1.513  -3.763  0.00  0.00     0.069 C 
ATOM     30  H   LIG d   1      12.362   0.522  -3.536  0.00  0.00     0.069 H 
ATOM     31  H   LIG d   1      11.861   2.098  -2.835  0.00  0.00     0.069 H 
ATOM     32  H   LIG d   1      12.603   2.037  -4.470  0.00  0.00     0.069 H 
ENDBRANCH  28  29
BRANCH  28  33
ATOM     33  C   LIG d   1      10.384   0.328  -5.377  0.00  0.00     0.069 C 
ATOM     34  H   LIG d   1       9.426   0.519  -5.882  0.00  0.00     0.069 H 
ATOM     35  H   LIG d   1      10.354  -0.661  -4.897  0.00  0.00     0.069 H 
ATOM     36  H   LIG d   1      11.199   0.353  -6.115  0.00  0.00     0.069 H 
ENDBRANCH  28  33
ENDBRANCH  24  28
ENDBRANCH  18  24
ENDBRANCH  11  14
ENDBRANCH   1  10
BRANCH   6  37
ATOM     37  C   LIG d   1      10.132   9.531  -7.390  0.00  0.00     0.251 C 
ATOM     38  O   LIG d   1      11.242   9.043  -7.483  0.00  0.00    -0.270 OA
ATOM     39  N   LIG d   1       9.180   9.216  -8.290  0.00  0.00    -0.266 N 
ATOM     40  H   LIG d   1       8.201   9.718  -8.254  0.00  0.00     0.157 HD
BRANCH  39  41
ATOM     41  C   LIG d   1       9.435   8.257  -9.269  0.00  0.00     0.125 A 
ATOM     42  N   LIG d   1      10.020   8.616 -10.401  0.00  0.00    -0.239 NA
ATOM     43  C   LIG d   1      10.280   7.740 -11.353  0.00  0.00     0.048 A 
ATOM     44  C   LIG d   1       9.948   6.407 -11.200  0.00  0.00     0.059 A 
ATOM     45  H   LIG d   1      10.758   8.069 -12.264  0.00  0.00     0.085 H 
ATOM     46  C   LIG d   1       9.333   5.990 -10.025  0.00  0.00    -0.039 A 
ATOM     47 CL   LIG d   1      10.296   5.266 -12.460  0.00  0.00    -0.082 Cl
ATOM     48  C   LIG d   1       9.074   6.933  -9.046  0.00  0.00    -0.020 A 
ATOM     49  H   LIG d   1       9.059   4.956  -9.882  0.00  0.00     0.063 H 
ATOM     50  H   LIG d   1       8.597   6.644  -8.121  0.00  0.00     0.065 H 
ENDBRANCH  39  41
ENDBRANCH   6  37
BRANCH   4  51
ATOM     51  O   LIG d   1       9.889  14.053  -5.617  0.00  0.00    -0.495 OA
BRANCH  51  52
ATOM     52  C   LIG d   1       9.902  14.534  -6.963  0.00  0.00     0.079 C 
ATOM     53  H   LIG d   1       9.127  15.305  -7.084  0.00  0.00     0.066 H 
ATOM     54  H   LIG d   1       9.701  13.700  -7.651  0.00  0.00     0.066 H 
ATOM     55  H   LIG d   1      10.888  14.966  -7.187  0.00  0.00     0.066 H 
ENDBRANCH  51  52
ENDBRANCH   4  51
TORSDOF 10
ENDMDL
MODEL 5
REMARK VINA RESULT:      -5.8     11.598     15.648
REMARK  10 active torsions:
REMARK  status: ('A' for Active; 'I' for Inactive)
REMARK    1  A    between atoms: C_1  and  N_2 
REMARK    2  A    between atoms: N_2  and  C_3 
REMARK    3  A    between atoms: N_2  and  C_4 
REMARK    4  A    between atoms: C_4  and  C_6 
REMARK    5  A    between atoms: C_9  and  C_12 
REMARK       I    between atoms: C_12  and  N_14 
REMARK    6  A    between atoms: N_14  and  C_15 
REMARK    7  A    between atoms: C_18  and  O_31 
REMARK    8  A    between atoms: C_20  and  C_21 
REMARK       I    between atoms: C_21  and  N_23 
REMARK    9  A    between atoms: N_23  and  C_24 
REMARK   10  A    between atoms: O_31  and  C_32 
ROOT
ATOM      1  C   LIG d   1      11.462   8.625  -0.145  0.00  0.00     0.046 A 
ATOM      2  C   LIG d   1      11.617   8.121   1.139  0.00  0.00    -0.036 A 
ATOM      3  C   LIG d   1      11.810   8.980   2.201  0.00  0.00    -0.018 A 
ATOM      4  C   LIG d   1      11.856  10.354   1.994  0.00  0.00     0.121 A 
ATOM      5  C   LIG d   1      11.709  10.871   0.722  0.00  0.00    -0.006 A 
ATOM      6  C   LIG d   1      11.513  10.010  -0.361  0.00  0.00     0.062 A 
ATOM      7  H   LIG d   1      11.582   7.054   1.307  0.00  0.00     0.064 H 
ATOM      8  H   LIG d   1      11.926   8.583   3.199  0.00  0.00     0.066 H 
ATOM      9  H   LIG d   1      11.745  11.939   0.563  0.00  0.00     0.066 H 
ENDROOT
BRANCH   1  10
ATOM     10  N   LIG d   1      11.261   7.757  -1.218  0.00  0.00    -0.281 N 
ATOM     11  C   LIG d   1      10.037   7.246  -1.450  0.00  0.00     0.248 C 
ATOM     12  O   LIG d   1       9.088   7.615  -0.786  0.00  0.00    -0.270 OA
ATOM     13  H   LIG d   1      12.102   7.491  -1.875  0.00  0.00     0.155 HD
BRANCH  11  14
ATOM     14  C   LIG d   1       9.846   6.237  -2.514  0.00  0.00     0.037 A 
ATOM     15  C   LIG d   1      10.068   4.885  -2.243  0.00  0.00    -0.049 A 
ATOM     16  C   LIG d   1       9.891   3.945  -3.234  0.00  0.00    -0.046 A 
ATOM     17  H   LIG d   1      10.379   4.577  -1.255  0.00  0.00     0.062 H 
ATOM     18  C   LIG d   1       9.490   4.344  -4.510  0.00  0.00     0.061 A 
ATOM     19  H   LIG d   1      10.063   2.901  -3.024  0.00  0.00     0.063 H 
ATOM     20  C   LIG d   1       9.269   5.695  -4.782  0.00  0.00    -0.046 A 
ATOM     21  C   LIG d   1       9.440   6.635  -3.789  0.00  0.00    -0.049 A 
ATOM     22  H   LIG d   1       8.960   6.003  -5.770  0.00  0.00     0.063 H 
ATOM     23  H   LIG d   1       9.264   7.680  -3.998  0.00  0.00     0.062 H 
BRANCH  18  24
ATOM     24  C   LIG d   1       9.300   3.334  -5.576  0.00  0.00     0.270 C 
ATOM     25  N   LIG d   1       8.447   2.366  -5.411  0.00  0.00    -0.288 N 
ATOM     26  H   LIG d   1       7.867   2.297  -4.479  0.00  0.00     0.301 HD
ATOM     27  H   LIG d   1       8.306   1.615  -6.203  0.00  0.00     0.301 HD
BRANCH  24  28
ATOM     28  N   LIG d   1      10.027   3.420  -6.744  0.00  0.00    -0.229 N 
BRANCH  28  29
ATOM     29  C   LIG d   1      11.490   3.333  -6.703  0.00  0.00     0.069 C 
ATOM     30  H   LIG d   1      11.798   2.746  -5.826  0.00  0.00     0.069 H 
ATOM     31  H   LIG d   1      11.916   4.345  -6.636  0.00  0.00     0.069 H 
ATOM     32  H   LIG d   1      11.853   2.842  -7.618  0.00  0.00     0.069 H 
ENDBRANCH  28  29
BRANCH  28  33
ATOM     33  C   LIG d   1       9.339   3.601  -8.024  0.00  0.00     0.069 C 
ATOM     34  H   LIG d   1       8.320   3.971  -7.843  0.00  0.00     0.069 H 
ATOM     35  H   LIG d   1       9.291   2.639  -8.554  0.00  0.00     0.069 H 
ATOM     36  H   LIG d   1       9.891   4.329  -8.637  0.00  0.00     0.069 H 
ENDBRANCH  28  33
ENDBRANCH  24  28
ENDBRANCH  18  24
ENDBRANCH  11  14
ENDBRANCH   1  10
BRANCH   6  37
ATOM     37  C   LIG d   1      11.355  10.555  -1.722  0.00  0.00     0.251 C 
ATOM     38  O   LIG d   1      12.308  10.587  -2.478  0.00  0.00    -0.270 OA
ATOM     39  N   LIG d   1      10.157  11.017  -2.129  0.00  0.00    -0.266 N 
ATOM     40  H   LIG d   1       9.316  11.062  -1.422  0.00  0.00     0.157 HD
BRANCH  39  41
ATOM     41  C   LIG d   1       9.983  11.441  -3.446  0.00  0.00     0.125 A 
ATOM     42  N   LIG d   1      10.084  12.728  -3.738  0.00  0.00    -0.239 NA
ATOM     43  C   LIG d   1       9.926  13.172  -4.971  0.00  0.00     0.048 A 
ATOM     44  C   LIG d   1       9.648  12.301  -6.007  0.00  0.00     0.059 A 
ATOM     45  H   LIG d   1      10.015  14.229  -5.173  0.00  0.00     0.085 H 
ATOM     46  C   LIG d   1       9.535  10.941  -5.741  0.00  0.00    -0.039 A 
ATOM     47 CL   LIG d   1       9.444  12.898  -7.624  0.00  0.00    -0.082 Cl
ATOM     48  C   LIG d   1       9.706  10.508  -4.439  0.00  0.00    -0.020 A 
ATOM     49  H   LIG d   1       9.314  10.240  -6.532  0.00  0.00     0.063 H 
ATOM     50  H   LIG d   1       9.624   9.458  -4.196  0.00  0.00     0.065 H 
ENDBRANCH  39  41
ENDBRANCH   6  37
BRANCH   4  51
ATOM     51  O   LIG d   1      12.046  11.192   3.049  0.00  0.00    -0.495 OA
BRANCH  51  52
ATOM     52  C   LIG d   1      12.965  10.767   4.058  0.00  0.00     0.079 C 
ATOM     53  H   LIG d   1      13.994  10.875   3.684  0.00  0.00     0.066 H 
ATOM     54  H   LIG d   1      12.774   9.713   4.307  0.00  0.00     0.066 H 
ATOM     55  H   LIG d   1      12.834  11.386   4.957  0.00  0.00     0.066 H 
ENDBRANCH  51  52
ENDBRANCH   4  51
TORSDOF 10
ENDMDL
MODEL 6
REMARK VINA RESULT:      -5.8     10.469     14.301
REMARK  10 active torsions:
REMARK  status: ('A' for Active; 'I' for Inactive)
REMARK    1  A    between atoms: C_1  and  N_2 
REMARK    2  A    between atoms: N_2  and  C_3 
REMARK    3  A    between atoms: N_2  and  C_4 
REMARK    4  A    between atoms: C_4  and  C_6 
REMARK    5  A    between atoms: C_9  and  C_12 
REMARK       I    between atoms: C_12  and  N_14 
REMARK    6  A    between atoms: N_14  and  C_15 
REMARK    7  A    between atoms: C_18  and  O_31 
REMARK    8  A    between atoms: C_20  and  C_21 
REMARK       I    between atoms: C_21  and  N_23 
REMARK    9  A    between atoms: N_23  and  C_24 
REMARK   10  A    between atoms: O_31  and  C_32 
ROOT
ATOM      1  C   LIG d   1       9.742   8.914  -1.727  0.00  0.00     0.046 A 
ATOM      2  C   LIG d   1       9.534   9.237  -0.393  0.00  0.00    -0.036 A 
ATOM      3  C   LIG d   1       9.785  10.516   0.057  0.00  0.00    -0.018 A 
ATOM      4  C   LIG d   1      10.253  11.490  -0.818  0.00  0.00     0.121 A 
ATOM      5  C   LIG d   1      10.470  11.184  -2.148  0.00  0.00    -0.006 A 
ATOM      6  C   LIG d   1      10.219   9.891  -2.614  0.00  0.00     0.062 A 
ATOM      7  H   LIG d   1       9.171   8.485   0.292  0.00  0.00     0.064 H 
ATOM      8  H   LIG d   1       9.618  10.763   1.096  0.00  0.00     0.066 H 
ATOM      9  H   LIG d   1      10.833  11.943  -2.826  0.00  0.00     0.066 H 
ENDROOT
BRANCH   1  10
ATOM     10  N   LIG d   1       9.483   7.623  -2.184  0.00  0.00    -0.281 N 
ATOM     11  C   LIG d   1      10.459   6.694  -2.166  0.00  0.00     0.248 C 
ATOM     12  O   LIG d   1      11.535   6.952  -1.663  0.00  0.00    -0.270 OA
ATOM     13  H   LIG d   1       8.482   7.362  -2.559  0.00  0.00     0.155 HD
BRANCH  11  14
ATOM     14  C   LIG d   1      10.220   5.360  -2.757  0.00  0.00     0.037 A 
ATOM     15  C   LIG d   1       9.471   5.238  -3.929  0.00  0.00    -0.049 A 
ATOM     16  C   LIG d   1       9.249   3.995  -4.480  0.00  0.00    -0.046 A 
ATOM     17  H   LIG d   1       9.066   6.120  -4.405  0.00  0.00     0.062 H 
ATOM     18  C   LIG d   1       9.772   2.857  -3.865  0.00  0.00     0.061 A 
ATOM     19  H   LIG d   1       8.670   3.902  -5.386  0.00  0.00     0.063 H 
ATOM     20  C   LIG d   1      10.519   2.977  -2.693  0.00  0.00    -0.046 A 
ATOM     21  C   LIG d   1      10.747   4.221  -2.145  0.00  0.00    -0.049 A 
ATOM     22  H   LIG d   1      10.922   2.096  -2.217  0.00  0.00     0.063 H 
ATOM     23  H   LIG d   1      11.330   4.315  -1.241  0.00  0.00     0.062 H 
BRANCH  18  24
ATOM     24  C   LIG d   1       9.532   1.520  -4.456  0.00  0.00     0.270 C 
ATOM     25  N   LIG d   1      10.521   0.690  -4.611  0.00  0.00    -0.288 N 
ATOM     26  H   LIG d   1      11.537   0.981  -4.304  0.00  0.00     0.301 HD
ATOM     27  H   LIG d   1      10.344  -0.303  -5.049  0.00  0.00     0.301 HD
BRANCH  24  28
ATOM     28  N   LIG d   1       8.259   1.155  -4.841  0.00  0.00    -0.229 N 
BRANCH  28  29
ATOM     29  C   LIG d   1       7.226   0.928  -3.826  0.00  0.00     0.069 C 
ATOM     30  H   LIG d   1       6.477   1.731  -3.879  0.00  0.00     0.069 H 
ATOM     31  H   LIG d   1       7.687   0.922  -2.828  0.00  0.00     0.069 H 
ATOM     32  H   LIG d   1       6.738  -0.040  -4.011  0.00  0.00     0.069 H 
ENDBRANCH  28  29
BRANCH  28  33
ATOM     33  C   LIG d   1       7.940   0.994  -6.261  0.00  0.00     0.069 C 
ATOM     34  H   LIG d   1       7.495   0.002  -6.426  0.00  0.00     0.069 H 
ATOM     35  H   LIG d   1       8.860   1.087  -6.856  0.00  0.00     0.069 H 
ATOM     36  H   LIG d   1       7.226   1.773  -6.566  0.00  0.00     0.069 H 
ENDBRANCH  28  33
ENDBRANCH  24  28
ENDBRANCH  18  24
ENDBRANCH  11  14
ENDBRANCH   1  10
BRANCH   6  37
ATOM     37  C   LIG d   1      10.449   9.557  -4.032  0.00  0.00     0.251 C 
ATOM     38  O   LIG d   1      11.528   9.124  -4.388  0.00  0.00    -0.270 OA
ATOM     39  N   LIG d   1       9.463   9.732  -4.934  0.00  0.00    -0.266 N 
ATOM     40  H   LIG d   1       8.514  10.198  -4.629  0.00  0.00     0.157 HD
BRANCH  39  41
ATOM     41  C   LIG d   1       9.646   9.325  -6.255  0.00  0.00     0.125 A 
ATOM     42  N   LIG d   1      10.268  10.125  -7.106  0.00  0.00    -0.239 NA
ATOM     43  C   LIG d   1      10.462   9.780  -8.365  0.00  0.00     0.048 A 
ATOM     44  C   LIG d   1      10.019   8.560  -8.841  0.00  0.00     0.059 A 
ATOM     45  H   LIG d   1      10.973  10.458  -9.032  0.00  0.00     0.085 H 
ATOM     46  C   LIG d   1       9.363   7.691  -7.978  0.00  0.00    -0.039 A 
ATOM     47 CL   LIG d   1      10.282   8.118 -10.498  0.00  0.00    -0.082 Cl
ATOM     48  C   LIG d   1       9.175   8.083  -6.664  0.00  0.00    -0.020 A 
ATOM     49  H   LIG d   1       9.003   6.734  -8.326  0.00  0.00     0.063 H 
ATOM     50  H   LIG d   1       8.668   7.433  -5.966  0.00  0.00     0.065 H 
ENDBRANCH  39  41
ENDBRANCH   6  37
BRANCH   4  51
ATOM     51  O   LIG d   1      10.497  12.749  -0.363  0.00  0.00    -0.495 OA
BRANCH  51  52
ATOM     52  C   LIG d   1      10.142  13.831  -1.226  0.00  0.00     0.079 C 
ATOM     53  H   LIG d   1      11.052  14.364  -1.538  0.00  0.00     0.066 H 
ATOM     54  H   LIG d   1       9.476  14.523  -0.690  0.00  0.00     0.066 H 
ATOM     55  H   LIG d   1       9.624  13.437  -2.113  0.00  0.00     0.066 H 
ENDBRANCH  51  52
ENDBRANCH   4  51
TORSDOF 10
ENDMDL
MODEL 7
REMARK VINA RESULT:      -5.7     10.673     14.465
REMARK  10 active torsions:
REMARK  status: ('A' for Active; 'I' for Inactive)
REMARK    1  A    between atoms: C_1  and  N_2 
REMARK    2  A    between atoms: N_2  and  C_3 
REMARK    3  A    between atoms: N_2  and  C_4 
REMARK    4  A    between atoms: C_4  and  C_6 
REMARK    5  A    between atoms: C_9  and  C_12 
REMARK       I    between atoms: C_12  and  N_14 
REMARK    6  A    between atoms: N_14  and  C_15 
REMARK    7  A    between atoms: C_18  and  O_31 
REMARK    8  A    between atoms: C_20  and  C_21 
REMARK       I    between atoms: C_21  and  N_23 
REMARK    9  A    between atoms: N_23  and  C_24 
REMARK   10  A    between atoms: O_31  and  C_32 
ROOT
ATOM      1  C   LIG d   1       9.983   8.156  -0.726  0.00  0.00     0.046 A 
ATOM      2  C   LIG d   1       8.981   9.117  -0.758  0.00  0.00    -0.036 A 
ATOM      3  C   LIG d   1       9.160  10.325  -0.116  0.00  0.00    -0.018 A 
ATOM      4  C   LIG d   1      10.339  10.588   0.571  0.00  0.00     0.121 A 
ATOM      5  C   LIG d   1      11.344   9.642   0.617  0.00  0.00    -0.006 A 
ATOM      6  C   LIG d   1      11.173   8.414  -0.030  0.00  0.00     0.062 A 
ATOM      7  H   LIG d   1       8.062   8.918  -1.290  0.00  0.00     0.064 H 
ATOM      8  H   LIG d   1       8.378  11.070  -0.147  0.00  0.00     0.066 H 
ATOM      9  H   LIG d   1      12.260   9.849   1.151  0.00  0.00     0.066 H 
ENDROOT
BRANCH   1  10
ATOM     10  N   LIG d   1       9.806   6.938  -1.379  0.00  0.00    -0.281 N 
ATOM     11  C   LIG d   1      10.144   6.815  -2.678  0.00  0.00     0.248 C 
ATOM     12  O   LIG d   1      10.692   7.735  -3.253  0.00  0.00    -0.270 OA
ATOM     13  H   LIG d   1       9.392   6.077  -0.835  0.00  0.00     0.155 HD
BRANCH  11  14
ATOM     14  C   LIG d   1       9.849   5.561  -3.403  0.00  0.00     0.037 A 
ATOM     15  C   LIG d   1       9.505   5.600  -4.756  0.00  0.00    -0.049 A 
ATOM     16  C   LIG d   1       9.230   4.431  -5.432  0.00  0.00    -0.046 A 
ATOM     17  H   LIG d   1       9.456   6.548  -5.274  0.00  0.00     0.062 H 
ATOM     18  C   LIG d   1       9.294   3.208  -4.763  0.00  0.00     0.061 A 
ATOM     19  H   LIG d   1       8.965   4.462  -6.477  0.00  0.00     0.063 H 
ATOM     20  C   LIG d   1       9.636   3.168  -3.411  0.00  0.00    -0.046 A 
ATOM     21  C   LIG d   1       9.918   4.336  -2.736  0.00  0.00    -0.049 A 
ATOM     22  H   LIG d   1       9.684   2.221  -2.894  0.00  0.00     0.063 H 
ATOM     23  H   LIG d   1      10.188   4.305  -1.691  0.00  0.00     0.062 H 
BRANCH  18  24
ATOM     24  C   LIG d   1       8.997   1.952  -5.489  0.00  0.00     0.270 C 
ATOM     25  N   LIG d   1       7.785   1.702  -5.890  0.00  0.00    -0.288 N 
ATOM     26  H   LIG d   1       6.980   2.425  -5.689  0.00  0.00     0.301 HD
ATOM     27  H   LIG d   1       7.564   0.770  -6.429  0.00  0.00     0.301 HD
BRANCH  24  28
ATOM     28  N   LIG d   1      10.007   1.047  -5.741  0.00  0.00    -0.229 N 
BRANCH  28  29
ATOM     29  C   LIG d   1      11.235   1.489  -6.407  0.00  0.00     0.069 C 
ATOM     30  H   LIG d   1      11.523   0.753  -7.172  0.00  0.00     0.069 H 
ATOM     31  H   LIG d   1      12.041   1.581  -5.665  0.00  0.00     0.069 H 
ATOM     32  H   LIG d   1      11.062   2.465  -6.884  0.00  0.00     0.069 H 
ENDBRANCH  28  29
BRANCH  28  33
ATOM     33  C   LIG d   1       9.851  -0.354  -5.345  0.00  0.00     0.069 C 
ATOM     34  H   LIG d   1      10.160  -0.475  -4.296  0.00  0.00     0.069 H 
ATOM     35  H   LIG d   1      10.479  -0.989  -5.987  0.00  0.00     0.069 H 
ATOM     36  H   LIG d   1       8.797  -0.651  -5.454  0.00  0.00     0.069 H 
ENDBRANCH  28  33
ENDBRANCH  24  28
ENDBRANCH  18  24
ENDBRANCH  11  14
ENDBRANCH   1  10
BRANCH   6  37
ATOM     37  C   LIG d   1      12.242   7.399   0.015  0.00  0.00     0.251 C 
ATOM     38  O   LIG d   1      12.155   6.458   0.780  0.00  0.00    -0.270 OA
ATOM     39  N   LIG d   1      13.315   7.513  -0.792  0.00  0.00    -0.266 N 
ATOM     40  H   LIG d   1      13.434   8.404  -1.426  0.00  0.00     0.157 HD
BRANCH  39  41
ATOM     41  C   LIG d   1      14.277   6.504  -0.821  0.00  0.00     0.125 A 
ATOM     42  N   LIG d   1      15.363   6.613  -0.073  0.00  0.00    -0.239 NA
ATOM     43  C   LIG d   1      16.298   5.681  -0.071  0.00  0.00     0.048 A 
ATOM     44  C   LIG d   1      16.173   4.551  -0.856  0.00  0.00     0.059 A 
ATOM     45  H   LIG d   1      17.171   5.804   0.552  0.00  0.00     0.085 H 
ATOM     46  C   LIG d   1      15.046   4.399  -1.655  0.00  0.00    -0.039 A 
ATOM     47 CL   LIG d   1      17.409   3.333  -0.843  0.00  0.00    -0.082 Cl
ATOM     48  C   LIG d   1      14.084   5.393  -1.635  0.00  0.00    -0.020 A 
ATOM     49  H   LIG d   1      14.926   3.527  -2.281  0.00  0.00     0.063 H 
ATOM     50  H   LIG d   1      13.196   5.308  -2.244  0.00  0.00     0.065 H 
ENDBRANCH  39  41
ENDBRANCH   6  37
BRANCH   4  51
ATOM     51  O   LIG d   1      10.504  11.783   1.200  0.00  0.00    -0.495 OA
BRANCH  51  52
ATOM     52  C   LIG d   1      10.539  12.951   0.377  0.00  0.00     0.079 C 
ATOM     53  H   LIG d   1      11.313  12.831  -0.395  0.00  0.00     0.066 H 
ATOM     54  H   LIG d   1      10.772  13.829   0.997  0.00  0.00     0.066 H 
ATOM     55  H   LIG d   1       9.560  13.090  -0.103  0.00  0.00     0.066 H 
ENDBRANCH  51  52
ENDBRANCH   4  51
TORSDOF 10
ENDMDL
MODEL 8
REMARK VINA RESULT:      -5.7     12.304     15.263
REMARK  10 active torsions:
REMARK  status: ('A' for Active; 'I' for Inactive)
REMARK    1  A    between atoms: C_1  and  N_2 
REMARK    2  A    between atoms: N_2  and  C_3 
REMARK    3  A    between atoms: N_2  and  C_4 
REMARK    4  A    between atoms: C_4  and  C_6 
REMARK    5  A    between atoms: C_9  and  C_12 
REMARK       I    between atoms: C_12  and  N_14 
REMARK    6  A    between atoms: N_14  and  C_15 
REMARK    7  A    between atoms: C_18  and  O_31 
REMARK    8  A    between atoms: C_20  and  C_21 
REMARK       I    between atoms: C_21  and  N_23 
REMARK    9  A    between atoms: N_23  and  C_24 
REMARK   10  A    between atoms: O_31  and  C_32 
ROOT
ATOM      1  C   LIG d   1      10.761   6.724  -3.011  0.00  0.00     0.046 A 
ATOM      2  C   LIG d   1      10.746   5.539  -2.287  0.00  0.00    -0.036 A 
ATOM      3  C   LIG d   1      10.725   5.571  -0.909  0.00  0.00    -0.018 A 
ATOM      4  C   LIG d   1      10.724   6.786  -0.234  0.00  0.00     0.121 A 
ATOM      5  C   LIG d   1      10.744   7.974  -0.939  0.00  0.00    -0.006 A 
ATOM      6  C   LIG d   1      10.766   7.953  -2.336  0.00  0.00     0.062 A 
ATOM      7  H   LIG d   1      10.747   4.591  -2.806  0.00  0.00     0.064 H 
ATOM      8  H   LIG d   1      10.710   4.646  -0.350  0.00  0.00     0.066 H 
ATOM      9  H   LIG d   1      10.743   8.917  -0.412  0.00  0.00     0.066 H 
ENDROOT
BRANCH   1  10
ATOM     10  N   LIG d   1      10.776   6.692  -4.405  0.00  0.00    -0.281 N 
ATOM     11  C   LIG d   1       9.617   6.690  -5.091  0.00  0.00     0.248 C 
ATOM     12  O   LIG d   1       8.561   6.813  -4.501  0.00  0.00    -0.270 OA
ATOM     13  H   LIG d   1      11.735   6.670  -4.945  0.00  0.00     0.155 HD
BRANCH  11  14
ATOM     14  C   LIG d   1       9.628   6.539  -6.561  0.00  0.00     0.037 A 
ATOM     15  C   LIG d   1       9.807   5.277  -7.134  0.00  0.00    -0.049 A 
ATOM     16  C   LIG d   1       9.818   5.137  -8.504  0.00  0.00    -0.046 A 
ATOM     17  H   LIG d   1       9.937   4.411  -6.501  0.00  0.00     0.062 H 
ATOM     18  C   LIG d   1       9.650   6.255  -9.320  0.00  0.00     0.061 A 
ATOM     19  H   LIG d   1       9.957   4.162  -8.945  0.00  0.00     0.063 H 
ATOM     20  C   LIG d   1       9.473   7.517  -8.751  0.00  0.00    -0.046 A 
ATOM     21  C   LIG d   1       9.455   7.657  -7.380  0.00  0.00    -0.049 A 
ATOM     22  H   LIG d   1       9.344   8.382  -9.383  0.00  0.00     0.063 H 
ATOM     23  H   LIG d   1       9.312   8.632  -6.938  0.00  0.00     0.062 H 
BRANCH  18  24
ATOM     24  C   LIG d   1       9.663   6.105 -10.794  0.00  0.00     0.270 C 
ATOM     25  N   LIG d   1       8.679   6.574 -11.505  0.00  0.00    -0.288 N 
ATOM     26  H   LIG d   1       7.837   7.081 -11.011  0.00  0.00     0.301 HD
ATOM     27  H   LIG d   1       8.689   6.462 -12.599  0.00  0.00     0.301 HD
BRANCH  24  28
ATOM     28  N   LIG d   1      10.719   5.469 -11.412  0.00  0.00    -0.229 N 
BRANCH  28  29
ATOM     29  C   LIG d   1      10.500   4.199 -12.110  0.00  0.00     0.069 C 
ATOM     30  H   LIG d   1      11.406   3.927 -12.671  0.00  0.00     0.069 H 
ATOM     31  H   LIG d   1       9.656   4.304 -12.807  0.00  0.00     0.069 H 
ATOM     32  H   LIG d   1      10.273   3.412 -11.376  0.00  0.00     0.069 H 
ENDBRANCH  28  29
BRANCH  28  33
ATOM     33  C   LIG d   1      12.057   6.061 -11.371  0.00  0.00     0.069 C 
ATOM     34  H   LIG d   1      12.085   6.949 -12.020  0.00  0.00     0.069 H 
ATOM     35  H   LIG d   1      12.795   5.326 -11.724  0.00  0.00     0.069 H 
ATOM     36  H   LIG d   1      12.297   6.354 -10.338  0.00  0.00     0.069 H 
ENDBRANCH  28  33
ENDBRANCH  24  28
ENDBRANCH  18  24
ENDBRANCH  11  14
ENDBRANCH   1  10
BRANCH   6  37
ATOM     37  C   LIG d   1      10.787   9.217  -3.095  0.00  0.00     0.251 C 
ATOM     38  O   LIG d   1      11.848   9.702  -3.438  0.00  0.00    -0.270 OA
ATOM     39  N   LIG d   1       9.632   9.835  -3.410  0.00  0.00    -0.266 N 
ATOM     40  H   LIG d   1       8.676   9.439  -3.033  0.00  0.00     0.157 HD
BRANCH  39  41
ATOM     41  C   LIG d   1       9.646  10.975  -4.212  0.00  0.00     0.125 A 
ATOM     42  N   LIG d   1       9.676  12.172  -3.646  0.00  0.00    -0.239 NA
ATOM     43  C   LIG d   1       9.690  13.277  -4.367  0.00  0.00     0.048 A 
ATOM     44  C   LIG d   1       9.674  13.222  -5.748  0.00  0.00     0.059 A 
ATOM     45  H   LIG d   1       9.716  14.237  -3.872  0.00  0.00     0.085 H 
ATOM     46  C   LIG d   1       9.642  11.984  -6.379  0.00  0.00    -0.039 A 
ATOM     47 CL   LIG d   1       9.694  14.684  -6.684  0.00  0.00    -0.082 Cl
ATOM     48  C   LIG d   1       9.628  10.844  -5.595  0.00  0.00    -0.020 A 
ATOM     49  H   LIG d   1       9.624  11.914  -7.457  0.00  0.00     0.063 H 
ATOM     50  H   LIG d   1       9.603   9.866  -6.053  0.00  0.00     0.065 H 
ENDBRANCH  39  41
ENDBRANCH   6  37
BRANCH   4  51
ATOM     51  O   LIG d   1      10.703   6.805   1.127  0.00  0.00    -0.495 OA
BRANCH  51  52
ATOM     52  C   LIG d   1      10.942   5.566   1.797  0.00  0.00     0.079 C 
ATOM     53  H   LIG d   1      10.035   4.946   1.756  0.00  0.00     0.066 H 
ATOM     54  H   LIG d   1      11.205   5.763   2.847  0.00  0.00     0.066 H 
ATOM     55  H   LIG d   1      11.771   5.037   1.304  0.00  0.00     0.066 H 
ENDBRANCH  51  52
ENDBRANCH   4  51
TORSDOF 10
ENDMDL
MODEL 9
REMARK VINA RESULT:      -5.7      6.502      9.803
REMARK  10 active torsions:
REMARK  status: ('A' for Active; 'I' for Inactive)
REMARK    1  A    between atoms: C_1  and  N_2 
REMARK    2  A    between atoms: N_2  and  C_3 
REMARK    3  A    between atoms: N_2  and  C_4 
REMARK    4  A    between atoms: C_4  and  C_6 
REMARK    5  A    between atoms: C_9  and  C_12 
REMARK       I    between atoms: C_12  and  N_14 
REMARK    6  A    between atoms: N_14  and  C_15 
REMARK    7  A    between atoms: C_18  and  O_31 
REMARK    8  A    between atoms: C_20  and  C_21 
REMARK       I    between atoms: C_21  and  N_23 
REMARK    9  A    between atoms: N_23  and  C_24 
REMARK   10  A    between atoms: O_31  and  C_32 
ROOT
ATOM      1  C   LIG d   1      11.115   0.006  -4.982  0.00  0.00     0.046 A 
ATOM      2  C   LIG d   1      12.441  -0.227  -5.324  0.00  0.00    -0.036 A 
ATOM      3  C   LIG d   1      12.780  -1.346  -6.056  0.00  0.00    -0.018 A 
ATOM      4  C   LIG d   1      11.802  -2.250  -6.452  0.00  0.00     0.121 A 
ATOM      5  C   LIG d   1      10.479  -2.035  -6.116  0.00  0.00    -0.006 A 
ATOM      6  C   LIG d   1      10.124  -0.905  -5.374  0.00  0.00     0.062 A 
ATOM      7  H   LIG d   1      13.206   0.472  -5.019  0.00  0.00     0.064 H 
ATOM      8  H   LIG d   1      13.812  -1.521  -6.322  0.00  0.00     0.066 H 
ATOM      9  H   LIG d   1       9.720  -2.739  -6.425  0.00  0.00     0.066 H 
ENDROOT
BRANCH   1  10
ATOM     10  N   LIG d   1      10.771   1.140  -4.248  0.00  0.00    -0.281 N 
ATOM     11  C   LIG d   1      10.712   2.342  -4.854  0.00  0.00     0.248 C 
ATOM     12  O   LIG d   1      10.864   2.425  -6.057  0.00  0.00    -0.270 OA
ATOM     13  H   LIG d   1      10.546   1.053  -3.175  0.00  0.00     0.155 HD
BRANCH  11  14
ATOM     14  C   LIG d   1      10.462   3.561  -4.056  0.00  0.00     0.037 A 
ATOM     15  C   LIG d   1      10.813   3.596  -2.704  0.00  0.00    -0.049 A 
ATOM     16  C   LIG d   1      10.579   4.732  -1.960  0.00  0.00    -0.046 A 
ATOM     17  H   LIG d   1      11.268   2.731  -2.242  0.00  0.00     0.062 H 
ATOM     18  C   LIG d   1       9.992   5.847  -2.557  0.00  0.00     0.061 A 
ATOM     19  H   LIG d   1      10.850   4.758  -0.916  0.00  0.00     0.063 H 
ATOM     20  C   LIG d   1       9.639   5.814  -3.907  0.00  0.00    -0.046 A 
ATOM     21  C   LIG d   1       9.879   4.680  -4.653  0.00  0.00    -0.049 A 
ATOM     22  H   LIG d   1       9.184   6.677  -4.368  0.00  0.00     0.063 H 
ATOM     23  H   LIG d   1       9.612   4.656  -5.699  0.00  0.00     0.062 H 
BRANCH  18  24
ATOM     24  C   LIG d   1       9.739   7.068  -1.757  0.00  0.00     0.270 C 
ATOM     25  N   LIG d   1       8.532   7.541  -1.653  0.00  0.00    -0.288 N 
ATOM     26  H   LIG d   1       7.697   7.033  -2.161  0.00  0.00     0.301 HD
ATOM     27  H   LIG d   1       8.344   8.447  -1.059  0.00  0.00     0.301 HD
BRANCH  24  28
ATOM     28  N   LIG d   1      10.785   7.703  -1.121  0.00  0.00    -0.229 N 
BRANCH  28  29
ATOM     29  C   LIG d   1      10.852   7.714   0.343  0.00  0.00     0.069 C 
ATOM     30  H   LIG d   1      11.704   7.105   0.676  0.00  0.00     0.069 H 
ATOM     31  H   LIG d   1       9.921   7.299   0.756  0.00  0.00     0.069 H 
ATOM     32  H   LIG d   1      10.981   8.748   0.695  0.00  0.00     0.069 H 
ENDBRANCH  28  29
BRANCH  28  33
ATOM     33  C   LIG d   1      11.827   8.366  -1.907  0.00  0.00     0.069 C 
ATOM     34  H   LIG d   1      11.473   9.359  -2.222  0.00  0.00     0.069 H 
ATOM     35  H   LIG d   1      12.057   7.761  -2.796  0.00  0.00     0.069 H 
ATOM     36  H   LIG d   1      12.734   8.477  -1.295  0.00  0.00     0.069 H 
ENDBRANCH  28  33
ENDBRANCH  24  28
ENDBRANCH  18  24
ENDBRANCH  11  14
ENDBRANCH   1  10
BRANCH   6  37
ATOM     37  C   LIG d   1       8.714  -0.669  -5.012  0.00  0.00     0.251 C 
ATOM     38  O   LIG d   1       8.049   0.128  -5.645  0.00  0.00    -0.270 OA
ATOM     39  N   LIG d   1       8.161  -1.337  -3.981  0.00  0.00    -0.266 N 
ATOM     40  H   LIG d   1       8.783  -1.999  -3.358  0.00  0.00     0.157 HD
BRANCH  39  41
ATOM     41  C   LIG d   1       6.804  -1.189  -3.700  0.00  0.00     0.125 A 
ATOM     42  N   LIG d   1       6.374  -0.085  -3.109  0.00  0.00    -0.239 NA
ATOM     43  C   LIG d   1       5.099   0.096  -2.825  0.00  0.00     0.048 A 
ATOM     44  C   LIG d   1       4.160  -0.869  -3.138  0.00  0.00     0.059 A 
ATOM     45  H   LIG d   1       4.784   1.010  -2.343  0.00  0.00     0.085 H 
ATOM     46  C   LIG d   1       4.571  -2.042  -3.760  0.00  0.00    -0.039 A 
ATOM     47 CL   LIG d   1       2.485  -0.617  -2.760  0.00  0.00    -0.082 Cl
ATOM     48  C   LIG d   1       5.916  -2.201  -4.044  0.00  0.00    -0.020 A 
ATOM     49  H   LIG d   1       3.858  -2.813  -4.011  0.00  0.00     0.063 H 
ATOM     50  H   LIG d   1       6.270  -3.101  -4.526  0.00  0.00     0.065 H 
ENDBRANCH  39  41
ENDBRANCH   6  37
BRANCH   4  51
ATOM     51  O   LIG d   1      12.148  -3.350  -7.173  0.00  0.00    -0.495 OA
BRANCH  51  52
ATOM     52  C   LIG d   1      12.613  -4.486  -6.441  0.00  0.00     0.079 C 
ATOM     53  H   LIG d   1      11.866  -5.292  -6.502  0.00  0.00     0.066 H 
ATOM     54  H   LIG d   1      12.765  -4.207  -5.389  0.00  0.00     0.066 H 
ATOM     55  H   LIG d   1      13.564  -4.834  -6.870  0.00  0.00     0.066 H 
ENDBRANCH  51  52
ENDBRANCH   4  51
TORSDOF 10
ENDMDL
MODEL 10
REMARK VINA RESULT:      -5.6     11.828     15.255
REMARK  10 active torsions:
REMARK  status: ('A' for Active; 'I' for Inactive)
REMARK    1  A    between atoms: C_1  and  N_2 
REMARK    2  A    between atoms: N_2  and  C_3 
REMARK    3  A    between atoms: N_2  and  C_4 
REMARK    4  A    between atoms: C_4  and  C_6 
REMARK    5  A    between atoms: C_9  and  C_12 
REMARK       I    between atoms: C_12  and  N_14 
REMARK    6  A    between atoms: N_14  and  C_15 
REMARK    7  A    between atoms: C_18  and  O_31 
REMARK    8  A    between atoms: C_20  and  C_21 
REMARK       I    between atoms: C_21  and  N_23 
REMARK    9  A    between atoms: N_23  and  C_24 
REMARK   10  A    between atoms: O_31  and  C_32 
ROOT
ATOM      1  C   LIG d   1      10.406   5.748  -2.837  0.00  0.00     0.046 A 
ATOM      2  C   LIG d   1      10.193   4.435  -2.436  0.00  0.00    -0.036 A 
ATOM      3  C   LIG d   1       9.628   3.529  -3.309  0.00  0.00    -0.018 A 
ATOM      4  C   LIG d   1       9.264   3.921  -4.592  0.00  0.00     0.121 A 
ATOM      5  C   LIG d   1       9.465   5.224  -5.005  0.00  0.00    -0.006 A 
ATOM      6  C   LIG d   1      10.036   6.151  -4.129  0.00  0.00     0.062 A 
ATOM      7  H   LIG d   1      10.473   4.125  -1.441  0.00  0.00     0.064 H 
ATOM      8  H   LIG d   1       9.467   2.508  -2.993  0.00  0.00     0.066 H 
ATOM      9  H   LIG d   1       9.181   5.526  -6.002  0.00  0.00     0.066 H 
ENDROOT
BRANCH   1  10
ATOM     10  N   LIG d   1      10.982   6.663  -1.958  0.00  0.00    -0.281 N 
ATOM     11  C   LIG d   1      10.199   7.417  -1.162  0.00  0.00     0.248 C 
ATOM     12  O   LIG d   1       8.998   7.232  -1.139  0.00  0.00    -0.270 OA
ATOM     13  H   LIG d   1      12.076   6.770  -1.913  0.00  0.00     0.155 HD
BRANCH  11  14
ATOM     14  C   LIG d   1      10.800   8.469  -0.315  0.00  0.00     0.037 A 
ATOM     15  C   LIG d   1      10.838   9.791  -0.764  0.00  0.00    -0.049 A 
ATOM     16  C   LIG d   1      11.399  10.771   0.025  0.00  0.00    -0.046 A 
ATOM     17  H   LIG d   1      10.427  10.045  -1.731  0.00  0.00     0.062 H 
ATOM     18  C   LIG d   1      11.930  10.443   1.273  0.00  0.00     0.061 A 
ATOM     19  H   LIG d   1      11.428  11.793  -0.322  0.00  0.00     0.063 H 
ATOM     20  C   LIG d   1      11.894   9.122   1.722  0.00  0.00    -0.046 A 
ATOM     21  C   LIG d   1      11.327   8.142   0.936  0.00  0.00    -0.049 A 
ATOM     22  H   LIG d   1      12.306   8.868   2.687  0.00  0.00     0.063 H 
ATOM     23  H   LIG d   1      11.294   7.121   1.285  0.00  0.00     0.062 H 
BRANCH  18  24
ATOM     24  C   LIG d   1      12.534  11.497   2.121  0.00  0.00     0.270 C 
ATOM     25  N   LIG d   1      12.667  11.305   3.401  0.00  0.00    -0.288 N 
ATOM     26  H   LIG d   1      12.330  10.360   3.854  0.00  0.00     0.301 HD
ATOM     27  H   LIG d   1      13.115  12.087   4.031  0.00  0.00     0.301 HD
BRANCH  24  28
ATOM     28  N   LIG d   1      12.956  12.680   1.554  0.00  0.00    -0.229 N 
BRANCH  28  29
ATOM     29  C   LIG d   1      12.104  13.870   1.625  0.00  0.00     0.069 C 
ATOM     30  H   LIG d   1      12.718  14.745   1.884  0.00  0.00     0.069 H 
ATOM     31  H   LIG d   1      11.332  13.723   2.395  0.00  0.00     0.069 H 
ATOM     32  H   LIG d   1      11.623  14.035   0.650  0.00  0.00     0.069 H 
ENDBRANCH  28  29
BRANCH  28  33
ATOM     33  C   LIG d   1      14.254  12.747   0.879  0.00  0.00     0.069 C 
ATOM     34  H   LIG d   1      14.394  11.845   0.265  0.00  0.00     0.069 H 
ATOM     35  H   LIG d   1      15.055  12.808   1.629  0.00  0.00     0.069 H 
ATOM     36  H   LIG d   1      14.286  13.638   0.235  0.00  0.00     0.069 H 
ENDBRANCH  28  33
ENDBRANCH  24  28
ENDBRANCH  18  24
ENDBRANCH  11  14
ENDBRANCH   1  10
BRANCH   6  37
ATOM     37  C   LIG d   1      10.253   7.543  -4.562  0.00  0.00     0.251 C 
ATOM     38  O   LIG d   1      11.376   8.010  -4.566  0.00  0.00    -0.270 OA
ATOM     39  N   LIG d   1       9.209   8.299  -4.955  0.00  0.00    -0.266 N 
ATOM     40  H   LIG d   1       8.185   7.904  -4.877  0.00  0.00     0.157 HD
BRANCH  39  41
ATOM     41  C   LIG d   1       9.425   9.581  -5.458  0.00  0.00     0.125 A 
ATOM     42  N   LIG d   1       9.762   9.737  -6.729  0.00  0.00    -0.239 NA
ATOM     43  C   LIG d   1       9.976  10.931  -7.246  0.00  0.00     0.048 A 
ATOM     44  C   LIG d   1       9.854  12.070  -6.473  0.00  0.00     0.059 A 
ATOM     45  H   LIG d   1      10.250  11.021  -8.287  0.00  0.00     0.085 H 
ATOM     46  C   LIG d   1       9.501  11.949  -5.134  0.00  0.00    -0.039 A 
ATOM     47 CL   LIG d   1      10.137  13.636  -7.166  0.00  0.00    -0.082 Cl
ATOM     48  C   LIG d   1       9.283  10.682  -4.622  0.00  0.00    -0.020 A 
ATOM     49  H   LIG d   1       9.403  12.822  -4.507  0.00  0.00     0.063 H 
ATOM     50  H   LIG d   1       9.008  10.550  -3.585  0.00  0.00     0.065 H 
ENDBRANCH  39  41
ENDBRANCH   6  37
BRANCH   4  51
ATOM     51  O   LIG d   1       8.707   3.018  -5.444  0.00  0.00    -0.495 OA
BRANCH  51  52
ATOM     52  C   LIG d   1       8.105   1.861  -4.860  0.00  0.00     0.079 C 
ATOM     53  H   LIG d   1       8.318   1.841  -3.782  0.00  0.00     0.066 H 
ATOM     54  H   LIG d   1       8.516   0.956  -5.332  0.00  0.00     0.066 H 
ATOM     55  H   LIG d   1       7.017   1.895  -5.019  0.00  0.00     0.066 H 
ENDBRANCH  51  52
ENDBRANCH   4  51
TORSDOF 10
ENDMDL
