MODEL 1
REMARK VINA RESULT:      -7.4      0.000      0.000
REMARK  7 active torsions:
REMARK  status: ('A' for Active; 'I' for Inactive)
REMARK    1  A    between atoms: C_4  and  N_7 
REMARK       I    between atoms: N_10  and  C_13 
REMARK    2  A    between atoms: C_13  and  C_15 
REMARK    3  A    between atoms: C_15  and  C_16 
REMARK    4  A    between atoms: C_22  and  C_24 
REMARK    5  A    between atoms: C_24  and  C_25 
REMARK    6  A    between atoms: C_27  and  C_30 
REMARK    7  A    between atoms: C_30  and  N_31 
ROOT
ATOM      1  C   LIG d   1       6.911  -7.858  -5.248  0.00  0.00    -0.020 C 
ATOM      2  H   LIG d   1       7.307  -7.883  -4.222  0.00  0.00     0.031 H 
ATOM      3  C   LIG d   1       7.388  -9.095  -6.014  0.00  0.00    -0.009 C 
ATOM      4  C   LIG d   1       6.831 -10.351  -5.341  0.00  0.00    -0.033 C 
ATOM      5  N   LIG d   1       5.364 -10.295  -5.330  0.00  0.00     0.227 N 
ATOM      6  C   LIG d   1       4.883  -9.141  -4.560  0.00  0.00    -0.030 C 
ATOM      7  C   LIG d   1       5.381  -7.848  -5.208  0.00  0.00     0.008 C 
ATOM      8  H   LIG d   1       5.032  -6.983  -4.624  0.00  0.00     0.036 H 
ATOM      9  H   LIG d   1       7.028  -9.043  -7.052  0.00  0.00     0.032 H 
ATOM     10  H   LIG d   1       8.487  -9.128  -6.008  0.00  0.00     0.032 H 
ATOM     11  H   LIG d   1       7.160 -11.242  -5.897  0.00  0.00     0.081 H 
ATOM     12  H   LIG d   1       7.204 -10.408  -4.307  0.00  0.00     0.081 H 
ATOM     13  H   LIG d   1       4.993 -10.207  -6.362  0.00  0.00     0.201 HD
ATOM     14  H   LIG d   1       3.784  -9.144  -4.544  0.00  0.00     0.082 H 
ATOM     15  H   LIG d   1       5.264  -9.204  -3.530  0.00  0.00     0.082 H 
ATOM     16  H   LIG d   1       4.966 -11.213  -4.875  0.00  0.00     0.201 HD
ENDROOT
BRANCH   1  17
ATOM     17  C   LIG d   1       7.413  -6.595  -5.951  0.00  0.00     0.028 C 
ATOM     18  H   LIG d   1       6.555  -6.013  -6.317  0.00  0.00     0.036 H 
ATOM     19  H   LIG d   1       8.053  -6.879  -6.800  0.00  0.00     0.036 H 
BRANCH  17  20
ATOM     20  C   LIG d   1       8.208  -5.761  -4.980  0.00  0.00     0.216 C 
ATOM     21  N   LIG d   1       7.991  -4.434  -4.897  0.00  0.00    -0.298 N 
ATOM     22  C   LIG d   1       8.756  -3.601  -3.956  0.00  0.00     0.030 C 
ATOM     23  C   LIG d   1       6.987  -3.778  -5.749  0.00  0.00     0.030 C 
ATOM     24  C   LIG d   1       7.770  -2.767  -3.132  0.00  0.00     0.028 C 
ATOM     25  H   LIG d   1       9.429  -2.930  -4.510  0.00  0.00     0.048 H 
ATOM     26  H   LIG d   1       9.347  -4.241  -3.284  0.00  0.00     0.048 H 
ATOM     27  N   LIG d   1       6.883  -2.026  -4.038  0.00  0.00    -0.327 NA
ATOM     28  H   LIG d   1       8.326  -2.058  -2.501  0.00  0.00     0.048 H 
ATOM     29  H   LIG d   1       7.169  -3.432  -2.493  0.00  0.00     0.048 H 
ATOM     30  C   LIG d   1       6.066  -2.938  -4.849  0.00  0.00     0.028 C 
ATOM     31  H   LIG d   1       5.492  -3.603  -4.187  0.00  0.00     0.048 H 
ATOM     32  H   LIG d   1       5.374  -2.354  -5.473  0.00  0.00     0.048 H 
ATOM     33  H   LIG d   1       7.493  -3.131  -6.480  0.00  0.00     0.048 H 
ATOM     34  H   LIG d   1       6.401  -4.543  -6.279  0.00  0.00     0.048 H 
ATOM     35  O   LIG d   1       9.040  -6.285  -4.270  0.00  0.00    -0.276 OA
BRANCH  27  36
ATOM     36  C   LIG d   1       6.079  -1.130  -3.330  0.00  0.00     0.030 A 
ATOM     37  C   LIG d   1       6.326   0.235  -3.401  0.00  0.00    -0.041 A 
ATOM     38  C   LIG d   1       5.528   1.118  -2.700  0.00  0.00    -0.060 A 
ATOM     39  H   LIG d   1       7.141   0.606  -4.005  0.00  0.00     0.064 H 
ATOM     40  C   LIG d   1       4.485   0.644  -1.926  0.00  0.00    -0.062 A 
ATOM     41  H   LIG d   1       5.720   2.179  -2.756  0.00  0.00     0.062 H 
ATOM     42  C   LIG d   1       4.235  -0.714  -1.853  0.00  0.00    -0.060 A 
ATOM     43  H   LIG d   1       3.862   1.337  -1.379  0.00  0.00     0.062 H 
ATOM     44  C   LIG d   1       5.026  -1.602  -2.556  0.00  0.00    -0.041 A 
ATOM     45  H   LIG d   1       3.420  -1.081  -1.247  0.00  0.00     0.062 H 
ATOM     46  H   LIG d   1       4.828  -2.663  -2.500  0.00  0.00     0.064 H 
ENDBRANCH  27  36
ENDBRANCH  17  20
ENDBRANCH   1  17
BRANCH   7  47
ATOM     47  C   LIG d   1       4.834  -7.749  -6.634  0.00  0.00     0.001 C 
ATOM     48  H   LIG d   1       5.629  -8.003  -7.350  0.00  0.00     0.033 H 
ATOM     49  H   LIG d   1       3.996  -8.451  -6.754  0.00  0.00     0.033 H 
BRANCH  47  50
ATOM     50  C   LIG d   1       4.354  -6.344  -6.892  0.00  0.00     0.084 A 
ATOM     51  N   LIG d   1       3.736  -5.565  -6.053  0.00  0.00    -0.083 NA
ATOM     52  O   LIG d   1       3.481  -4.492  -6.548  0.00  0.00    -0.358 OA
ATOM     53  C   LIG d   1       3.899  -4.423  -7.819  0.00  0.00     0.151 A 
ATOM     54  C   LIG d   1       4.480  -5.614  -8.096  0.00  0.00     0.005 A 
ATOM     55  H   LIG d   1       4.934  -5.932  -9.023  0.00  0.00     0.067 H 
BRANCH  53  56
ATOM     56  C   LIG d   1       3.751  -3.250  -8.755  0.00  0.00     0.060 C 
ATOM     57  H   LIG d   1       4.535  -3.295  -9.525  0.00  0.00     0.051 H 
ATOM     58  H   LIG d   1       2.763  -3.286  -9.235  0.00  0.00     0.051 H 
BRANCH  56  59
ATOM     59  N   LIG d   1       3.882  -1.999  -7.996  0.00  0.00    -0.291 N 
ATOM     60  C   LIG d   1       5.238  -1.447  -8.121  0.00  0.00     0.023 C 
ATOM     61  C   LIG d   1       5.347  -0.180  -7.269  0.00  0.00     0.060 C 
ATOM     62  H   LIG d   1       5.971  -2.190  -7.771  0.00  0.00     0.045 H 
ATOM     63  H   LIG d   1       5.439  -1.202  -9.173  0.00  0.00     0.045 H 
ATOM     64  O   LIG d   1       4.344   0.752  -7.679  0.00  0.00    -0.377 OA
ATOM     65  H   LIG d   1       6.342   0.270  -7.402  0.00  0.00     0.057 H 
ATOM     66  H   LIG d   1       5.200  -0.434  -6.208  0.00  0.00     0.057 H 
ATOM     67  C   LIG d   1       3.009   0.248  -7.570  0.00  0.00     0.060 C 
ATOM     68  C   LIG d   1       2.877  -1.016  -8.425  0.00  0.00     0.023 C 
ATOM     69  H   LIG d   1       2.298   1.007  -7.925  0.00  0.00     0.057 H 
ATOM     70  H   LIG d   1       2.792   0.004  -6.520  0.00  0.00     0.057 H 
ATOM     71  H   LIG d   1       3.040  -0.763  -9.484  0.00  0.00     0.045 H 
ATOM     72  H   LIG d   1       1.870  -1.441  -8.301  0.00  0.00     0.045 H 
ENDBRANCH  56  59
ENDBRANCH  53  56
ENDBRANCH  47  50
ENDBRANCH   7  47
TORSDOF 7
ENDMDL
MODEL 2
REMARK VINA RESULT:      -6.9      7.899     12.508
REMARK  7 active torsions:
REMARK  status: ('A' for Active; 'I' for Inactive)
REMARK    1  A    between atoms: C_4  and  N_7 
REMARK       I    between atoms: N_10  and  C_13 
REMARK    2  A    between atoms: C_13  and  C_15 
REMARK    3  A    between atoms: C_15  and  C_16 
REMARK    4  A    between atoms: C_22  and  C_24 
REMARK    5  A    between atoms: C_24  and  C_25 
REMARK    6  A    between atoms: C_27  and  C_30 
REMARK    7  A    between atoms: C_30  and  N_31 
ROOT
ATOM      1  C   LIG d   1       9.868   5.545  -6.382  0.00  0.00    -0.020 C 
ATOM      2  H   LIG d   1       8.938   5.389  -6.950  0.00  0.00     0.031 H 
ATOM      3  C   LIG d   1      10.927   6.172  -7.294  0.00  0.00    -0.009 C 
ATOM      4  C   LIG d   1      10.441   7.546  -7.761  0.00  0.00    -0.033 C 
ATOM      5  N   LIG d   1      10.201   8.405  -6.595  0.00  0.00     0.227 N 
ATOM      6  C   LIG d   1       9.154   7.847  -5.731  0.00  0.00    -0.030 C 
ATOM      7  C   LIG d   1       9.600   6.482  -5.202  0.00  0.00     0.008 C 
ATOM      8  H   LIG d   1       8.810   6.057  -4.565  0.00  0.00     0.036 H 
ATOM      9  H   LIG d   1      11.869   6.284  -6.736  0.00  0.00     0.032 H 
ATOM     10  H   LIG d   1      11.091   5.522  -8.166  0.00  0.00     0.032 H 
ATOM     11  H   LIG d   1      11.206   8.006  -8.405  0.00  0.00     0.081 H 
ATOM     12  H   LIG d   1       9.507   7.430  -8.330  0.00  0.00     0.081 H 
ATOM     13  H   LIG d   1      11.128   8.496  -6.010  0.00  0.00     0.201 HD
ATOM     14  H   LIG d   1       8.976   8.527  -4.885  0.00  0.00     0.082 H 
ATOM     15  H   LIG d   1       8.226   7.730  -6.309  0.00  0.00     0.082 H 
ATOM     16  H   LIG d   1       9.883   9.402  -6.935  0.00  0.00     0.201 HD
ENDROOT
BRANCH   1  17
ATOM     17  C   LIG d   1      10.373   4.198  -5.862  0.00  0.00     0.028 C 
ATOM     18  H   LIG d   1      10.239   4.153  -4.771  0.00  0.00     0.036 H 
ATOM     19  H   LIG d   1      11.440   4.089  -6.105  0.00  0.00     0.036 H 
BRANCH  17  20
ATOM     20  C   LIG d   1       9.594   3.084  -6.512  0.00  0.00     0.216 C 
ATOM     21  N   LIG d   1       9.174   2.037  -5.775  0.00  0.00    -0.298 N 
ATOM     22  C   LIG d   1       8.412   0.939  -6.389  0.00  0.00     0.030 C 
ATOM     23  C   LIG d   1       9.470   1.959  -4.336  0.00  0.00     0.030 C 
ATOM     24  C   LIG d   1       7.145   0.703  -5.561  0.00  0.00     0.028 C 
ATOM     25  H   LIG d   1       9.018   0.021  -6.399  0.00  0.00     0.048 H 
ATOM     26  H   LIG d   1       8.133   1.206  -7.419  0.00  0.00     0.048 H 
ATOM     27  N   LIG d   1       7.514   0.493  -4.154  0.00  0.00    -0.327 NA
ATOM     28  H   LIG d   1       6.618  -0.186  -5.939  0.00  0.00     0.048 H 
ATOM     29  H   LIG d   1       6.484   1.580  -5.639  0.00  0.00     0.048 H 
ATOM     30  C   LIG d   1       8.155   1.686  -3.587  0.00  0.00     0.028 C 
ATOM     31  H   LIG d   1       7.483   2.550  -3.696  0.00  0.00     0.048 H 
ATOM     32  H   LIG d   1       8.367   1.518  -2.522  0.00  0.00     0.048 H 
ATOM     33  H   LIG d   1      10.184   1.144  -4.152  0.00  0.00     0.048 H 
ATOM     34  H   LIG d   1       9.905   2.912  -3.999  0.00  0.00     0.048 H 
ATOM     35  O   LIG d   1       9.341   3.132  -7.697  0.00  0.00    -0.276 OA
BRANCH  27  36
ATOM     36  C   LIG d   1       6.404   0.113  -3.397  0.00  0.00     0.030 A 
ATOM     37  C   LIG d   1       5.631   1.077  -2.761  0.00  0.00    -0.041 A 
ATOM     38  C   LIG d   1       4.535   0.698  -2.013  0.00  0.00    -0.060 A 
ATOM     39  H   LIG d   1       5.890   2.122  -2.852  0.00  0.00     0.064 H 
ATOM     40  C   LIG d   1       4.204  -0.639  -1.896  0.00  0.00    -0.062 A 
ATOM     41  H   LIG d   1       3.934   1.448  -1.519  0.00  0.00     0.062 H 
ATOM     42  C   LIG d   1       4.970  -1.602  -2.528  0.00  0.00    -0.060 A 
ATOM     43  H   LIG d   1       3.345  -0.932  -1.310  0.00  0.00     0.062 H 
ATOM     44  C   LIG d   1       6.066  -1.230  -3.281  0.00  0.00    -0.041 A 
ATOM     45  H   LIG d   1       4.710  -2.646  -2.434  0.00  0.00     0.062 H 
ATOM     46  H   LIG d   1       6.661  -1.982  -3.777  0.00  0.00     0.064 H 
ENDBRANCH  27  36
ENDBRANCH  17  20
ENDBRANCH   1  17
BRANCH   7  47
ATOM     47  C   LIG d   1      10.880   6.647  -4.380  0.00  0.00     0.001 C 
ATOM     48  H   LIG d   1      11.498   5.743  -4.478  0.00  0.00     0.033 H 
ATOM     49  H   LIG d   1      11.443   7.517  -4.749  0.00  0.00     0.033 H 
BRANCH  47  50
ATOM     50  C   LIG d   1      10.523   6.858  -2.931  0.00  0.00     0.084 A 
ATOM     51  N   LIG d   1       9.365   6.649  -2.375  0.00  0.00    -0.083 NA
ATOM     52  O   LIG d   1       9.386   6.906  -1.194  0.00  0.00    -0.358 OA
ATOM     53  C   LIG d   1      10.592   7.342  -0.805  0.00  0.00     0.151 A 
ATOM     54  C   LIG d   1      11.378   7.330  -1.908  0.00  0.00     0.005 A 
ATOM     55  H   LIG d   1      12.416   7.615  -1.988  0.00  0.00     0.067 H 
BRANCH  53  56
ATOM     56  C   LIG d   1      10.995   7.761   0.586  0.00  0.00     0.060 C 
ATOM     57  H   LIG d   1      10.170   7.558   1.283  0.00  0.00     0.051 H 
ATOM     58  H   LIG d   1      11.886   7.195   0.895  0.00  0.00     0.051 H 
BRANCH  56  59
ATOM     59  N   LIG d   1      11.302   9.198   0.594  0.00  0.00    -0.291 N 
ATOM     60  C   LIG d   1      10.100   9.995   0.310  0.00  0.00     0.023 C 
ATOM     61  C   LIG d   1      10.476  11.478   0.269  0.00  0.00     0.060 C 
ATOM     62  H   LIG d   1       9.682   9.694  -0.663  0.00  0.00     0.045 H 
ATOM     63  H   LIG d   1       9.353   9.825   1.098  0.00  0.00     0.045 H 
ATOM     64  O   LIG d   1      11.087  11.844   1.508  0.00  0.00    -0.377 OA
ATOM     65  H   LIG d   1       9.571  12.084   0.113  0.00  0.00     0.057 H 
ATOM     66  H   LIG d   1      11.183  11.657  -0.555  0.00  0.00     0.057 H 
ATOM     67  C   LIG d   1      12.262  11.088   1.818  0.00  0.00     0.060 C 
ATOM     68  C   LIG d   1      11.903   9.601   1.873  0.00  0.00     0.023 C 
ATOM     69  H   LIG d   1      12.659  11.407   2.792  0.00  0.00     0.057 H 
ATOM     70  H   LIG d   1      13.021  11.253   1.039  0.00  0.00     0.057 H 
ATOM     71  H   LIG d   1      11.185   9.425   2.688  0.00  0.00     0.045 H 
ATOM     72  H   LIG d   1      12.813   9.009   2.054  0.00  0.00     0.045 H 
ENDBRANCH  56  59
ENDBRANCH  53  56
ENDBRANCH  47  50
ENDBRANCH   7  47
TORSDOF 7
ENDMDL
MODEL 3
REMARK VINA RESULT:      -6.8      3.258      6.258
REMARK  7 active torsions:
REMARK  status: ('A' for Active; 'I' for Inactive)
REMARK    1  A    between atoms: C_4  and  N_7 
REMARK       I    between atoms: N_10  and  C_13 
REMARK    2  A    between atoms: C_13  and  C_15 
REMARK    3  A    between atoms: C_15  and  C_16 
REMARK    4  A    between atoms: C_22  and  C_24 
REMARK    5  A    between atoms: C_24  and  C_25 
REMARK    6  A    between atoms: C_27  and  C_30 
REMARK    7  A    between atoms: C_30  and  N_31 
ROOT
ATOM      1  C   LIG d   1       2.789  -2.698  -9.809  0.00  0.00    -0.020 C 
ATOM      2  H   LIG d   1       2.106  -3.168  -9.086  0.00  0.00     0.031 H 
ATOM      3  C   LIG d   1       2.370  -3.075 -11.233  0.00  0.00    -0.009 C 
ATOM      4  C   LIG d   1       0.967  -2.528 -11.507  0.00  0.00    -0.033 C 
ATOM      5  N   LIG d   1       0.968  -1.069 -11.348  0.00  0.00     0.227 N 
ATOM      6  C   LIG d   1       1.321  -0.685  -9.975  0.00  0.00    -0.030 C 
ATOM      7  C   LIG d   1       2.735  -1.176  -9.654  0.00  0.00     0.008 C 
ATOM      8  H   LIG d   1       2.995  -0.901  -8.620  0.00  0.00     0.036 H 
ATOM      9  H   LIG d   1       3.081  -2.641 -11.950  0.00  0.00     0.032 H 
ATOM     10  H   LIG d   1       2.366  -4.170 -11.336  0.00  0.00     0.032 H 
ATOM     11  H   LIG d   1       0.668  -2.785 -12.535  0.00  0.00     0.081 H 
ATOM     12  H   LIG d   1       0.255  -2.974 -10.797  0.00  0.00     0.081 H 
ATOM     13  H   LIG d   1       1.703  -0.625 -12.037  0.00  0.00     0.201 HD
ATOM     14  H   LIG d   1       1.284   0.410  -9.880  0.00  0.00     0.082 H 
ATOM     15  H   LIG d   1       0.608  -1.139  -9.273  0.00  0.00     0.082 H 
ATOM     16  H   LIG d   1      -0.033  -0.675 -11.577  0.00  0.00     0.201 HD
ENDROOT
BRANCH   1  17
ATOM     17  C   LIG d   1       4.214  -3.188  -9.549  0.00  0.00     0.028 C 
ATOM     18  H   LIG d   1       4.900  -2.328  -9.524  0.00  0.00     0.036 H 
ATOM     19  H   LIG d   1       4.518  -3.876 -10.352  0.00  0.00     0.036 H 
BRANCH  17  20
ATOM     20  C   LIG d   1       4.265  -3.909  -8.226  0.00  0.00     0.216 C 
ATOM     21  N   LIG d   1       4.940  -3.371  -7.192  0.00  0.00    -0.298 N 
ATOM     22  C   LIG d   1       5.002  -4.057  -5.892  0.00  0.00     0.030 C 
ATOM     23  C   LIG d   1       5.639  -2.084  -7.333  0.00  0.00     0.030 C 
ATOM     24  C   LIG d   1       4.593  -3.066  -4.798  0.00  0.00     0.028 C 
ATOM     25  H   LIG d   1       6.027  -4.409  -5.702  0.00  0.00     0.048 H 
ATOM     26  H   LIG d   1       4.313  -4.915  -5.887  0.00  0.00     0.048 H 
ATOM     27  N   LIG d   1       5.420  -1.857  -4.902  0.00  0.00    -0.327 NA
ATOM     28  H   LIG d   1       4.739  -3.527  -3.810  0.00  0.00     0.048 H 
ATOM     29  H   LIG d   1       3.533  -2.797  -4.922  0.00  0.00     0.048 H 
ATOM     30  C   LIG d   1       5.199  -1.167  -6.179  0.00  0.00     0.028 C 
ATOM     31  H   LIG d   1       4.131  -0.927  -6.287  0.00  0.00     0.048 H 
ATOM     32  H   LIG d   1       5.788  -0.239  -6.203  0.00  0.00     0.048 H 
ATOM     33  H   LIG d   1       6.725  -2.250  -7.289  0.00  0.00     0.048 H 
ATOM     34  H   LIG d   1       5.375  -1.628  -8.299  0.00  0.00     0.048 H 
ATOM     35  O   LIG d   1       3.694  -4.971  -8.092  0.00  0.00    -0.276 OA
BRANCH  27  36
ATOM     36  C   LIG d   1       5.191  -0.999  -3.824  0.00  0.00     0.030 A 
ATOM     37  C   LIG d   1       5.643   0.314  -3.870  0.00  0.00    -0.041 A 
ATOM     38  C   LIG d   1       5.414   1.160  -2.803  0.00  0.00    -0.060 A 
ATOM     39  H   LIG d   1       6.173   0.673  -4.740  0.00  0.00     0.064 H 
ATOM     40  C   LIG d   1       4.735   0.701  -1.688  0.00  0.00    -0.062 A 
ATOM     41  H   LIG d   1       5.764   2.181  -2.839  0.00  0.00     0.062 H 
ATOM     42  C   LIG d   1       4.283  -0.605  -1.639  0.00  0.00    -0.060 A 
ATOM     43  H   LIG d   1       4.557   1.366  -0.855  0.00  0.00     0.062 H 
ATOM     44  C   LIG d   1       4.505  -1.455  -2.705  0.00  0.00    -0.041 A 
ATOM     45  H   LIG d   1       3.755  -0.960  -0.767  0.00  0.00     0.062 H 
ATOM     46  H   LIG d   1       4.148  -2.473  -2.666  0.00  0.00     0.064 H 
ENDBRANCH  27  36
ENDBRANCH  17  20
ENDBRANCH   1  17
BRANCH   7  47
ATOM     47  C   LIG d   1       3.731  -0.528 -10.618  0.00  0.00     0.001 C 
ATOM     48  H   LIG d   1       4.367  -1.306 -11.065  0.00  0.00     0.033 H 
ATOM     49  H   LIG d   1       3.183  -0.002 -11.412  0.00  0.00     0.033 H 
BRANCH  47  50
ATOM     50  C   LIG d   1       4.591   0.454  -9.865  0.00  0.00     0.084 A 
ATOM     51  N   LIG d   1       4.188   1.509  -9.219  0.00  0.00    -0.083 NA
ATOM     52  O   LIG d   1       5.112   2.101  -8.712  0.00  0.00    -0.358 OA
ATOM     53  C   LIG d   1       6.283   1.503  -8.972  0.00  0.00     0.151 A 
ATOM     54  C   LIG d   1       5.998   0.415  -9.726  0.00  0.00     0.005 A 
ATOM     55  H   LIG d   1       6.686  -0.313 -10.129  0.00  0.00     0.067 H 
BRANCH  53  56
ATOM     56  C   LIG d   1       7.647   1.952  -8.514  0.00  0.00     0.060 C 
ATOM     57  H   LIG d   1       8.410   1.574  -9.209  0.00  0.00     0.051 H 
ATOM     58  H   LIG d   1       7.683   3.051  -8.491  0.00  0.00     0.051 H 
BRANCH  56  59
ATOM     59  N   LIG d   1       7.908   1.426  -7.167  0.00  0.00    -0.291 N 
ATOM     60  C   LIG d   1       8.667   0.169  -7.230  0.00  0.00     0.023 C 
ATOM     61  C   LIG d   1       8.864  -0.373  -5.812  0.00  0.00     0.060 C 
ATOM     62  H   LIG d   1       8.110  -0.566  -7.831  0.00  0.00     0.045 H 
ATOM     63  H   LIG d   1       9.646   0.355  -7.693  0.00  0.00     0.045 H 
ATOM     64  O   LIG d   1       9.522   0.616  -5.016  0.00  0.00    -0.377 OA
ATOM     65  H   LIG d   1       9.480  -1.283  -5.847  0.00  0.00     0.057 H 
ATOM     66  H   LIG d   1       7.886  -0.610  -5.368  0.00  0.00     0.057 H 
ATOM     67  C   LIG d   1       8.811   1.855  -4.932  0.00  0.00     0.060 C 
ATOM     68  C   LIG d   1       8.612   2.419  -6.342  0.00  0.00     0.023 C 
ATOM     69  H   LIG d   1       9.387   2.570  -4.328  0.00  0.00     0.057 H 
ATOM     70  H   LIG d   1       7.830   1.685  -4.464  0.00  0.00     0.057 H 
ATOM     71  H   LIG d   1       9.592   2.641  -6.791  0.00  0.00     0.045 H 
ATOM     72  H   LIG d   1       8.016   3.342  -6.289  0.00  0.00     0.045 H 
ENDBRANCH  56  59
ENDBRANCH  53  56
ENDBRANCH  47  50
ENDBRANCH   7  47
TORSDOF 7
ENDMDL
MODEL 4
REMARK VINA RESULT:      -6.7      7.267     11.418
REMARK  7 active torsions:
REMARK  status: ('A' for Active; 'I' for Inactive)
REMARK    1  A    between atoms: C_4  and  N_7 
REMARK       I    between atoms: N_10  and  C_13 
REMARK    2  A    between atoms: C_13  and  C_15 
REMARK    3  A    between atoms: C_15  and  C_16 
REMARK    4  A    between atoms: C_22  and  C_24 
REMARK    5  A    between atoms: C_24  and  C_25 
REMARK    6  A    between atoms: C_27  and  C_30 
REMARK    7  A    between atoms: C_30  and  N_31 
ROOT
ATOM      1  C   LIG d   1      10.989   3.931  -4.901  0.00  0.00    -0.020 C 
ATOM      2  H   LIG d   1      11.518   4.194  -5.829  0.00  0.00     0.031 H 
ATOM      3  C   LIG d   1      11.492   2.578  -4.387  0.00  0.00    -0.009 C 
ATOM      4  C   LIG d   1      12.981   2.690  -4.049  0.00  0.00    -0.033 C 
ATOM      5  N   LIG d   1      13.176   3.725  -3.027  0.00  0.00     0.227 N 
ATOM      6  C   LIG d   1      12.744   5.041  -3.515  0.00  0.00    -0.030 C 
ATOM      7  C   LIG d   1      11.249   5.002  -3.838  0.00  0.00     0.008 C 
ATOM      8  H   LIG d   1      10.927   5.983  -4.217  0.00  0.00     0.036 H 
ATOM      9  H   LIG d   1      10.929   2.297  -3.485  0.00  0.00     0.032 H 
ATOM     10  H   LIG d   1      11.346   1.814  -5.165  0.00  0.00     0.032 H 
ATOM     11  H   LIG d   1      13.342   1.724  -3.666  0.00  0.00     0.081 H 
ATOM     12  H   LIG d   1      13.543   2.957  -4.955  0.00  0.00     0.081 H 
ATOM     13  H   LIG d   1      12.589   3.473  -2.131  0.00  0.00     0.201 HD
ATOM     14  H   LIG d   1      12.932   5.799  -2.740  0.00  0.00     0.082 H 
ATOM     15  H   LIG d   1      13.308   5.298  -4.423  0.00  0.00     0.082 H 
ATOM     16  H   LIG d   1      14.243   3.781  -2.762  0.00  0.00     0.201 HD
ENDROOT
BRANCH   1  17
ATOM     17  C   LIG d   1       9.488   3.844  -5.183  0.00  0.00     0.028 C 
ATOM     18  H   LIG d   1       9.196   4.655  -5.867  0.00  0.00     0.036 H 
ATOM     19  H   LIG d   1       8.931   3.941  -4.240  0.00  0.00     0.036 H 
BRANCH  17  20
ATOM     20  C   LIG d   1       9.172   2.514  -5.818  0.00  0.00     0.216 C 
ATOM     21  N   LIG d   1       8.600   1.538  -5.088  0.00  0.00    -0.298 N 
ATOM     22  C   LIG d   1       8.283   0.233  -5.688  0.00  0.00     0.030 C 
ATOM     23  C   LIG d   1       8.279   1.747  -3.667  0.00  0.00     0.030 C 
ATOM     24  C   LIG d   1       6.819  -0.102  -5.381  0.00  0.00     0.028 C 
ATOM     25  H   LIG d   1       8.933  -0.545  -5.261  0.00  0.00     0.048 H 
ATOM     26  H   LIG d   1       8.428   0.276  -6.778  0.00  0.00     0.048 H 
ATOM     27  N   LIG d   1       6.593  -0.013  -3.932  0.00  0.00    -0.327 NA
ATOM     28  H   LIG d   1       6.595  -1.122  -5.726  0.00  0.00     0.048 H 
ATOM     29  H   LIG d   1       6.161   0.612  -5.899  0.00  0.00     0.048 H 
ATOM     30  C   LIG d   1       6.810   1.354  -3.442  0.00  0.00     0.028 C 
ATOM     31  H   LIG d   1       6.155   2.048  -3.988  0.00  0.00     0.048 H 
ATOM     32  H   LIG d   1       6.578   1.400  -2.367  0.00  0.00     0.048 H 
ATOM     33  H   LIG d   1       8.937   1.119  -3.048  0.00  0.00     0.048 H 
ATOM     34  H   LIG d   1       8.431   2.805  -3.409  0.00  0.00     0.048 H 
ATOM     35  O   LIG d   1       9.429   2.325  -6.989  0.00  0.00    -0.276 OA
BRANCH  27  36
ATOM     36  C   LIG d   1       5.317  -0.469  -3.596  0.00  0.00     0.030 A 
ATOM     37  C   LIG d   1       4.193   0.152  -4.126  0.00  0.00    -0.041 A 
ATOM     38  C   LIG d   1       2.933  -0.301  -3.791  0.00  0.00    -0.060 A 
ATOM     39  H   LIG d   1       4.306   0.990  -4.799  0.00  0.00     0.064 H 
ATOM     40  C   LIG d   1       2.788  -1.373  -2.929  0.00  0.00    -0.062 A 
ATOM     41  H   LIG d   1       2.058   0.181  -4.204  0.00  0.00     0.062 H 
ATOM     42  C   LIG d   1       3.904  -1.994  -2.400  0.00  0.00    -0.060 A 
ATOM     43  H   LIG d   1       1.800  -1.726  -2.669  0.00  0.00     0.062 H 
ATOM     44  C   LIG d   1       5.168  -1.549  -2.734  0.00  0.00    -0.041 A 
ATOM     45  H   LIG d   1       3.788  -2.830  -1.726  0.00  0.00     0.062 H 
ATOM     46  H   LIG d   1       6.039  -2.037  -2.322  0.00  0.00     0.064 H 
ENDBRANCH  27  36
ENDBRANCH  17  20
ENDBRANCH   1  17
BRANCH   7  47
ATOM     47  C   LIG d   1      10.462   4.665  -2.570  0.00  0.00     0.001 C 
ATOM     48  H   LIG d   1       9.507   4.194  -2.846  0.00  0.00     0.033 H 
ATOM     49  H   LIG d   1      11.047   3.971  -1.949  0.00  0.00     0.033 H 
BRANCH  47  50
ATOM     50  C   LIG d   1      10.194   5.929  -1.795  0.00  0.00     0.084 A 
ATOM     51  N   LIG d   1      10.276   6.086  -0.505  0.00  0.00    -0.083 NA
ATOM     52  O   LIG d   1      10.005   7.217  -0.176  0.00  0.00    -0.358 OA
ATOM     53  C   LIG d   1       9.689   7.976  -1.235  0.00  0.00     0.151 A 
ATOM     54  C   LIG d   1       9.798   7.179  -2.324  0.00  0.00     0.005 A 
ATOM     55  H   LIG d   1       9.622   7.438  -3.358  0.00  0.00     0.067 H 
BRANCH  53  56
ATOM     56  C   LIG d   1       9.293   9.431  -1.217  0.00  0.00     0.060 C 
ATOM     57  H   LIG d   1       8.198   9.512  -1.153  0.00  0.00     0.051 H 
ATOM     58  H   LIG d   1       9.750   9.923  -0.346  0.00  0.00     0.051 H 
BRANCH  56  59
ATOM     59  N   LIG d   1       9.761  10.081  -2.448  0.00  0.00    -0.291 N 
ATOM     60  C   LIG d   1       8.891  11.208  -2.812  0.00  0.00     0.023 C 
ATOM     61  C   LIG d   1       9.379  11.817  -4.128  0.00  0.00     0.060 C 
ATOM     62  H   LIG d   1       7.858  10.850  -2.932  0.00  0.00     0.045 H 
ATOM     63  H   LIG d   1       8.925  11.969  -2.018  0.00  0.00     0.045 H 
ATOM     64  O   LIG d   1      10.745  12.213  -3.988  0.00  0.00    -0.377 OA
ATOM     65  H   LIG d   1       8.767  12.697  -4.377  0.00  0.00     0.057 H 
ATOM     66  H   LIG d   1       9.293  11.073  -4.934  0.00  0.00     0.057 H 
ATOM     67  C   LIG d   1      11.623  11.139  -3.634  0.00  0.00     0.060 C 
ATOM     68  C   LIG d   1      11.157  10.523  -2.313  0.00  0.00     0.023 C 
ATOM     69  H   LIG d   1      12.646  11.522  -3.520  0.00  0.00     0.057 H 
ATOM     70  H   LIG d   1      11.603  10.373  -4.423  0.00  0.00     0.057 H 
ATOM     71  H   LIG d   1      11.228  11.273  -1.510  0.00  0.00     0.045 H 
ATOM     72  H   LIG d   1      11.792   9.660  -2.064  0.00  0.00     0.045 H 
ENDBRANCH  56  59
ENDBRANCH  53  56
ENDBRANCH  47  50
ENDBRANCH   7  47
TORSDOF 7
ENDMDL
MODEL 5
REMARK VINA RESULT:      -6.3      6.606     11.095
REMARK  7 active torsions:
REMARK  status: ('A' for Active; 'I' for Inactive)
REMARK    1  A    between atoms: C_4  and  N_7 
REMARK       I    between atoms: N_10  and  C_13 
REMARK    2  A    between atoms: C_13  and  C_15 
REMARK    3  A    between atoms: C_15  and  C_16 
REMARK    4  A    between atoms: C_22  and  C_24 
REMARK    5  A    between atoms: C_24  and  C_25 
REMARK    6  A    between atoms: C_27  and  C_30 
REMARK    7  A    between atoms: C_30  and  N_31 
ROOT
ATOM      1  C   LIG d   1       9.034   4.221  -9.016  0.00  0.00    -0.020 C 
ATOM      2  H   LIG d   1       8.033   4.170  -9.469  0.00  0.00     0.031 H 
ATOM      3  C   LIG d   1      10.099   4.033 -10.102  0.00  0.00    -0.009 C 
ATOM      4  C   LIG d   1       9.995   5.178 -11.113  0.00  0.00    -0.033 C 
ATOM      5  N   LIG d   1      10.192   6.460 -10.425  0.00  0.00     0.227 N 
ATOM      6  C   LIG d   1       9.153   6.683  -9.412  0.00  0.00    -0.030 C 
ATOM      7  C   LIG d   1       9.230   5.585  -8.349  0.00  0.00     0.008 C 
ATOM      8  H   LIG d   1       8.443   5.743  -7.596  0.00  0.00     0.036 H 
ATOM      9  H   LIG d   1      11.097   4.039  -9.639  0.00  0.00     0.032 H 
ATOM     10  H   LIG d   1       9.936   3.073 -10.613  0.00  0.00     0.032 H 
ATOM     11  H   LIG d   1      10.768   5.054 -11.886  0.00  0.00     0.081 H 
ATOM     12  H   LIG d   1       9.001   5.162 -11.583  0.00  0.00     0.081 H 
ATOM     13  H   LIG d   1      11.173   6.464  -9.929  0.00  0.00     0.201 HD
ATOM     14  H   LIG d   1       9.309   7.663  -8.937  0.00  0.00     0.082 H 
ATOM     15  H   LIG d   1       8.163   6.661  -9.890  0.00  0.00     0.082 H 
ATOM     16  H   LIG d   1      10.149   7.279 -11.159  0.00  0.00     0.201 HD
ENDROOT
BRANCH   1  17
ATOM     17  C   LIG d   1       9.171   3.114  -7.969  0.00  0.00     0.028 C 
ATOM     18  H   LIG d   1       9.052   3.544  -6.964  0.00  0.00     0.036 H 
ATOM     19  H   LIG d   1      10.165   2.651  -8.054  0.00  0.00     0.036 H 
BRANCH  17  20
ATOM     20  C   LIG d   1       8.109   2.070  -8.199  0.00  0.00     0.216 C 
ATOM     21  N   LIG d   1       7.874   1.132  -7.262  0.00  0.00    -0.298 N 
ATOM     22  C   LIG d   1       6.842   0.103  -7.466  0.00  0.00     0.030 C 
ATOM     23  C   LIG d   1       8.644   1.105  -6.009  0.00  0.00     0.030 C 
ATOM     24  C   LIG d   1       5.927   0.081  -6.237  0.00  0.00     0.028 C 
ATOM     25  H   LIG d   1       7.313  -0.883  -7.589  0.00  0.00     0.048 H 
ATOM     26  H   LIG d   1       6.248   0.340  -8.361  0.00  0.00     0.048 H 
ATOM     27  N   LIG d   1       6.742  -0.089  -5.026  0.00  0.00    -0.327 NA
ATOM     28  H   LIG d   1       5.217  -0.756  -6.322  0.00  0.00     0.048 H 
ATOM     29  H   LIG d   1       5.370   1.028  -6.174  0.00  0.00     0.048 H 
ATOM     30  C   LIG d   1       7.654   1.046  -4.835  0.00  0.00     0.028 C 
ATOM     31  H   LIG d   1       7.074   1.980  -4.795  0.00  0.00     0.048 H 
ATOM     32  H   LIG d   1       8.207   0.917  -3.893  0.00  0.00     0.048 H 
ATOM     33  H   LIG d   1       9.295   0.218  -5.998  0.00  0.00     0.048 H 
ATOM     34  H   LIG d   1       9.261   2.013  -5.938  0.00  0.00     0.048 H 
ATOM     35  O   LIG d   1       7.464   2.077  -9.226  0.00  0.00    -0.276 OA
BRANCH  27  36
ATOM     36  C   LIG d   1       5.935  -0.278  -3.902  0.00  0.00     0.030 A 
ATOM     37  C   LIG d   1       5.483  -1.550  -3.575  0.00  0.00    -0.041 A 
ATOM     38  C   LIG d   1       4.686  -1.734  -2.463  0.00  0.00    -0.060 A 
ATOM     39  H   LIG d   1       5.754  -2.395  -4.192  0.00  0.00     0.064 H 
ATOM     40  C   LIG d   1       4.338  -0.652  -1.674  0.00  0.00    -0.062 A 
ATOM     41  H   LIG d   1       4.334  -2.723  -2.208  0.00  0.00     0.062 H 
ATOM     42  C   LIG d   1       4.787   0.615  -1.996  0.00  0.00    -0.060 A 
ATOM     43  H   LIG d   1       3.714  -0.799  -0.804  0.00  0.00     0.062 H 
ATOM     44  C   LIG d   1       5.588   0.805  -3.105  0.00  0.00    -0.041 A 
ATOM     45  H   LIG d   1       4.512   1.458  -1.378  0.00  0.00     0.062 H 
ATOM     46  H   LIG d   1       5.941   1.795  -3.353  0.00  0.00     0.064 H 
ENDBRANCH  27  36
ENDBRANCH  17  20
ENDBRANCH   1  17
BRANCH   7  47
ATOM     47  C   LIG d   1      10.600   5.629  -7.668  0.00  0.00     0.001 C 
ATOM     48  H   LIG d   1      11.006   4.609  -7.597  0.00  0.00     0.033 H 
ATOM     49  H   LIG d   1      11.283   6.255  -8.260  0.00  0.00     0.033 H 
BRANCH  47  50
ATOM     50  C   LIG d   1      10.454   6.211  -6.286  0.00  0.00     0.084 A 
ATOM     51  N   LIG d   1      10.753   7.422  -5.915  0.00  0.00    -0.083 NA
ATOM     52  O   LIG d   1      10.523   7.597  -4.740  0.00  0.00    -0.358 OA
ATOM     53  C   LIG d   1      10.038   6.489  -4.163  0.00  0.00     0.151 A 
ATOM     54  C   LIG d   1       9.972   5.548  -5.134  0.00  0.00     0.005 A 
ATOM     55  H   LIG d   1       9.632   4.527  -5.048  0.00  0.00     0.067 H 
BRANCH  53  56
ATOM     56  C   LIG d   1       9.643   6.324  -2.717  0.00  0.00     0.060 C 
ATOM     57  H   LIG d   1       8.858   7.053  -2.466  0.00  0.00     0.051 H 
ATOM     58  H   LIG d   1       9.264   5.305  -2.555  0.00  0.00     0.051 H 
BRANCH  56  59
ATOM     59  N   LIG d   1      10.815   6.552  -1.861  0.00  0.00    -0.291 N 
ATOM     60  C   LIG d   1      10.408   6.990  -0.517  0.00  0.00     0.023 C 
ATOM     61  C   LIG d   1      11.658   7.273   0.320  0.00  0.00     0.060 C 
ATOM     62  H   LIG d   1       9.803   7.905  -0.598  0.00  0.00     0.045 H 
ATOM     63  H   LIG d   1       9.814   6.198  -0.039  0.00  0.00     0.045 H 
ATOM     64  O   LIG d   1      12.476   6.101   0.358  0.00  0.00    -0.377 OA
ATOM     65  H   LIG d   1      11.361   7.545   1.344  0.00  0.00     0.057 H 
ATOM     66  H   LIG d   1      12.224   8.101  -0.129  0.00  0.00     0.057 H 
ATOM     67  C   LIG d   1      12.891   5.646  -0.933  0.00  0.00     0.060 C 
ATOM     68  C   LIG d   1      11.654   5.348  -1.784  0.00  0.00     0.023 C 
ATOM     69  H   LIG d   1      13.492   4.732  -0.826  0.00  0.00     0.057 H 
ATOM     70  H   LIG d   1      13.493   6.427  -1.423  0.00  0.00     0.057 H 
ATOM     71  H   LIG d   1      11.079   4.529  -1.325  0.00  0.00     0.045 H 
ATOM     72  H   LIG d   1      11.966   5.053  -2.797  0.00  0.00     0.045 H 
ENDBRANCH  56  59
ENDBRANCH  53  56
ENDBRANCH  47  50
ENDBRANCH   7  47
TORSDOF 7
ENDMDL
MODEL 6
REMARK VINA RESULT:      -6.1      7.645     11.963
REMARK  7 active torsions:
REMARK  status: ('A' for Active; 'I' for Inactive)
REMARK    1  A    between atoms: C_4  and  N_7 
REMARK       I    between atoms: N_10  and  C_13 
REMARK    2  A    between atoms: C_13  and  C_15 
REMARK    3  A    between atoms: C_15  and  C_16 
REMARK    4  A    between atoms: C_22  and  C_24 
REMARK    5  A    between atoms: C_24  and  C_25 
REMARK    6  A    between atoms: C_27  and  C_30 
REMARK    7  A    between atoms: C_30  and  N_31 
ROOT
ATOM      1  C   LIG d   1      11.014   3.921  -5.564  0.00  0.00    -0.020 C 
ATOM      2  H   LIG d   1      11.262   3.977  -6.635  0.00  0.00     0.031 H 
ATOM      3  C   LIG d   1      11.714   2.711  -4.938  0.00  0.00    -0.009 C 
ATOM      4  C   LIG d   1      13.230   2.893  -5.047  0.00  0.00    -0.033 C 
ATOM      5  N   LIG d   1      13.628   4.124  -4.355  0.00  0.00     0.227 N 
ATOM      6  C   LIG d   1      13.006   5.304  -4.970  0.00  0.00    -0.030 C 
ATOM      7  C   LIG d   1      11.483   5.196  -4.859  0.00  0.00     0.008 C 
ATOM      8  H   LIG d   1      11.015   6.072  -5.332  0.00  0.00     0.036 H 
ATOM      9  H   LIG d   1      11.428   2.631  -3.879  0.00  0.00     0.032 H 
ATOM     10  H   LIG d   1      11.412   1.797  -5.470  0.00  0.00     0.032 H 
ATOM     11  H   LIG d   1      13.736   2.032  -4.585  0.00  0.00     0.081 H 
ATOM     12  H   LIG d   1      13.515   2.958  -6.107  0.00  0.00     0.081 H 
ATOM     13  H   LIG d   1      13.315   4.071  -3.301  0.00  0.00     0.201 HD
ATOM     14  H   LIG d   1      13.347   6.211  -4.450  0.00  0.00     0.082 H 
ATOM     15  H   LIG d   1      13.292   5.359  -6.030  0.00  0.00     0.082 H 
ATOM     16  H   LIG d   1      14.721   4.236  -4.407  0.00  0.00     0.201 HD
ENDROOT
BRANCH   1  17
ATOM     17  C   LIG d   1       9.500   3.775  -5.404  0.00  0.00     0.028 C 
ATOM     18  H   LIG d   1       8.997   4.638  -5.864  0.00  0.00     0.036 H 
ATOM     19  H   LIG d   1       9.247   3.730  -4.335  0.00  0.00     0.036 H 
BRANCH  17  20
ATOM     20  C   LIG d   1       9.042   2.508  -6.081  0.00  0.00     0.216 C 
ATOM     21  N   LIG d   1       8.512   1.508  -5.351  0.00  0.00    -0.298 N 
ATOM     22  C   LIG d   1       8.059   0.264  -5.992  0.00  0.00     0.030 C 
ATOM     23  C   LIG d   1       8.376   1.628  -3.891  0.00  0.00     0.030 C 
ATOM     24  C   LIG d   1       6.628  -0.029  -5.529  0.00  0.00     0.028 C 
ATOM     25  H   LIG d   1       8.716  -0.570  -5.701  0.00  0.00     0.048 H 
ATOM     26  H   LIG d   1       8.075   0.378  -7.086  0.00  0.00     0.048 H 
ATOM     27  N   LIG d   1       6.582  -0.035  -4.061  0.00  0.00    -0.327 NA
ATOM     28  H   LIG d   1       6.312  -1.012  -5.910  0.00  0.00     0.048 H 
ATOM     29  H   LIG d   1       5.950   0.747  -5.914  0.00  0.00     0.048 H 
ATOM     30  C   LIG d   1       6.926   1.284  -3.513  0.00  0.00     0.028 C 
ATOM     31  H   LIG d   1       6.247   2.043  -3.927  0.00  0.00     0.048 H 
ATOM     32  H   LIG d   1       6.828   1.263  -2.417  0.00  0.00     0.048 H 
ATOM     33  H   LIG d   1       9.070   0.931  -3.400  0.00  0.00     0.048 H 
ATOM     34  H   LIG d   1       8.612   2.658  -3.585  0.00  0.00     0.048 H 
ATOM     35  O   LIG d   1       9.147   2.392  -7.284  0.00  0.00    -0.276 OA
BRANCH  27  36
ATOM     36  C   LIG d   1       5.334  -0.458  -3.601  0.00  0.00     0.030 A 
ATOM     37  C   LIG d   1       5.226  -1.623  -2.851  0.00  0.00    -0.041 A 
ATOM     38  C   LIG d   1       3.990  -2.038  -2.397  0.00  0.00    -0.060 A 
ATOM     39  H   LIG d   1       6.109  -2.203  -2.624  0.00  0.00     0.064 H 
ATOM     40  C   LIG d   1       2.860  -1.296  -2.688  0.00  0.00    -0.062 A 
ATOM     41  H   LIG d   1       3.906  -2.944  -1.814  0.00  0.00     0.062 H 
ATOM     42  C   LIG d   1       2.963  -0.136  -3.433  0.00  0.00    -0.060 A 
ATOM     43  H   LIG d   1       1.894  -1.624  -2.331  0.00  0.00     0.062 H 
ATOM     44  C   LIG d   1       4.197   0.288  -3.886  0.00  0.00    -0.041 A 
ATOM     45  H   LIG d   1       2.078   0.441  -3.659  0.00  0.00     0.062 H 
ATOM     46  H   LIG d   1       4.277   1.196  -4.465  0.00  0.00     0.064 H 
ENDBRANCH  27  36
ENDBRANCH  17  20
ENDBRANCH   1  17
BRANCH   7  47
ATOM     47  C   LIG d   1      11.082   5.140  -3.383  0.00  0.00     0.001 C 
ATOM     48  H   LIG d   1      10.233   4.452  -3.260  0.00  0.00     0.033 H 
ATOM     49  H   LIG d   1      11.933   4.784  -2.785  0.00  0.00     0.033 H 
BRANCH  47  50
ATOM     50  C   LIG d   1      10.684   6.518  -2.920  0.00  0.00     0.084 A 
ATOM     51  N   LIG d   1      10.801   7.629  -3.586  0.00  0.00    -0.083 NA
ATOM     52  O   LIG d   1      10.391   8.574  -2.952  0.00  0.00    -0.358 OA
ATOM     53  C   LIG d   1       9.947   8.201  -1.744  0.00  0.00     0.151 A 
ATOM     54  C   LIG d   1      10.116   6.859  -1.670  0.00  0.00     0.005 A 
ATOM     55  H   LIG d   1       9.873   6.203  -0.848  0.00  0.00     0.067 H 
BRANCH  53  56
ATOM     56  C   LIG d   1       9.371   9.098  -0.678  0.00  0.00     0.060 C 
ATOM     57  H   LIG d   1       8.629   9.773  -1.128  0.00  0.00     0.051 H 
ATOM     58  H   LIG d   1       8.887   8.484   0.096  0.00  0.00     0.051 H 
BRANCH  56  59
ATOM     59  N   LIG d   1      10.449   9.891  -0.071  0.00  0.00    -0.291 N 
ATOM     60  C   LIG d   1       9.942  11.180   0.419  0.00  0.00     0.023 C 
ATOM     61  C   LIG d   1      11.106  11.996   0.988  0.00  0.00     0.060 C 
ATOM     62  H   LIG d   1       9.477  11.732  -0.412  0.00  0.00     0.045 H 
ATOM     63  H   LIG d   1       9.195  11.006   1.206  0.00  0.00     0.045 H 
ATOM     64  O   LIG d   1      11.752  11.243   2.017  0.00  0.00    -0.377 OA
ATOM     65  H   LIG d   1      10.725  12.938   1.408  0.00  0.00     0.057 H 
ATOM     66  H   LIG d   1      11.827  12.218   0.188  0.00  0.00     0.057 H 
ATOM     67  C   LIG d   1      12.259   9.980   1.575  0.00  0.00     0.060 C 
ATOM     68  C   LIG d   1      11.106   9.144   1.012  0.00  0.00     0.023 C 
ATOM     69  H   LIG d   1      12.717   9.450   2.422  0.00  0.00     0.057 H 
ATOM     70  H   LIG d   1      13.013  10.140   0.791  0.00  0.00     0.057 H 
ATOM     71  H   LIG d   1      10.377   8.936   1.809  0.00  0.00     0.045 H 
ATOM     72  H   LIG d   1      11.498   8.195   0.617  0.00  0.00     0.045 H 
ENDBRANCH  56  59
ENDBRANCH  53  56
ENDBRANCH  47  50
ENDBRANCH   7  47
TORSDOF 7
ENDMDL
MODEL 7
REMARK VINA RESULT:      -6.0     10.572     14.391
REMARK  7 active torsions:
REMARK  status: ('A' for Active; 'I' for Inactive)
REMARK    1  A    between atoms: C_4  and  N_7 
REMARK       I    between atoms: N_10  and  C_13 
REMARK    2  A    between atoms: C_13  and  C_15 
REMARK    3  A    between atoms: C_15  and  C_16 
REMARK    4  A    between atoms: C_22  and  C_24 
REMARK    5  A    between atoms: C_24  and  C_25 
REMARK    6  A    between atoms: C_27  and  C_30 
REMARK    7  A    between atoms: C_30  and  N_31 
ROOT
ATOM      1  C   LIG d   1      10.249   5.455  -3.856  0.00  0.00    -0.020 C 
ATOM      2  H   LIG d   1      11.093   5.357  -4.556  0.00  0.00     0.031 H 
ATOM      3  C   LIG d   1       9.706   4.066  -3.508  0.00  0.00    -0.009 C 
ATOM      4  C   LIG d   1      10.797   3.261  -2.798  0.00  0.00    -0.033 C 
ATOM      5  N   LIG d   1      11.212   3.964  -1.578  0.00  0.00     0.227 N 
ATOM      6  C   LIG d   1      11.781   5.281  -1.892  0.00  0.00    -0.030 C 
ATOM      7  C   LIG d   1      10.721   6.148  -2.575  0.00  0.00     0.008 C 
ATOM      8  H   LIG d   1      11.150   7.130  -2.823  0.00  0.00     0.036 H 
ATOM      9  H   LIG d   1       8.835   4.170  -2.844  0.00  0.00     0.032 H 
ATOM     10  H   LIG d   1       9.406   3.548  -4.430  0.00  0.00     0.032 H 
ATOM     11  H   LIG d   1      10.406   2.267  -2.533  0.00  0.00     0.081 H 
ATOM     12  H   LIG d   1      11.662   3.147  -3.468  0.00  0.00     0.081 H 
ATOM     13  H   LIG d   1      10.341   4.106  -0.922  0.00  0.00     0.201 HD
ATOM     14  H   LIG d   1      12.110   5.769  -0.963  0.00  0.00     0.082 H 
ATOM     15  H   LIG d   1      12.641   5.157  -2.566  0.00  0.00     0.082 H 
ATOM     16  H   LIG d   1      11.974   3.369  -1.053  0.00  0.00     0.201 HD
ENDROOT
BRANCH   1  17
ATOM     17  C   LIG d   1       9.145   6.286  -4.511  0.00  0.00     0.028 C 
ATOM     18  H   LIG d   1       8.454   6.653  -3.737  0.00  0.00     0.036 H 
ATOM     19  H   LIG d   1       8.593   5.662  -5.229  0.00  0.00     0.036 H 
BRANCH  17  20
ATOM     20  C   LIG d   1       9.758   7.459  -5.232  0.00  0.00     0.216 C 
ATOM     21  N   LIG d   1      10.279   7.295  -6.463  0.00  0.00    -0.298 N 
ATOM     22  C   LIG d   1      10.882   8.426  -7.185  0.00  0.00     0.030 C 
ATOM     23  C   LIG d   1      10.265   5.978  -7.120  0.00  0.00     0.030 C 
ATOM     24  C   LIG d   1      10.263   8.496  -8.585  0.00  0.00     0.028 C 
ATOM     25  H   LIG d   1      11.969   8.279  -7.273  0.00  0.00     0.048 H 
ATOM     26  H   LIG d   1      10.681   9.364  -6.647  0.00  0.00     0.048 H 
ATOM     27  N   LIG d   1      10.403   7.192  -9.246  0.00  0.00    -0.327 NA
ATOM     28  H   LIG d   1      10.780   9.266  -9.178  0.00  0.00     0.048 H 
ATOM     29  H   LIG d   1       9.196   8.753  -8.503  0.00  0.00     0.048 H 
ATOM     30  C   LIG d   1       9.664   6.147  -8.526  0.00  0.00     0.028 C 
ATOM     31  H   LIG d   1       8.607   6.437  -8.441  0.00  0.00     0.048 H 
ATOM     32  H   LIG d   1       9.742   5.198  -9.075  0.00  0.00     0.048 H 
ATOM     33  H   LIG d   1      11.293   5.594  -7.193  0.00  0.00     0.048 H 
ATOM     34  H   LIG d   1       9.653   5.281  -6.530  0.00  0.00     0.048 H 
ATOM     35  O   LIG d   1       9.778   8.552  -4.706  0.00  0.00    -0.276 OA
BRANCH  27  36
ATOM     36  C   LIG d   1       9.999   7.261 -10.581  0.00  0.00     0.030 A 
ATOM     37  C   LIG d   1       9.289   6.210 -11.149  0.00  0.00    -0.041 A 
ATOM     38  C   LIG d   1       8.891   6.282 -12.469  0.00  0.00    -0.060 A 
ATOM     39  H   LIG d   1       9.051   5.338 -10.559  0.00  0.00     0.064 H 
ATOM     40  C   LIG d   1       9.197   7.399 -13.226  0.00  0.00    -0.062 A 
ATOM     41  H   LIG d   1       8.339   5.465 -12.911  0.00  0.00     0.062 H 
ATOM     42  C   LIG d   1       9.903   8.447 -12.663  0.00  0.00    -0.060 A 
ATOM     43  H   LIG d   1       8.884   7.452 -14.258  0.00  0.00     0.062 H 
ATOM     44  C   LIG d   1      10.300   8.383 -11.342  0.00  0.00    -0.041 A 
ATOM     45  H   LIG d   1      10.141   9.317 -13.257  0.00  0.00     0.062 H 
ATOM     46  H   LIG d   1      10.848   9.204 -10.903  0.00  0.00     0.064 H 
ENDBRANCH  27  36
ENDBRANCH  17  20
ENDBRANCH   1  17
BRANCH   7  47
ATOM     47  C   LIG d   1       9.532   6.338  -1.630  0.00  0.00     0.001 C 
ATOM     48  H   LIG d   1       8.615   5.975  -2.117  0.00  0.00     0.033 H 
ATOM     49  H   LIG d   1       9.705   5.770  -0.705  0.00  0.00     0.033 H 
BRANCH  47  50
ATOM     50  C   LIG d   1       9.382   7.801  -1.301  0.00  0.00     0.084 A 
ATOM     51  N   LIG d   1       8.339   8.380  -0.781  0.00  0.00    -0.083 NA
ATOM     52  O   LIG d   1       8.518   9.567  -0.629  0.00  0.00    -0.358 OA
ATOM     53  C   LIG d   1       9.734   9.939  -1.052  0.00  0.00     0.151 A 
ATOM     54  C   LIG d   1      10.344   8.817  -1.503  0.00  0.00     0.005 A 
ATOM     55  H   LIG d   1      11.335   8.722  -1.921  0.00  0.00     0.067 H 
BRANCH  53  56
ATOM     56  C   LIG d   1      10.310  11.332  -1.028  0.00  0.00     0.060 C 
ATOM     57  H   LIG d   1       9.631  12.000  -0.480  0.00  0.00     0.051 H 
ATOM     58  H   LIG d   1      11.290  11.315  -0.530  0.00  0.00     0.051 H 
BRANCH  56  59
ATOM     59  N   LIG d   1      10.469  11.819  -2.405  0.00  0.00    -0.291 N 
ATOM     60  C   LIG d   1       9.177  11.853  -3.105  0.00  0.00     0.023 C 
ATOM     61  C   LIG d   1       9.398  12.308  -4.550  0.00  0.00     0.060 C 
ATOM     62  H   LIG d   1       8.731  10.847  -3.099  0.00  0.00     0.045 H 
ATOM     63  H   LIG d   1       8.503  12.557  -2.596  0.00  0.00     0.045 H 
ATOM     64  O   LIG d   1      10.046  13.582  -4.550  0.00  0.00    -0.377 OA
ATOM     65  H   LIG d   1       8.428  12.390  -5.062  0.00  0.00     0.057 H 
ATOM     66  H   LIG d   1      10.028  11.575  -5.075  0.00  0.00     0.057 H 
ATOM     67  C   LIG d   1      11.309  13.586  -3.877  0.00  0.00     0.060 C 
ATOM     68  C   LIG d   1      11.107  13.144  -2.425  0.00  0.00     0.023 C 
ATOM     69  H   LIG d   1      11.733  14.600  -3.896  0.00  0.00     0.057 H 
ATOM     70  H   LIG d   1      11.997  12.891  -4.380  0.00  0.00     0.057 H 
ATOM     71  H   LIG d   1      10.464  13.869  -1.904  0.00  0.00     0.045 H 
ATOM     72  H   LIG d   1      12.082  13.089  -1.918  0.00  0.00     0.045 H 
ENDBRANCH  56  59
ENDBRANCH  53  56
ENDBRANCH  47  50
ENDBRANCH   7  47
TORSDOF 7
ENDMDL
MODEL 8
REMARK VINA RESULT:      -6.0      6.714     10.192
REMARK  7 active torsions:
REMARK  status: ('A' for Active; 'I' for Inactive)
REMARK    1  A    between atoms: C_4  and  N_7 
REMARK       I    between atoms: N_10  and  C_13 
REMARK    2  A    between atoms: C_13  and  C_15 
REMARK    3  A    between atoms: C_15  and  C_16 
REMARK    4  A    between atoms: C_22  and  C_24 
REMARK    5  A    between atoms: C_24  and  C_25 
REMARK    6  A    between atoms: C_27  and  C_30 
REMARK    7  A    between atoms: C_30  and  N_31 
ROOT
ATOM      1  C   LIG d   1      10.941   4.492  -6.896  0.00  0.00    -0.020 C 
ATOM      2  H   LIG d   1      11.720   4.932  -6.255  0.00  0.00     0.031 H 
ATOM      3  C   LIG d   1      11.551   4.086  -8.241  0.00  0.00    -0.009 C 
ATOM      4  C   LIG d   1      12.615   3.011  -8.008  0.00  0.00    -0.033 C 
ATOM      5  N   LIG d   1      12.002   1.846  -7.357  0.00  0.00     0.227 N 
ATOM      6  C   LIG d   1      11.451   2.202  -6.043  0.00  0.00    -0.030 C 
ATOM      7  C   LIG d   1      10.353   3.254  -6.215  0.00  0.00     0.008 C 
ATOM      8  H   LIG d   1       9.950   3.531  -5.230  0.00  0.00     0.036 H 
ATOM      9  H   LIG d   1      10.762   3.689  -8.895  0.00  0.00     0.032 H 
ATOM     10  H   LIG d   1      12.013   4.966  -8.714  0.00  0.00     0.032 H 
ATOM     11  H   LIG d   1      13.045   2.706  -8.974  0.00  0.00     0.081 H 
ATOM     12  H   LIG d   1      13.410   3.415  -7.365  0.00  0.00     0.081 H 
ATOM     13  H   LIG d   1      11.186   1.461  -7.987  0.00  0.00     0.201 HD
ATOM     14  H   LIG d   1      11.028   1.305  -5.568  0.00  0.00     0.082 H 
ATOM     15  H   LIG d   1      12.251   2.609  -5.409  0.00  0.00     0.082 H 
ATOM     16  H   LIG d   1      12.761   1.062  -7.220  0.00  0.00     0.201 HD
ENDROOT
BRANCH   1  17
ATOM     17  C   LIG d   1       9.835   5.523  -7.127  0.00  0.00     0.028 C 
ATOM     18  H   LIG d   1       8.910   5.185  -6.636  0.00  0.00     0.036 H 
ATOM     19  H   LIG d   1       9.658   5.635  -8.206  0.00  0.00     0.036 H 
BRANCH  17  20
ATOM     20  C   LIG d   1      10.255   6.850  -6.547  0.00  0.00     0.216 C 
ATOM     21  N   LIG d   1       9.871   7.193  -5.303  0.00  0.00    -0.298 N 
ATOM     22  C   LIG d   1      10.269   8.483  -4.718  0.00  0.00     0.030 C 
ATOM     23  C   LIG d   1       9.037   6.290  -4.494  0.00  0.00     0.030 C 
ATOM     24  C   LIG d   1      10.886   8.222  -3.340  0.00  0.00     0.028 C 
ATOM     25  H   LIG d   1       9.389   9.133  -4.608  0.00  0.00     0.048 H 
ATOM     26  H   LIG d   1      11.010   8.975  -5.365  0.00  0.00     0.048 H 
ATOM     27  N   LIG d   1       9.950   7.435  -2.527  0.00  0.00    -0.327 NA
ATOM     28  H   LIG d   1      11.089   9.182  -2.841  0.00  0.00     0.048 H 
ATOM     29  H   LIG d   1      11.828   7.665  -3.457  0.00  0.00     0.048 H 
ATOM     30  C   LIG d   1       9.709   6.114  -3.122  0.00  0.00     0.028 C 
ATOM     31  H   LIG d   1      10.666   5.587  -3.245  0.00  0.00     0.048 H 
ATOM     32  H   LIG d   1       9.051   5.530  -2.463  0.00  0.00     0.048 H 
ATOM     33  H   LIG d   1       8.036   6.728  -4.370  0.00  0.00     0.048 H 
ATOM     34  H   LIG d   1       8.953   5.317  -5.000  0.00  0.00     0.048 H 
ATOM     35  O   LIG d   1      10.942   7.606  -7.201  0.00  0.00    -0.276 OA
BRANCH  27  36
ATOM     36  C   LIG d   1      10.405   7.317  -1.213  0.00  0.00     0.030 A 
ATOM     37  C   LIG d   1      10.703   8.455  -0.473  0.00  0.00    -0.041 A 
ATOM     38  C   LIG d   1      11.153   8.334   0.827  0.00  0.00    -0.060 A 
ATOM     39  H   LIG d   1      10.585   9.433  -0.916  0.00  0.00     0.064 H 
ATOM     40  C   LIG d   1      11.306   7.082   1.393  0.00  0.00    -0.062 A 
ATOM     41  H   LIG d   1      11.385   9.218   1.402  0.00  0.00     0.062 H 
ATOM     42  C   LIG d   1      11.009   5.947   0.661  0.00  0.00    -0.060 A 
ATOM     43  H   LIG d   1      11.657   6.990   2.411  0.00  0.00     0.062 H 
ATOM     44  C   LIG d   1      10.554   6.061  -0.638  0.00  0.00    -0.041 A 
ATOM     45  H   LIG d   1      11.130   4.970   1.106  0.00  0.00     0.062 H 
ATOM     46  H   LIG d   1      10.320   5.173  -1.208  0.00  0.00     0.064 H 
ENDBRANCH  27  36
ENDBRANCH  17  20
ENDBRANCH   1  17
BRANCH   7  47
ATOM     47  C   LIG d   1       9.229   2.680  -7.081  0.00  0.00     0.001 C 
ATOM     48  H   LIG d   1       8.664   3.504  -7.540  0.00  0.00     0.033 H 
ATOM     49  H   LIG d   1       9.660   2.048  -7.869  0.00  0.00     0.033 H 
BRANCH  47  50
ATOM     50  C   LIG d   1       8.306   1.854  -6.222  0.00  0.00     0.084 A 
ATOM     51  N   LIG d   1       7.813   2.185  -5.065  0.00  0.00    -0.083 NA
ATOM     52  O   LIG d   1       7.100   1.316  -4.619  0.00  0.00    -0.358 OA
ATOM     53  C   LIG d   1       7.037   0.260  -5.443  0.00  0.00     0.151 A 
ATOM     54  C   LIG d   1       7.810   0.562  -6.513  0.00  0.00     0.005 A 
ATOM     55  H   LIG d   1       8.005  -0.045  -7.385  0.00  0.00     0.067 H 
BRANCH  53  56
ATOM     56  C   LIG d   1       6.255  -1.010  -5.223  0.00  0.00     0.060 C 
ATOM     57  H   LIG d   1       5.761  -1.304  -6.161  0.00  0.00     0.051 H 
ATOM     58  H   LIG d   1       6.939  -1.810  -4.903  0.00  0.00     0.051 H 
BRANCH  56  59
ATOM     59  N   LIG d   1       5.242  -0.787  -4.184  0.00  0.00    -0.291 N 
ATOM     60  C   LIG d   1       3.910  -0.603  -4.777  0.00  0.00     0.023 C 
ATOM     61  C   LIG d   1       2.898  -0.315  -3.666  0.00  0.00     0.060 C 
ATOM     62  H   LIG d   1       3.936   0.243  -5.480  0.00  0.00     0.045 H 
ATOM     63  H   LIG d   1       3.618  -1.517  -5.314  0.00  0.00     0.045 H 
ATOM     64  O   LIG d   1       2.923  -1.383  -2.716  0.00  0.00    -0.377 OA
ATOM     65  H   LIG d   1       1.889  -0.233  -4.098  0.00  0.00     0.057 H 
ATOM     66  H   LIG d   1       3.159   0.628  -3.164  0.00  0.00     0.057 H 
ATOM     67  C   LIG d   1       4.205  -1.591  -2.117  0.00  0.00     0.060 C 
ATOM     68  C   LIG d   1       5.231  -1.891  -3.213  0.00  0.00     0.023 C 
ATOM     69  H   LIG d   1       4.153  -2.440  -1.420  0.00  0.00     0.057 H 
ATOM     70  H   LIG d   1       4.508  -0.686  -1.570  0.00  0.00     0.057 H 
ATOM     71  H   LIG d   1       4.961  -2.827  -3.725  0.00  0.00     0.045 H 
ATOM     72  H   LIG d   1       6.230  -1.995  -2.764  0.00  0.00     0.045 H 
ENDBRANCH  56  59
ENDBRANCH  53  56
ENDBRANCH  47  50
ENDBRANCH   7  47
TORSDOF 7
ENDMDL
MODEL 9
REMARK VINA RESULT:      -6.0      2.544      6.623
REMARK  7 active torsions:
REMARK  status: ('A' for Active; 'I' for Inactive)
REMARK    1  A    between atoms: C_4  and  N_7 
REMARK       I    between atoms: N_10  and  C_13 
REMARK    2  A    between atoms: C_13  and  C_15 
REMARK    3  A    between atoms: C_15  and  C_16 
REMARK    4  A    between atoms: C_22  and  C_24 
REMARK    5  A    between atoms: C_24  and  C_25 
REMARK    6  A    between atoms: C_27  and  C_30 
REMARK    7  A    between atoms: C_30  and  N_31 
ROOT
ATOM      1  C   LIG d   1       8.635  -4.545  -5.493  0.00  0.00    -0.020 C 
ATOM      2  H   LIG d   1       8.199  -3.584  -5.180  0.00  0.00     0.031 H 
ATOM      3  C   LIG d   1       9.928  -4.292  -6.274  0.00  0.00    -0.009 C 
ATOM      4  C   LIG d   1      10.944  -3.605  -5.358  0.00  0.00    -0.033 C 
ATOM      5  N   LIG d   1      11.213  -4.458  -4.194  0.00  0.00     0.227 N 
ATOM      6  C   LIG d   1       9.995  -4.675  -3.403  0.00  0.00    -0.030 C 
ATOM      7  C   LIG d   1       8.950  -5.394  -4.259  0.00  0.00     0.008 C 
ATOM      8  H   LIG d   1       8.032  -5.545  -3.671  0.00  0.00     0.036 H 
ATOM      9  H   LIG d   1      10.337  -5.251  -6.624  0.00  0.00     0.032 H 
ATOM     10  H   LIG d   1       9.714  -3.646  -7.138  0.00  0.00     0.032 H 
ATOM     11  H   LIG d   1      11.880  -3.435  -5.912  0.00  0.00     0.081 H 
ATOM     12  H   LIG d   1      10.539  -2.639  -5.020  0.00  0.00     0.081 H 
ATOM     13  H   LIG d   1      11.589  -5.434  -4.534  0.00  0.00     0.201 HD
ATOM     14  H   LIG d   1      10.235  -5.290  -2.524  0.00  0.00     0.082 H 
ATOM     15  H   LIG d   1       9.595  -3.706  -3.074  0.00  0.00     0.082 H 
ATOM     16  H   LIG d   1      11.967  -3.977  -3.554  0.00  0.00     0.201 HD
ENDROOT
BRANCH   1  17
ATOM     17  C   LIG d   1       7.637  -5.286  -6.384  0.00  0.00     0.028 C 
ATOM     18  H   LIG d   1       7.056  -5.994  -5.773  0.00  0.00     0.036 H 
ATOM     19  H   LIG d   1       8.181  -5.836  -7.165  0.00  0.00     0.036 H 
BRANCH  17  20
ATOM     20  C   LIG d   1       6.702  -4.293  -7.027  0.00  0.00     0.216 C 
ATOM     21  N   LIG d   1       5.705  -3.744  -6.308  0.00  0.00    -0.298 N 
ATOM     22  C   LIG d   1       4.782  -2.773  -6.916  0.00  0.00     0.030 C 
ATOM     23  C   LIG d   1       5.506  -4.102  -4.895  0.00  0.00     0.030 C 
ATOM     24  C   LIG d   1       4.720  -1.533  -6.019  0.00  0.00     0.028 C 
ATOM     25  H   LIG d   1       3.777  -3.213  -7.003  0.00  0.00     0.048 H 
ATOM     26  H   LIG d   1       5.144  -2.486  -7.915  0.00  0.00     0.048 H 
ATOM     27  N   LIG d   1       4.379  -1.938  -4.649  0.00  0.00    -0.327 NA
ATOM     28  H   LIG d   1       3.952  -0.842  -6.399  0.00  0.00     0.048 H 
ATOM     29  H   LIG d   1       5.697  -1.028  -6.020  0.00  0.00     0.048 H 
ATOM     30  C   LIG d   1       5.418  -2.804  -4.076  0.00  0.00     0.028 C 
ATOM     31  H   LIG d   1       6.387  -2.284  -4.106  0.00  0.00     0.048 H 
ATOM     32  H   LIG d   1       5.163  -3.043  -3.034  0.00  0.00     0.048 H 
ATOM     33  H   LIG d   1       4.574  -4.677  -4.791  0.00  0.00     0.048 H 
ATOM     34  H   LIG d   1       6.353  -4.711  -4.548  0.00  0.00     0.048 H 
ATOM     35  O   LIG d   1       6.852  -3.986  -8.191  0.00  0.00    -0.276 OA
BRANCH  27  36
ATOM     36  C   LIG d   1       4.153  -0.824  -3.838  0.00  0.00     0.030 A 
ATOM     37  C   LIG d   1       3.352   0.217  -4.292  0.00  0.00    -0.041 A 
ATOM     38  C   LIG d   1       3.130   1.316  -3.487  0.00  0.00    -0.060 A 
ATOM     39  H   LIG d   1       2.904   0.165  -5.274  0.00  0.00     0.064 H 
ATOM     40  C   LIG d   1       3.703   1.383  -2.231  0.00  0.00    -0.062 A 
ATOM     41  H   LIG d   1       2.507   2.126  -3.840  0.00  0.00     0.062 H 
ATOM     42  C   LIG d   1       4.500   0.349  -1.775  0.00  0.00    -0.060 A 
ATOM     43  H   LIG d   1       3.527   2.245  -1.603  0.00  0.00     0.062 H 
ATOM     44  C   LIG d   1       4.723  -0.757  -2.573  0.00  0.00    -0.041 A 
ATOM     45  H   LIG d   1       4.947   0.404  -0.794  0.00  0.00     0.062 H 
ATOM     46  H   LIG d   1       5.343  -1.566  -2.215  0.00  0.00     0.064 H 
ENDBRANCH  27  36
ENDBRANCH  17  20
ENDBRANCH   1  17
BRANCH   7  47
ATOM     47  C   LIG d   1       9.498  -6.753  -4.700  0.00  0.00     0.001 C 
ATOM     48  H   LIG d   1       9.241  -6.927  -5.755  0.00  0.00     0.033 H 
ATOM     49  H   LIG d   1      10.591  -6.761  -4.584  0.00  0.00     0.033 H 
BRANCH  47  50
ATOM     50  C   LIG d   1       8.894  -7.838  -3.848  0.00  0.00     0.084 A 
ATOM     51  N   LIG d   1       9.014  -7.976  -2.559  0.00  0.00    -0.083 NA
ATOM     52  O   LIG d   1       8.411  -8.944  -2.157  0.00  0.00    -0.358 OA
ATOM     53  C   LIG d   1       7.805  -9.598  -3.158  0.00  0.00     0.151 A 
ATOM     54  C   LIG d   1       8.090  -8.914  -4.291  0.00  0.00     0.005 A 
ATOM     55  H   LIG d   1       7.776  -9.138  -5.300  0.00  0.00     0.067 H 
BRANCH  53  56
ATOM     56  C   LIG d   1       6.970 -10.848  -3.044  0.00  0.00     0.060 C 
ATOM     57  H   LIG d   1       7.476 -11.676  -3.562  0.00  0.00     0.051 H 
ATOM     58  H   LIG d   1       6.838 -11.105  -1.983  0.00  0.00     0.051 H 
BRANCH  56  59
ATOM     59  N   LIG d   1       5.656 -10.617  -3.659  0.00  0.00    -0.291 N 
ATOM     60  C   LIG d   1       5.358 -11.643  -4.668  0.00  0.00     0.023 C 
ATOM     61  C   LIG d   1       4.011 -11.330  -5.323  0.00  0.00     0.060 C 
ATOM     62  H   LIG d   1       6.149 -11.645  -5.433  0.00  0.00     0.045 H 
ATOM     63  H   LIG d   1       5.313 -12.630  -4.185  0.00  0.00     0.045 H 
ATOM     64  O   LIG d   1       3.001 -11.255  -4.314  0.00  0.00    -0.377 OA
ATOM     65  H   LIG d   1       3.756 -12.126  -6.039  0.00  0.00     0.057 H 
ATOM     66  H   LIG d   1       4.073 -10.368  -5.853  0.00  0.00     0.057 H 
ATOM     67  C   LIG d   1       3.258 -10.265  -3.315  0.00  0.00     0.060 C 
ATOM     68  C   LIG d   1       4.598 -10.567  -2.639  0.00  0.00     0.023 C 
ATOM     69  H   LIG d   1       2.456 -10.283  -2.563  0.00  0.00     0.057 H 
ATOM     70  H   LIG d   1       3.300  -9.271  -3.783  0.00  0.00     0.057 H 
ATOM     71  H   LIG d   1       4.541 -11.537  -2.123  0.00  0.00     0.045 H 
ATOM     72  H   LIG d   1       4.830  -9.777  -1.909  0.00  0.00     0.045 H 
ENDBRANCH  56  59
ENDBRANCH  53  56
ENDBRANCH  47  50
ENDBRANCH   7  47
TORSDOF 7
ENDMDL
