MODEL 1
REMARK VINA RESULT:      -7.7      0.000      0.000
REMARK  4 active torsions:
REMARK  status: ('A' for Active; 'I' for Inactive)
REMARK    1  A    between atoms: C_1  and  C_2 
REMARK    2  A    between atoms: C_7  and  C_32 
REMARK    3  A    between atoms: C_20  and  C_22 
REMARK    4  A    between atoms: C_22  and  N_59 
ROOT
ATOM      1  C   LIG d   1       3.103   0.235  -3.658  0.00  0.00    -0.012 C 
ATOM      2  H   LIG d   1       2.276   0.642  -4.240  0.00  0.00     0.033 H 
ATOM      3  C   LIG d   1       3.631   1.305  -2.696  0.00  0.00    -0.048 C 
ATOM      4  C   LIG d   1       4.854   0.769  -1.950  0.00  0.00    -0.052 C 
ATOM      5  C   LIG d   1       5.980   0.461  -2.939  0.00  0.00    -0.045 C 
ATOM      6  C   LIG d   1       5.521  -0.640  -3.896  0.00  0.00     0.003 C 
ATOM      7  C   LIG d   1       4.237  -0.179  -4.596  0.00  0.00     0.104 A 
ATOM      8  C   LIG d   1       3.914  -0.776  -5.951  0.00  0.00     0.096 A 
ATOM      9  H   LIG d   1       2.859  -0.895  -6.195  0.00  0.00     0.063 H 
ATOM     10  O   LIG d   1       4.387   0.566  -5.808  0.00  0.00    -0.363 OA
ATOM     11  C   LIG d   1       4.830  -1.791  -6.608  0.00  0.00     0.043 C 
ATOM     12  H   LIG d   1       5.013  -1.519  -7.647  0.00  0.00     0.037 H 
ATOM     13  C   LIG d   1       6.149  -2.016  -5.879  0.00  0.00     0.110 C 
ATOM     14  H   LIG d   1       6.928  -2.137  -6.631  0.00  0.00     0.074 H 
ATOM     15  C   LIG d   1       6.573  -0.870  -4.984  0.00  0.00    -0.007 C 
ATOM     16  O   LIG d   1       6.044  -3.264  -5.149  0.00  0.00    -0.461 OA
ATOM     17  C   LIG d   1       4.817  -3.795  -5.283  0.00  0.00     0.316 C 
ATOM     18  O   LIG d   1       4.322  -4.617  -4.549  0.00  0.00    -0.250 OA
ATOM     19  C   LIG d   1       4.160  -3.188  -6.507  0.00  0.00     0.105 C 
ATOM     20  H   LIG d   1       3.085  -3.090  -6.359  0.00  0.00     0.047 H 
ATOM     21  H   LIG d   1       3.911   2.194  -3.260  0.00  0.00     0.027 H 
ATOM     22  H   LIG d   1       2.853   1.563  -1.978  0.00  0.00     0.027 H 
ATOM     23  H   LIG d   1       5.196   1.517  -1.234  0.00  0.00     0.027 H 
ATOM     24  H   LIG d   1       4.582  -0.143  -1.419  0.00  0.00     0.027 H 
ATOM     25  H   LIG d   1       6.861   0.126  -2.394  0.00  0.00     0.027 H 
ATOM     26  H   LIG d   1       6.221   1.360  -3.508  0.00  0.00     0.027 H 
ATOM     27  H   LIG d   1       6.680   0.036  -5.581  0.00  0.00     0.031 H 
ATOM     28  H   LIG d   1       7.529  -1.109  -4.517  0.00  0.00     0.031 H 
ENDROOT
BRANCH  19  29
ATOM     29  C   LIG d   1       4.461  -4.023  -7.753  0.00  0.00    -0.018 C 
ATOM     30  H   LIG d   1       5.335  -3.616  -8.261  0.00  0.00     0.082 H 
ATOM     31  H   LIG d   1       4.659  -5.055  -7.459  0.00  0.00     0.082 H 
BRANCH  29  32
ATOM     32  N   LIG d   1       3.283  -3.991  -8.650  0.00  0.00     0.239 N 
ATOM     33  C   LIG d   1       3.244  -5.215  -9.477  0.00  0.00    -0.028 C 
ATOM     34  C   LIG d   1       1.859  -5.300 -10.118  0.00  0.00     0.013 C 
ATOM     35  H   LIG d   1       4.006  -5.174 -10.256  0.00  0.00     0.082 H 
ATOM     36  H   LIG d   1       3.408  -6.086  -8.844  0.00  0.00     0.082 H 
ATOM     37  C   LIG d   1       1.524  -3.995 -10.796  0.00  0.00    -0.034 A 
ATOM     38  H   LIG d   1       1.115  -5.508  -9.349  0.00  0.00     0.036 H 
ATOM     39  H   LIG d   1       1.851  -6.102 -10.856  0.00  0.00     0.036 H 
ATOM     40  C   LIG d   1       2.214  -2.836 -10.514  0.00  0.00     0.000 A 
ATOM     41  C   LIG d   1       0.491  -3.977 -11.721  0.00  0.00    -0.058 A 
ATOM     42  C   LIG d   1       1.866  -1.655 -11.154  0.00  0.00    -0.053 A 
ATOM     43  C   LIG d   1       3.348  -2.807  -9.522  0.00  0.00    -0.006 C 
ATOM     44  C   LIG d   1       0.837  -1.638 -12.074  0.00  0.00    -0.061 A 
ATOM     45  H   LIG d   1       2.404  -0.746 -10.934  0.00  0.00     0.062 H 
ATOM     46  C   LIG d   1       0.147  -2.801 -12.358  0.00  0.00    -0.061 A 
ATOM     47  H   LIG d   1       0.570  -0.715 -12.569  0.00  0.00     0.062 H 
ATOM     48  H   LIG d   1      -0.659  -2.791 -13.078  0.00  0.00     0.062 H 
ATOM     49  H   LIG d   1       3.264  -1.911  -8.907  0.00  0.00     0.087 H 
ATOM     50  H   LIG d   1       4.295  -2.787 -10.061  0.00  0.00     0.087 H 
ATOM     51  H   LIG d   1      -0.048  -4.886 -11.944  0.00  0.00     0.062 H 
ATOM     52  H   LIG d   1       2.431  -3.944  -8.081  0.00  0.00     0.204 HD
ENDBRANCH  29  32
ENDBRANCH  19  29
BRANCH   1  53
ATOM     53  C   LIG d   1       2.622  -0.982  -2.865  0.00  0.00    -0.060 C 
ATOM     54  H   LIG d   1       1.620  -0.792  -2.480  0.00  0.00     0.023 H 
ATOM     55  H   LIG d   1       2.602  -1.856  -3.516  0.00  0.00     0.023 H 
ATOM     56  H   LIG d   1       3.302  -1.166  -2.033  0.00  0.00     0.023 H 
ENDBRANCH   1  53
BRANCH   6  57
ATOM     57  C   LIG d   1       5.264  -1.942  -3.134  0.00  0.00    -0.057 C 
ATOM     58  H   LIG d   1       5.818  -2.754  -3.605  0.00  0.00     0.024 H 
ATOM     59  H   LIG d   1       5.592  -1.829  -2.100  0.00  0.00     0.024 H 
ATOM     60  H   LIG d   1       4.198  -2.170  -3.154  0.00  0.00     0.024 H 
ENDBRANCH   6  57
TORSDOF 4
ENDMDL
MODEL 2
REMARK VINA RESULT:      -7.7      6.457      9.237
REMARK  4 active torsions:
REMARK  status: ('A' for Active; 'I' for Inactive)
REMARK    1  A    between atoms: C_1  and  C_2 
REMARK    2  A    between atoms: C_7  and  C_32 
REMARK    3  A    between atoms: C_20  and  C_22 
REMARK    4  A    between atoms: C_22  and  N_59 
ROOT
ATOM      1  C   LIG d   1       9.586   7.219  -2.816  0.00  0.00    -0.012 C 
ATOM      2  H   LIG d   1       8.517   7.389  -2.953  0.00  0.00     0.033 H 
ATOM      3  C   LIG d   1      10.322   8.563  -2.807  0.00  0.00    -0.048 C 
ATOM      4  C   LIG d   1      11.830   8.324  -2.716  0.00  0.00    -0.052 C 
ATOM      5  C   LIG d   1      12.316   7.554  -3.946  0.00  0.00    -0.045 C 
ATOM      6  C   LIG d   1      11.645   6.180  -3.977  0.00  0.00     0.003 C 
ATOM      7  C   LIG d   1      10.124   6.376  -3.971  0.00  0.00     0.104 A 
ATOM      8  C   LIG d   1       9.265   5.278  -4.568  0.00  0.00     0.096 A 
ATOM      9  H   LIG d   1       8.281   5.131  -4.124  0.00  0.00     0.063 H 
ATOM     10  O   LIG d   1       9.481   6.521  -5.242  0.00  0.00    -0.363 OA
ATOM     11  C   LIG d   1       9.881   4.026  -5.162  0.00  0.00     0.043 C 
ATOM     12  H   LIG d   1       9.444   3.816  -6.139  0.00  0.00     0.037 H 
ATOM     13  C   LIG d   1      11.402   4.054  -5.257  0.00  0.00     0.110 C 
ATOM     14  H   LIG d   1      11.686   3.576  -6.194  0.00  0.00     0.074 H 
ATOM     15  C   LIG d   1      12.003   5.444  -5.270  0.00  0.00    -0.007 C 
ATOM     16  O   LIG d   1      11.927   3.246  -4.174  0.00  0.00    -0.461 OA
ATOM     17  C   LIG d   1      10.935   2.785  -3.396  0.00  0.00     0.316 C 
ATOM     18  O   LIG d   1      11.056   2.387  -2.261  0.00  0.00    -0.250 OA
ATOM     19  C   LIG d   1       9.637   2.850  -4.179  0.00  0.00     0.105 C 
ATOM     20  H   LIG d   1       8.799   3.067  -3.518  0.00  0.00     0.047 H 
ATOM     21  H   LIG d   1      10.096   9.107  -3.724  0.00  0.00     0.027 H 
ATOM     22  H   LIG d   1       9.996   9.150  -1.949  0.00  0.00     0.027 H 
ATOM     23  H   LIG d   1      12.346   9.283  -2.663  0.00  0.00     0.027 H 
ATOM     24  H   LIG d   1      12.050   7.744  -1.819  0.00  0.00     0.027 H 
ATOM     25  H   LIG d   1      13.396   7.431  -3.895  0.00  0.00     0.027 H 
ATOM     26  H   LIG d   1      12.053   8.108  -4.849  0.00  0.00     0.027 H 
ATOM     27  H   LIG d   1      11.613   6.000  -6.123  0.00  0.00     0.031 H 
ATOM     28  H   LIG d   1      13.087   5.370  -5.355  0.00  0.00     0.031 H 
ENDROOT
BRANCH  19  29
ATOM     29  C   LIG d   1       9.401   1.546  -4.943  0.00  0.00    -0.018 C 
ATOM     30  H   LIG d   1       9.005   1.771  -5.934  0.00  0.00     0.082 H 
ATOM     31  H   LIG d   1      10.345   1.007  -5.043  0.00  0.00     0.082 H 
BRANCH  29  32
ATOM     32  N   LIG d   1       8.444   0.710  -4.184  0.00  0.00     0.239 N 
ATOM     33  C   LIG d   1       8.062  -0.474  -4.981  0.00  0.00    -0.028 C 
ATOM     34  C   LIG d   1       7.365  -1.462  -4.046  0.00  0.00     0.013 C 
ATOM     35  H   LIG d   1       7.383  -0.189  -5.785  0.00  0.00     0.082 H 
ATOM     36  H   LIG d   1       8.957  -0.934  -5.399  0.00  0.00     0.082 H 
ATOM     37  C   LIG d   1       6.272  -0.762  -3.280  0.00  0.00    -0.034 A 
ATOM     38  H   LIG d   1       8.092  -1.872  -3.345  0.00  0.00     0.036 H 
ATOM     39  H   LIG d   1       6.933  -2.272  -4.634  0.00  0.00     0.036 H 
ATOM     40  C   LIG d   1       6.218   0.612  -3.189  0.00  0.00     0.000 A 
ATOM     41  C   LIG d   1       5.305  -1.534  -2.653  0.00  0.00    -0.058 A 
ATOM     42  C   LIG d   1       5.199   1.215  -2.465  0.00  0.00    -0.053 A 
ATOM     43  C   LIG d   1       7.241   1.494  -3.856  0.00  0.00    -0.006 C 
ATOM     44  C   LIG d   1       4.238   0.445  -1.840  0.00  0.00    -0.061 A 
ATOM     45  H   LIG d   1       5.157   2.291  -2.391  0.00  0.00     0.062 H 
ATOM     46  C   LIG d   1       4.290  -0.933  -1.935  0.00  0.00    -0.061 A 
ATOM     47  H   LIG d   1       3.447   0.920  -1.278  0.00  0.00     0.062 H 
ATOM     48  H   LIG d   1       3.539  -1.538  -1.448  0.00  0.00     0.062 H 
ATOM     49  H   LIG d   1       7.520   2.300  -3.177  0.00  0.00     0.087 H 
ATOM     50  H   LIG d   1       6.811   1.920  -4.763  0.00  0.00     0.087 H 
ATOM     51  H   LIG d   1       5.345  -2.610  -2.728  0.00  0.00     0.062 H 
ATOM     52  H   LIG d   1       8.889   0.398  -3.313  0.00  0.00     0.204 HD
ENDBRANCH  29  32
ENDBRANCH  19  29
BRANCH   1  53
ATOM     53  C   LIG d   1       9.824   6.490  -1.493  0.00  0.00    -0.060 C 
ATOM     54  H   LIG d   1       9.050   5.736  -1.348  0.00  0.00     0.023 H 
ATOM     55  H   LIG d   1      10.801   6.007  -1.514  0.00  0.00     0.023 H 
ATOM     56  H   LIG d   1       9.792   7.205  -0.672  0.00  0.00     0.023 H 
ENDBRANCH   1  53
BRANCH   6  57
ATOM     57  C   LIG d   1      12.070   5.347  -2.766  0.00  0.00    -0.057 C 
ATOM     58  H   LIG d   1      11.388   5.536  -1.938  0.00  0.00     0.024 H 
ATOM     59  H   LIG d   1      12.044   4.288  -3.025  0.00  0.00     0.024 H 
ATOM     60  H   LIG d   1      13.083   5.625  -2.473  0.00  0.00     0.024 H 
ENDBRANCH   6  57
TORSDOF 4
ENDMDL
MODEL 3
REMARK VINA RESULT:      -7.6      3.169      5.060
REMARK  4 active torsions:
REMARK  status: ('A' for Active; 'I' for Inactive)
REMARK    1  A    between atoms: C_1  and  C_2 
REMARK    2  A    between atoms: C_7  and  C_32 
REMARK    3  A    between atoms: C_20  and  C_22 
REMARK    4  A    between atoms: C_22  and  N_59 
ROOT
ATOM      1  C   LIG d   1       3.145   0.286  -4.023  0.00  0.00    -0.012 C 
ATOM      2  H   LIG d   1       2.492   0.659  -4.812  0.00  0.00     0.033 H 
ATOM      3  C   LIG d   1       3.494   1.428  -3.062  0.00  0.00    -0.048 C 
ATOM      4  C   LIG d   1       4.490   0.932  -2.012  0.00  0.00    -0.052 C 
ATOM      5  C   LIG d   1       5.793   0.499  -2.687  0.00  0.00    -0.045 C 
ATOM      6  C   LIG d   1       5.508  -0.675  -3.625  0.00  0.00     0.003 C 
ATOM      7  C   LIG d   1       4.439  -0.247  -4.637  0.00  0.00     0.104 A 
ATOM      8  C   LIG d   1       4.401  -0.961  -5.973  0.00  0.00     0.096 A 
ATOM      9  H   LIG d   1       3.423  -1.074  -6.441  0.00  0.00     0.063 H 
ATOM     10  O   LIG d   1       4.895   0.374  -5.842  0.00  0.00    -0.363 OA
ATOM     11  C   LIG d   1       5.390  -2.061  -6.312  0.00  0.00     0.043 C 
ATOM     12  H   LIG d   1       5.816  -1.894  -7.302  0.00  0.00     0.037 H 
ATOM     13  C   LIG d   1       6.499  -2.251  -5.283  0.00  0.00     0.110 C 
ATOM     14  H   LIG d   1       7.421  -2.466  -5.823  0.00  0.00     0.074 H 
ATOM     15  C   LIG d   1       6.766  -1.038  -4.418  0.00  0.00    -0.007 C 
ATOM     16  O   LIG d   1       6.170  -3.421  -4.492  0.00  0.00    -0.461 OA
ATOM     17  C   LIG d   1       4.981  -3.927  -4.856  0.00  0.00     0.316 C 
ATOM     18  O   LIG d   1       4.293  -4.661  -4.187  0.00  0.00    -0.250 OA
ATOM     19  C   LIG d   1       4.647  -3.422  -6.247  0.00  0.00     0.105 C 
ATOM     20  H   LIG d   1       3.572  -3.280  -6.358  0.00  0.00     0.047 H 
ATOM     21  H   LIG d   1       3.937   2.251  -3.622  0.00  0.00     0.027 H 
ATOM     22  H   LIG d   1       2.588   1.775  -2.566  0.00  0.00     0.027 H 
ATOM     23  H   LIG d   1       4.698   1.735  -1.305  0.00  0.00     0.027 H 
ATOM     24  H   LIG d   1       4.060   0.083  -1.481  0.00  0.00     0.027 H 
ATOM     25  H   LIG d   1       6.512   0.193  -1.928  0.00  0.00     0.027 H 
ATOM     26  H   LIG d   1       6.200   1.332  -3.261  0.00  0.00     0.027 H 
ATOM     27  H   LIG d   1       7.049  -0.196  -5.051  0.00  0.00     0.031 H 
ATOM     28  H   LIG d   1       7.579  -1.257  -3.726  0.00  0.00     0.031 H 
ENDROOT
BRANCH  19  29
ATOM     29  C   LIG d   1       5.180  -4.381  -7.313  0.00  0.00    -0.018 C 
ATOM     30  H   LIG d   1       4.377  -4.642  -8.002  0.00  0.00     0.082 H 
ATOM     31  H   LIG d   1       5.989  -3.898  -7.864  0.00  0.00     0.082 H 
BRANCH  29  32
ATOM     32  N   LIG d   1       5.703  -5.596  -6.649  0.00  0.00     0.239 N 
ATOM     33  C   LIG d   1       7.100  -5.838  -7.063  0.00  0.00    -0.028 C 
ATOM     34  C   LIG d   1       7.698  -6.872  -6.109  0.00  0.00     0.013 C 
ATOM     35  H   LIG d   1       7.135  -6.218  -8.084  0.00  0.00     0.082 H 
ATOM     36  H   LIG d   1       7.665  -4.908  -6.996  0.00  0.00     0.082 H 
ATOM     37  C   LIG d   1       6.787  -8.070  -6.014  0.00  0.00    -0.034 A 
ATOM     38  H   LIG d   1       7.816  -6.429  -5.121  0.00  0.00     0.036 H 
ATOM     39  H   LIG d   1       8.672  -7.188  -6.483  0.00  0.00     0.036 H 
ATOM     40  C   LIG d   1       5.474  -8.015  -6.425  0.00  0.00     0.000 A 
ATOM     41  C   LIG d   1       7.298  -9.249  -5.492  0.00  0.00    -0.058 A 
ATOM     42  C   LIG d   1       4.668  -9.139  -6.310  0.00  0.00    -0.053 A 
ATOM     43  C   LIG d   1       4.874  -6.760  -7.004  0.00  0.00    -0.006 C 
ATOM     44  C   LIG d   1       5.178 -10.312  -5.790  0.00  0.00    -0.061 A 
ATOM     45  H   LIG d   1       3.638  -9.097  -6.631  0.00  0.00     0.062 H 
ATOM     46  C   LIG d   1       6.496 -10.367  -5.379  0.00  0.00    -0.061 A 
ATOM     47  H   LIG d   1       4.546 -11.184  -5.702  0.00  0.00     0.062 H 
ATOM     48  H   LIG d   1       6.899 -11.284  -4.972  0.00  0.00     0.062 H 
ATOM     49  H   LIG d   1       3.873  -6.618  -6.596  0.00  0.00     0.087 H 
ATOM     50  H   LIG d   1       4.810  -6.860  -8.088  0.00  0.00     0.087 H 
ATOM     51  H   LIG d   1       8.329  -9.294  -5.172  0.00  0.00     0.062 H 
ATOM     52  H   LIG d   1       5.674  -5.461  -5.632  0.00  0.00     0.204 HD
ENDBRANCH  29  32
ENDBRANCH  19  29
BRANCH   1  53
ATOM     53  C   LIG d   1       2.438  -0.835  -3.259  0.00  0.00    -0.060 C 
ATOM     54  H   LIG d   1       1.369  -0.629  -3.218  0.00  0.00     0.023 H 
ATOM     55  H   LIG d   1       2.607  -1.784  -3.767  0.00  0.00     0.023 H 
ATOM     56  H   LIG d   1       2.836  -0.892  -2.246  0.00  0.00     0.023 H 
ENDBRANCH   1  53
BRANCH   6  57
ATOM     57  C   LIG d   1       5.022  -1.891  -2.831  0.00  0.00    -0.057 C 
ATOM     58  H   LIG d   1       4.075  -1.653  -2.347  0.00  0.00     0.024 H 
ATOM     59  H   LIG d   1       4.884  -2.734  -3.507  0.00  0.00     0.024 H 
ATOM     60  H   LIG d   1       5.763  -2.149  -2.074  0.00  0.00     0.024 H 
ENDBRANCH   6  57
TORSDOF 4
ENDMDL
MODEL 4
REMARK VINA RESULT:      -7.4      1.863      2.342
REMARK  4 active torsions:
REMARK  status: ('A' for Active; 'I' for Inactive)
REMARK    1  A    between atoms: C_1  and  C_2 
REMARK    2  A    between atoms: C_7  and  C_32 
REMARK    3  A    between atoms: C_20  and  C_22 
REMARK    4  A    between atoms: C_22  and  N_59 
ROOT
ATOM      1  C   LIG d   1       3.298  -0.551  -3.311  0.00  0.00    -0.012 C 
ATOM      2  H   LIG d   1       2.298  -0.586  -3.745  0.00  0.00     0.033 H 
ATOM      3  C   LIG d   1       3.385   0.609  -2.314  0.00  0.00    -0.048 C 
ATOM      4  C   LIG d   1       4.814   0.722  -1.779  0.00  0.00    -0.052 C 
ATOM      5  C   LIG d   1       5.780   1.040  -2.923  0.00  0.00    -0.045 C 
ATOM      6  C   LIG d   1       5.767  -0.114  -3.927  0.00  0.00     0.003 C 
ATOM      7  C   LIG d   1       4.329  -0.323  -4.416  0.00  0.00     0.104 A 
ATOM      8  C   LIG d   1       4.128  -0.958  -5.778  0.00  0.00     0.096 A 
ATOM      9  H   LIG d   1       3.239  -1.574  -5.905  0.00  0.00     0.063 H 
ATOM     10  O   LIG d   1       3.911   0.438  -5.554  0.00  0.00    -0.363 OA
ATOM     11  C   LIG d   1       5.306  -1.369  -6.641  0.00  0.00     0.043 C 
ATOM     12  H   LIG d   1       5.171  -1.009  -7.661  0.00  0.00     0.037 H 
ATOM     13  C   LIG d   1       6.665  -0.937  -6.102  0.00  0.00     0.110 C 
ATOM     14  H   LIG d   1       7.278  -0.636  -6.951  0.00  0.00     0.074 H 
ATOM     15  C   LIG d   1       6.616   0.239  -5.151  0.00  0.00    -0.007 C 
ATOM     16  O   LIG d   1       7.289  -2.099  -5.499  0.00  0.00    -0.461 OA
ATOM     17  C   LIG d   1       6.468  -3.160  -5.539  0.00  0.00     0.316 C 
ATOM     18  O   LIG d   1       6.551  -4.142  -4.841  0.00  0.00    -0.250 OA
ATOM     19  C   LIG d   1       5.418  -2.917  -6.606  0.00  0.00     0.105 C 
ATOM     20  H   LIG d   1       4.467  -3.366  -6.321  0.00  0.00     0.047 H 
ATOM     21  H   LIG d   1       3.110   1.538  -2.812  0.00  0.00     0.027 H 
ATOM     22  H   LIG d   1       2.701   0.427  -1.485  0.00  0.00     0.027 H 
ATOM     23  H   LIG d   1       4.859   1.518  -1.036  0.00  0.00     0.027 H 
ATOM     24  H   LIG d   1       5.102  -0.222  -1.317  0.00  0.00     0.027 H 
ATOM     25  H   LIG d   1       6.786   1.166  -2.525  0.00  0.00     0.027 H 
ATOM     26  H   LIG d   1       5.466   1.958  -3.420  0.00  0.00     0.027 H 
ATOM     27  H   LIG d   1       6.179   1.099  -5.659  0.00  0.00     0.031 H 
ATOM     28  H   LIG d   1       7.627   0.488  -4.829  0.00  0.00     0.031 H 
ENDROOT
BRANCH  19  29
ATOM     29  C   LIG d   1       5.888  -3.456  -7.959  0.00  0.00    -0.018 C 
ATOM     30  H   LIG d   1       6.968  -3.339  -8.042  0.00  0.00     0.082 H 
ATOM     31  H   LIG d   1       5.629  -4.512  -8.039  0.00  0.00     0.082 H 
BRANCH  29  32
ATOM     32  N   LIG d   1       5.205  -2.706  -9.039  0.00  0.00     0.239 N 
ATOM     33  C   LIG d   1       3.931  -3.366  -9.386  0.00  0.00    -0.028 C 
ATOM     34  C   LIG d   1       3.115  -2.391 -10.234  0.00  0.00     0.013 C 
ATOM     35  H   LIG d   1       4.115  -4.279  -9.954  0.00  0.00     0.082 H 
ATOM     36  H   LIG d   1       3.384  -3.603  -8.473  0.00  0.00     0.082 H 
ATOM     37  C   LIG d   1       3.957  -1.870 -11.372  0.00  0.00    -0.034 A 
ATOM     38  H   LIG d   1       2.790  -1.555  -9.614  0.00  0.00     0.036 H 
ATOM     39  H   LIG d   1       2.242  -2.904 -10.637  0.00  0.00     0.036 H 
ATOM     40  C   LIG d   1       5.330  -1.983 -11.366  0.00  0.00     0.000 A 
ATOM     41  C   LIG d   1       3.319  -1.261 -12.442  0.00  0.00    -0.058 A 
ATOM     42  C   LIG d   1       6.067  -1.481 -12.429  0.00  0.00    -0.053 A 
ATOM     43  C   LIG d   1       6.069  -2.641 -10.230  0.00  0.00    -0.006 C 
ATOM     44  C   LIG d   1       5.431  -0.873 -13.493  0.00  0.00    -0.061 A 
ATOM     45  H   LIG d   1       7.143  -1.567 -12.425  0.00  0.00     0.062 H 
ATOM     46  C   LIG d   1       4.053  -0.763 -13.500  0.00  0.00    -0.061 A 
ATOM     47  H   LIG d   1       6.009  -0.484 -14.318  0.00  0.00     0.062 H 
ATOM     48  H   LIG d   1       3.552  -0.289 -14.331  0.00  0.00     0.062 H 
ATOM     49  H   LIG d   1       6.956  -2.055  -9.990  0.00  0.00     0.087 H 
ATOM     50  H   LIG d   1       6.370  -3.644 -10.531  0.00  0.00     0.087 H 
ATOM     51  H   LIG d   1       2.242  -1.175 -12.448  0.00  0.00     0.062 H 
ATOM     52  H   LIG d   1       5.011  -1.753  -8.712  0.00  0.00     0.204 HD
ENDBRANCH  29  32
ENDBRANCH  19  29
BRANCH   1  53
ATOM     53  C   LIG d   1       3.593  -1.871  -2.597  0.00  0.00    -0.060 C 
ATOM     54  H   LIG d   1       2.708  -2.507  -2.627  0.00  0.00     0.023 H 
ATOM     55  H   LIG d   1       4.420  -2.377  -3.095  0.00  0.00     0.023 H 
ATOM     56  H   LIG d   1       3.862  -1.672  -1.560  0.00  0.00     0.023 H 
ENDBRANCH   1  53
BRANCH   6  57
ATOM     57  C   LIG d   1       6.292  -1.397  -3.279  0.00  0.00    -0.057 C 
ATOM     58  H   LIG d   1       6.505  -1.210  -2.226  0.00  0.00     0.024 H 
ATOM     59  H   LIG d   1       5.540  -2.182  -3.364  0.00  0.00     0.024 H 
ATOM     60  H   LIG d   1       7.206  -1.711  -3.784  0.00  0.00     0.024 H 
ENDBRANCH   6  57
TORSDOF 4
ENDMDL
MODEL 5
REMARK VINA RESULT:      -7.2      1.791      2.812
REMARK  4 active torsions:
REMARK  status: ('A' for Active; 'I' for Inactive)
REMARK    1  A    between atoms: C_1  and  C_2 
REMARK    2  A    between atoms: C_7  and  C_32 
REMARK    3  A    between atoms: C_20  and  C_22 
REMARK    4  A    between atoms: C_22  and  N_59 
ROOT
ATOM      1  C   LIG d   1       3.294  -0.618  -3.385  0.00  0.00    -0.012 C 
ATOM      2  H   LIG d   1       2.326  -0.656  -3.885  0.00  0.00     0.033 H 
ATOM      3  C   LIG d   1       3.287   0.501  -2.337  0.00  0.00    -0.048 C 
ATOM      4  C   LIG d   1       4.675   0.623  -1.705  0.00  0.00    -0.052 C 
ATOM      5  C   LIG d   1       5.705   1.010  -2.768  0.00  0.00    -0.045 C 
ATOM      6  C   LIG d   1       5.786  -0.100  -3.817  0.00  0.00     0.003 C 
ATOM      7  C   LIG d   1       4.389  -0.320  -4.408  0.00  0.00     0.104 A 
ATOM      8  C   LIG d   1       4.294  -0.902  -5.805  0.00  0.00     0.096 A 
ATOM      9  H   LIG d   1       3.430  -1.532  -6.015  0.00  0.00     0.063 H 
ATOM     10  O   LIG d   1       4.028   0.478  -5.540  0.00  0.00    -0.363 OA
ATOM     11  C   LIG d   1       5.536  -1.250  -6.604  0.00  0.00     0.043 C 
ATOM     12  H   LIG d   1       5.459  -0.851  -7.616  0.00  0.00     0.037 H 
ATOM     13  C   LIG d   1       6.845  -0.811  -5.959  0.00  0.00     0.110 C 
ATOM     14  H   LIG d   1       7.505  -0.460  -6.752  0.00  0.00     0.074 H 
ATOM     15  C   LIG d   1       6.705   0.323  -4.966  0.00  0.00    -0.007 C 
ATOM     16  O   LIG d   1       7.458  -1.982  -5.364  0.00  0.00    -0.461 OA
ATOM     17  C   LIG d   1       6.667  -3.059  -5.501  0.00  0.00     0.316 C 
ATOM     18  O   LIG d   1       6.730  -4.068  -4.839  0.00  0.00    -0.250 OA
ATOM     19  C   LIG d   1       5.684  -2.795  -6.625  0.00  0.00     0.105 C 
ATOM     20  H   LIG d   1       4.728  -3.277  -6.422  0.00  0.00     0.047 H 
ATOM     21  H   LIG d   1       3.022   1.444  -2.815  0.00  0.00     0.027 H 
ATOM     22  H   LIG d   1       2.555   0.269  -1.563  0.00  0.00     0.027 H 
ATOM     23  H   LIG d   1       4.651   1.388  -0.928  0.00  0.00     0.027 H 
ATOM     24  H   LIG d   1       4.955  -0.333  -1.263  0.00  0.00     0.027 H 
ATOM     25  H   LIG d   1       6.679   1.142  -2.300  0.00  0.00     0.027 H 
ATOM     26  H   LIG d   1       5.401   1.942  -3.247  0.00  0.00     0.027 H 
ATOM     27  H   LIG d   1       6.280   1.194  -5.467  0.00  0.00     0.031 H 
ATOM     28  H   LIG d   1       7.686   0.581  -4.568  0.00  0.00     0.031 H 
ENDROOT
BRANCH  19  29
ATOM     29  C   LIG d   1       6.254  -3.265  -7.964  0.00  0.00    -0.018 C 
ATOM     30  H   LIG d   1       6.566  -2.401  -8.551  0.00  0.00     0.082 H 
ATOM     31  H   LIG d   1       7.114  -3.913  -7.786  0.00  0.00     0.082 H 
BRANCH  29  32
ATOM     32  N   LIG d   1       5.214  -4.031  -8.688  0.00  0.00     0.239 N 
ATOM     33  C   LIG d   1       3.889  -3.414  -8.472  0.00  0.00    -0.028 C 
ATOM     34  C   LIG d   1       2.923  -4.012  -9.494  0.00  0.00     0.013 C 
ATOM     35  H   LIG d   1       3.531  -3.623  -7.464  0.00  0.00     0.082 H 
ATOM     36  H   LIG d   1       3.961  -2.337  -8.622  0.00  0.00     0.082 H 
ATOM     37  C   LIG d   1       3.000  -5.517  -9.455  0.00  0.00    -0.034 A 
ATOM     38  H   LIG d   1       3.188  -3.663 -10.492  0.00  0.00     0.036 H 
ATOM     39  H   LIG d   1       1.907  -3.697  -9.258  0.00  0.00     0.036 H 
ATOM     40  C   LIG d   1       4.058  -6.172  -8.865  0.00  0.00     0.000 A 
ATOM     41  C   LIG d   1       1.974  -6.247 -10.037  0.00  0.00    -0.058 A 
ATOM     42  C   LIG d   1       4.094  -7.559  -8.860  0.00  0.00    -0.053 A 
ATOM     43  C   LIG d   1       5.194  -5.425  -8.215  0.00  0.00    -0.006 C 
ATOM     44  C   LIG d   1       3.072  -8.285  -9.440  0.00  0.00    -0.061 A 
ATOM     45  H   LIG d   1       4.923  -8.074  -8.399  0.00  0.00     0.062 H 
ATOM     46  C   LIG d   1       2.009  -7.627 -10.031  0.00  0.00    -0.061 A 
ATOM     47  H   LIG d   1       3.105  -9.365  -9.435  0.00  0.00     0.062 H 
ATOM     48  H   LIG d   1       1.208  -8.192 -10.485  0.00  0.00     0.062 H 
ATOM     49  H   LIG d   1       6.137  -5.901  -8.480  0.00  0.00     0.087 H 
ATOM     50  H   LIG d   1       5.068  -5.453  -7.132  0.00  0.00     0.087 H 
ATOM     51  H   LIG d   1       1.142  -5.734 -10.497  0.00  0.00     0.062 H 
ATOM     52  H   LIG d   1       5.428  -4.020  -9.692  0.00  0.00     0.204 HD
ENDBRANCH  29  32
ENDBRANCH  19  29
BRANCH   1  53
ATOM     53  C   LIG d   1       3.576  -1.960  -2.706  0.00  0.00    -0.060 C 
ATOM     54  H   LIG d   1       2.770  -2.191  -2.010  0.00  0.00     0.023 H 
ATOM     55  H   LIG d   1       3.638  -2.743  -3.462  0.00  0.00     0.023 H 
ATOM     56  H   LIG d   1       4.519  -1.903  -2.164  0.00  0.00     0.023 H 
ENDBRANCH   1  53
BRANCH   6  57
ATOM     57  C   LIG d   1       6.300  -1.397  -3.187  0.00  0.00    -0.057 C 
ATOM     58  H   LIG d   1       5.484  -2.116  -3.120  0.00  0.00     0.024 H 
ATOM     59  H   LIG d   1       7.098  -1.809  -3.805  0.00  0.00     0.024 H 
ATOM     60  H   LIG d   1       6.684  -1.188  -2.188  0.00  0.00     0.024 H 
ENDBRANCH   6  57
TORSDOF 4
ENDMDL
MODEL 6
REMARK VINA RESULT:      -6.9      2.576      8.136
REMARK  4 active torsions:
REMARK  status: ('A' for Active; 'I' for Inactive)
REMARK    1  A    between atoms: C_1  and  C_2 
REMARK    2  A    between atoms: C_7  and  C_32 
REMARK    3  A    between atoms: C_20  and  C_22 
REMARK    4  A    between atoms: C_22  and  N_59 
ROOT
ATOM      1  C   LIG d   1       3.440  -3.370 -13.387  0.00  0.00    -0.012 C 
ATOM      2  H   LIG d   1       4.374  -3.127 -13.894  0.00  0.00     0.033 H 
ATOM      3  C   LIG d   1       2.385  -3.778 -14.422  0.00  0.00    -0.048 C 
ATOM      4  C   LIG d   1       1.047  -4.022 -13.724  0.00  0.00    -0.052 C 
ATOM      5  C   LIG d   1       0.554  -2.732 -13.065  0.00  0.00    -0.045 C 
ATOM      6  C   LIG d   1       1.550  -2.305 -11.986  0.00  0.00     0.003 C 
ATOM      7  C   LIG d   1       2.932  -2.143 -12.631  0.00  0.00     0.104 A 
ATOM      8  C   LIG d   1       3.919  -1.205 -11.965  0.00  0.00     0.096 A 
ATOM      9  H   LIG d   1       4.974  -1.464 -12.050  0.00  0.00     0.063 H 
ATOM     10  O   LIG d   1       3.248  -0.859 -13.180  0.00  0.00    -0.363 OA
ATOM     11  C   LIG d   1       3.560  -0.440 -10.706  0.00  0.00     0.043 C 
ATOM     12  H   LIG d   1       3.835   0.610 -10.809  0.00  0.00     0.037 H 
ATOM     13  C   LIG d   1       2.099  -0.566 -10.286  0.00  0.00     0.110 C 
ATOM     14  H   LIG d   1       1.776   0.405  -9.912  0.00  0.00     0.074 H 
ATOM     15  C   LIG d   1       1.156  -0.944 -11.408  0.00  0.00    -0.007 C 
ATOM     16  O   LIG d   1       2.036  -1.505  -9.184  0.00  0.00    -0.461 OA
ATOM     17  C   LIG d   1       3.250  -2.017  -8.921  0.00  0.00     0.316 C 
ATOM     18  O   LIG d   1       3.467  -3.041  -8.317  0.00  0.00    -0.250 OA
ATOM     19  C   LIG d   1       4.300  -1.095  -9.510  0.00  0.00     0.105 C 
ATOM     20  H   LIG d   1       5.163  -1.665  -9.855  0.00  0.00     0.047 H 
ATOM     21  H   LIG d   1       2.271  -2.982 -15.157  0.00  0.00     0.027 H 
ATOM     22  H   LIG d   1       2.704  -4.691 -14.924  0.00  0.00     0.027 H 
ATOM     23  H   LIG d   1       0.313  -4.357 -14.457  0.00  0.00     0.027 H 
ATOM     24  H   LIG d   1       1.173  -4.790 -12.961  0.00  0.00     0.027 H 
ATOM     25  H   LIG d   1      -0.422  -2.904 -12.613  0.00  0.00     0.027 H 
ATOM     26  H   LIG d   1       0.474  -1.947 -13.818  0.00  0.00     0.027 H 
ATOM     27  H   LIG d   1       1.206  -0.189 -12.194  0.00  0.00     0.031 H 
ATOM     28  H   LIG d   1       0.137  -0.996 -11.024  0.00  0.00     0.031 H 
ENDROOT
BRANCH  19  29
ATOM     29  C   LIG d   1       4.723  -0.036  -8.490  0.00  0.00    -0.018 C 
ATOM     30  H   LIG d   1       5.811   0.001  -8.433  0.00  0.00     0.082 H 
ATOM     31  H   LIG d   1       4.342   0.938  -8.798  0.00  0.00     0.082 H 
BRANCH  29  32
ATOM     32  N   LIG d   1       4.152  -0.384  -7.169  0.00  0.00     0.239 N 
ATOM     33  C   LIG d   1       3.272   0.703  -6.695  0.00  0.00    -0.028 C 
ATOM     34  C   LIG d   1       2.449   0.163  -5.525  0.00  0.00     0.013 C 
ATOM     35  H   LIG d   1       3.864   1.556  -6.364  0.00  0.00     0.082 H 
ATOM     36  H   LIG d   1       2.605   1.008  -7.502  0.00  0.00     0.082 H 
ATOM     37  C   LIG d   1       3.360  -0.482  -4.511  0.00  0.00    -0.034 A 
ATOM     38  H   LIG d   1       1.738  -0.576  -5.893  0.00  0.00     0.036 H 
ATOM     39  H   LIG d   1       1.908   0.984  -5.055  0.00  0.00     0.036 H 
ATOM     40  C   LIG d   1       4.652  -0.843  -4.825  0.00  0.00     0.000 A 
ATOM     41  C   LIG d   1       2.868  -0.715  -3.235  0.00  0.00    -0.058 A 
ATOM     42  C   LIG d   1       5.452  -1.443  -3.864  0.00  0.00    -0.053 A 
ATOM     43  C   LIG d   1       5.234  -0.605  -6.195  0.00  0.00    -0.006 C 
ATOM     44  C   LIG d   1       4.962  -1.675  -2.594  0.00  0.00    -0.061 A 
ATOM     45  H   LIG d   1       6.464  -1.727  -4.108  0.00  0.00     0.062 H 
ATOM     46  C   LIG d   1       3.666  -1.311  -2.279  0.00  0.00    -0.061 A 
ATOM     47  H   LIG d   1       5.589  -2.143  -1.849  0.00  0.00     0.062 H 
ATOM     48  H   LIG d   1       3.279  -1.490  -1.286  0.00  0.00     0.062 H 
ATOM     49  H   LIG d   1       5.808  -1.480  -6.498  0.00  0.00     0.087 H 
ATOM     50  H   LIG d   1       5.891   0.264  -6.159  0.00  0.00     0.087 H 
ATOM     51  H   LIG d   1       1.856  -0.429  -2.988  0.00  0.00     0.062 H 
ATOM     52  H   LIG d   1       3.601  -1.246  -7.260  0.00  0.00     0.204 HD
ENDBRANCH  29  32
ENDBRANCH  19  29
BRANCH   1  53
ATOM     53  C   LIG d   1       3.673  -4.519 -12.405  0.00  0.00    -0.060 C 
ATOM     54  H   LIG d   1       4.675  -4.923 -12.549  0.00  0.00     0.023 H 
ATOM     55  H   LIG d   1       3.573  -4.151 -11.384  0.00  0.00     0.023 H 
ATOM     56  H   LIG d   1       2.937  -5.303 -12.581  0.00  0.00     0.023 H 
ENDBRANCH   1  53
BRANCH   6  57
ATOM     57  C   LIG d   1       1.613  -3.349 -10.869  0.00  0.00    -0.057 C 
ATOM     58  H   LIG d   1       2.403  -3.083 -10.167  0.00  0.00     0.024 H 
ATOM     59  H   LIG d   1       0.657  -3.379 -10.346  0.00  0.00     0.024 H 
ATOM     60  H   LIG d   1       1.823  -4.329 -11.299  0.00  0.00     0.024 H 
ENDBRANCH   6  57
TORSDOF 4
ENDMDL
MODEL 7
REMARK VINA RESULT:      -6.9      5.189      7.971
REMARK  4 active torsions:
REMARK  status: ('A' for Active; 'I' for Inactive)
REMARK    1  A    between atoms: C_1  and  C_2 
REMARK    2  A    between atoms: C_7  and  C_32 
REMARK    3  A    between atoms: C_20  and  C_22 
REMARK    4  A    between atoms: C_22  and  N_59 
ROOT
ATOM      1  C   LIG d   1      10.957   5.565  -6.075  0.00  0.00    -0.012 C 
ATOM      2  H   LIG d   1      10.986   5.642  -7.162  0.00  0.00     0.033 H 
ATOM      3  C   LIG d   1      12.041   6.463  -5.467  0.00  0.00    -0.048 C 
ATOM      4  C   LIG d   1      12.069   6.280  -3.949  0.00  0.00    -0.052 C 
ATOM      5  C   LIG d   1      12.434   4.836  -3.599  0.00  0.00    -0.045 C 
ATOM      6  C   LIG d   1      11.355   3.898  -4.143  0.00  0.00     0.003 C 
ATOM      7  C   LIG d   1      11.228   4.121  -5.655  0.00  0.00     0.104 A 
ATOM      8  C   LIG d   1      10.698   2.978  -6.498  0.00  0.00     0.096 A 
ATOM      9  H   LIG d   1      10.122   3.248  -7.382  0.00  0.00     0.063 H 
ATOM     10  O   LIG d   1      12.081   3.343  -6.501  0.00  0.00    -0.363 OA
ATOM     11  C   LIG d   1      10.310   1.649  -5.877  0.00  0.00     0.043 C 
ATOM     12  H   LIG d   1      10.745   0.826  -6.443  0.00  0.00     0.037 H 
ATOM     13  C   LIG d   1      10.658   1.518  -4.398  0.00  0.00     0.110 C 
ATOM     14  H   LIG d   1      10.998   0.498  -4.226  0.00  0.00     0.074 H 
ATOM     15  C   LIG d   1      11.765   2.439  -3.932  0.00  0.00    -0.007 C 
ATOM     16  O   LIG d   1       9.437   1.709  -3.640  0.00  0.00    -0.461 OA
ATOM     17  C   LIG d   1       8.409   2.003  -4.451  0.00  0.00     0.316 C 
ATOM     18  O   LIG d   1       7.377   2.536  -4.117  0.00  0.00    -0.250 OA
ATOM     19  C   LIG d   1       8.761   1.555  -5.857  0.00  0.00     0.105 C 
ATOM     20  H   LIG d   1       8.324   2.226  -6.596  0.00  0.00     0.047 H 
ATOM     21  H   LIG d   1      13.011   6.192  -5.883  0.00  0.00     0.027 H 
ATOM     22  H   LIG d   1      11.824   7.504  -5.703  0.00  0.00     0.027 H 
ATOM     23  H   LIG d   1      12.808   6.955  -3.518  0.00  0.00     0.027 H 
ATOM     24  H   LIG d   1      11.085   6.512  -3.540  0.00  0.00     0.027 H 
ATOM     25  H   LIG d   1      12.499   4.729  -2.517  0.00  0.00     0.027 H 
ATOM     26  H   LIG d   1      13.396   4.585  -4.049  0.00  0.00     0.027 H 
ATOM     27  H   LIG d   1      12.673   2.232  -4.500  0.00  0.00     0.031 H 
ATOM     28  H   LIG d   1      11.957   2.267  -2.872  0.00  0.00     0.031 H 
ENDROOT
BRANCH  19  29
ATOM     29  C   LIG d   1       8.303   0.115  -6.096  0.00  0.00    -0.018 C 
ATOM     30  H   LIG d   1       7.823   0.043  -7.072  0.00  0.00     0.082 H 
ATOM     31  H   LIG d   1       9.168  -0.550  -6.067  0.00  0.00     0.082 H 
BRANCH  29  32
ATOM     32  N   LIG d   1       7.356  -0.273  -5.026  0.00  0.00     0.239 N 
ATOM     33  C   LIG d   1       7.617  -1.663  -4.599  0.00  0.00    -0.028 C 
ATOM     34  C   LIG d   1       6.868  -1.896  -3.287  0.00  0.00     0.013 C 
ATOM     35  H   LIG d   1       7.263  -2.367  -5.352  0.00  0.00     0.082 H 
ATOM     36  H   LIG d   1       8.686  -1.799  -4.440  0.00  0.00     0.082 H 
ATOM     37  C   LIG d   1       5.428  -1.476  -3.434  0.00  0.00    -0.034 A 
ATOM     38  H   LIG d   1       7.335  -1.311  -2.494  0.00  0.00     0.036 H 
ATOM     39  H   LIG d   1       6.911  -2.954  -3.029  0.00  0.00     0.036 H 
ATOM     40  C   LIG d   1       5.013  -0.664  -4.467  0.00  0.00     0.000 A 
ATOM     41  C   LIG d   1       4.509  -1.923  -2.496  0.00  0.00    -0.058 A 
ATOM     42  C   LIG d   1       3.680  -0.293  -4.560  0.00  0.00    -0.053 A 
ATOM     43  C   LIG d   1       5.972  -0.157  -5.514  0.00  0.00    -0.006 C 
ATOM     44  C   LIG d   1       2.766  -0.739  -3.625  0.00  0.00    -0.061 A 
ATOM     45  H   LIG d   1       3.353   0.344  -5.367  0.00  0.00     0.062 H 
ATOM     46  C   LIG d   1       3.182  -1.555  -2.590  0.00  0.00    -0.061 A 
ATOM     47  H   LIG d   1       1.728  -0.447  -3.701  0.00  0.00     0.062 H 
ATOM     48  H   LIG d   1       2.469  -1.906  -1.857  0.00  0.00     0.062 H 
ATOM     49  H   LIG d   1       5.757   0.891  -5.721  0.00  0.00     0.087 H 
ATOM     50  H   LIG d   1       5.844  -0.738  -6.428  0.00  0.00     0.087 H 
ATOM     51  H   LIG d   1       4.833  -2.562  -1.688  0.00  0.00     0.062 H 
ATOM     52  H   LIG d   1       7.483   0.354  -4.224  0.00  0.00     0.204 HD
ENDBRANCH  29  32
ENDBRANCH  19  29
BRANCH   1  53
ATOM     53  C   LIG d   1       9.581   5.998  -5.566  0.00  0.00    -0.060 C 
ATOM     54  H   LIG d   1       9.193   6.794  -6.202  0.00  0.00     0.023 H 
ATOM     55  H   LIG d   1       8.899   5.148  -5.592  0.00  0.00     0.023 H 
ATOM     56  H   LIG d   1       9.669   6.361  -4.543  0.00  0.00     0.023 H 
ENDBRANCH   1  53
BRANCH   6  57
ATOM     57  C   LIG d   1      10.013   4.169  -3.459  0.00  0.00    -0.057 C 
ATOM     58  H   LIG d   1       9.790   5.234  -3.508  0.00  0.00     0.024 H 
ATOM     59  H   LIG d   1       9.227   3.608  -3.965  0.00  0.00     0.024 H 
ATOM     60  H   LIG d   1      10.069   3.857  -2.416  0.00  0.00     0.024 H 
ENDBRANCH   6  57
TORSDOF 4
ENDMDL
MODEL 8
REMARK VINA RESULT:      -6.9      5.320      8.555
REMARK  4 active torsions:
REMARK  status: ('A' for Active; 'I' for Inactive)
REMARK    1  A    between atoms: C_1  and  C_2 
REMARK    2  A    between atoms: C_7  and  C_32 
REMARK    3  A    between atoms: C_20  and  C_22 
REMARK    4  A    between atoms: C_22  and  N_59 
ROOT
ATOM      1  C   LIG d   1       9.230  -8.527  -1.965  0.00  0.00    -0.012 C 
ATOM      2  H   LIG d   1       8.711  -8.334  -1.025  0.00  0.00     0.033 H 
ATOM      3  C   LIG d   1      10.197  -9.702  -1.786  0.00  0.00    -0.048 C 
ATOM      4  C   LIG d   1      10.998  -9.910  -3.072  0.00  0.00    -0.052 C 
ATOM      5  C   LIG d   1      11.847  -8.671  -3.369  0.00  0.00    -0.045 C 
ATOM      6  C   LIG d   1      10.924  -7.474  -3.604  0.00  0.00     0.003 C 
ATOM      7  C   LIG d   1      10.033  -7.291  -2.370  0.00  0.00     0.104 A 
ATOM      8  C   LIG d   1       9.479  -5.907  -2.094  0.00  0.00     0.096 A 
ATOM      9  H   LIG d   1       8.501  -5.858  -1.616  0.00  0.00     0.063 H 
ATOM     10  O   LIG d   1      10.541  -6.467  -1.316  0.00  0.00    -0.363 OA
ATOM     11  C   LIG d   1       9.797  -4.732  -2.999  0.00  0.00     0.043 C 
ATOM     12  H   LIG d   1      10.103  -3.870  -2.406  0.00  0.00     0.037 H 
ATOM     13  C   LIG d   1      10.834  -5.028  -4.077  0.00  0.00     0.110 C 
ATOM     14  H   LIG d   1      11.466  -4.147  -4.180  0.00  0.00     0.074 H 
ATOM     15  C   LIG d   1      11.748  -6.194  -3.764  0.00  0.00    -0.007 C 
ATOM     16  O   LIG d   1      10.128  -5.212  -5.329  0.00  0.00    -0.461 OA
ATOM     17  C   LIG d   1       8.800  -5.135  -5.147  0.00  0.00     0.316 C 
ATOM     18  O   LIG d   1       7.959  -5.570  -5.897  0.00  0.00    -0.250 OA
ATOM     19  C   LIG d   1       8.534  -4.410  -3.841  0.00  0.00     0.105 C 
ATOM     20  H   LIG d   1       7.639  -4.801  -3.359  0.00  0.00     0.047 H 
ATOM     21  H   LIG d   1      10.879  -9.488  -0.964  0.00  0.00     0.027 H 
ATOM     22  H   LIG d   1       9.632 -10.606  -1.561  0.00  0.00     0.027 H 
ATOM     23  H   LIG d   1      11.650 -10.775  -2.955  0.00  0.00     0.027 H 
ATOM     24  H   LIG d   1      10.312 -10.083  -3.901  0.00  0.00     0.027 H 
ATOM     25  H   LIG d   1      12.449  -8.848  -4.259  0.00  0.00     0.027 H 
ATOM     26  H   LIG d   1      12.500  -8.466  -2.520  0.00  0.00     0.027 H 
ATOM     27  H   LIG d   1      12.288  -5.993  -2.838  0.00  0.00     0.031 H 
ATOM     28  H   LIG d   1      12.463  -6.323  -4.576  0.00  0.00     0.031 H 
ENDROOT
BRANCH  19  29
ATOM     29  C   LIG d   1       8.409  -2.903  -4.074  0.00  0.00    -0.018 C 
ATOM     30  H   LIG d   1       9.197  -2.384  -3.528  0.00  0.00     0.082 H 
ATOM     31  H   LIG d   1       8.506  -2.691  -5.140  0.00  0.00     0.082 H 
BRANCH  29  32
ATOM     32  N   LIG d   1       7.077  -2.453  -3.610  0.00  0.00     0.239 N 
ATOM     33  C   LIG d   1       6.034  -2.898  -4.556  0.00  0.00    -0.028 C 
ATOM     34  C   LIG d   1       4.678  -2.720  -3.873  0.00  0.00     0.013 C 
ATOM     35  H   LIG d   1       6.066  -2.301  -5.467  0.00  0.00     0.082 H 
ATOM     36  H   LIG d   1       6.187  -3.950  -4.797  0.00  0.00     0.082 H 
ATOM     37  C   LIG d   1       4.560  -1.322  -3.320  0.00  0.00    -0.034 A 
ATOM     38  H   LIG d   1       4.584  -3.439  -3.059  0.00  0.00     0.036 H 
ATOM     39  H   LIG d   1       3.883  -2.889  -4.599  0.00  0.00     0.036 H 
ATOM     40  C   LIG d   1       5.665  -0.519  -3.143  0.00  0.00     0.000 A 
ATOM     41  C   LIG d   1       3.301  -0.849  -2.981  0.00  0.00    -0.058 A 
ATOM     42  C   LIG d   1       5.512   0.758  -2.621  0.00  0.00    -0.053 A 
ATOM     43  C   LIG d   1       7.053  -0.985  -3.501  0.00  0.00    -0.006 C 
ATOM     44  C   LIG d   1       4.258   1.228  -2.284  0.00  0.00    -0.061 A 
ATOM     45  H   LIG d   1       6.377   1.388  -2.481  0.00  0.00     0.062 H 
ATOM     46  C   LIG d   1       3.149   0.422  -2.464  0.00  0.00    -0.061 A 
ATOM     47  H   LIG d   1       4.144   2.222  -1.878  0.00  0.00     0.062 H 
ATOM     48  H   LIG d   1       2.167   0.786  -2.201  0.00  0.00     0.062 H 
ATOM     49  H   LIG d   1       7.748  -0.677  -2.720  0.00  0.00     0.087 H 
ATOM     50  H   LIG d   1       7.350  -0.532  -4.447  0.00  0.00     0.087 H 
ATOM     51  H   LIG d   1       2.434  -1.478  -3.122  0.00  0.00     0.062 H 
ATOM     52  H   LIG d   1       6.890  -2.861  -2.687  0.00  0.00     0.204 HD
ENDBRANCH  29  32
ENDBRANCH  19  29
BRANCH   1  53
ATOM     53  C   LIG d   1       8.210  -8.857  -3.056  0.00  0.00    -0.060 C 
ATOM     54  H   LIG d   1       8.286  -9.913  -3.317  0.00  0.00     0.023 H 
ATOM     55  H   LIG d   1       7.205  -8.645  -2.691  0.00  0.00     0.023 H 
ATOM     56  H   LIG d   1       8.411  -8.249  -3.938  0.00  0.00     0.023 H 
ENDBRANCH   1  53
BRANCH   6  57
ATOM     57  C   LIG d   1      10.060  -7.698  -4.847  0.00  0.00    -0.057 C 
ATOM     58  H   LIG d   1      10.462  -7.119  -5.678  0.00  0.00     0.024 H 
ATOM     59  H   LIG d   1      10.063  -8.757  -5.106  0.00  0.00     0.024 H 
ATOM     60  H   LIG d   1       9.038  -7.377  -4.641  0.00  0.00     0.024 H 
ENDBRANCH   6  57
TORSDOF 4
ENDMDL
MODEL 9
REMARK VINA RESULT:      -6.8      2.477      3.621
REMARK  4 active torsions:
REMARK  status: ('A' for Active; 'I' for Inactive)
REMARK    1  A    between atoms: C_1  and  C_2 
REMARK    2  A    between atoms: C_7  and  C_32 
REMARK    3  A    between atoms: C_20  and  C_22 
REMARK    4  A    between atoms: C_22  and  N_59 
ROOT
ATOM      1  C   LIG d   1       4.939  -2.076  -3.929  0.00  0.00    -0.012 C 
ATOM      2  H   LIG d   1       4.075  -1.829  -3.312  0.00  0.00     0.033 H 
ATOM      3  C   LIG d   1       6.200  -2.113  -3.058  0.00  0.00    -0.048 C 
ATOM      4  C   LIG d   1       7.427  -2.360  -3.937  0.00  0.00    -0.052 C 
ATOM      5  C   LIG d   1       7.602  -1.210  -4.930  0.00  0.00    -0.045 C 
ATOM      6  C   LIG d   1       6.388  -1.158  -5.859  0.00  0.00     0.003 C 
ATOM      7  C   LIG d   1       5.123  -1.007  -5.007  0.00  0.00     0.104 A 
ATOM      8  C   LIG d   1       3.908  -0.365  -5.647  0.00  0.00     0.096 A 
ATOM      9  H   LIG d   1       2.934  -0.714  -5.307  0.00  0.00     0.063 H 
ATOM     10  O   LIG d   1       4.710   0.324  -4.684  0.00  0.00    -0.363 OA
ATOM     11  C   LIG d   1       3.935   0.124  -7.083  0.00  0.00     0.043 C 
ATOM     12  H   LIG d   1       3.524   1.131  -7.147  0.00  0.00     0.037 H 
ATOM     13  C   LIG d   1       5.309   0.069  -7.742  0.00  0.00     0.110 C 
ATOM     14  H   LIG d   1       5.414   0.957  -8.364  0.00  0.00     0.074 H 
ATOM     15  C   LIG d   1       6.470   0.069  -6.771  0.00  0.00    -0.007 C 
ATOM     16  O   LIG d   1       5.332  -1.086  -8.618  0.00  0.00    -0.461 OA
ATOM     17  C   LIG d   1       4.184  -1.778  -8.529  0.00  0.00     0.316 C 
ATOM     18  O   LIG d   1       4.030  -2.931  -8.855  0.00  0.00    -0.250 OA
ATOM     19  C   LIG d   1       3.117  -0.869  -7.951  0.00  0.00     0.105 C 
ATOM     20  H   LIG d   1       2.420  -1.436  -7.334  0.00  0.00     0.047 H 
ATOM     21  H   LIG d   1       6.310  -1.161  -2.539  0.00  0.00     0.027 H 
ATOM     22  H   LIG d   1       6.111  -2.916  -2.325  0.00  0.00     0.027 H 
ATOM     23  H   LIG d   1       8.313  -2.432  -3.307  0.00  0.00     0.027 H 
ATOM     24  H   LIG d   1       7.295  -3.293  -4.485  0.00  0.00     0.027 H 
ATOM     25  H   LIG d   1       8.505  -1.371  -5.518  0.00  0.00     0.027 H 
ATOM     26  H   LIG d   1       7.684  -0.268  -4.386  0.00  0.00     0.027 H 
ATOM     27  H   LIG d   1       6.436   0.974  -6.164  0.00  0.00     0.031 H 
ATOM     28  H   LIG d   1       7.408   0.044  -7.327  0.00  0.00     0.031 H 
ENDROOT
BRANCH  19  29
ATOM     29  C   LIG d   1       2.375  -0.128  -9.065  0.00  0.00    -0.018 C 
ATOM     30  H   LIG d   1       1.304  -0.310  -8.973  0.00  0.00     0.082 H 
ATOM     31  H   LIG d   1       2.571   0.942  -8.982  0.00  0.00     0.082 H 
BRANCH  29  32
ATOM     32  N   LIG d   1       2.869  -0.611 -10.375  0.00  0.00     0.239 N 
ATOM     33  C   LIG d   1       3.559   0.481 -11.090  0.00  0.00    -0.028 C 
ATOM     34  C   LIG d   1       4.338  -0.139 -12.251  0.00  0.00     0.013 C 
ATOM     35  H   LIG d   1       2.837   1.200 -11.477  0.00  0.00     0.082 H 
ATOM     36  H   LIG d   1       4.251   0.980 -10.411  0.00  0.00     0.082 H 
ATOM     37  C   LIG d   1       3.431  -1.031 -13.060  0.00  0.00    -0.034 A 
ATOM     38  H   LIG d   1       5.166  -0.728 -11.858  0.00  0.00     0.036 H 
ATOM     39  H   LIG d   1       4.728   0.653 -12.889  0.00  0.00     0.036 H 
ATOM     40  C   LIG d   1       2.227  -1.481 -12.563  0.00  0.00     0.000 A 
ATOM     41  C   LIG d   1       3.834  -1.403 -14.334  0.00  0.00    -0.058 A 
ATOM     42  C   LIG d   1       1.427  -2.308 -13.338  0.00  0.00    -0.053 A 
ATOM     43  C   LIG d   1       1.742  -1.100 -11.188  0.00  0.00    -0.006 C 
ATOM     44  C   LIG d   1       1.830  -2.679 -14.606  0.00  0.00    -0.061 A 
ATOM     45  H   LIG d   1       0.485  -2.663 -12.950  0.00  0.00     0.062 H 
ATOM     46  C   LIG d   1       3.037  -2.226 -15.105  0.00  0.00    -0.061 A 
ATOM     47  H   LIG d   1       1.204  -3.324 -15.205  0.00  0.00     0.062 H 
ATOM     48  H   LIG d   1       3.355  -2.513 -16.097  0.00  0.00     0.062 H 
ATOM     49  H   LIG d   1       1.311  -1.975 -10.703  0.00  0.00     0.087 H 
ATOM     50  H   LIG d   1       0.980  -0.326 -11.278  0.00  0.00     0.087 H 
ATOM     51  H   LIG d   1       4.776  -1.049 -14.725  0.00  0.00     0.062 H 
ATOM     52  H   LIG d   1       3.530  -1.381 -10.220  0.00  0.00     0.204 HD
ENDBRANCH  29  32
ENDBRANCH  19  29
BRANCH   1  53
ATOM     53  C   LIG d   1       4.726  -3.439  -4.589  0.00  0.00    -0.060 C 
ATOM     54  H   LIG d   1       4.273  -4.124  -3.871  0.00  0.00     0.023 H 
ATOM     55  H   LIG d   1       4.067  -3.328  -5.450  0.00  0.00     0.023 H 
ATOM     56  H   LIG d   1       5.685  -3.839  -4.916  0.00  0.00     0.023 H 
ENDBRANCH   1  53
BRANCH   6  57
ATOM     57  C   LIG d   1       6.303  -2.432  -6.703  0.00  0.00    -0.057 C 
ATOM     58  H   LIG d   1       5.295  -2.841  -6.641  0.00  0.00     0.024 H 
ATOM     59  H   LIG d   1       6.537  -2.197  -7.742  0.00  0.00     0.024 H 
ATOM     60  H   LIG d   1       7.017  -3.165  -6.326  0.00  0.00     0.024 H 
ENDBRANCH   6  57
TORSDOF 4
ENDMDL
MODEL 10
REMARK VINA RESULT:      -6.7      2.640      8.019
REMARK  4 active torsions:
REMARK  status: ('A' for Active; 'I' for Inactive)
REMARK    1  A    between atoms: C_1  and  C_2 
REMARK    2  A    between atoms: C_7  and  C_32 
REMARK    3  A    between atoms: C_20  and  C_22 
REMARK    4  A    between atoms: C_22  and  N_59 
ROOT
ATOM      1  C   LIG d   1       0.782  -2.891 -11.672  0.00  0.00    -0.012 C 
ATOM      2  H   LIG d   1      -0.015  -2.993 -10.935  0.00  0.00     0.033 H 
ATOM      3  C   LIG d   1       0.730  -4.069 -12.652  0.00  0.00    -0.048 C 
ATOM      4  C   LIG d   1       1.906  -3.982 -13.625  0.00  0.00    -0.052 C 
ATOM      5  C   LIG d   1       3.229  -4.091 -12.862  0.00  0.00    -0.045 C 
ATOM      6  C   LIG d   1       3.353  -2.908 -11.901  0.00  0.00     0.003 C 
ATOM      7  C   LIG d   1       2.138  -2.903 -10.967  0.00  0.00     0.104 A 
ATOM      8  C   LIG d   1       2.288  -2.244  -9.610  0.00  0.00     0.096 A 
ATOM      9  H   LIG d   1       1.399  -1.769  -9.196  0.00  0.00     0.063 H 
ATOM     10  O   LIG d   1       2.241  -3.665  -9.760  0.00  0.00    -0.363 OA
ATOM     11  C   LIG d   1       3.598  -1.613  -9.177  0.00  0.00     0.043 C 
ATOM     12  H   LIG d   1       3.861  -1.941  -8.172  0.00  0.00     0.037 H 
ATOM     13  C   LIG d   1       4.760  -1.852 -10.134  0.00  0.00     0.110 C 
ATOM     14  H   LIG d   1       5.656  -2.014  -9.535  0.00  0.00     0.074 H 
ATOM     15  C   LIG d   1       4.599  -3.065 -11.025  0.00  0.00    -0.007 C 
ATOM     16  O   LIG d   1       4.957  -0.637 -10.901  0.00  0.00    -0.461 OA
ATOM     17  C   LIG d   1       4.031   0.283 -10.587  0.00  0.00     0.316 C 
ATOM     18  O   LIG d   1       3.722   1.233 -11.267  0.00  0.00    -0.250 OA
ATOM     19  C   LIG d   1       3.438  -0.070  -9.236  0.00  0.00     0.105 C 
ATOM     20  H   LIG d   1       2.386   0.210  -9.192  0.00  0.00     0.047 H 
ATOM     21  H   LIG d   1       0.786  -5.005 -12.097  0.00  0.00     0.027 H 
ATOM     22  H   LIG d   1      -0.206  -4.036 -13.210  0.00  0.00     0.027 H 
ATOM     23  H   LIG d   1       1.838  -4.796 -14.347  0.00  0.00     0.027 H 
ATOM     24  H   LIG d   1       1.871  -3.028 -14.149  0.00  0.00     0.027 H 
ATOM     25  H   LIG d   1       4.058  -4.076 -13.568  0.00  0.00     0.027 H 
ATOM     26  H   LIG d   1       3.247  -5.023 -12.296  0.00  0.00     0.027 H 
ATOM     27  H   LIG d   1       4.496  -3.958 -10.408  0.00  0.00     0.031 H 
ATOM     28  H   LIG d   1       5.478  -3.167 -11.662  0.00  0.00     0.031 H 
ENDROOT
BRANCH  19  29
ATOM     29  C   LIG d   1       4.226   0.598  -8.108  0.00  0.00    -0.018 C 
ATOM     30  H   LIG d   1       5.294   0.454  -8.274  0.00  0.00     0.082 H 
ATOM     31  H   LIG d   1       4.001   1.666  -8.091  0.00  0.00     0.082 H 
BRANCH  29  32
ATOM     32  N   LIG d   1       3.821  -0.003  -6.817  0.00  0.00     0.239 N 
ATOM     33  C   LIG d   1       2.917   0.914  -6.093  0.00  0.00    -0.028 C 
ATOM     34  C   LIG d   1       2.263   0.125  -4.959  0.00  0.00     0.013 C 
ATOM     35  H   LIG d   1       3.476   1.754  -5.680  0.00  0.00     0.082 H 
ATOM     36  H   LIG d   1       2.150   1.281  -6.775  0.00  0.00     0.082 H 
ATOM     37  C   LIG d   1       3.318  -0.586  -4.151  0.00  0.00    -0.034 A 
ATOM     38  H   LIG d   1       1.573  -0.607  -5.378  0.00  0.00     0.036 H 
ATOM     39  H   LIG d   1       1.714   0.810  -4.312  0.00  0.00     0.036 H 
ATOM     40  C   LIG d   1       4.594  -0.776  -4.636  0.00  0.00     0.000 A 
ATOM     41  C   LIG d   1       2.980  -1.060  -2.892  0.00  0.00    -0.058 A 
ATOM     42  C   LIG d   1       5.532  -1.446  -3.862  0.00  0.00    -0.053 A 
ATOM     43  C   LIG d   1       5.012  -0.276  -5.994  0.00  0.00    -0.006 C 
ATOM     44  C   LIG d   1       5.193  -1.918  -2.609  0.00  0.00    -0.061 A 
ATOM     45  H   LIG d   1       6.531  -1.597  -4.241  0.00  0.00     0.062 H 
ATOM     46  C   LIG d   1       3.914  -1.725  -2.123  0.00  0.00    -0.061 A 
ATOM     47  H   LIG d   1       5.927  -2.439  -2.012  0.00  0.00     0.062 H 
ATOM     48  H   LIG d   1       3.646  -2.092  -1.143  0.00  0.00     0.062 H 
ATOM     49  H   LIG d   1       5.615  -1.037  -6.488  0.00  0.00     0.087 H 
ATOM     50  H   LIG d   1       5.603   0.632  -5.875  0.00  0.00     0.087 H 
ATOM     51  H   LIG d   1       1.981  -0.909  -2.511  0.00  0.00     0.062 H 
ATOM     52  H   LIG d   1       3.329  -0.885  -6.998  0.00  0.00     0.204 HD
ENDBRANCH  29  32
ENDBRANCH  19  29
BRANCH   1  53
ATOM     53  C   LIG d   1       0.610  -1.576 -12.435  0.00  0.00    -0.060 C 
ATOM     54  H   LIG d   1       0.122  -0.844 -11.792  0.00  0.00     0.023 H 
ATOM     55  H   LIG d   1       1.588  -1.200 -12.736  0.00  0.00     0.023 H 
ATOM     56  H   LIG d   1      -0.001  -1.746 -13.321  0.00  0.00     0.023 H 
ENDBRANCH   1  53
BRANCH   6  57
ATOM     57  C   LIG d   1       3.423  -1.590 -12.677  0.00  0.00    -0.057 C 
ATOM     58  H   LIG d   1       4.080  -0.896 -12.154  0.00  0.00     0.024 H 
ATOM     59  H   LIG d   1       3.814  -1.778 -13.677  0.00  0.00     0.024 H 
ATOM     60  H   LIG d   1       2.425  -1.160 -12.752  0.00  0.00     0.024 H 
ENDBRANCH   6  57
TORSDOF 4
ENDMDL
