MODEL 1
REMARK VINA RESULT:      -6.6      0.000      0.000
REMARK  7 active torsions:
REMARK  status: ('A' for Active; 'I' for Inactive)
REMARK    1  A    between atoms: C_1  and  C_2 
REMARK    2  A    between atoms: C_2  and  O_3 
REMARK    3  A    between atoms: O_3  and  C_4 
REMARK    4  A    between atoms: C_4  and  C_6 
REMARK    5  A    between atoms: C_11  and  C_12 
REMARK    6  A    between atoms: C_11  and  N_63 
REMARK    7  A    between atoms: C_24  and  C_31 
ROOT
ATOM      1  C   LIG d   1       8.749   1.211  -5.550  0.00  0.00     0.102 C 
ATOM      2  H   LIG d   1       9.828   1.246  -5.700  0.00  0.00     0.047 H 
ATOM      3  C   LIG d   1       8.368   0.033  -4.604  0.00  0.00     0.015 C 
ATOM      4  H   LIG d   1       9.195  -0.285  -3.968  0.00  0.00     0.035 H 
ATOM      5  C   LIG d   1       7.140   0.495  -3.812  0.00  0.00    -0.039 C 
ATOM      6  C   LIG d   1       6.403  -0.702  -3.217  0.00  0.00    -0.014 C 
ATOM      7  H   LIG d   1       7.073  -1.282  -2.582  0.00  0.00     0.035 H 
ATOM      8  C   LIG d   1       5.212  -0.231  -2.416  0.00  0.00    -0.073 C 
ATOM      9  C   LIG d   1       5.043   1.040  -2.143  0.00  0.00    -0.099 C 
ATOM     10  C   LIG d   1       4.221  -1.269  -1.937  0.00  0.00    -0.032 C 
ATOM     11  C   LIG d   1       3.799  -2.133  -3.130  0.00  0.00    -0.049 C 
ATOM     12  C   LIG d   1       5.042  -2.709  -3.812  0.00  0.00    -0.047 C 
ATOM     13  C   LIG d   1       5.893  -1.572  -4.375  0.00  0.00    -0.022 C 
ATOM     14  C   LIG d   1       7.109  -2.135  -5.109  0.00  0.00    -0.009 C 
ATOM     15  C   LIG d   1       7.978  -1.027  -5.655  0.00  0.00     0.107 C 
ATOM     16  H   LIG d   1       8.896  -1.460  -6.054  0.00  0.00     0.074 H 
ATOM     17  O   LIG d   1       7.328  -0.249  -6.701  0.00  0.00    -0.461 OA
ATOM     18  C   LIG d   1       8.041   0.889  -6.852  0.00  0.00     0.316 C 
ATOM     19  O   LIG d   1       8.107   1.545  -7.865  0.00  0.00    -0.250 OA
ATOM     20  H   LIG d   1       6.467   1.038  -4.476  0.00  0.00     0.028 H 
ATOM     21  H   LIG d   1       7.462   1.156  -3.008  0.00  0.00     0.028 H 
ATOM     22  H   LIG d   1       4.186   1.359  -1.568  0.00  0.00     0.053 H 
ATOM     23  H   LIG d   1       5.760   1.767  -2.492  0.00  0.00     0.053 H 
ATOM     24  H   LIG d   1       3.346  -0.773  -1.518  0.00  0.00     0.031 H 
ATOM     25  H   LIG d   1       4.684  -1.897  -1.177  0.00  0.00     0.031 H 
ATOM     26  H   LIG d   1       3.244  -1.522  -3.841  0.00  0.00     0.027 H 
ATOM     27  H   LIG d   1       3.166  -2.948  -2.781  0.00  0.00     0.027 H 
ATOM     28  H   LIG d   1       4.737  -3.370  -4.623  0.00  0.00     0.027 H 
ATOM     29  H   LIG d   1       5.626  -3.273  -3.084  0.00  0.00     0.027 H 
ATOM     30  H   LIG d   1       6.770  -2.762  -5.933  0.00  0.00     0.031 H 
ATOM     31  H   LIG d   1       7.695  -2.739  -4.417  0.00  0.00     0.031 H 
ENDROOT
BRANCH   1  32
ATOM     32  C   LIG d   1       8.245   2.539  -4.981  0.00  0.00    -0.018 C 
ATOM     33  H   LIG d   1       7.557   2.345  -4.158  0.00  0.00     0.082 H 
ATOM     34  H   LIG d   1       7.728   3.096  -5.763  0.00  0.00     0.082 H 
BRANCH  32  35
ATOM     35  N   LIG d   1       9.396   3.311  -4.467  0.00  0.00     0.236 N 
ATOM     36  C   LIG d   1       9.667   2.938  -3.062  0.00  0.00    -0.031 C 
ATOM     37  C   LIG d   1      10.931   3.661  -2.592  0.00  0.00     0.001 C 
ATOM     38  H   LIG d   1       8.829   3.218  -2.424  0.00  0.00     0.082 H 
ATOM     39  H   LIG d   1       9.822   1.860  -3.006  0.00  0.00     0.082 H 
ATOM     40  C   LIG d   1      10.716   5.173  -2.692  0.00  0.00     0.066 C 
ATOM     41  H   LIG d   1      11.140   3.390  -1.557  0.00  0.00     0.033 H 
ATOM     42  H   LIG d   1      11.772   3.369  -3.221  0.00  0.00     0.033 H 
ATOM     43  C   LIG d   1      10.363   5.536  -4.137  0.00  0.00     0.001 C 
ATOM     44  H   LIG d   1       9.900   5.469  -2.031  0.00  0.00     0.042 H 
ATOM     45  C   LIG d   1       9.115   4.759  -4.562  0.00  0.00    -0.031 C 
ATOM     46  H   LIG d   1      10.166   6.606  -4.206  0.00  0.00     0.033 H 
ATOM     47  H   LIG d   1      11.195   5.276  -4.791  0.00  0.00     0.033 H 
ATOM     48  H   LIG d   1       8.870   5.005  -5.596  0.00  0.00     0.082 H 
ATOM     49  H   LIG d   1       8.280   5.031  -3.916  0.00  0.00     0.082 H 
ATOM     50  H   LIG d   1      10.223   3.094  -5.035  0.00  0.00     0.203 HD
BRANCH  40  51
ATOM     51  C   LIG d   1      11.978   5.890  -2.286  0.00  0.00     0.311 C 
ATOM     52  O   LIG d   1      12.959   5.829  -2.988  0.00  0.00    -0.251 OA
BRANCH  51  53
ATOM     53  O   LIG d   1      12.012   6.595  -1.145  0.00  0.00    -0.465 OA
BRANCH  53  54
ATOM     54  C   LIG d   1      10.797   6.625  -0.350  0.00  0.00     0.090 C 
ATOM     55  H   LIG d   1      10.510   7.660  -0.164  0.00  0.00     0.069 H 
ATOM     56  H   LIG d   1       9.998   6.117  -0.890  0.00  0.00     0.069 H 
BRANCH  54  57
ATOM     57  C   LIG d   1      11.043   5.915   0.982  0.00  0.00    -0.031 C 
ATOM     58  H   LIG d   1      10.525   4.956   0.984  0.00  0.00     0.026 H 
ATOM     59  H   LIG d   1      12.112   5.750   1.114  0.00  0.00     0.026 H 
ATOM     60  H   LIG d   1      10.668   6.532   1.798  0.00  0.00     0.026 H 
ENDBRANCH  54  57
ENDBRANCH  53  54
ENDBRANCH  51  53
ENDBRANCH  40  51
ENDBRANCH  32  35
ENDBRANCH   1  32
BRANCH  13  61
ATOM     61  C   LIG d   1       5.055  -0.730  -5.339  0.00  0.00    -0.059 C 
ATOM     62  H   LIG d   1       3.996  -0.880  -5.127  0.00  0.00     0.024 H 
ATOM     63  H   LIG d   1       5.305   0.323  -5.211  0.00  0.00     0.024 H 
ATOM     64  H   LIG d   1       5.267  -1.032  -6.364  0.00  0.00     0.024 H 
ENDBRANCH  13  61
TORSDOF 7
ENDMDL
MODEL 2
REMARK VINA RESULT:      -6.4      4.347      5.423
REMARK  7 active torsions:
REMARK  status: ('A' for Active; 'I' for Inactive)
REMARK    1  A    between atoms: C_1  and  C_2 
REMARK    2  A    between atoms: C_2  and  O_3 
REMARK    3  A    between atoms: O_3  and  C_4 
REMARK    4  A    between atoms: C_4  and  C_6 
REMARK    5  A    between atoms: C_11  and  C_12 
REMARK    6  A    between atoms: C_11  and  N_63 
REMARK    7  A    between atoms: C_24  and  C_31 
ROOT
ATOM      1  C   LIG d   1       8.142  -2.878  -5.141  0.00  0.00     0.102 C 
ATOM      2  H   LIG d   1       8.792  -3.740  -5.000  0.00  0.00     0.047 H 
ATOM      3  C   LIG d   1       7.148  -2.742  -3.948  0.00  0.00     0.015 C 
ATOM      4  H   LIG d   1       7.502  -3.237  -3.044  0.00  0.00     0.035 H 
ATOM      5  C   LIG d   1       6.904  -1.241  -3.759  0.00  0.00    -0.039 C 
ATOM      6  C   LIG d   1       5.625  -1.001  -2.962  0.00  0.00    -0.014 C 
ATOM      7  H   LIG d   1       5.679  -1.506  -1.997  0.00  0.00     0.035 H 
ATOM      8  C   LIG d   1       5.411   0.480  -2.758  0.00  0.00    -0.073 C 
ATOM      9  C   LIG d   1       6.348   1.344  -3.061  0.00  0.00    -0.099 C 
ATOM     10  C   LIG d   1       4.083   0.936  -2.194  0.00  0.00    -0.032 C 
ATOM     11  C   LIG d   1       2.956   0.307  -3.018  0.00  0.00    -0.049 C 
ATOM     12  C   LIG d   1       3.139  -1.212  -3.062  0.00  0.00    -0.047 C 
ATOM     13  C   LIG d   1       4.445  -1.552  -3.776  0.00  0.00    -0.022 C 
ATOM     14  C   LIG d   1       4.613  -3.067  -3.879  0.00  0.00    -0.009 C 
ATOM     15  C   LIG d   1       5.911  -3.428  -4.562  0.00  0.00     0.107 C 
ATOM     16  H   LIG d   1       6.057  -4.507  -4.500  0.00  0.00     0.074 H 
ATOM     17  O   LIG d   1       5.954  -3.025  -5.961  0.00  0.00    -0.461 OA
ATOM     18  C   LIG d   1       7.248  -3.078  -6.350  0.00  0.00     0.316 C 
ATOM     19  O   LIG d   1       7.631  -3.258  -7.482  0.00  0.00    -0.250 OA
ATOM     20  H   LIG d   1       6.814  -0.764  -4.735  0.00  0.00     0.028 H 
ATOM     21  H   LIG d   1       7.748  -0.806  -3.224  0.00  0.00     0.028 H 
ATOM     22  H   LIG d   1       6.178   2.400  -2.908  0.00  0.00     0.053 H 
ATOM     23  H   LIG d   1       7.289   1.002  -3.462  0.00  0.00     0.053 H 
ATOM     24  H   LIG d   1       4.015   2.023  -2.252  0.00  0.00     0.031 H 
ATOM     25  H   LIG d   1       3.996   0.620  -1.155  0.00  0.00     0.031 H 
ATOM     26  H   LIG d   1       2.982   0.705  -4.032  0.00  0.00     0.027 H 
ATOM     27  H   LIG d   1       1.996   0.544  -2.560  0.00  0.00     0.027 H 
ATOM     28  H   LIG d   1       2.303  -1.662  -3.598  0.00  0.00     0.027 H 
ATOM     29  H   LIG d   1       3.169  -1.603  -2.045  0.00  0.00     0.027 H 
ATOM     30  H   LIG d   1       3.782  -3.482  -4.449  0.00  0.00     0.031 H 
ATOM     31  H   LIG d   1       4.608  -3.495  -2.876  0.00  0.00     0.031 H 
ENDROOT
BRANCH   1  32
ATOM     32  C   LIG d   1       8.972  -1.601  -5.295  0.00  0.00    -0.018 C 
ATOM     33  H   LIG d   1       8.428  -0.759  -4.867  0.00  0.00     0.082 H 
ATOM     34  H   LIG d   1       9.156  -1.414  -6.353  0.00  0.00     0.082 H 
BRANCH  32  35
ATOM     35  N   LIG d   1      10.247  -1.765  -4.566  0.00  0.00     0.236 N 
ATOM     36  C   LIG d   1      11.270  -0.858  -5.127  0.00  0.00    -0.031 C 
ATOM     37  C   LIG d   1      12.542  -0.961  -4.282  0.00  0.00     0.001 C 
ATOM     38  H   LIG d   1      11.496  -1.129  -6.159  0.00  0.00     0.082 H 
ATOM     39  H   LIG d   1      10.892   0.164  -5.094  0.00  0.00     0.082 H 
ATOM     40  C   LIG d   1      13.056  -2.402  -4.315  0.00  0.00     0.066 C 
ATOM     41  H   LIG d   1      13.302  -0.293  -4.688  0.00  0.00     0.033 H 
ATOM     42  H   LIG d   1      12.319  -0.676  -3.254  0.00  0.00     0.033 H 
ATOM     43  C   LIG d   1      11.960  -3.339  -3.800  0.00  0.00     0.001 C 
ATOM     44  H   LIG d   1      13.316  -2.673  -5.339  0.00  0.00     0.042 H 
ATOM     45  C   LIG d   1      10.705  -3.167  -4.660  0.00  0.00    -0.031 C 
ATOM     46  H   LIG d   1      12.304  -4.371  -3.862  0.00  0.00     0.033 H 
ATOM     47  H   LIG d   1      11.728  -3.094  -2.765  0.00  0.00     0.033 H 
ATOM     48  H   LIG d   1       9.917  -3.823  -4.287  0.00  0.00     0.082 H 
ATOM     49  H   LIG d   1      10.934  -3.427  -5.694  0.00  0.00     0.082 H 
ATOM     50  H   LIG d   1      10.098  -1.530  -3.578  0.00  0.00     0.203 HD
BRANCH  40  51
ATOM     51  C   LIG d   1      14.274  -2.522  -3.437  0.00  0.00     0.311 C 
ATOM     52  O   LIG d   1      14.520  -3.568  -2.885  0.00  0.00    -0.251 OA
BRANCH  51  53
ATOM     53  O   LIG d   1      15.087  -1.468  -3.268  0.00  0.00    -0.465 OA
BRANCH  53  54
ATOM     54  C   LIG d   1      15.615  -1.249  -1.934  0.00  0.00     0.090 C 
ATOM     55  H   LIG d   1      15.026  -1.815  -1.212  0.00  0.00     0.069 H 
ATOM     56  H   LIG d   1      16.653  -1.580  -1.894  0.00  0.00     0.069 H 
BRANCH  54  57
ATOM     57  C   LIG d   1      15.543   0.242  -1.596  0.00  0.00    -0.031 C 
ATOM     58  H   LIG d   1      16.552   0.647  -1.523  0.00  0.00     0.026 H 
ATOM     59  H   LIG d   1      14.998   0.766  -2.381  0.00  0.00     0.026 H 
ATOM     60  H   LIG d   1      15.028   0.375  -0.645  0.00  0.00     0.026 H 
ENDBRANCH  54  57
ENDBRANCH  53  54
ENDBRANCH  51  53
ENDBRANCH  40  51
ENDBRANCH  32  35
ENDBRANCH   1  32
BRANCH  13  61
ATOM     61  C   LIG d   1       4.439  -0.940  -5.178  0.00  0.00    -0.059 C 
ATOM     62  H   LIG d   1       5.159  -1.464  -5.807  0.00  0.00     0.024 H 
ATOM     63  H   LIG d   1       3.443  -1.034  -5.611  0.00  0.00     0.024 H 
ATOM     64  H   LIG d   1       4.710   0.114  -5.117  0.00  0.00     0.024 H 
ENDBRANCH  13  61
TORSDOF 7
ENDMDL
MODEL 3
REMARK VINA RESULT:      -6.1      6.190     10.347
REMARK  7 active torsions:
REMARK  status: ('A' for Active; 'I' for Inactive)
REMARK    1  A    between atoms: C_1  and  C_2 
REMARK    2  A    between atoms: C_2  and  O_3 
REMARK    3  A    between atoms: O_3  and  C_4 
REMARK    4  A    between atoms: C_4  and  C_6 
REMARK    5  A    between atoms: C_11  and  C_12 
REMARK    6  A    between atoms: C_11  and  N_63 
REMARK    7  A    between atoms: C_24  and  C_31 
ROOT
ATOM      1  C   LIG d   1       5.114  -1.289  -8.404  0.00  0.00     0.102 C 
ATOM      2  H   LIG d   1       5.740  -0.973  -9.238  0.00  0.00     0.047 H 
ATOM      3  C   LIG d   1       5.644  -0.688  -7.067  0.00  0.00     0.015 C 
ATOM      4  H   LIG d   1       6.251   0.205  -7.214  0.00  0.00     0.035 H 
ATOM      5  C   LIG d   1       4.413  -0.445  -6.186  0.00  0.00    -0.039 C 
ATOM      6  C   LIG d   1       4.819  -0.312  -4.722  0.00  0.00    -0.014 C 
ATOM      7  H   LIG d   1       5.543   0.494  -4.600  0.00  0.00     0.035 H 
ATOM      8  C   LIG d   1       3.601  -0.044  -3.869  0.00  0.00    -0.073 C 
ATOM      9  C   LIG d   1       2.444   0.238  -4.415  0.00  0.00    -0.099 C 
ATOM     10  C   LIG d   1       3.758  -0.108  -2.365  0.00  0.00    -0.032 C 
ATOM     11  C   LIG d   1       4.429  -1.436  -1.997  0.00  0.00    -0.049 C 
ATOM     12  C   LIG d   1       5.737  -1.582  -2.778  0.00  0.00    -0.047 C 
ATOM     13  C   LIG d   1       5.438  -1.644  -4.274  0.00  0.00    -0.022 C 
ATOM     14  C   LIG d   1       6.730  -1.848  -5.064  0.00  0.00    -0.009 C 
ATOM     15  C   LIG d   1       6.462  -1.890  -6.550  0.00  0.00     0.107 C 
ATOM     16  H   LIG d   1       7.413  -1.904  -7.082  0.00  0.00     0.074 H 
ATOM     17  O   LIG d   1       5.673  -3.043  -6.959  0.00  0.00    -0.461 OA
ATOM     18  C   LIG d   1       5.213  -2.789  -8.205  0.00  0.00     0.316 C 
ATOM     19  O   LIG d   1       4.928  -3.625  -9.029  0.00  0.00    -0.250 OA
ATOM     20  H   LIG d   1       3.722  -1.281  -6.294  0.00  0.00     0.028 H 
ATOM     21  H   LIG d   1       3.920   0.472  -6.508  0.00  0.00     0.028 H 
ATOM     22  H   LIG d   1       1.584   0.427  -3.790  0.00  0.00     0.053 H 
ATOM     23  H   LIG d   1       2.351   0.280  -5.490  0.00  0.00     0.053 H 
ATOM     24  H   LIG d   1       2.777  -0.053  -1.893  0.00  0.00     0.031 H 
ATOM     25  H   LIG d   1       4.375   0.721  -2.022  0.00  0.00     0.031 H 
ATOM     26  H   LIG d   1       3.762  -2.260  -2.246  0.00  0.00     0.027 H 
ATOM     27  H   LIG d   1       4.641  -1.450  -0.928  0.00  0.00     0.027 H 
ATOM     28  H   LIG d   1       6.242  -2.498  -2.470  0.00  0.00     0.027 H 
ATOM     29  H   LIG d   1       6.381  -0.727  -2.571  0.00  0.00     0.027 H 
ATOM     30  H   LIG d   1       7.191  -2.788  -4.759  0.00  0.00     0.031 H 
ATOM     31  H   LIG d   1       7.413  -1.027  -4.848  0.00  0.00     0.031 H 
ENDROOT
BRANCH   1  32
ATOM     32  C   LIG d   1       3.660  -0.875  -8.639  0.00  0.00    -0.018 C 
ATOM     33  H   LIG d   1       3.598   0.211  -8.714  0.00  0.00     0.082 H 
ATOM     34  H   LIG d   1       3.047  -1.216  -7.805  0.00  0.00     0.082 H 
BRANCH  32  35
ATOM     35  N   LIG d   1       3.190  -1.468  -9.908  0.00  0.00     0.236 N 
ATOM     36  C   LIG d   1       3.280  -0.470 -10.996  0.00  0.00    -0.031 C 
ATOM     37  C   LIG d   1       2.901  -1.141 -12.318  0.00  0.00     0.001 C 
ATOM     38  H   LIG d   1       2.607   0.366 -10.805  0.00  0.00     0.082 H 
ATOM     39  H   LIG d   1       4.305  -0.104 -11.055  0.00  0.00     0.082 H 
ATOM     40  C   LIG d   1       1.468  -1.672 -12.222  0.00  0.00     0.066 C 
ATOM     41  H   LIG d   1       2.967  -0.413 -13.126  0.00  0.00     0.033 H 
ATOM     42  H   LIG d   1       3.584  -1.967 -12.515  0.00  0.00     0.033 H 
ATOM     43  C   LIG d   1       1.370  -2.647 -11.046  0.00  0.00     0.001 C 
ATOM     44  H   LIG d   1       0.781  -0.840 -12.065  0.00  0.00     0.042 H 
ATOM     45  C   LIG d   1       1.794  -1.932  -9.761  0.00  0.00    -0.031 C 
ATOM     46  H   LIG d   1       0.343  -2.996 -10.946  0.00  0.00     0.033 H 
ATOM     47  H   LIG d   1       2.027  -3.498 -11.224  0.00  0.00     0.033 H 
ATOM     48  H   LIG d   1       1.739  -2.629  -8.924  0.00  0.00     0.082 H 
ATOM     49  H   LIG d   1       1.127  -1.090  -9.577  0.00  0.00     0.082 H 
ATOM     50  H   LIG d   1       3.785  -2.270 -10.142  0.00  0.00     0.203 HD
BRANCH  40  51
ATOM     51  C   LIG d   1       1.109  -2.386 -13.500  0.00  0.00     0.311 C 
ATOM     52  O   LIG d   1       1.801  -3.291 -13.901  0.00  0.00    -0.251 OA
BRANCH  51  53
ATOM     53  O   LIG d   1       0.021  -2.016 -14.193  0.00  0.00    -0.465 OA
BRANCH  53  54
ATOM     54  C   LIG d   1      -1.270  -2.268 -13.578  0.00  0.00     0.090 C 
ATOM     55  H   LIG d   1      -1.842  -2.953 -14.204  0.00  0.00     0.069 H 
ATOM     56  H   LIG d   1      -1.123  -2.711 -12.593  0.00  0.00     0.069 H 
BRANCH  54  57
ATOM     57  C   LIG d   1      -2.032  -0.949 -13.435  0.00  0.00    -0.031 C 
ATOM     58  H   LIG d   1      -2.966  -1.125 -12.901  0.00  0.00     0.026 H 
ATOM     59  H   LIG d   1      -1.424  -0.238 -12.876  0.00  0.00     0.026 H 
ATOM     60  H   LIG d   1      -2.248  -0.545 -14.423  0.00  0.00     0.026 H 
ENDBRANCH  54  57
ENDBRANCH  53  54
ENDBRANCH  51  53
ENDBRANCH  40  51
ENDBRANCH  32  35
ENDBRANCH   1  32
BRANCH  13  61
ATOM     61  C   LIG d   1       4.473  -2.796  -4.560  0.00  0.00    -0.059 C 
ATOM     62  H   LIG d   1       4.517  -3.054  -5.618  0.00  0.00     0.024 H 
ATOM     63  H   LIG d   1       4.758  -3.663  -3.963  0.00  0.00     0.024 H 
ATOM     64  H   LIG d   1       3.459  -2.495  -4.300  0.00  0.00     0.024 H 
ENDBRANCH  13  61
TORSDOF 7
ENDMDL
MODEL 4
REMARK VINA RESULT:      -6.0      2.078      8.141
REMARK  7 active torsions:
REMARK  status: ('A' for Active; 'I' for Inactive)
REMARK    1  A    between atoms: C_1  and  C_2 
REMARK    2  A    between atoms: C_2  and  O_3 
REMARK    3  A    between atoms: O_3  and  C_4 
REMARK    4  A    between atoms: C_4  and  C_6 
REMARK    5  A    between atoms: C_11  and  C_12 
REMARK    6  A    between atoms: C_11  and  N_63 
REMARK    7  A    between atoms: C_24  and  C_31 
ROOT
ATOM      1  C   LIG d   1       9.739   3.355  -5.231  0.00  0.00     0.102 C 
ATOM      2  H   LIG d   1       9.028   2.807  -5.849  0.00  0.00     0.047 H 
ATOM      3  C   LIG d   1       9.146   4.733  -4.809  0.00  0.00     0.015 C 
ATOM      4  H   LIG d   1       8.057   4.755  -4.845  0.00  0.00     0.035 H 
ATOM      5  C   LIG d   1       9.710   5.036  -3.416  0.00  0.00    -0.039 C 
ATOM      6  C   LIG d   1       9.592   6.525  -3.102  0.00  0.00    -0.014 C 
ATOM      7  H   LIG d   1       8.553   6.846  -3.173  0.00  0.00     0.035 H 
ATOM      8  C   LIG d   1      10.125   6.806  -1.716  0.00  0.00    -0.073 C 
ATOM      9  C   LIG d   1      10.417   5.827  -0.896  0.00  0.00    -0.099 C 
ATOM     10  C   LIG d   1      10.309   8.250  -1.304  0.00  0.00    -0.032 C 
ATOM     11  C   LIG d   1      11.124   8.969  -2.384  0.00  0.00    -0.049 C 
ATOM     12  C   LIG d   1      10.452   8.778  -3.746  0.00  0.00    -0.047 C 
ATOM     13  C   LIG d   1      10.450   7.296  -4.114  0.00  0.00    -0.022 C 
ATOM     14  C   LIG d   1       9.834   7.097  -5.499  0.00  0.00    -0.009 C 
ATOM     15  C   LIG d   1       9.800   5.635  -5.876  0.00  0.00     0.107 C 
ATOM     16  H   LIG d   1       9.239   5.520  -6.804  0.00  0.00     0.074 H 
ATOM     17  O   LIG d   1      11.124   5.056  -6.049  0.00  0.00    -0.461 OA
ATOM     18  C   LIG d   1      10.976   3.712  -6.034  0.00  0.00     0.316 C 
ATOM     19  O   LIG d   1      11.711   2.920  -6.575  0.00  0.00    -0.250 OA
ATOM     20  H   LIG d   1      10.759   4.743  -3.381  0.00  0.00     0.028 H 
ATOM     21  H   LIG d   1       9.153   4.466  -2.673  0.00  0.00     0.028 H 
ATOM     22  H   LIG d   1      10.797   6.047   0.091  0.00  0.00     0.053 H 
ATOM     23  H   LIG d   1      10.279   4.803  -1.206  0.00  0.00     0.053 H 
ATOM     24  H   LIG d   1      10.842   8.294  -0.355  0.00  0.00     0.031 H 
ATOM     25  H   LIG d   1       9.337   8.731  -1.199  0.00  0.00     0.031 H 
ATOM     26  H   LIG d   1      12.131   8.555  -2.414  0.00  0.00     0.027 H 
ATOM     27  H   LIG d   1      11.176  10.032  -2.151  0.00  0.00     0.027 H 
ATOM     28  H   LIG d   1      11.001   9.340  -4.502  0.00  0.00     0.027 H 
ATOM     29  H   LIG d   1       9.426   9.143  -3.698  0.00  0.00     0.027 H 
ATOM     30  H   LIG d   1      10.424   7.642  -6.235  0.00  0.00     0.031 H 
ATOM     31  H   LIG d   1       8.816   7.488  -5.496  0.00  0.00     0.031 H 
ENDROOT
BRANCH   1  32
ATOM     32  C   LIG d   1      10.120   2.534  -3.998  0.00  0.00    -0.018 C 
ATOM     33  H   LIG d   1       9.979   3.138  -3.101  0.00  0.00     0.082 H 
ATOM     34  H   LIG d   1      11.165   2.232  -4.071  0.00  0.00     0.082 H 
BRANCH  32  35
ATOM     35  N   LIG d   1       9.240   1.350  -3.917  0.00  0.00     0.236 N 
ATOM     36  C   LIG d   1       9.397   0.520  -5.131  0.00  0.00    -0.031 C 
ATOM     37  C   LIG d   1       8.568  -0.756  -4.971  0.00  0.00     0.001 C 
ATOM     38  H   LIG d   1       9.060   1.065  -6.012  0.00  0.00     0.082 H 
ATOM     39  H   LIG d   1      10.449   0.258  -5.245  0.00  0.00     0.082 H 
ATOM     40  C   LIG d   1       7.094  -0.381  -4.789  0.00  0.00     0.066 C 
ATOM     41  H   LIG d   1       8.679  -1.375  -5.861  0.00  0.00     0.033 H 
ATOM     42  H   LIG d   1       8.915  -1.308  -4.097  0.00  0.00     0.033 H 
ATOM     43  C   LIG d   1       6.955   0.537  -3.572  0.00  0.00     0.001 C 
ATOM     44  H   LIG d   1       6.738   0.136  -5.680  0.00  0.00     0.042 H 
ATOM     45  C   LIG d   1       7.832   1.776  -3.773  0.00  0.00    -0.031 C 
ATOM     46  H   LIG d   1       5.915   0.842  -3.463  0.00  0.00     0.033 H 
ATOM     47  H   LIG d   1       7.275   0.006  -2.676  0.00  0.00     0.033 H 
ATOM     48  H   LIG d   1       7.746   2.426  -2.902  0.00  0.00     0.082 H 
ATOM     49  H   LIG d   1       7.502   2.315  -4.661  0.00  0.00     0.082 H 
ATOM     50  H   LIG d   1       9.504   0.793  -3.096  0.00  0.00     0.203 HD
BRANCH  40  51
ATOM     51  C   LIG d   1       6.280  -1.631  -4.572  0.00  0.00     0.311 C 
ATOM     52  O   LIG d   1       6.821  -2.711  -4.570  0.00  0.00    -0.251 OA
BRANCH  51  53
ATOM     53  O   LIG d   1       4.955  -1.544  -4.380  0.00  0.00    -0.465 OA
BRANCH  53  54
ATOM     54  C   LIG d   1       4.382  -2.380  -3.340  0.00  0.00     0.090 C 
ATOM     55  H   LIG d   1       3.389  -2.709  -3.644  0.00  0.00     0.069 H 
ATOM     56  H   LIG d   1       5.020  -3.249  -3.180  0.00  0.00     0.069 H 
BRANCH  54  57
ATOM     57  C   LIG d   1       4.280  -1.578  -2.041  0.00  0.00    -0.031 C 
ATOM     58  H   LIG d   1       3.587  -0.748  -2.181  0.00  0.00     0.026 H 
ATOM     59  H   LIG d   1       3.916  -2.224  -1.243  0.00  0.00     0.026 H 
ATOM     60  H   LIG d   1       5.262  -1.190  -1.775  0.00  0.00     0.026 H 
ENDBRANCH  54  57
ENDBRANCH  53  54
ENDBRANCH  51  53
ENDBRANCH  40  51
ENDBRANCH  32  35
ENDBRANCH   1  32
BRANCH  13  61
ATOM     61  C   LIG d   1      11.883   6.762  -4.108  0.00  0.00    -0.059 C 
ATOM     62  H   LIG d   1      12.391   7.092  -3.202  0.00  0.00     0.024 H 
ATOM     63  H   LIG d   1      11.864   5.672  -4.137  0.00  0.00     0.024 H 
ATOM     64  H   LIG d   1      12.416   7.138  -4.981  0.00  0.00     0.024 H 
ENDBRANCH  13  61
TORSDOF 7
ENDMDL
MODEL 5
REMARK VINA RESULT:      -5.9      5.257     10.486
REMARK  7 active torsions:
REMARK  status: ('A' for Active; 'I' for Inactive)
REMARK    1  A    between atoms: C_1  and  C_2 
REMARK    2  A    between atoms: C_2  and  O_3 
REMARK    3  A    between atoms: O_3  and  C_4 
REMARK    4  A    between atoms: C_4  and  C_6 
REMARK    5  A    between atoms: C_11  and  C_12 
REMARK    6  A    between atoms: C_11  and  N_63 
REMARK    7  A    between atoms: C_24  and  C_31 
ROOT
ATOM      1  C   LIG d   1       5.502  -3.274  -6.557  0.00  0.00     0.102 C 
ATOM      2  H   LIG d   1       5.705  -3.449  -7.613  0.00  0.00     0.047 H 
ATOM      3  C   LIG d   1       5.369  -1.748  -6.272  0.00  0.00     0.015 C 
ATOM      4  H   LIG d   1       5.108  -1.172  -7.160  0.00  0.00     0.035 H 
ATOM      5  C   LIG d   1       4.345  -1.608  -5.140  0.00  0.00    -0.039 C 
ATOM      6  C   LIG d   1       4.475  -0.246  -4.464  0.00  0.00    -0.014 C 
ATOM      7  H   LIG d   1       4.351   0.553  -5.194  0.00  0.00     0.035 H 
ATOM      8  C   LIG d   1       3.442  -0.110  -3.369  0.00  0.00    -0.073 C 
ATOM      9  C   LIG d   1       2.479  -0.989  -3.239  0.00  0.00    -0.099 C 
ATOM     10  C   LIG d   1       3.553   1.070  -2.429  0.00  0.00    -0.032 C 
ATOM     11  C   LIG d   1       4.980   1.124  -1.875  0.00  0.00    -0.049 C 
ATOM     12  C   LIG d   1       5.980   1.140  -3.033  0.00  0.00    -0.047 C 
ATOM     13  C   LIG d   1       5.869  -0.161  -3.825  0.00  0.00    -0.022 C 
ATOM     14  C   LIG d   1       6.902  -0.184  -4.951  0.00  0.00    -0.009 C 
ATOM     15  C   LIG d   1       6.795  -1.453  -5.764  0.00  0.00     0.107 C 
ATOM     16  H   LIG d   1       7.453  -1.376  -6.630  0.00  0.00     0.074 H 
ATOM     17  O   LIG d   1       7.144  -2.649  -5.010  0.00  0.00    -0.461 OA
ATOM     18  C   LIG d   1       6.683  -3.710  -5.710  0.00  0.00     0.316 C 
ATOM     19  O   LIG d   1       7.141  -4.827  -5.670  0.00  0.00    -0.250 OA
ATOM     20  H   LIG d   1       4.514  -2.393  -4.403  0.00  0.00     0.028 H 
ATOM     21  H   LIG d   1       3.341  -1.711  -5.552  0.00  0.00     0.028 H 
ATOM     22  H   LIG d   1       1.749  -0.876  -2.451  0.00  0.00     0.053 H 
ATOM     23  H   LIG d   1       2.414  -1.824  -3.919  0.00  0.00     0.053 H 
ATOM     24  H   LIG d   1       2.847   0.950  -1.607  0.00  0.00     0.031 H 
ATOM     25  H   LIG d   1       3.334   1.992  -2.967  0.00  0.00     0.031 H 
ATOM     26  H   LIG d   1       5.161   0.250  -1.250  0.00  0.00     0.027 H 
ATOM     27  H   LIG d   1       5.103   2.028  -1.277  0.00  0.00     0.027 H 
ATOM     28  H   LIG d   1       6.991   1.239  -2.638  0.00  0.00     0.027 H 
ATOM     29  H   LIG d   1       5.763   1.984  -3.688  0.00  0.00     0.027 H 
ATOM     30  H   LIG d   1       7.901  -0.119  -4.522  0.00  0.00     0.031 H 
ATOM     31  H   LIG d   1       6.736   0.672  -5.605  0.00  0.00     0.031 H 
ENDROOT
BRANCH   1  32
ATOM     32  C   LIG d   1       4.234  -4.012  -6.126  0.00  0.00    -0.018 C 
ATOM     33  H   LIG d   1       3.529  -3.303  -5.693  0.00  0.00     0.082 H 
ATOM     34  H   LIG d   1       4.488  -4.769  -5.384  0.00  0.00     0.082 H 
BRANCH  32  35
ATOM     35  N   LIG d   1       3.612  -4.636  -7.313  0.00  0.00     0.236 N 
ATOM     36  C   LIG d   1       4.326  -5.884  -7.660  0.00  0.00    -0.031 C 
ATOM     37  C   LIG d   1       3.593  -6.569  -8.816  0.00  0.00     0.001 C 
ATOM     38  H   LIG d   1       5.352  -5.667  -7.957  0.00  0.00     0.082 H 
ATOM     39  H   LIG d   1       4.330  -6.541  -6.791  0.00  0.00     0.082 H 
ATOM     40  C   LIG d   1       3.572  -5.632 -10.027  0.00  0.00     0.066 C 
ATOM     41  H   LIG d   1       4.111  -7.491  -9.077  0.00  0.00     0.033 H 
ATOM     42  H   LIG d   1       2.571  -6.798  -8.514  0.00  0.00     0.033 H 
ATOM     43  C   LIG d   1       2.897  -4.316  -9.633  0.00  0.00     0.001 C 
ATOM     44  H   LIG d   1       4.593  -5.436 -10.353  0.00  0.00     0.042 H 
ATOM     45  C   LIG d   1       3.650  -3.696  -8.454  0.00  0.00    -0.031 C 
ATOM     46  H   LIG d   1       2.917  -3.629 -10.479  0.00  0.00     0.033 H 
ATOM     47  H   LIG d   1       1.864  -4.509  -9.346  0.00  0.00     0.033 H 
ATOM     48  H   LIG d   1       3.162  -2.765  -8.162  0.00  0.00     0.082 H 
ATOM     49  H   LIG d   1       4.679  -3.490  -8.747  0.00  0.00     0.082 H 
ATOM     50  H   LIG d   1       2.634  -4.859  -7.099  0.00  0.00     0.203 HD
BRANCH  40  51
ATOM     51  C   LIG d   1       2.801  -6.278 -11.149  0.00  0.00     0.311 C 
ATOM     52  O   LIG d   1       2.764  -5.753 -12.237  0.00  0.00    -0.251 OA
BRANCH  51  53
ATOM     53  O   LIG d   1       2.156  -7.436 -10.941  0.00  0.00    -0.465 OA
BRANCH  53  54
ATOM     54  C   LIG d   1       0.753  -7.487 -11.315  0.00  0.00     0.090 C 
ATOM     55  H   LIG d   1       0.620  -7.014 -12.287  0.00  0.00     0.069 H 
ATOM     56  H   LIG d   1       0.429  -8.526 -11.368  0.00  0.00     0.069 H 
BRANCH  54  57
ATOM     57  C   LIG d   1      -0.080  -6.746 -10.267  0.00  0.00    -0.031 C 
ATOM     58  H   LIG d   1       0.096  -7.187  -9.286  0.00  0.00     0.026 H 
ATOM     59  H   LIG d   1       0.210  -5.695 -10.250  0.00  0.00     0.026 H 
ATOM     60  H   LIG d   1      -1.136  -6.828 -10.518  0.00  0.00     0.026 H 
ENDBRANCH  54  57
ENDBRANCH  53  54
ENDBRANCH  51  53
ENDBRANCH  40  51
ENDBRANCH  32  35
ENDBRANCH   1  32
BRANCH  13  61
ATOM     61  C   LIG d   1       6.097  -1.353  -2.894  0.00  0.00    -0.059 C 
ATOM     62  H   LIG d   1       6.336  -2.236  -3.485  0.00  0.00     0.024 H 
ATOM     63  H   LIG d   1       6.925  -1.132  -2.220  0.00  0.00     0.024 H 
ATOM     64  H   LIG d   1       5.195  -1.538  -2.311  0.00  0.00     0.024 H 
ENDBRANCH  13  61
TORSDOF 7
ENDMDL
MODEL 6
REMARK VINA RESULT:      -5.9      7.860     11.035
REMARK  7 active torsions:
REMARK  status: ('A' for Active; 'I' for Inactive)
REMARK    1  A    between atoms: C_1  and  C_2 
REMARK    2  A    between atoms: C_2  and  O_3 
REMARK    3  A    between atoms: O_3  and  C_4 
REMARK    4  A    between atoms: C_4  and  C_6 
REMARK    5  A    between atoms: C_11  and  C_12 
REMARK    6  A    between atoms: C_11  and  N_63 
REMARK    7  A    between atoms: C_24  and  C_31 
ROOT
ATOM      1  C   LIG d   1       4.059  -3.972  -9.402  0.00  0.00     0.102 C 
ATOM      2  H   LIG d   1       3.662  -4.887  -9.840  0.00  0.00     0.047 H 
ATOM      3  C   LIG d   1       3.251  -2.735  -9.898  0.00  0.00     0.015 C 
ATOM      4  H   LIG d   1       2.250  -2.993 -10.244  0.00  0.00     0.035 H 
ATOM      5  C   LIG d   1       3.250  -1.728  -8.743  0.00  0.00    -0.039 C 
ATOM      6  C   LIG d   1       2.915  -0.328  -9.251  0.00  0.00    -0.014 C 
ATOM      7  H   LIG d   1       1.950  -0.330  -9.758  0.00  0.00     0.035 H 
ATOM      8  C   LIG d   1       2.889   0.648  -8.098  0.00  0.00    -0.073 C 
ATOM      9  C   LIG d   1       2.939   0.229  -6.858  0.00  0.00    -0.099 C 
ATOM     10  C   LIG d   1       2.803   2.125  -8.419  0.00  0.00    -0.032 C 
ATOM     11  C   LIG d   1       3.896   2.472  -9.435  0.00  0.00    -0.049 C 
ATOM     12  C   LIG d   1       3.777   1.550 -10.651  0.00  0.00    -0.047 C 
ATOM     13  C   LIG d   1       4.020   0.104 -10.225  0.00  0.00    -0.022 C 
ATOM     14  C   LIG d   1       3.961  -0.822 -11.440  0.00  0.00    -0.009 C 
ATOM     15  C   LIG d   1       4.175  -2.262 -11.040  0.00  0.00     0.107 C 
ATOM     16  H   LIG d   1       3.997  -2.902 -11.905  0.00  0.00     0.074 H 
ATOM     17  O   LIG d   1       5.513  -2.522 -10.527  0.00  0.00    -0.461 OA
ATOM     18  C   LIG d   1       5.471  -3.716  -9.893  0.00  0.00     0.316 C 
ATOM     19  O   LIG d   1       6.410  -4.462  -9.743  0.00  0.00    -0.250 OA
ATOM     20  H   LIG d   1       4.235  -1.714  -8.276  0.00  0.00     0.028 H 
ATOM     21  H   LIG d   1       2.507  -2.031  -8.006  0.00  0.00     0.028 H 
ATOM     22  H   LIG d   1       2.920   0.941  -6.046  0.00  0.00     0.053 H 
ATOM     23  H   LIG d   1       3.000  -0.828  -6.647  0.00  0.00     0.053 H 
ATOM     24  H   LIG d   1       2.953   2.706  -7.509  0.00  0.00     0.031 H 
ATOM     25  H   LIG d   1       1.825   2.354  -8.841  0.00  0.00     0.031 H 
ATOM     26  H   LIG d   1       4.874   2.341  -8.974  0.00  0.00     0.027 H 
ATOM     27  H   LIG d   1       3.780   3.508  -9.752  0.00  0.00     0.027 H 
ATOM     28  H   LIG d   1       4.517   1.838 -11.397  0.00  0.00     0.027 H 
ATOM     29  H   LIG d   1       2.778   1.641 -11.078  0.00  0.00     0.027 H 
ATOM     30  H   LIG d   1       4.734  -0.530 -12.150  0.00  0.00     0.031 H 
ATOM     31  H   LIG d   1       2.984  -0.726 -11.914  0.00  0.00     0.031 H 
ENDROOT
BRANCH   1  32
ATOM     32  C   LIG d   1       4.030  -4.052  -7.875  0.00  0.00    -0.018 C 
ATOM     33  H   LIG d   1       2.999  -3.997  -7.526  0.00  0.00     0.082 H 
ATOM     34  H   LIG d   1       4.600  -3.223  -7.456  0.00  0.00     0.082 H 
BRANCH  32  35
ATOM     35  N   LIG d   1       4.606  -5.346  -7.450  0.00  0.00     0.236 N 
ATOM     36  C   LIG d   1       3.926  -6.456  -8.150  0.00  0.00    -0.031 C 
ATOM     37  C   LIG d   1       4.617  -7.771  -7.784  0.00  0.00     0.001 C 
ATOM     38  H   LIG d   1       2.876  -6.504  -7.860  0.00  0.00     0.082 H 
ATOM     39  H   LIG d   1       3.999  -6.293  -9.225  0.00  0.00     0.082 H 
ATOM     40  C   LIG d   1       4.530  -7.984  -6.270  0.00  0.00     0.066 C 
ATOM     41  H   LIG d   1       4.123  -8.596  -8.297  0.00  0.00     0.033 H 
ATOM     42  H   LIG d   1       5.663  -7.729  -8.087  0.00  0.00     0.033 H 
ATOM     43  C   LIG d   1       5.172  -6.792  -5.557  0.00  0.00     0.001 C 
ATOM     44  H   LIG d   1       3.484  -8.067  -5.974  0.00  0.00     0.042 H 
ATOM     45  C   LIG d   1       4.464  -5.505  -5.987  0.00  0.00    -0.031 C 
ATOM     46  H   LIG d   1       5.075  -6.917  -4.478  0.00  0.00     0.033 H 
ATOM     47  H   LIG d   1       6.227  -6.734  -5.822  0.00  0.00     0.033 H 
ATOM     48  H   LIG d   1       4.929  -4.652  -5.491  0.00  0.00     0.082 H 
ATOM     49  H   LIG d   1       3.412  -5.557  -5.708  0.00  0.00     0.082 H 
ATOM     50  H   LIG d   1       5.604  -5.361  -7.691  0.00  0.00     0.203 HD
BRANCH  40  51
ATOM     51  C   LIG d   1       5.260  -9.248  -5.896  0.00  0.00     0.311 C 
ATOM     52  O   LIG d   1       6.458  -9.230  -5.743  0.00  0.00    -0.251 OA
BRANCH  51  53
ATOM     53  O   LIG d   1       4.580 -10.394  -5.734  0.00  0.00    -0.465 OA
BRANCH  53  54
ATOM     54  C   LIG d   1       4.661 -11.030  -4.431  0.00  0.00     0.090 C 
ATOM     55  H   LIG d   1       4.309 -12.059  -4.507  0.00  0.00     0.069 H 
ATOM     56  H   LIG d   1       5.696 -11.025  -4.088  0.00  0.00     0.069 H 
BRANCH  54  57
ATOM     57  C   LIG d   1       3.790 -10.264  -3.435  0.00  0.00    -0.031 C 
ATOM     58  H   LIG d   1       2.901 -10.850  -3.204  0.00  0.00     0.026 H 
ATOM     59  H   LIG d   1       4.355 -10.086  -2.520  0.00  0.00     0.026 H 
ATOM     60  H   LIG d   1       3.493  -9.310  -3.869  0.00  0.00     0.026 H 
ENDBRANCH  54  57
ENDBRANCH  53  54
ENDBRANCH  51  53
ENDBRANCH  40  51
ENDBRANCH  32  35
ENDBRANCH   1  32
BRANCH  13  61
ATOM     61  C   LIG d   1       5.390  -0.013  -9.556  0.00  0.00    -0.059 C 
ATOM     62  H   LIG d   1       5.957   0.902  -9.725  0.00  0.00     0.024 H 
ATOM     63  H   LIG d   1       5.259  -0.166  -8.485  0.00  0.00     0.024 H 
ATOM     64  H   LIG d   1       5.931  -0.859  -9.979  0.00  0.00     0.024 H 
ENDBRANCH  13  61
TORSDOF 7
ENDMDL
MODEL 7
REMARK VINA RESULT:      -5.9      1.352      2.158
REMARK  7 active torsions:
REMARK  status: ('A' for Active; 'I' for Inactive)
REMARK    1  A    between atoms: C_1  and  C_2 
REMARK    2  A    between atoms: C_2  and  O_3 
REMARK    3  A    between atoms: O_3  and  C_4 
REMARK    4  A    between atoms: C_4  and  C_6 
REMARK    5  A    between atoms: C_11  and  C_12 
REMARK    6  A    between atoms: C_11  and  N_63 
REMARK    7  A    between atoms: C_24  and  C_31 
ROOT
ATOM      1  C   LIG d   1       8.645   1.425  -5.353  0.00  0.00     0.102 C 
ATOM      2  H   LIG d   1       9.723   1.473  -5.504  0.00  0.00     0.047 H 
ATOM      3  C   LIG d   1       8.268   0.176  -4.501  0.00  0.00     0.015 C 
ATOM      4  H   LIG d   1       9.097  -0.190  -3.895  0.00  0.00     0.035 H 
ATOM      5  C   LIG d   1       7.043   0.574  -3.670  0.00  0.00    -0.039 C 
ATOM      6  C   LIG d   1       6.309  -0.666  -3.168  0.00  0.00    -0.014 C 
ATOM      7  H   LIG d   1       6.982  -1.294  -2.583  0.00  0.00     0.035 H 
ATOM      8  C   LIG d   1       5.121  -0.260  -2.328  0.00  0.00    -0.073 C 
ATOM      9  C   LIG d   1       4.953   0.985  -1.956  0.00  0.00    -0.099 C 
ATOM     10  C   LIG d   1       4.133  -1.334  -1.928  0.00  0.00    -0.032 C 
ATOM     11  C   LIG d   1       3.706  -2.102  -3.183  0.00  0.00    -0.049 C 
ATOM     12  C   LIG d   1       4.947  -2.622  -3.913  0.00  0.00    -0.047 C 
ATOM     13  C   LIG d   1       5.794  -1.443  -4.388  0.00  0.00    -0.022 C 
ATOM     14  C   LIG d   1       7.008  -1.946  -5.169  0.00  0.00    -0.009 C 
ATOM     15  C   LIG d   1       7.875  -0.799  -5.630  0.00  0.00     0.107 C 
ATOM     16  H   LIG d   1       8.791  -1.198  -6.066  0.00  0.00     0.074 H 
ATOM     17  O   LIG d   1       7.220   0.058  -6.609  0.00  0.00    -0.461 OA
ATOM     18  C   LIG d   1       7.932   1.205  -6.674  0.00  0.00     0.316 C 
ATOM     19  O   LIG d   1       7.993   1.938  -7.632  0.00  0.00    -0.250 OA
ATOM     20  H   LIG d   1       6.367   1.167  -4.287  0.00  0.00     0.028 H 
ATOM     21  H   LIG d   1       7.368   1.170  -2.818  0.00  0.00     0.028 H 
ATOM     22  H   LIG d   1       4.098   1.257  -1.355  0.00  0.00     0.053 H 
ATOM     23  H   LIG d   1       5.668   1.738  -2.250  0.00  0.00     0.053 H 
ATOM     24  H   LIG d   1       3.259  -0.873  -1.468  0.00  0.00     0.031 H 
ATOM     25  H   LIG d   1       4.599  -2.019  -1.221  0.00  0.00     0.031 H 
ATOM     26  H   LIG d   1       3.148  -1.438  -3.842  0.00  0.00     0.027 H 
ATOM     27  H   LIG d   1       3.075  -2.942  -2.896  0.00  0.00     0.027 H 
ATOM     28  H   LIG d   1       4.639  -3.218  -4.772  0.00  0.00     0.027 H 
ATOM     29  H   LIG d   1       5.533  -3.241  -3.234  0.00  0.00     0.027 H 
ATOM     30  H   LIG d   1       6.667  -2.507  -6.039  0.00  0.00     0.031 H 
ATOM     31  H   LIG d   1       7.597  -2.602  -4.529  0.00  0.00     0.031 H 
ENDROOT
BRANCH   1  32
ATOM     32  C   LIG d   1       8.142   2.704  -4.680  0.00  0.00    -0.018 C 
ATOM     33  H   LIG d   1       7.551   2.445  -3.802  0.00  0.00     0.082 H 
ATOM     34  H   LIG d   1       7.525   3.265  -5.382  0.00  0.00     0.082 H 
BRANCH  32  35
ATOM     35  N   LIG d   1       9.304   3.511  -4.250  0.00  0.00     0.236 N 
ATOM     36  C   LIG d   1      10.293   3.597  -5.346  0.00  0.00    -0.031 C 
ATOM     37  C   LIG d   1      11.427   4.531  -4.919  0.00  0.00     0.001 C 
ATOM     38  H   LIG d   1      10.699   2.611  -5.572  0.00  0.00     0.082 H 
ATOM     39  H   LIG d   1       9.803   4.000  -6.233  0.00  0.00     0.082 H 
ATOM     40  C   LIG d   1      12.097   3.971  -3.662  0.00  0.00     0.066 C 
ATOM     41  H   LIG d   1      12.160   4.602  -5.722  0.00  0.00     0.033 H 
ATOM     42  H   LIG d   1      11.022   5.521  -4.707  0.00  0.00     0.033 H 
ATOM     43  C   LIG d   1      11.047   3.818  -2.558  0.00  0.00     0.001 C 
ATOM     44  H   LIG d   1      12.536   2.999  -3.886  0.00  0.00     0.042 H 
ATOM     45  C   LIG d   1       9.924   2.903  -3.054  0.00  0.00    -0.031 C 
ATOM     46  H   LIG d   1      11.510   3.379  -1.674  0.00  0.00     0.033 H 
ATOM     47  H   LIG d   1      10.637   4.795  -2.307  0.00  0.00     0.033 H 
ATOM     48  H   LIG d   1       9.168   2.804  -2.275  0.00  0.00     0.082 H 
ATOM     49  H   LIG d   1      10.333   1.921  -3.291  0.00  0.00     0.082 H 
ATOM     50  H   LIG d   1       8.984   4.457  -4.015  0.00  0.00     0.203 HD
BRANCH  40  51
ATOM     51  C   LIG d   1      13.176   4.917  -3.203  0.00  0.00     0.311 C 
ATOM     52  O   LIG d   1      13.996   4.552  -2.393  0.00  0.00    -0.251 OA
BRANCH  51  53
ATOM     53  O   LIG d   1      13.228   6.166  -3.693  0.00  0.00    -0.465 OA
BRANCH  53  54
ATOM     54  C   LIG d   1      14.506   6.619  -4.210  0.00  0.00     0.090 C 
ATOM     55  H   LIG d   1      14.780   7.559  -3.731  0.00  0.00     0.069 H 
ATOM     56  H   LIG d   1      15.269   5.869  -4.002  0.00  0.00     0.069 H 
BRANCH  54  57
ATOM     57  C   LIG d   1      14.398   6.829  -5.722  0.00  0.00    -0.031 C 
ATOM     58  H   LIG d   1      14.917   6.022  -6.239  0.00  0.00     0.026 H 
ATOM     59  H   LIG d   1      13.348   6.832  -6.013  0.00  0.00     0.026 H 
ATOM     60  H   LIG d   1      14.852   7.783  -5.990  0.00  0.00     0.026 H 
ENDBRANCH  54  57
ENDBRANCH  53  54
ENDBRANCH  51  53
ENDBRANCH  40  51
ENDBRANCH  32  35
ENDBRANCH   1  32
BRANCH  13  61
ATOM     61  C   LIG d   1       4.952  -0.530  -5.280  0.00  0.00    -0.059 C 
ATOM     62  H   LIG d   1       5.608   0.123  -5.855  0.00  0.00     0.024 H 
ATOM     63  H   LIG d   1       4.356  -1.137  -5.961  0.00  0.00     0.024 H 
ATOM     64  H   LIG d   1       4.291   0.075  -4.660  0.00  0.00     0.024 H 
ENDBRANCH  13  61
TORSDOF 7
ENDMDL
MODEL 8
REMARK VINA RESULT:      -5.9      2.129      8.441
REMARK  7 active torsions:
REMARK  status: ('A' for Active; 'I' for Inactive)
REMARK    1  A    between atoms: C_1  and  C_2 
REMARK    2  A    between atoms: C_2  and  O_3 
REMARK    3  A    between atoms: O_3  and  C_4 
REMARK    4  A    between atoms: C_4  and  C_6 
REMARK    5  A    between atoms: C_11  and  C_12 
REMARK    6  A    between atoms: C_11  and  N_63 
REMARK    7  A    between atoms: C_24  and  C_31 
ROOT
ATOM      1  C   LIG d   1       9.631   5.209  -5.723  0.00  0.00     0.102 C 
ATOM      2  H   LIG d   1       8.871   5.002  -6.475  0.00  0.00     0.047 H 
ATOM      3  C   LIG d   1       9.147   6.327  -4.752  0.00  0.00     0.015 C 
ATOM      4  H   LIG d   1       8.062   6.425  -4.724  0.00  0.00     0.035 H 
ATOM      5  C   LIG d   1       9.759   6.005  -3.384  0.00  0.00    -0.039 C 
ATOM      6  C   LIG d   1       9.755   7.241  -2.489  0.00  0.00    -0.014 C 
ATOM      7  H   LIG d   1       8.741   7.623  -2.375  0.00  0.00     0.035 H 
ATOM      8  C   LIG d   1      10.334   6.903  -1.135  0.00  0.00    -0.073 C 
ATOM      9  C   LIG d   1      10.572   5.660  -0.795  0.00  0.00    -0.099 C 
ATOM     10  C   LIG d   1      10.631   8.041  -0.184  0.00  0.00    -0.032 C 
ATOM     11  C   LIG d   1      11.474   9.089  -0.918  0.00  0.00    -0.049 C 
ATOM     12  C   LIG d   1      10.763   9.508  -2.206  0.00  0.00    -0.047 C 
ATOM     13  C   LIG d   1      10.647   8.307  -3.143  0.00  0.00    -0.022 C 
ATOM     14  C   LIG d   1       9.990   8.723  -4.458  0.00  0.00    -0.009 C 
ATOM     15  C   LIG d   1       9.843   7.546  -5.392  0.00  0.00     0.107 C 
ATOM     16  H   LIG d   1       9.257   7.851  -6.260  0.00  0.00     0.074 H 
ATOM     17  O   LIG d   1      11.119   7.012  -5.848  0.00  0.00    -0.461 OA
ATOM     18  C   LIG d   1      10.875   5.789  -6.370  0.00  0.00     0.316 C 
ATOM     19  O   LIG d   1      11.540   5.245  -7.219  0.00  0.00    -0.250 OA
ATOM     20  H   LIG d   1      10.785   5.663  -3.520  0.00  0.00     0.028 H 
ATOM     21  H   LIG d   1       9.177   5.215  -2.910  0.00  0.00     0.028 H 
ATOM     22  H   LIG d   1      10.986   5.436   0.177  0.00  0.00     0.053 H 
ATOM     23  H   LIG d   1      10.354   4.860  -1.487  0.00  0.00     0.053 H 
ATOM     24  H   LIG d   1      11.185   7.664   0.676  0.00  0.00     0.031 H 
ATOM     25  H   LIG d   1       9.698   8.493   0.153  0.00  0.00     0.031 H 
ATOM     26  H   LIG d   1      12.448   8.665  -1.160  0.00  0.00     0.027 H 
ATOM     27  H   LIG d   1      11.608   9.960  -0.277  0.00  0.00     0.027 H 
ATOM     28  H   LIG d   1      11.336  10.296  -2.696  0.00  0.00     0.027 H 
ATOM     29  H   LIG d   1       9.767   9.880  -1.967  0.00  0.00     0.027 H 
ATOM     30  H   LIG d   1      10.604   9.485  -4.939  0.00  0.00     0.031 H 
ATOM     31  H   LIG d   1       9.004   9.137  -4.249  0.00  0.00     0.031 H 
ENDROOT
BRANCH   1  32
ATOM     32  C   LIG d   1       9.976   3.937  -4.946  0.00  0.00    -0.018 C 
ATOM     33  H   LIG d   1      10.193   4.191  -3.909  0.00  0.00     0.082 H 
ATOM     34  H   LIG d   1      10.850   3.463  -5.394  0.00  0.00     0.082 H 
BRANCH  32  35
ATOM     35  N   LIG d   1       8.815   3.023  -4.980  0.00  0.00     0.236 N 
ATOM     36  C   LIG d   1       8.666   2.347  -3.673  0.00  0.00    -0.031 C 
ATOM     37  C   LIG d   1       7.392   1.499  -3.695  0.00  0.00     0.001 C 
ATOM     38  H   LIG d   1       9.526   1.708  -3.473  0.00  0.00     0.082 H 
ATOM     39  H   LIG d   1       8.586   3.104  -2.892  0.00  0.00     0.082 H 
ATOM     40  C   LIG d   1       7.501   0.453  -4.807  0.00  0.00     0.066 C 
ATOM     41  H   LIG d   1       7.273   0.999  -2.734  0.00  0.00     0.033 H 
ATOM     42  H   LIG d   1       6.531   2.141  -3.880  0.00  0.00     0.033 H 
ATOM     43  C   LIG d   1       7.729   1.162  -6.144  0.00  0.00     0.001 C 
ATOM     44  H   LIG d   1       8.338  -0.213  -4.599  0.00  0.00     0.042 H 
ATOM     45  C   LIG d   1       8.993   2.020  -6.051  0.00  0.00    -0.031 C 
ATOM     46  H   LIG d   1       7.850   0.421  -6.934  0.00  0.00     0.033 H 
ATOM     47  H   LIG d   1       6.873   1.798  -6.370  0.00  0.00     0.033 H 
ATOM     48  H   LIG d   1       9.150   2.538  -6.998  0.00  0.00     0.082 H 
ATOM     49  H   LIG d   1       9.851   1.382  -5.840  0.00  0.00     0.082 H 
ATOM     50  H   LIG d   1       7.967   3.568  -5.172  0.00  0.00     0.203 HD
BRANCH  40  51
ATOM     51  C   LIG d   1       6.225  -0.347  -4.872  0.00  0.00     0.311 C 
ATOM     52  O   LIG d   1       5.354  -0.032  -5.648  0.00  0.00    -0.251 OA
BRANCH  51  53
ATOM     53  O   LIG d   1       6.057  -1.409  -4.068  0.00  0.00    -0.465 OA
BRANCH  53  54
ATOM     54  C   LIG d   1       4.696  -1.726  -3.672  0.00  0.00     0.090 C 
ATOM     55  H   LIG d   1       3.998  -1.143  -4.271  0.00  0.00     0.069 H 
ATOM     56  H   LIG d   1       4.511  -2.789  -3.830  0.00  0.00     0.069 H 
BRANCH  54  57
ATOM     57  C   LIG d   1       4.506  -1.390  -2.192  0.00  0.00    -0.031 C 
ATOM     58  H   LIG d   1       3.577  -0.835  -2.062  0.00  0.00     0.026 H 
ATOM     59  H   LIG d   1       4.461  -2.313  -1.613  0.00  0.00     0.026 H 
ATOM     60  H   LIG d   1       5.342  -0.785  -1.846  0.00  0.00     0.026 H 
ENDBRANCH  54  57
ENDBRANCH  53  54
ENDBRANCH  51  53
ENDBRANCH  40  51
ENDBRANCH  32  35
ENDBRANCH   1  32
BRANCH  13  61
ATOM     61  C   LIG d   1      12.037   7.734  -3.421  0.00  0.00    -0.059 C 
ATOM     62  H   LIG d   1      12.461   8.218  -4.301  0.00  0.00     0.024 H 
ATOM     63  H   LIG d   1      12.683   7.914  -2.561  0.00  0.00     0.024 H 
ATOM     64  H   LIG d   1      11.961   6.661  -3.598  0.00  0.00     0.024 H 
ENDBRANCH  13  61
TORSDOF 7
ENDMDL
MODEL 9
REMARK VINA RESULT:      -5.8      5.708      8.101
REMARK  7 active torsions:
REMARK  status: ('A' for Active; 'I' for Inactive)
REMARK    1  A    between atoms: C_1  and  C_2 
REMARK    2  A    between atoms: C_2  and  O_3 
REMARK    3  A    between atoms: O_3  and  C_4 
REMARK    4  A    between atoms: C_4  and  C_6 
REMARK    5  A    between atoms: C_11  and  C_12 
REMARK    6  A    between atoms: C_11  and  N_63 
REMARK    7  A    between atoms: C_24  and  C_31 
ROOT
ATOM      1  C   LIG d   1      10.795   6.732  -2.425  0.00  0.00     0.102 C 
ATOM      2  H   LIG d   1      10.446   6.318  -1.480  0.00  0.00     0.047 H 
ATOM      3  C   LIG d   1       9.767   6.442  -3.560  0.00  0.00     0.015 C 
ATOM      4  H   LIG d   1       8.761   6.255  -3.183  0.00  0.00     0.035 H 
ATOM      5  C   LIG d   1       9.838   7.633  -4.522  0.00  0.00    -0.039 C 
ATOM      6  C   LIG d   1       9.249   7.262  -5.880  0.00  0.00    -0.014 C 
ATOM      7  H   LIG d   1       8.220   6.922  -5.767  0.00  0.00     0.035 H 
ATOM      8  C   LIG d   1       9.301   8.452  -6.809  0.00  0.00    -0.073 C 
ATOM      9  C   LIG d   1       9.614   9.643  -6.362  0.00  0.00    -0.099 C 
ATOM     10  C   LIG d   1       8.978   8.228  -8.270  0.00  0.00    -0.032 C 
ATOM     11  C   LIG d   1       9.829   7.065  -8.789  0.00  0.00    -0.049 C 
ATOM     12  C   LIG d   1       9.618   5.839  -7.898  0.00  0.00    -0.047 C 
ATOM     13  C   LIG d   1      10.109   6.142  -6.483  0.00  0.00    -0.022 C 
ATOM     14  C   LIG d   1       9.958   4.907  -5.595  0.00  0.00    -0.009 C 
ATOM     15  C   LIG d   1      10.416   5.190  -4.184  0.00  0.00     0.107 C 
ATOM     16  H   LIG d   1      10.173   4.334  -3.554  0.00  0.00     0.074 H 
ATOM     17  O   LIG d   1      11.843   5.459  -4.087  0.00  0.00    -0.461 OA
ATOM     18  C   LIG d   1      12.059   6.027  -2.879  0.00  0.00     0.316 C 
ATOM     19  O   LIG d   1      13.095   5.980  -2.258  0.00  0.00    -0.250 OA
ATOM     20  H   LIG d   1      10.880   7.930  -4.650  0.00  0.00     0.028 H 
ATOM     21  H   LIG d   1       9.276   8.466  -4.101  0.00  0.00     0.028 H 
ATOM     22  H   LIG d   1       9.646  10.483  -7.041  0.00  0.00     0.053 H 
ATOM     23  H   LIG d   1       9.841   9.785  -5.316  0.00  0.00     0.053 H 
ATOM     24  H   LIG d   1       9.208   9.130  -8.838  0.00  0.00     0.031 H 
ATOM     25  H   LIG d   1       7.921   7.987  -8.382  0.00  0.00     0.031 H 
ATOM     26  H   LIG d   1      10.880   7.349  -8.774  0.00  0.00     0.027 H 
ATOM     27  H   LIG d   1       9.532   6.826  -9.810  0.00  0.00     0.027 H 
ATOM     28  H   LIG d   1      10.178   4.996  -8.303  0.00  0.00     0.027 H 
ATOM     29  H   LIG d   1       8.558   5.589  -7.869  0.00  0.00     0.027 H 
ATOM     30  H   LIG d   1      10.556   4.094  -6.008  0.00  0.00     0.031 H 
ATOM     31  H   LIG d   1       8.911   4.607  -5.577  0.00  0.00     0.031 H 
ENDROOT
BRANCH   1  32
ATOM     32  C   LIG d   1      11.038   8.237  -2.294  0.00  0.00    -0.018 C 
ATOM     33  H   LIG d   1      10.094   8.769  -2.402  0.00  0.00     0.082 H 
ATOM     34  H   LIG d   1      11.729   8.562  -3.073  0.00  0.00     0.082 H 
BRANCH  32  35
ATOM     35  N   LIG d   1      11.595   8.520  -0.955  0.00  0.00     0.236 N 
ATOM     36  C   LIG d   1      10.803   7.819   0.079  0.00  0.00    -0.031 C 
ATOM     37  C   LIG d   1      11.467   8.031   1.441  0.00  0.00     0.001 C 
ATOM     38  H   LIG d   1       9.784   8.205   0.107  0.00  0.00     0.082 H 
ATOM     39  H   LIG d   1      10.782   6.754  -0.154  0.00  0.00     0.082 H 
ATOM     40  C   LIG d   1      11.513   9.530   1.754  0.00  0.00     0.066 C 
ATOM     41  H   LIG d   1      10.891   7.516   2.210  0.00  0.00     0.033 H 
ATOM     42  H   LIG d   1      12.482   7.632   1.418  0.00  0.00     0.033 H 
ATOM     43  C   LIG d   1      12.271  10.253   0.638  0.00  0.00     0.001 C 
ATOM     44  H   LIG d   1      10.497   9.919   1.817  0.00  0.00     0.042 H 
ATOM     45  C   LIG d   1      11.583   9.976  -0.702  0.00  0.00    -0.031 C 
ATOM     46  H   LIG d   1      12.270  11.325   0.832  0.00  0.00     0.033 H 
ATOM     47  H   LIG d   1      13.298   9.891   0.602  0.00  0.00     0.033 H 
ATOM     48  H   LIG d   1      12.130  10.479  -1.500  0.00  0.00     0.082 H 
ATOM     49  H   LIG d   1      10.560  10.352  -0.669  0.00  0.00     0.082 H 
ATOM     50  H   LIG d   1      12.563   8.183  -0.918  0.00  0.00     0.203 HD
BRANCH  40  51
ATOM     51  C   LIG d   1      12.219   9.749   3.067  0.00  0.00     0.311 C 
ATOM     52  O   LIG d   1      12.470  10.871   3.437  0.00  0.00    -0.251 OA
BRANCH  51  53
ATOM     53  O   LIG d   1      12.569   8.698   3.825  0.00  0.00    -0.465 OA
BRANCH  53  54
ATOM     54  C   LIG d   1      11.899   8.556   5.106  0.00  0.00     0.090 C 
ATOM     55  H   LIG d   1      12.596   8.798   5.908  0.00  0.00     0.069 H 
ATOM     56  H   LIG d   1      11.048   9.236   5.148  0.00  0.00     0.069 H 
BRANCH  54  57
ATOM     57  C   LIG d   1      11.411   7.116   5.268  0.00  0.00    -0.031 C 
ATOM     58  H   LIG d   1      11.948   6.470   4.574  0.00  0.00     0.026 H 
ATOM     59  H   LIG d   1      11.594   6.784   6.290  0.00  0.00     0.026 H 
ATOM     60  H   LIG d   1      10.343   7.068   5.057  0.00  0.00     0.026 H 
ENDBRANCH  54  57
ENDBRANCH  53  54
ENDBRANCH  51  53
ENDBRANCH  40  51
ENDBRANCH  32  35
ENDBRANCH   1  32
BRANCH  13  61
ATOM     61  C   LIG d   1      11.577   6.567  -6.527  0.00  0.00    -0.059 C 
ATOM     62  H   LIG d   1      11.899   6.657  -7.564  0.00  0.00     0.024 H 
ATOM     63  H   LIG d   1      11.691   7.529  -6.027  0.00  0.00     0.024 H 
ATOM     64  H   LIG d   1      12.188   5.820  -6.020  0.00  0.00     0.024 H 
ENDBRANCH  13  61
TORSDOF 7
ENDMDL
