MODEL 1
REMARK VINA RESULT:      -6.5      0.000      0.000
REMARK  6 active torsions:
REMARK  status: ('A' for Active; 'I' for Inactive)
REMARK    1  A    between atoms: C_1  and  C_2 
REMARK    2  A    between atoms: C_5  and  O_33 
REMARK    3  A    between atoms: C_17  and  C_32 
REMARK    4  A    between atoms: C_22  and  C_23 
REMARK    5  A    between atoms: C_22  and  O_31 
REMARK    6  A    between atoms: C_24  and  C_25 
ROOT
ATOM      1  C   LIG d   1       3.562  -2.910 -12.533  0.00  0.00    -0.008 C 
ATOM      2  C   LIG d   1       4.612  -2.473 -13.547  0.00  0.00    -0.041 C 
ATOM      3  C   LIG d   1       4.003  -2.405 -14.946  0.00  0.00    -0.026 C 
ATOM      4  C   LIG d   1       3.131  -3.621 -15.246  0.00  0.00     0.059 C 
ATOM      5  H   LIG d   1       3.698  -4.534 -15.061  0.00  0.00     0.060 H 
ATOM      6  C   LIG d   1       1.880  -3.603 -14.358  0.00  0.00    -0.005 C 
ATOM      7  C   LIG d   1       2.194  -2.742 -13.145  0.00  0.00    -0.065 C 
ATOM      8  C   LIG d   1       1.296  -1.908 -12.717  0.00  0.00    -0.084 C 
ATOM      9  C   LIG d   1       1.522  -0.973 -11.559  0.00  0.00    -0.031 C 
ATOM     10  C   LIG d   1       3.034  -0.751 -11.438  0.00  0.00    -0.030 C 
ATOM     11  H   LIG d   1       3.390  -0.355 -12.411  0.00  0.00     0.031 H 
ATOM     12  C   LIG d   1       3.677  -2.125 -11.226  0.00  0.00    -0.029 C 
ATOM     13  H   LIG d   1       3.097  -2.700 -10.498  0.00  0.00     0.031 H 
ATOM     14  C   LIG d   1       5.120  -2.014 -10.769  0.00  0.00    -0.049 C 
ATOM     15  C   LIG d   1       5.301  -1.154  -9.513  0.00  0.00    -0.043 C 
ATOM     16  C   LIG d   1       4.021  -0.462  -9.126  0.00  0.00     0.011 C 
ATOM     17  C   LIG d   1       3.404   0.220 -10.363  0.00  0.00    -0.029 C 
ATOM     18  H   LIG d   1       4.152   0.933 -10.779  0.00  0.00     0.031 H 
ATOM     19  C   LIG d   1       2.277   1.054  -9.741  0.00  0.00    -0.046 C 
ATOM     20  C   LIG d   1       2.919   1.595  -8.433  0.00  0.00    -0.012 C 
ATOM     21  C   LIG d   1       4.186   0.741  -8.175  0.00  0.00     0.132 C 
ATOM     22  H   LIG d   1       4.987  -1.483 -13.280  0.00  0.00     0.027 H 
ATOM     23  H   LIG d   1       5.441  -3.181 -13.546  0.00  0.00     0.027 H 
ATOM     24  H   LIG d   1       3.401  -1.501 -15.033  0.00  0.00     0.029 H 
ATOM     25  H   LIG d   1       4.811  -2.360 -15.682  0.00  0.00     0.029 H 
ATOM     26  H   LIG d   1       1.618  -4.614 -14.049  0.00  0.00     0.034 H 
ATOM     27  H   LIG d   1       1.044  -3.165 -14.910  0.00  0.00     0.034 H 
ATOM     28  H   LIG d   1       0.341  -1.882 -13.214  0.00  0.00     0.057 H 
ATOM     29  H   LIG d   1       1.135  -1.420 -10.648  0.00  0.00     0.031 H 
ATOM     30  H   LIG d   1       1.026  -0.024 -11.757  0.00  0.00     0.031 H 
ATOM     31  H   LIG d   1       5.723  -1.578 -11.578  0.00  0.00     0.027 H 
ATOM     32  H   LIG d   1       5.524  -3.015 -10.571  0.00  0.00     0.027 H 
ATOM     33  H   LIG d   1       6.088  -0.410  -9.698  0.00  0.00     0.027 H 
ATOM     34  H   LIG d   1       5.642  -1.792  -8.685  0.00  0.00     0.027 H 
ATOM     35  H   LIG d   1       2.011   1.886 -10.399  0.00  0.00     0.027 H 
ATOM     36  H   LIG d   1       1.401   0.451  -9.526  0.00  0.00     0.027 H 
ATOM     37  H   LIG d   1       2.222   1.489  -7.603  0.00  0.00     0.030 H 
ATOM     38  H   LIG d   1       3.196   2.642  -8.558  0.00  0.00     0.030 H 
ENDROOT
BRANCH  21  39
ATOM     39  C   LIG d   1       4.219   0.275  -6.783  0.00  0.00    -0.062 C 
ATOM     40  C   LIG d   1       4.247  -0.097  -5.669  0.00  0.00    -0.063 C 
BRANCH  40  41
ATOM     41  C   LIG d   1       4.280  -0.551  -4.312  0.00  0.00     0.025 A 
ATOM     42  C   LIG d   1       3.999  -1.885  -4.012  0.00  0.00    -0.046 A 
ATOM     43  C   LIG d   1       4.032  -2.316  -2.702  0.00  0.00    -0.061 A 
ATOM     44  H   LIG d   1       3.756  -2.578  -4.804  0.00  0.00     0.063 H 
ATOM     45  C   LIG d   1       4.343  -1.429  -1.686  0.00  0.00    -0.062 A 
ATOM     46  H   LIG d   1       3.815  -3.347  -2.468  0.00  0.00     0.062 H 
ATOM     47  C   LIG d   1       4.622  -0.105  -1.978  0.00  0.00    -0.061 A 
ATOM     48  H   LIG d   1       4.371  -1.772  -0.663  0.00  0.00     0.062 H 
ATOM     49  C   LIG d   1       4.593   0.339  -3.284  0.00  0.00    -0.046 A 
ATOM     50  H   LIG d   1       4.864   0.582  -1.180  0.00  0.00     0.062 H 
ATOM     51  H   LIG d   1       4.811   1.372  -3.509  0.00  0.00     0.063 H 
ENDBRANCH  40  41
ENDBRANCH  21  39
BRANCH  21  52
ATOM     52  O   LIG d   1       5.363   1.472  -8.501  0.00  0.00    -0.376 OA
ATOM     53  H   LIG d   1       5.208   2.413  -8.661  0.00  0.00     0.211 HD
ENDBRANCH  21  52
BRANCH  16  54
ATOM     54  C   LIG d   1       3.054  -1.423  -8.432  0.00  0.00    -0.056 C 
ATOM     55  H   LIG d   1       2.348  -0.854  -7.827  0.00  0.00     0.024 H 
ATOM     56  H   LIG d   1       2.508  -1.996  -9.182  0.00  0.00     0.024 H 
ATOM     57  H   LIG d   1       3.615  -2.104  -7.792  0.00  0.00     0.024 H 
ENDBRANCH  16  54
BRANCH   1  58
ATOM     58  C   LIG d   1       3.774  -4.392 -12.205  0.00  0.00    -0.056 C 
ATOM     59  H   LIG d   1       4.837  -4.625 -12.249  0.00  0.00     0.024 H 
ATOM     60  H   LIG d   1       3.397  -4.599 -11.203  0.00  0.00     0.024 H 
ATOM     61  H   LIG d   1       3.236  -5.005 -12.929  0.00  0.00     0.024 H 
ENDBRANCH   1  58
BRANCH   4  62
ATOM     62  O   LIG d   1       2.733  -3.592 -16.620  0.00  0.00    -0.392 OA
ATOM     63  H   LIG d   1       3.085  -4.324 -17.146  0.00  0.00     0.210 HD
ENDBRANCH   4  62
TORSDOF 6
ENDMDL
MODEL 2
REMARK VINA RESULT:      -6.4      7.924      9.981
REMARK  6 active torsions:
REMARK  status: ('A' for Active; 'I' for Inactive)
REMARK    1  A    between atoms: C_1  and  C_2 
REMARK    2  A    between atoms: C_5  and  O_33 
REMARK    3  A    between atoms: C_17  and  C_32 
REMARK    4  A    between atoms: C_22  and  C_23 
REMARK    5  A    between atoms: C_22  and  O_31 
REMARK    6  A    between atoms: C_24  and  C_25 
ROOT
ATOM      1  C   LIG d   1      10.382   5.808  -8.218  0.00  0.00    -0.008 C 
ATOM      2  C   LIG d   1      11.499   5.280  -9.110  0.00  0.00    -0.041 C 
ATOM      3  C   LIG d   1      12.513   6.384  -9.401  0.00  0.00    -0.026 C 
ATOM      4  C   LIG d   1      11.832   7.704  -9.751  0.00  0.00     0.059 C 
ATOM      5  H   LIG d   1      11.118   7.545 -10.560  0.00  0.00     0.060 H 
ATOM      6  C   LIG d   1      11.103   8.263  -8.523  0.00  0.00    -0.005 C 
ATOM      7  C   LIG d   1      10.836   7.098  -7.582  0.00  0.00    -0.065 C 
ATOM      8  C   LIG d   1      11.025   7.263  -6.309  0.00  0.00    -0.084 C 
ATOM      9  C   LIG d   1      10.841   6.162  -5.297  0.00  0.00    -0.031 C 
ATOM     10  C   LIG d   1      11.023   4.830  -6.033  0.00  0.00    -0.030 C 
ATOM     11  H   LIG d   1      12.027   4.845  -6.502  0.00  0.00     0.031 H 
ATOM     12  C   LIG d   1       9.979   4.786  -7.153  0.00  0.00    -0.029 C 
ATOM     13  H   LIG d   1       9.012   5.135  -6.777  0.00  0.00     0.031 H 
ATOM     14  C   LIG d   1       9.835   3.395  -7.743  0.00  0.00    -0.049 C 
ATOM     15  C   LIG d   1       9.525   2.316  -6.701  0.00  0.00    -0.043 C 
ATOM     16  C   LIG d   1       9.618   2.857  -5.299  0.00  0.00     0.011 C 
ATOM     17  C   LIG d   1      10.935   3.641  -5.130  0.00  0.00    -0.029 C 
ATOM     18  H   LIG d   1      11.782   2.959  -5.368  0.00  0.00     0.031 H 
ATOM     19  C   LIG d   1      10.966   3.894  -3.617  0.00  0.00    -0.046 C 
ATOM     20  C   LIG d   1      10.436   2.558  -3.025  0.00  0.00    -0.012 C 
ATOM     21  C   LIG d   1       9.763   1.793  -4.192  0.00  0.00     0.132 C 
ATOM     22  H   LIG d   1      12.010   4.458  -8.607  0.00  0.00     0.027 H 
ATOM     23  H   LIG d   1      11.079   4.918 -10.048  0.00  0.00     0.027 H 
ATOM     24  H   LIG d   1      13.148   6.529  -8.526  0.00  0.00     0.029 H 
ATOM     25  H   LIG d   1      13.141   6.076 -10.241  0.00  0.00     0.029 H 
ATOM     26  H   LIG d   1      10.167   8.736  -8.817  0.00  0.00     0.034 H 
ATOM     27  H   LIG d   1      11.738   8.998  -8.021  0.00  0.00     0.034 H 
ATOM     28  H   LIG d   1      11.329   8.234  -5.956  0.00  0.00     0.057 H 
ATOM     29  H   LIG d   1       9.844   6.222  -4.870  0.00  0.00     0.031 H 
ATOM     30  H   LIG d   1      11.595   6.258  -4.518  0.00  0.00     0.031 H 
ATOM     31  H   LIG d   1      10.768   3.123  -8.259  0.00  0.00     0.027 H 
ATOM     32  H   LIG d   1       9.039   3.394  -8.498  0.00  0.00     0.027 H 
ATOM     33  H   LIG d   1      10.230   1.482  -6.828  0.00  0.00     0.027 H 
ATOM     34  H   LIG d   1       8.515   1.921  -6.879  0.00  0.00     0.027 H 
ATOM     35  H   LIG d   1      11.991   4.072  -3.282  0.00  0.00     0.027 H 
ATOM     36  H   LIG d   1      10.329   4.726  -3.335  0.00  0.00     0.027 H 
ATOM     37  H   LIG d   1       9.707   2.761  -2.242  0.00  0.00     0.030 H 
ATOM     38  H   LIG d   1      11.264   1.973  -2.625  0.00  0.00     0.030 H 
ENDROOT
BRANCH  21  39
ATOM     39  C   LIG d   1       8.437   1.305  -3.792  0.00  0.00    -0.062 C 
ATOM     40  C   LIG d   1       7.376   0.914  -3.473  0.00  0.00    -0.063 C 
BRANCH  40  41
ATOM     41  C   LIG d   1       6.083   0.438  -3.084  0.00  0.00     0.025 A 
ATOM     42  C   LIG d   1       5.813  -0.931  -3.081  0.00  0.00    -0.046 A 
ATOM     43  C   LIG d   1       4.566  -1.384  -2.705  0.00  0.00    -0.061 A 
ATOM     44  H   LIG d   1       6.579  -1.635  -3.373  0.00  0.00     0.063 H 
ATOM     45  C   LIG d   1       3.583  -0.484  -2.330  0.00  0.00    -0.062 A 
ATOM     46  H   LIG d   1       4.355  -2.443  -2.701  0.00  0.00     0.062 H 
ATOM     47  C   LIG d   1       3.846   0.875  -2.331  0.00  0.00    -0.061 A 
ATOM     48  H   LIG d   1       2.610  -0.844  -2.033  0.00  0.00     0.062 H 
ATOM     49  C   LIG d   1       5.089   1.341  -2.705  0.00  0.00    -0.046 A 
ATOM     50  H   LIG d   1       3.075   1.572  -2.038  0.00  0.00     0.062 H 
ATOM     51  H   LIG d   1       5.293   2.401  -2.706  0.00  0.00     0.063 H 
ENDBRANCH  40  41
ENDBRANCH  21  39
BRANCH  21  52
ATOM     52  O   LIG d   1      10.591   0.724  -4.637  0.00  0.00    -0.376 OA
ATOM     53  H   LIG d   1      10.103  -0.071  -4.894  0.00  0.00     0.211 HD
ENDBRANCH  21  52
BRANCH  16  54
ATOM     54  C   LIG d   1       8.382   3.682  -4.935  0.00  0.00    -0.056 C 
ATOM     55  H   LIG d   1       8.613   4.743  -5.032  0.00  0.00     0.024 H 
ATOM     56  H   LIG d   1       7.563   3.426  -5.607  0.00  0.00     0.024 H 
ATOM     57  H   LIG d   1       8.090   3.466  -3.907  0.00  0.00     0.024 H 
ENDBRANCH  16  54
BRANCH   1  58
ATOM     58  C   LIG d   1       9.148   6.092  -9.080  0.00  0.00    -0.056 C 
ATOM     59  H   LIG d   1       8.981   7.168  -9.131  0.00  0.00     0.024 H 
ATOM     60  H   LIG d   1       9.309   5.701 -10.085  0.00  0.00     0.024 H 
ATOM     61  H   LIG d   1       8.276   5.609  -8.637  0.00  0.00     0.024 H 
ENDBRANCH   1  58
BRANCH   4  62
ATOM     62  O   LIG d   1      12.818   8.647 -10.182  0.00  0.00    -0.392 OA
ATOM     63  H   LIG d   1      13.533   8.257 -10.704  0.00  0.00     0.210 HD
ENDBRANCH   4  62
TORSDOF 6
ENDMDL
MODEL 3
REMARK VINA RESULT:      -6.4      7.989     12.429
REMARK  6 active torsions:
REMARK  status: ('A' for Active; 'I' for Inactive)
REMARK    1  A    between atoms: C_1  and  C_2 
REMARK    2  A    between atoms: C_5  and  O_33 
REMARK    3  A    between atoms: C_17  and  C_32 
REMARK    4  A    between atoms: C_22  and  C_23 
REMARK    5  A    between atoms: C_22  and  O_31 
REMARK    6  A    between atoms: C_24  and  C_25 
ROOT
ATOM      1  C   LIG d   1      12.185   6.716  -3.074  0.00  0.00    -0.008 C 
ATOM      2  C   LIG d   1      12.270   7.722  -4.214  0.00  0.00    -0.041 C 
ATOM      3  C   LIG d   1      13.688   8.276  -4.330  0.00  0.00    -0.026 C 
ATOM      4  C   LIG d   1      14.271   8.636  -2.966  0.00  0.00     0.059 C 
ATOM      5  H   LIG d   1      13.585   9.300  -2.438  0.00  0.00     0.060 H 
ATOM      6  C   LIG d   1      14.497   7.365  -2.138  0.00  0.00    -0.005 C 
ATOM      7  C   LIG d   1      13.582   6.288  -2.698  0.00  0.00    -0.065 C 
ATOM      8  C   LIG d   1      14.043   5.083  -2.839  0.00  0.00    -0.084 C 
ATOM      9  C   LIG d   1      13.240   3.955  -3.432  0.00  0.00    -0.031 C 
ATOM     10  C   LIG d   1      12.166   4.580  -4.330  0.00  0.00    -0.030 C 
ATOM     11  H   LIG d   1      12.686   5.204  -5.083  0.00  0.00     0.031 H 
ATOM     12  C   LIG d   1      11.324   5.508  -3.448  0.00  0.00    -0.029 C 
ATOM     13  H   LIG d   1      11.098   5.016  -2.497  0.00  0.00     0.031 H 
ATOM     14  C   LIG d   1      10.038   5.932  -4.133  0.00  0.00    -0.049 C 
ATOM     15  C   LIG d   1       9.184   4.755  -4.615  0.00  0.00    -0.043 C 
ATOM     16  C   LIG d   1       9.909   3.445  -4.462  0.00  0.00     0.011 C 
ATOM     17  C   LIG d   1      11.331   3.566  -5.044  0.00  0.00    -0.029 C 
ATOM     18  H   LIG d   1      11.248   3.872  -6.111  0.00  0.00     0.031 H 
ATOM     19  C   LIG d   1      11.811   2.109  -5.024  0.00  0.00    -0.046 C 
ATOM     20  C   LIG d   1      10.546   1.315  -5.454  0.00  0.00    -0.012 C 
ATOM     21  C   LIG d   1       9.344   2.280  -5.300  0.00  0.00     0.132 C 
ATOM     22  H   LIG d   1      12.007   7.232  -5.153  0.00  0.00     0.027 H 
ATOM     23  H   LIG d   1      11.574   8.542  -4.033  0.00  0.00     0.027 H 
ATOM     24  H   LIG d   1      14.326   7.533  -4.808  0.00  0.00     0.029 H 
ATOM     25  H   LIG d   1      13.668   9.174  -4.953  0.00  0.00     0.029 H 
ATOM     26  H   LIG d   1      14.269   7.548  -1.089  0.00  0.00     0.034 H 
ATOM     27  H   LIG d   1      15.537   7.045  -2.233  0.00  0.00     0.034 H 
ATOM     28  H   LIG d   1      15.051   4.877  -2.518  0.00  0.00     0.057 H 
ATOM     29  H   LIG d   1      12.776   3.380  -2.636  0.00  0.00     0.031 H 
ATOM     30  H   LIG d   1      13.893   3.320  -4.028  0.00  0.00     0.031 H 
ATOM     31  H   LIG d   1      10.282   6.563  -5.000  0.00  0.00     0.027 H 
ATOM     32  H   LIG d   1       9.439   6.545  -3.449  0.00  0.00     0.027 H 
ATOM     33  H   LIG d   1       8.916   4.914  -5.669  0.00  0.00     0.027 H 
ATOM     34  H   LIG d   1       8.247   4.730  -4.040  0.00  0.00     0.027 H 
ATOM     35  H   LIG d   1      12.612   1.962  -5.753  0.00  0.00     0.027 H 
ATOM     36  H   LIG d   1      12.144   1.808  -4.035  0.00  0.00     0.027 H 
ATOM     37  H   LIG d   1      10.413   0.447  -4.810  0.00  0.00     0.030 H 
ATOM     38  H   LIG d   1      10.639   0.999  -6.493  0.00  0.00     0.030 H 
ENDROOT
BRANCH  21  39
ATOM     39  C   LIG d   1       8.248   1.627  -4.572  0.00  0.00    -0.062 C 
ATOM     40  C   LIG d   1       7.372   1.105  -3.989  0.00  0.00    -0.063 C 
BRANCH  40  41
ATOM     41  C   LIG d   1       6.303   0.469  -3.280  0.00  0.00     0.025 A 
ATOM     42  C   LIG d   1       5.369   1.238  -2.584  0.00  0.00    -0.046 A 
ATOM     43  C   LIG d   1       4.342   0.619  -1.902  0.00  0.00    -0.061 A 
ATOM     44  H   LIG d   1       5.450   2.315  -2.579  0.00  0.00     0.063 H 
ATOM     45  C   LIG d   1       4.236  -0.761  -1.907  0.00  0.00    -0.062 A 
ATOM     46  H   LIG d   1       3.618   1.212  -1.364  0.00  0.00     0.062 H 
ATOM     47  C   LIG d   1       5.160  -1.528  -2.595  0.00  0.00    -0.061 A 
ATOM     48  H   LIG d   1       3.428  -1.240  -1.375  0.00  0.00     0.062 H 
ATOM     49  C   LIG d   1       6.192  -0.922  -3.282  0.00  0.00    -0.046 A 
ATOM     50  H   LIG d   1       5.072  -2.605  -2.595  0.00  0.00     0.062 H 
ATOM     51  H   LIG d   1       6.912  -1.522  -3.818  0.00  0.00     0.063 H 
ENDBRANCH  40  41
ENDBRANCH  21  39
BRANCH  21  52
ATOM     52  O   LIG d   1       8.908   2.749  -6.572  0.00  0.00    -0.376 OA
ATOM     53  H   LIG d   1       8.181   3.385  -6.527  0.00  0.00     0.211 HD
ENDBRANCH  21  52
BRANCH  16  54
ATOM     54  C   LIG d   1       9.898   2.966  -3.009  0.00  0.00    -0.056 C 
ATOM     55  H   LIG d   1       9.075   3.443  -2.476  0.00  0.00     0.024 H 
ATOM     56  H   LIG d   1       9.768   1.884  -2.983  0.00  0.00     0.024 H 
ATOM     57  H   LIG d   1      10.842   3.230  -2.532  0.00  0.00     0.024 H 
ENDBRANCH  16  54
BRANCH   1  58
ATOM     58  C   LIG d   1      11.536   7.390  -1.861  0.00  0.00    -0.056 C 
ATOM     59  H   LIG d   1      10.466   7.180  -1.858  0.00  0.00     0.024 H 
ATOM     60  H   LIG d   1      11.985   7.003  -0.946  0.00  0.00     0.024 H 
ATOM     61  H   LIG d   1      11.695   8.468  -1.915  0.00  0.00     0.024 H 
ENDBRANCH   1  58
BRANCH   4  62
ATOM     62  O   LIG d   1      15.521   9.308  -3.146  0.00  0.00    -0.392 OA
ATOM     63  H   LIG d   1      16.179   8.790  -3.629  0.00  0.00     0.210 HD
ENDBRANCH   4  62
TORSDOF 6
ENDMDL
MODEL 4
REMARK VINA RESULT:      -5.9      5.282      9.197
REMARK  6 active torsions:
REMARK  status: ('A' for Active; 'I' for Inactive)
REMARK    1  A    between atoms: C_1  and  C_2 
REMARK    2  A    between atoms: C_5  and  O_33 
REMARK    3  A    between atoms: C_17  and  C_32 
REMARK    4  A    between atoms: C_22  and  C_23 
REMARK    5  A    between atoms: C_22  and  O_31 
REMARK    6  A    between atoms: C_24  and  C_25 
ROOT
ATOM      1  C   LIG d   1       9.222  -5.729  -4.933  0.00  0.00    -0.008 C 
ATOM      2  C   LIG d   1       8.609  -6.932  -4.228  0.00  0.00    -0.041 C 
ATOM      3  C   LIG d   1       9.578  -7.490  -3.188  0.00  0.00    -0.026 C 
ATOM      4  C   LIG d   1      11.002  -7.582  -3.729  0.00  0.00     0.059 C 
ATOM      5  H   LIG d   1      11.002  -8.138  -4.667  0.00  0.00     0.060 H 
ATOM      6  C   LIG d   1      11.568  -6.176  -3.964  0.00  0.00    -0.005 C 
ATOM      7  C   LIG d   1      10.388  -5.229  -4.117  0.00  0.00    -0.065 C 
ATOM      8  C   LIG d   1      10.433  -4.070  -3.534  0.00  0.00    -0.084 C 
ATOM      9  C   LIG d   1       9.300  -3.079  -3.577  0.00  0.00    -0.031 C 
ATOM     10  C   LIG d   1       8.011  -3.869  -3.831  0.00  0.00    -0.030 C 
ATOM     11  H   LIG d   1       7.918  -4.622  -3.023  0.00  0.00     0.031 H 
ATOM     12  C   LIG d   1       8.194  -4.619  -5.155  0.00  0.00    -0.029 C 
ATOM     13  H   LIG d   1       8.647  -3.957  -5.899  0.00  0.00     0.031 H 
ATOM     14  C   LIG d   1       6.882  -5.172  -5.681  0.00  0.00    -0.049 C 
ATOM     15  C   LIG d   1       5.786  -4.113  -5.830  0.00  0.00    -0.043 C 
ATOM     16  C   LIG d   1       6.207  -2.792  -5.242  0.00  0.00     0.011 C 
ATOM     17  C   LIG d   1       6.785  -3.013  -3.830  0.00  0.00    -0.029 C 
ATOM     18  H   LIG d   1       6.009  -3.516  -3.209  0.00  0.00     0.031 H 
ATOM     19  C   LIG d   1       6.922  -1.576  -3.311  0.00  0.00    -0.046 C 
ATOM     20  C   LIG d   1       5.635  -0.884  -3.842  0.00  0.00    -0.012 C 
ATOM     21  C   LIG d   1       5.057  -1.810  -4.941  0.00  0.00     0.132 C 
ATOM     22  H   LIG d   1       7.689  -6.630  -3.724  0.00  0.00     0.027 H 
ATOM     23  H   LIG d   1       8.377  -7.707  -4.959  0.00  0.00     0.027 H 
ATOM     24  H   LIG d   1       9.569  -6.847  -2.308  0.00  0.00     0.029 H 
ATOM     25  H   LIG d   1       9.246  -8.489  -2.895  0.00  0.00     0.029 H 
ATOM     26  H   LIG d   1      12.187  -6.159  -4.860  0.00  0.00     0.034 H 
ATOM     27  H   LIG d   1      12.169  -5.874  -3.102  0.00  0.00     0.034 H 
ATOM     28  H   LIG d   1      11.324  -3.802  -2.992  0.00  0.00     0.057 H 
ATOM     29  H   LIG d   1       9.468  -2.367  -4.379  0.00  0.00     0.031 H 
ATOM     30  H   LIG d   1       9.233  -2.564  -2.620  0.00  0.00     0.031 H 
ATOM     31  H   LIG d   1       6.520  -5.954  -4.999  0.00  0.00     0.027 H 
ATOM     32  H   LIG d   1       7.047  -5.648  -6.656  0.00  0.00     0.027 H 
ATOM     33  H   LIG d   1       4.872  -4.469  -5.334  0.00  0.00     0.027 H 
ATOM     34  H   LIG d   1       5.550  -3.984  -6.897  0.00  0.00     0.027 H 
ATOM     35  H   LIG d   1       6.931  -1.565  -2.218  0.00  0.00     0.027 H 
ATOM     36  H   LIG d   1       7.813  -1.092  -3.698  0.00  0.00     0.027 H 
ATOM     37  H   LIG d   1       5.881   0.089  -4.264  0.00  0.00     0.030 H 
ATOM     38  H   LIG d   1       4.913  -0.771  -3.033  0.00  0.00     0.030 H 
ENDROOT
BRANCH  21  39
ATOM     39  C   LIG d   1       4.732  -1.038  -6.147  0.00  0.00    -0.062 C 
ATOM     40  C   LIG d   1       4.472  -0.420  -7.112  0.00  0.00    -0.063 C 
BRANCH  40  41
ATOM     41  C   LIG d   1       4.155   0.333  -8.288  0.00  0.00     0.025 A 
ATOM     42  C   LIG d   1       4.740   0.001  -9.510  0.00  0.00    -0.046 A 
ATOM     43  C   LIG d   1       4.431   0.731 -10.640  0.00  0.00    -0.061 A 
ATOM     44  H   LIG d   1       5.433  -0.826  -9.573  0.00  0.00     0.063 H 
ATOM     45  C   LIG d   1       3.543   1.790 -10.562  0.00  0.00    -0.062 A 
ATOM     46  H   LIG d   1       4.882   0.475 -11.587  0.00  0.00     0.062 H 
ATOM     47  C   LIG d   1       2.961   2.123  -9.352  0.00  0.00    -0.061 A 
ATOM     48  H   LIG d   1       3.302   2.355 -11.450  0.00  0.00     0.062 H 
ATOM     49  C   LIG d   1       3.261   1.402  -8.215  0.00  0.00    -0.046 A 
ATOM     50  H   LIG d   1       2.269   2.951  -9.297  0.00  0.00     0.062 H 
ATOM     51  H   LIG d   1       2.806   1.664  -7.271  0.00  0.00     0.063 H 
ENDBRANCH  40  41
ENDBRANCH  21  39
BRANCH  21  52
ATOM     52  O   LIG d   1       3.917  -2.514  -4.460  0.00  0.00    -0.376 OA
ATOM     53  H   LIG d   1       3.073  -2.124  -4.726  0.00  0.00     0.211 HD
ENDBRANCH  21  52
BRANCH  16  54
ATOM     54  C   LIG d   1       7.169  -2.048  -6.170  0.00  0.00    -0.056 C 
ATOM     55  H   LIG d   1       6.880  -0.998  -6.226  0.00  0.00     0.024 H 
ATOM     56  H   LIG d   1       8.185  -2.125  -5.779  0.00  0.00     0.024 H 
ATOM     57  H   LIG d   1       7.129  -2.490  -7.165  0.00  0.00     0.024 H 
ENDBRANCH  16  54
BRANCH   1  58
ATOM     58  C   LIG d   1       9.738  -6.166  -6.308  0.00  0.00    -0.056 C 
ATOM     59  H   LIG d   1      10.815  -6.011  -6.357  0.00  0.00     0.024 H 
ATOM     60  H   LIG d   1       9.515  -7.222  -6.461  0.00  0.00     0.024 H 
ATOM     61  H   LIG d   1       9.249  -5.575  -7.084  0.00  0.00     0.024 H 
ENDBRANCH   1  58
BRANCH   4  62
ATOM     62  O   LIG d   1      11.826  -8.269  -2.782  0.00  0.00    -0.392 OA
ATOM     63  H   LIG d   1      11.457  -8.297  -1.889  0.00  0.00     0.210 HD
ENDBRANCH   4  62
TORSDOF 6
ENDMDL
MODEL 5
REMARK VINA RESULT:      -5.9      7.944     11.340
REMARK  6 active torsions:
REMARK  status: ('A' for Active; 'I' for Inactive)
REMARK    1  A    between atoms: C_1  and  C_2 
REMARK    2  A    between atoms: C_5  and  O_33 
REMARK    3  A    between atoms: C_17  and  C_32 
REMARK    4  A    between atoms: C_22  and  C_23 
REMARK    5  A    between atoms: C_22  and  O_31 
REMARK    6  A    between atoms: C_24  and  C_25 
ROOT
ATOM      1  C   LIG d   1      10.058   7.885  -7.068  0.00  0.00    -0.008 C 
ATOM      2  C   LIG d   1      11.241   7.808  -8.026  0.00  0.00    -0.041 C 
ATOM      3  C   LIG d   1      12.013   9.125  -8.024  0.00  0.00    -0.026 C 
ATOM      4  C   LIG d   1      11.079  10.331  -8.079  0.00  0.00     0.059 C 
ATOM      5  H   LIG d   1      10.396  10.227  -8.923  0.00  0.00     0.060 H 
ATOM      6  C   LIG d   1      10.276  10.436  -6.777  0.00  0.00    -0.005 C 
ATOM      7  C   LIG d   1      10.260   9.056  -6.139  0.00  0.00    -0.065 C 
ATOM      8  C   LIG d   1      10.435   8.954  -4.857  0.00  0.00    -0.084 C 
ATOM      9  C   LIG d   1      10.489   7.635  -4.133  0.00  0.00    -0.031 C 
ATOM     10  C   LIG d   1      10.917   6.571  -5.151  0.00  0.00    -0.030 C 
ATOM     11  H   LIG d   1      11.890   6.890  -5.575  0.00  0.00     0.031 H 
ATOM     12  C   LIG d   1       9.882   6.585  -6.281  0.00  0.00    -0.029 C 
ATOM     13  H   LIG d   1       8.873   6.642  -5.862  0.00  0.00     0.031 H 
ATOM     14  C   LIG d   1      10.005   5.369  -7.180  0.00  0.00    -0.049 C 
ATOM     15  C   LIG d   1       9.932   4.038  -6.424  0.00  0.00    -0.043 C 
ATOM     16  C   LIG d   1       9.941   4.247  -4.933  0.00  0.00     0.011 C 
ATOM     17  C   LIG d   1      11.081   5.212  -4.550  0.00  0.00    -0.029 C 
ATOM     18  H   LIG d   1      12.040   4.782  -4.914  0.00  0.00     0.031 H 
ATOM     19  C   LIG d   1      11.088   5.108  -3.019  0.00  0.00    -0.046 C 
ATOM     20  C   LIG d   1      10.841   3.594  -2.767  0.00  0.00    -0.012 C 
ATOM     21  C   LIG d   1      10.312   3.004  -4.098  0.00  0.00     0.132 C 
ATOM     22  H   LIG d   1      11.913   7.007  -7.711  0.00  0.00     0.027 H 
ATOM     23  H   LIG d   1      10.883   7.598  -9.034  0.00  0.00     0.027 H 
ATOM     24  H   LIG d   1      12.622   9.184  -7.122  0.00  0.00     0.029 H 
ATOM     25  H   LIG d   1      12.674   9.149  -8.894  0.00  0.00     0.029 H 
ATOM     26  H   LIG d   1       9.261  10.772  -6.982  0.00  0.00     0.034 H 
ATOM     27  H   LIG d   1      10.763  11.144  -6.101  0.00  0.00     0.034 H 
ATOM     28  H   LIG d   1      10.549   9.857  -4.281  0.00  0.00     0.057 H 
ATOM     29  H   LIG d   1       9.508   7.398  -3.732  0.00  0.00     0.031 H 
ATOM     30  H   LIG d   1      11.223   7.692  -3.331  0.00  0.00     0.031 H 
ATOM     31  H   LIG d   1      10.963   5.411  -7.717  0.00  0.00     0.027 H 
ATOM     32  H   LIG d   1       9.211   5.388  -7.937  0.00  0.00     0.027 H 
ATOM     33  H   LIG d   1      10.784   3.410  -6.719  0.00  0.00     0.027 H 
ATOM     34  H   LIG d   1       9.016   3.506  -6.717  0.00  0.00     0.027 H 
ATOM     35  H   LIG d   1      12.064   5.400  -2.622  0.00  0.00     0.027 H 
ATOM     36  H   LIG d   1      10.305   5.711  -2.571  0.00  0.00     0.027 H 
ATOM     37  H   LIG d   1      10.101   3.463  -1.979  0.00  0.00     0.030 H 
ATOM     38  H   LIG d   1      11.775   3.105  -2.489  0.00  0.00     0.030 H 
ENDROOT
BRANCH  21  39
ATOM     39  C   LIG d   1       9.115   2.187  -3.860  0.00  0.00    -0.062 C 
ATOM     40  C   LIG d   1       8.157   1.534  -3.671  0.00  0.00    -0.063 C 
BRANCH  40  41
ATOM     41  C   LIG d   1       6.990   0.737  -3.439  0.00  0.00     0.025 A 
ATOM     42  C   LIG d   1       5.810   1.337  -2.997  0.00  0.00    -0.046 A 
ATOM     43  C   LIG d   1       4.689   0.564  -2.775  0.00  0.00    -0.061 A 
ATOM     44  H   LIG d   1       5.774   2.403  -2.829  0.00  0.00     0.063 H 
ATOM     45  C   LIG d   1       4.733  -0.803  -2.990  0.00  0.00    -0.062 A 
ATOM     46  H   LIG d   1       3.774   1.026  -2.434  0.00  0.00     0.062 H 
ATOM     47  C   LIG d   1       5.901  -1.402  -3.428  0.00  0.00    -0.061 A 
ATOM     48  H   LIG d   1       3.851  -1.402  -2.819  0.00  0.00     0.062 H 
ATOM     49  C   LIG d   1       7.029  -0.640  -3.654  0.00  0.00    -0.046 A 
ATOM     50  H   LIG d   1       5.929  -2.469  -3.594  0.00  0.00     0.062 H 
ATOM     51  H   LIG d   1       7.940  -1.110  -3.995  0.00  0.00     0.063 H 
ENDBRANCH  40  41
ENDBRANCH  21  39
BRANCH  21  52
ATOM     52  O   LIG d   1      11.326   2.250  -4.754  0.00  0.00    -0.376 OA
ATOM     53  H   LIG d   1      11.134   1.305  -4.817  0.00  0.00     0.211 HD
ENDBRANCH  21  52
BRANCH  16  54
ATOM     54  C   LIG d   1       8.574   4.707  -4.424  0.00  0.00    -0.056 C 
ATOM     55  H   LIG d   1       7.859   3.889  -4.513  0.00  0.00     0.024 H 
ATOM     56  H   LIG d   1       8.656   5.005  -3.378  0.00  0.00     0.024 H 
ATOM     57  H   LIG d   1       8.232   5.556  -5.017  0.00  0.00     0.024 H 
ENDBRANCH  16  54
BRANCH   1  58
ATOM     58  C   LIG d   1       8.777   8.115  -7.876  0.00  0.00    -0.056 C 
ATOM     59  H   LIG d   1       8.057   7.329  -7.647  0.00  0.00     0.024 H 
ATOM     60  H   LIG d   1       8.352   9.084  -7.615  0.00  0.00     0.024 H 
ATOM     61  H   LIG d   1       9.010   8.096  -8.941  0.00  0.00     0.024 H 
ENDBRANCH   1  58
BRANCH   4  62
ATOM     62  O   LIG d   1      11.853  11.522  -8.253  0.00  0.00    -0.392 OA
ATOM     63  H   LIG d   1      12.202  11.887  -7.428  0.00  0.00     0.210 HD
ENDBRANCH   4  62
TORSDOF 6
ENDMDL
MODEL 6
REMARK VINA RESULT:      -5.8     11.051     13.765
REMARK  6 active torsions:
REMARK  status: ('A' for Active; 'I' for Inactive)
REMARK    1  A    between atoms: C_1  and  C_2 
REMARK    2  A    between atoms: C_5  and  O_33 
REMARK    3  A    between atoms: C_17  and  C_32 
REMARK    4  A    between atoms: C_22  and  C_23 
REMARK    5  A    between atoms: C_22  and  O_31 
REMARK    6  A    between atoms: C_24  and  C_25 
ROOT
ATOM      1  C   LIG d   1      10.569   8.489  -6.827  0.00  0.00    -0.008 C 
ATOM      2  C   LIG d   1       9.175   8.844  -7.331  0.00  0.00    -0.041 C 
ATOM      3  C   LIG d   1       8.846   8.045  -8.590  0.00  0.00    -0.026 C 
ATOM      4  C   LIG d   1      10.016   8.023  -9.571  0.00  0.00     0.059 C 
ATOM      5  H   LIG d   1      10.343   9.044  -9.774  0.00  0.00     0.060 H 
ATOM      6  C   LIG d   1      11.181   7.217  -8.983  0.00  0.00    -0.005 C 
ATOM      7  C   LIG d   1      11.006   7.198  -7.473  0.00  0.00    -0.065 C 
ATOM      8  C   LIG d   1      11.218   6.091  -6.829  0.00  0.00    -0.084 C 
ATOM      9  C   LIG d   1      11.024   5.949  -5.343  0.00  0.00    -0.031 C 
ATOM     10  C   LIG d   1      10.019   7.022  -4.908  0.00  0.00    -0.030 C 
ATOM     11  H   LIG d   1       9.093   6.867  -5.499  0.00  0.00     0.031 H 
ATOM     12  C   LIG d   1      10.608   8.380  -5.302  0.00  0.00    -0.029 C 
ATOM     13  H   LIG d   1      11.671   8.415  -5.043  0.00  0.00     0.031 H 
ATOM     14  C   LIG d   1       9.874   9.532  -4.642  0.00  0.00    -0.049 C 
ATOM     15  C   LIG d   1       9.801   9.419  -3.116  0.00  0.00    -0.043 C 
ATOM     16  C   LIG d   1      10.317   8.089  -2.634  0.00  0.00     0.011 C 
ATOM     17  C   LIG d   1       9.675   6.954  -3.455  0.00  0.00    -0.029 C 
ATOM     18  H   LIG d   1       8.569   7.031  -3.354  0.00  0.00     0.031 H 
ATOM     19  C   LIG d   1      10.117   5.707  -2.678  0.00  0.00    -0.046 C 
ATOM     20  C   LIG d   1       9.993   6.153  -1.194  0.00  0.00    -0.012 C 
ATOM     21  C   LIG d   1       9.891   7.699  -1.204  0.00  0.00     0.132 C 
ATOM     22  H   LIG d   1       8.438   8.605  -6.562  0.00  0.00     0.027 H 
ATOM     23  H   LIG d   1       9.125   9.909  -7.554  0.00  0.00     0.027 H 
ATOM     24  H   LIG d   1       8.592   7.022  -8.312  0.00  0.00     0.029 H 
ATOM     25  H   LIG d   1       7.982   8.499  -9.082  0.00  0.00     0.029 H 
ATOM     26  H   LIG d   1      12.133   7.674  -9.250  0.00  0.00     0.034 H 
ATOM     27  H   LIG d   1      11.149   6.194  -9.366  0.00  0.00     0.034 H 
ATOM     28  H   LIG d   1      11.550   5.230  -7.385  0.00  0.00     0.057 H 
ATOM     29  H   LIG d   1      11.973   6.096  -4.835  0.00  0.00     0.031 H 
ATOM     30  H   LIG d   1      10.625   4.960  -5.123  0.00  0.00     0.031 H 
ATOM     31  H   LIG d   1       8.848   9.581  -5.037  0.00  0.00     0.027 H 
ATOM     32  H   LIG d   1      10.362  10.479  -4.902  0.00  0.00     0.027 H 
ATOM     33  H   LIG d   1       8.759   9.555  -2.795  0.00  0.00     0.027 H 
ATOM     34  H   LIG d   1      10.391  10.231  -2.665  0.00  0.00     0.027 H 
ATOM     35  H   LIG d   1       9.438   4.874  -2.877  0.00  0.00     0.027 H 
ATOM     36  H   LIG d   1      11.137   5.425  -2.917  0.00  0.00     0.027 H 
ATOM     37  H   LIG d   1      10.874   5.840  -0.635  0.00  0.00     0.030 H 
ATOM     38  H   LIG d   1       9.095   5.724  -0.749  0.00  0.00     0.030 H 
ENDROOT
BRANCH  21  39
ATOM     39  C   LIG d   1      10.822   8.283  -0.229  0.00  0.00    -0.062 C 
ATOM     40  C   LIG d   1      11.565   8.751   0.551  0.00  0.00    -0.063 C 
BRANCH  40  41
ATOM     41  C   LIG d   1      12.472   9.320   1.502  0.00  0.00     0.025 A 
ATOM     42  C   LIG d   1      13.757   9.693   1.106  0.00  0.00    -0.046 A 
ATOM     43  C   LIG d   1      14.627  10.241   2.026  0.00  0.00    -0.061 A 
ATOM     44  H   LIG d   1      14.071   9.553   0.082  0.00  0.00     0.063 H 
ATOM     45  C   LIG d   1      14.227  10.421   3.339  0.00  0.00    -0.062 A 
ATOM     46  H   LIG d   1      15.622  10.530   1.722  0.00  0.00     0.062 H 
ATOM     47  C   LIG d   1      12.953  10.053   3.736  0.00  0.00    -0.061 A 
ATOM     48  H   LIG d   1      14.910  10.854   4.054  0.00  0.00     0.062 H 
ATOM     49  C   LIG d   1      12.074   9.504   2.826  0.00  0.00    -0.046 A 
ATOM     50  H   LIG d   1      12.647  10.196   4.762  0.00  0.00     0.062 H 
ATOM     51  H   LIG d   1      11.081   9.217   3.138  0.00  0.00     0.063 H 
ENDBRANCH  40  41
ENDBRANCH  21  39
BRANCH  21  52
ATOM     52  O   LIG d   1       8.554   8.118  -0.953  0.00  0.00    -0.376 OA
ATOM     53  H   LIG d   1       8.466   8.723  -0.203  0.00  0.00     0.211 HD
ENDBRANCH  21  52
BRANCH  16  54
ATOM     54  C   LIG d   1      11.846   8.045  -2.649  0.00  0.00    -0.056 C 
ATOM     55  H   LIG d   1      12.240   8.897  -2.096  0.00  0.00     0.024 H 
ATOM     56  H   LIG d   1      12.188   7.120  -2.181  0.00  0.00     0.024 H 
ATOM     57  H   LIG d   1      12.202   8.084  -3.679  0.00  0.00     0.024 H 
ENDBRANCH  16  54
BRANCH   1  58
ATOM     58  C   LIG d   1      11.544   9.598  -7.238  0.00  0.00    -0.056 C 
ATOM     59  H   LIG d   1      11.634  10.321  -6.428  0.00  0.00     0.024 H 
ATOM     60  H   LIG d   1      12.521   9.163  -7.447  0.00  0.00     0.024 H 
ATOM     61  H   LIG d   1      11.170  10.098  -8.133  0.00  0.00     0.024 H 
ENDBRANCH   1  58
BRANCH   4  62
ATOM     62  O   LIG d   1       9.595   7.417 -10.797  0.00  0.00    -0.392 OA
ATOM     63  H   LIG d   1      10.325   7.125 -11.361  0.00  0.00     0.210 HD
ENDBRANCH   4  62
TORSDOF 6
ENDMDL
MODEL 7
REMARK VINA RESULT:      -5.7      5.641      8.501
REMARK  6 active torsions:
REMARK  status: ('A' for Active; 'I' for Inactive)
REMARK    1  A    between atoms: C_1  and  C_2 
REMARK    2  A    between atoms: C_5  and  O_33 
REMARK    3  A    between atoms: C_17  and  C_32 
REMARK    4  A    between atoms: C_22  and  C_23 
REMARK    5  A    between atoms: C_22  and  O_31 
REMARK    6  A    between atoms: C_24  and  C_25 
ROOT
ATOM      1  C   LIG d   1       5.518  -1.656  -5.672  0.00  0.00    -0.008 C 
ATOM      2  C   LIG d   1       5.302  -2.357  -4.338  0.00  0.00    -0.041 C 
ATOM      3  C   LIG d   1       5.177  -3.865  -4.544  0.00  0.00    -0.026 C 
ATOM      4  C   LIG d   1       4.273  -4.204  -5.726  0.00  0.00     0.059 C 
ATOM      5  H   LIG d   1       3.313  -3.699  -5.610  0.00  0.00     0.060 H 
ATOM      6  C   LIG d   1       4.933  -3.761  -7.038  0.00  0.00    -0.005 C 
ATOM      7  C   LIG d   1       5.944  -2.678  -6.696  0.00  0.00    -0.065 C 
ATOM      8  C   LIG d   1       7.105  -2.697  -7.276  0.00  0.00    -0.084 C 
ATOM      9  C   LIG d   1       8.197  -1.705  -6.972  0.00  0.00    -0.031 C 
ATOM     10  C   LIG d   1       7.945  -1.166  -5.560  0.00  0.00    -0.030 C 
ATOM     11  H   LIG d   1       7.925  -2.035  -4.872  0.00  0.00     0.031 H 
ATOM     12  C   LIG d   1       6.550  -0.532  -5.560  0.00  0.00    -0.029 C 
ATOM     13  H   LIG d   1       6.413   0.070  -6.463  0.00  0.00     0.031 H 
ATOM     14  C   LIG d   1       6.312   0.320  -4.327  0.00  0.00    -0.049 C 
ATOM     15  C   LIG d   1       7.376   1.402  -4.115  0.00  0.00    -0.043 C 
ATOM     16  C   LIG d   1       8.520   1.251  -5.082  0.00  0.00     0.011 C 
ATOM     17  C   LIG d   1       9.000  -0.213  -5.095  0.00  0.00    -0.029 C 
ATOM     18  H   LIG d   1       9.292  -0.495  -4.059  0.00  0.00     0.031 H 
ATOM     19  C   LIG d   1      10.288  -0.121  -5.923  0.00  0.00    -0.046 C 
ATOM     20  C   LIG d   1      10.929   1.207  -5.432  0.00  0.00    -0.012 C 
ATOM     21  C   LIG d   1       9.817   1.985  -4.684  0.00  0.00     0.132 C 
ATOM     22  H   LIG d   1       6.151  -2.163  -3.681  0.00  0.00     0.027 H 
ATOM     23  H   LIG d   1       4.394  -1.979  -3.868  0.00  0.00     0.027 H 
ATOM     24  H   LIG d   1       6.167  -4.288  -4.716  0.00  0.00     0.029 H 
ATOM     25  H   LIG d   1       4.758  -4.313  -3.639  0.00  0.00     0.029 H 
ATOM     26  H   LIG d   1       4.185  -3.378  -7.730  0.00  0.00     0.034 H 
ATOM     27  H   LIG d   1       5.448  -4.610  -7.494  0.00  0.00     0.034 H 
ATOM     28  H   LIG d   1       7.300  -3.460  -8.011  0.00  0.00     0.057 H 
ATOM     29  H   LIG d   1       8.164  -0.895  -7.695  0.00  0.00     0.031 H 
ATOM     30  H   LIG d   1       9.162  -2.207  -7.008  0.00  0.00     0.031 H 
ATOM     31  H   LIG d   1       6.293  -0.327  -3.438  0.00  0.00     0.027 H 
ATOM     32  H   LIG d   1       5.329   0.801  -4.394  0.00  0.00     0.027 H 
ATOM     33  H   LIG d   1       7.747   1.343  -3.083  0.00  0.00     0.027 H 
ATOM     34  H   LIG d   1       6.914   2.393  -4.240  0.00  0.00     0.027 H 
ATOM     35  H   LIG d   1      10.948  -0.963  -5.695  0.00  0.00     0.027 H 
ATOM     36  H   LIG d   1      10.081  -0.085  -6.988  0.00  0.00     0.027 H 
ATOM     37  H   LIG d   1      11.283   1.787  -6.283  0.00  0.00     0.030 H 
ATOM     38  H   LIG d   1      11.755   0.995  -4.754  0.00  0.00     0.030 H 
ENDROOT
BRANCH  21  39
ATOM     39  C   LIG d   1       9.764   3.378  -5.144  0.00  0.00    -0.062 C 
ATOM     40  C   LIG d   1       9.721   4.493  -5.512  0.00  0.00    -0.063 C 
BRANCH  40  41
ATOM     41  C   LIG d   1       9.669   5.852  -5.961  0.00  0.00     0.025 A 
ATOM     42  C   LIG d   1       9.890   6.154  -7.305  0.00  0.00    -0.046 A 
ATOM     43  C   LIG d   1       9.838   7.465  -7.732  0.00  0.00    -0.061 A 
ATOM     44  H   LIG d   1      10.101   5.363  -8.011  0.00  0.00     0.063 H 
ATOM     45  C   LIG d   1       9.568   8.479  -6.830  0.00  0.00    -0.062 A 
ATOM     46  H   LIG d   1      10.009   7.701  -8.772  0.00  0.00     0.062 H 
ATOM     47  C   LIG d   1       9.348   8.185  -5.495  0.00  0.00    -0.061 A 
ATOM     48  H   LIG d   1       9.525   9.503  -7.169  0.00  0.00     0.062 H 
ATOM     49  C   LIG d   1       9.397   6.878  -5.056  0.00  0.00    -0.046 A 
ATOM     50  H   LIG d   1       9.138   8.981  -4.796  0.00  0.00     0.062 H 
ATOM     51  H   LIG d   1       9.225   6.650  -4.015  0.00  0.00     0.063 H 
ENDBRANCH  40  41
ENDBRANCH  21  39
BRANCH  21  52
ATOM     52  O   LIG d   1      10.014   1.916  -3.276  0.00  0.00    -0.376 OA
ATOM     53  H   LIG d   1       9.344   2.387  -2.762  0.00  0.00     0.211 HD
ENDBRANCH  21  52
BRANCH  16  54
ATOM     54  C   LIG d   1       8.149   1.770  -6.473  0.00  0.00    -0.056 C 
ATOM     55  H   LIG d   1       7.168   2.244  -6.433  0.00  0.00     0.024 H 
ATOM     56  H   LIG d   1       8.892   2.498  -6.800  0.00  0.00     0.024 H 
ATOM     57  H   LIG d   1       8.122   0.937  -7.176  0.00  0.00     0.024 H 
ENDBRANCH  16  54
BRANCH   1  58
ATOM     58  C   LIG d   1       4.196  -1.028  -6.126  0.00  0.00    -0.056 C 
ATOM     59  H   LIG d   1       3.622  -0.719  -5.253  0.00  0.00     0.024 H 
ATOM     60  H   LIG d   1       4.402  -0.159  -6.751  0.00  0.00     0.024 H 
ATOM     61  H   LIG d   1       3.624  -1.759  -6.698  0.00  0.00     0.024 H 
ENDBRANCH   1  58
BRANCH   4  62
ATOM     62  O   LIG d   1       4.052  -5.617  -5.764  0.00  0.00    -0.392 OA
ATOM     63  H   LIG d   1       3.118  -5.868  -5.786  0.00  0.00     0.210 HD
ENDBRANCH   4  62
TORSDOF 6
ENDMDL
MODEL 8
REMARK VINA RESULT:      -5.7      2.517      8.713
REMARK  6 active torsions:
REMARK  status: ('A' for Active; 'I' for Inactive)
REMARK    1  A    between atoms: C_1  and  C_2 
REMARK    2  A    between atoms: C_5  and  O_33 
REMARK    3  A    between atoms: C_17  and  C_32 
REMARK    4  A    between atoms: C_22  and  C_23 
REMARK    5  A    between atoms: C_22  and  O_31 
REMARK    6  A    between atoms: C_24  and  C_25 
ROOT
ATOM      1  C   LIG d   1       5.179  -1.380  -6.361  0.00  0.00    -0.008 C 
ATOM      2  C   LIG d   1       5.039  -2.766  -5.744  0.00  0.00    -0.041 C 
ATOM      3  C   LIG d   1       4.472  -2.663  -4.330  0.00  0.00    -0.026 C 
ATOM      4  C   LIG d   1       5.139  -1.547  -3.530  0.00  0.00     0.059 C 
ATOM      5  H   LIG d   1       6.222  -1.675  -3.556  0.00  0.00     0.060 H 
ATOM      6  C   LIG d   1       4.767  -0.181  -4.118  0.00  0.00    -0.005 C 
ATOM      7  C   LIG d   1       4.350  -0.405  -5.563  0.00  0.00    -0.065 C 
ATOM      8  C   LIG d   1       3.313   0.225  -6.023  0.00  0.00    -0.084 C 
ATOM      9  C   LIG d   1       2.784   0.036  -7.420  0.00  0.00    -0.031 C 
ATOM     10  C   LIG d   1       3.235  -1.349  -7.897  0.00  0.00    -0.030 C 
ATOM     11  H   LIG d   1       2.852  -2.091  -7.169  0.00  0.00     0.031 H 
ATOM     12  C   LIG d   1       4.765  -1.373  -7.834  0.00  0.00    -0.029 C 
ATOM     13  H   LIG d   1       5.170  -0.439  -8.237  0.00  0.00     0.031 H 
ATOM     14  C   LIG d   1       5.348  -2.558  -8.581  0.00  0.00    -0.049 C 
ATOM     15  C   LIG d   1       4.885  -2.651 -10.039  0.00  0.00    -0.043 C 
ATOM     16  C   LIG d   1       3.808  -1.644 -10.344  0.00  0.00     0.011 C 
ATOM     17  C   LIG d   1       2.719  -1.703  -9.255  0.00  0.00    -0.029 C 
ATOM     18  H   LIG d   1       2.318  -2.740  -9.217  0.00  0.00     0.031 H 
ATOM     19  C   LIG d   1       1.621  -0.812  -9.852  0.00  0.00    -0.046 C 
ATOM     20  C   LIG d   1       1.644  -1.186 -11.360  0.00  0.00    -0.012 C 
ATOM     21  C   LIG d   1       2.978  -1.933 -11.611  0.00  0.00     0.132 C 
ATOM     22  H   LIG d   1       4.361  -3.368  -6.351  0.00  0.00     0.027 H 
ATOM     23  H   LIG d   1       6.014  -3.252  -5.709  0.00  0.00     0.027 H 
ATOM     24  H   LIG d   1       3.400  -2.472  -4.386  0.00  0.00     0.029 H 
ATOM     25  H   LIG d   1       4.632  -3.613  -3.814  0.00  0.00     0.029 H 
ATOM     26  H   LIG d   1       5.615   0.499  -4.068  0.00  0.00     0.034 H 
ATOM     27  H   LIG d   1       3.929   0.243  -3.559  0.00  0.00     0.034 H 
ATOM     28  H   LIG d   1       2.803   0.917  -5.374  0.00  0.00     0.057 H 
ATOM     29  H   LIG d   1       3.187   0.807  -8.070  0.00  0.00     0.031 H 
ATOM     30  H   LIG d   1       1.696   0.084  -7.405  0.00  0.00     0.031 H 
ATOM     31  H   LIG d   1       5.062  -3.486  -8.066  0.00  0.00     0.027 H 
ATOM     32  H   LIG d   1       6.443  -2.505  -8.562  0.00  0.00     0.027 H 
ATOM     33  H   LIG d   1       4.515  -3.666 -10.234  0.00  0.00     0.027 H 
ATOM     34  H   LIG d   1       5.746  -2.484 -10.703  0.00  0.00     0.027 H 
ATOM     35  H   LIG d   1       0.649  -1.063  -9.418  0.00  0.00     0.027 H 
ATOM     36  H   LIG d   1       1.835   0.242  -9.708  0.00  0.00     0.027 H 
ATOM     37  H   LIG d   1       1.601  -0.284 -11.969  0.00  0.00     0.030 H 
ATOM     38  H   LIG d   1       0.803  -1.838 -11.596  0.00  0.00     0.030 H 
ENDROOT
BRANCH  21  39
ATOM     39  C   LIG d   1       3.661  -1.388 -12.791  0.00  0.00    -0.062 C 
ATOM     40  C   LIG d   1       4.206  -0.952 -13.735  0.00  0.00    -0.063 C 
BRANCH  40  41
ATOM     41  C   LIG d   1       4.872  -0.419 -14.886  0.00  0.00     0.025 A 
ATOM     42  C   LIG d   1       6.255  -0.554 -15.019  0.00  0.00    -0.046 A 
ATOM     43  C   LIG d   1       6.891  -0.039 -16.130  0.00  0.00    -0.061 A 
ATOM     44  H   LIG d   1       6.826  -1.060 -14.254  0.00  0.00     0.063 H 
ATOM     45  C   LIG d   1       6.161   0.610 -17.110  0.00  0.00    -0.062 A 
ATOM     46  H   LIG d   1       7.960  -0.142 -16.235  0.00  0.00     0.062 H 
ATOM     47  C   LIG d   1       4.789   0.746 -16.983  0.00  0.00    -0.061 A 
ATOM     48  H   LIG d   1       6.663   1.008 -17.979  0.00  0.00     0.062 H 
ATOM     49  C   LIG d   1       4.141   0.235 -15.877  0.00  0.00    -0.046 A 
ATOM     50  H   LIG d   1       4.225   1.253 -17.752  0.00  0.00     0.062 H 
ATOM     51  H   LIG d   1       3.071   0.343 -15.779  0.00  0.00     0.063 H 
ENDBRANCH  40  41
ENDBRANCH  21  39
BRANCH  21  52
ATOM     52  O   LIG d   1       2.754  -3.333 -11.748  0.00  0.00    -0.376 OA
ATOM     53  H   LIG d   1       3.028  -3.851 -10.979  0.00  0.00     0.211 HD
ENDBRANCH  21  52
BRANCH  16  54
ATOM     54  C   LIG d   1       4.390  -0.241 -10.529  0.00  0.00    -0.056 C 
ATOM     55  H   LIG d   1       5.042  -0.004  -9.688  0.00  0.00     0.024 H 
ATOM     56  H   LIG d   1       4.966  -0.205 -11.455  0.00  0.00     0.024 H 
ATOM     57  H   LIG d   1       3.580   0.486 -10.578  0.00  0.00     0.024 H 
ENDBRANCH  16  54
BRANCH   1  58
ATOM     58  C   LIG d   1       6.648  -0.948  -6.290  0.00  0.00    -0.056 C 
ATOM     59  H   LIG d   1       6.912  -0.409  -7.199  0.00  0.00     0.024 H 
ATOM     60  H   LIG d   1       6.794  -0.299  -5.426  0.00  0.00     0.024 H 
ATOM     61  H   LIG d   1       7.282  -1.830  -6.192  0.00  0.00     0.024 H 
ENDBRANCH   1  58
BRANCH   4  62
ATOM     62  O   LIG d   1       4.698  -1.611  -2.170  0.00  0.00    -0.392 OA
ATOM     63  H   LIG d   1       4.919  -0.827  -1.648  0.00  0.00     0.210 HD
ENDBRANCH   4  62
TORSDOF 6
ENDMDL
MODEL 9
REMARK VINA RESULT:      -5.7      9.910     14.513
REMARK  6 active torsions:
REMARK  status: ('A' for Active; 'I' for Inactive)
REMARK    1  A    between atoms: C_1  and  C_2 
REMARK    2  A    between atoms: C_5  and  O_33 
REMARK    3  A    between atoms: C_17  and  C_32 
REMARK    4  A    between atoms: C_22  and  C_23 
REMARK    5  A    between atoms: C_22  and  O_31 
REMARK    6  A    between atoms: C_24  and  C_25 
ROOT
ATOM      1  C   LIG d   1      10.614   6.189  -2.663  0.00  0.00    -0.008 C 
ATOM      2  C   LIG d   1       9.701   6.947  -1.708  0.00  0.00    -0.041 C 
ATOM      3  C   LIG d   1      10.371   7.103  -0.344  0.00  0.00    -0.026 C 
ATOM      4  C   LIG d   1      11.030   5.806   0.117  0.00  0.00     0.059 C 
ATOM      5  H   LIG d   1      10.304   4.993   0.078  0.00  0.00     0.060 H 
ATOM      6  C   LIG d   1      12.225   5.473  -0.784  0.00  0.00    -0.005 C 
ATOM      7  C   LIG d   1      12.015   6.195  -2.105  0.00  0.00    -0.065 C 
ATOM      8  C   LIG d   1      13.026   6.785  -2.667  0.00  0.00    -0.084 C 
ATOM      9  C   LIG d   1      12.917   7.571  -3.947  0.00  0.00    -0.031 C 
ATOM     10  C   LIG d   1      11.464   8.040  -4.074  0.00  0.00    -0.030 C 
ATOM     11  H   LIG d   1      11.225   8.628  -3.165  0.00  0.00     0.031 H 
ATOM     12  C   LIG d   1      10.582   6.787  -4.071  0.00  0.00    -0.029 C 
ATOM     13  H   LIG d   1      11.022   6.019  -4.715  0.00  0.00     0.031 H 
ATOM     14  C   LIG d   1       9.163   7.088  -4.515  0.00  0.00    -0.049 C 
ATOM     15  C   LIG d   1       9.082   7.778  -5.881  0.00  0.00    -0.043 C 
ATOM     16  C   LIG d   1      10.445   8.168  -6.387  0.00  0.00     0.011 C 
ATOM     17  C   LIG d   1      11.223   8.899  -5.275  0.00  0.00    -0.029 C 
ATOM     18  H   LIG d   1      10.630   9.785  -4.956  0.00  0.00     0.031 H 
ATOM     19  C   LIG d   1      12.451   9.420  -6.032  0.00  0.00    -0.046 C 
ATOM     20  C   LIG d   1      11.859   9.875  -7.395  0.00  0.00    -0.012 C 
ATOM     21  C   LIG d   1      10.452   9.233  -7.502  0.00  0.00     0.132 C 
ATOM     22  H   LIG d   1       9.493   7.939  -2.112  0.00  0.00     0.027 H 
ATOM     23  H   LIG d   1       8.762   6.406  -1.591  0.00  0.00     0.027 H 
ATOM     24  H   LIG d   1      11.125   7.888  -0.402  0.00  0.00     0.029 H 
ATOM     25  H   LIG d   1       9.616   7.397   0.389  0.00  0.00     0.029 H 
ATOM     26  H   LIG d   1      12.294   4.399  -0.945  0.00  0.00     0.034 H 
ATOM     27  H   LIG d   1      13.147   5.829  -0.317  0.00  0.00     0.034 H 
ATOM     28  H   LIG d   1      13.992   6.710  -2.195  0.00  0.00     0.057 H 
ATOM     29  H   LIG d   1      13.182   6.937  -4.788  0.00  0.00     0.031 H 
ATOM     30  H   LIG d   1      13.580   8.434  -3.899  0.00  0.00     0.031 H 
ATOM     31  H   LIG d   1       8.680   7.736  -3.769  0.00  0.00     0.027 H 
ATOM     32  H   LIG d   1       8.583   6.158  -4.556  0.00  0.00     0.027 H 
ATOM     33  H   LIG d   1       8.445   8.670  -5.795  0.00  0.00     0.027 H 
ATOM     34  H   LIG d   1       8.600   7.100  -6.600  0.00  0.00     0.027 H 
ATOM     35  H   LIG d   1      12.887  10.275  -5.508  0.00  0.00     0.027 H 
ATOM     36  H   LIG d   1      13.198   8.645  -6.170  0.00  0.00     0.027 H 
ATOM     37  H   LIG d   1      12.491   9.528  -8.211  0.00  0.00     0.030 H 
ATOM     38  H   LIG d   1      11.774  10.961  -7.421  0.00  0.00     0.030 H 
ENDROOT
BRANCH  21  39
ATOM     39  C   LIG d   1      10.279   8.587  -8.810  0.00  0.00    -0.062 C 
ATOM     40  C   LIG d   1      10.139   8.071  -9.856  0.00  0.00    -0.063 C 
BRANCH  40  41
ATOM     41  C   LIG d   1       9.970   7.441 -11.130  0.00  0.00     0.025 A 
ATOM     42  C   LIG d   1       9.917   8.215 -12.291  0.00  0.00    -0.046 A 
ATOM     43  C   LIG d   1       9.754   7.603 -13.517  0.00  0.00    -0.061 A 
ATOM     44  H   LIG d   1      10.004   9.290 -12.230  0.00  0.00     0.063 H 
ATOM     45  C   LIG d   1       9.642   6.225 -13.597  0.00  0.00    -0.062 A 
ATOM     46  H   LIG d   1       9.713   8.199 -14.416  0.00  0.00     0.062 H 
ATOM     47  C   LIG d   1       9.694   5.454 -12.449  0.00  0.00    -0.061 A 
ATOM     48  H   LIG d   1       9.518   5.751 -14.559  0.00  0.00     0.062 H 
ATOM     49  C   LIG d   1       9.857   6.054 -11.217  0.00  0.00    -0.046 A 
ATOM     50  H   LIG d   1       9.606   4.380 -12.518  0.00  0.00     0.062 H 
ATOM     51  H   LIG d   1       9.897   5.450 -10.322  0.00  0.00     0.063 H 
ENDBRANCH  40  41
ENDBRANCH  21  39
BRANCH  21  52
ATOM     52  O   LIG d   1       9.436  10.202  -7.269  0.00  0.00    -0.376 OA
ATOM     53  H   LIG d   1       9.725  11.115  -7.407  0.00  0.00     0.211 HD
ENDBRANCH  21  52
BRANCH  16  54
ATOM     54  C   LIG d   1      11.200   6.961  -6.947  0.00  0.00    -0.056 C 
ATOM     55  H   LIG d   1      12.203   7.265  -7.245  0.00  0.00     0.024 H 
ATOM     56  H   LIG d   1      11.267   6.186  -6.182  0.00  0.00     0.024 H 
ATOM     57  H   LIG d   1      10.667   6.569  -7.814  0.00  0.00     0.024 H 
ENDBRANCH  16  54
BRANCH   1  58
ATOM     58  C   LIG d   1      10.133   4.737  -2.765  0.00  0.00    -0.056 C 
ATOM     59  H   LIG d   1       9.052   4.703  -2.638  0.00  0.00     0.024 H 
ATOM     60  H   LIG d   1      10.397   4.335  -3.744  0.00  0.00     0.024 H 
ATOM     61  H   LIG d   1      10.611   4.141  -1.987  0.00  0.00     0.024 H 
ENDBRANCH   1  58
BRANCH   4  62
ATOM     62  O   LIG d   1      11.484   5.959   1.465  0.00  0.00    -0.392 OA
ATOM     63  H   LIG d   1      11.980   5.200   1.801  0.00  0.00     0.210 HD
ENDBRANCH   4  62
TORSDOF 6
ENDMDL
MODEL 10
REMARK VINA RESULT:      -5.7      7.965     10.734
REMARK  6 active torsions:
REMARK  status: ('A' for Active; 'I' for Inactive)
REMARK    1  A    between atoms: C_1  and  C_2 
REMARK    2  A    between atoms: C_5  and  O_33 
REMARK    3  A    between atoms: C_17  and  C_32 
REMARK    4  A    between atoms: C_22  and  C_23 
REMARK    5  A    between atoms: C_22  and  O_31 
REMARK    6  A    between atoms: C_24  and  C_25 
ROOT
ATOM      1  C   LIG d   1      14.519   0.751  -4.928  0.00  0.00    -0.008 C 
ATOM      2  C   LIG d   1      15.347   1.968  -4.534  0.00  0.00    -0.041 C 
ATOM      3  C   LIG d   1      16.555   2.111  -5.458  0.00  0.00    -0.026 C 
ATOM      4  C   LIG d   1      17.251   0.774  -5.694  0.00  0.00     0.059 C 
ATOM      5  H   LIG d   1      17.488   0.309  -4.736  0.00  0.00     0.060 H 
ATOM      6  C   LIG d   1      16.343  -0.157  -6.507  0.00  0.00    -0.005 C 
ATOM      7  C   LIG d   1      14.913   0.325  -6.321  0.00  0.00    -0.065 C 
ATOM      8  C   LIG d   1      14.123   0.363  -7.350  0.00  0.00    -0.084 C 
ATOM      9  C   LIG d   1      12.707   0.872  -7.287  0.00  0.00    -0.031 C 
ATOM     10  C   LIG d   1      12.618   1.830  -6.094  0.00  0.00    -0.030 C 
ATOM     11  H   LIG d   1      13.374   2.625  -6.250  0.00  0.00     0.031 H 
ATOM     12  C   LIG d   1      13.019   1.037  -4.846  0.00  0.00    -0.029 C 
ATOM     13  H   LIG d   1      12.542   0.052  -4.860  0.00  0.00     0.031 H 
ATOM     14  C   LIG d   1      12.661   1.770  -3.566  0.00  0.00    -0.049 C 
ATOM     15  C   LIG d   1      11.183   2.165  -3.479  0.00  0.00    -0.043 C 
ATOM     16  C   LIG d   1      10.461   1.898  -4.773  0.00  0.00     0.011 C 
ATOM     17  C   LIG d   1      11.274   2.470  -5.950  0.00  0.00    -0.029 C 
ATOM     18  H   LIG d   1      11.423   3.559  -5.776  0.00  0.00     0.031 H 
ATOM     19  C   LIG d   1      10.291   2.327  -7.119  0.00  0.00    -0.046 C 
ATOM     20  C   LIG d   1       8.925   2.706  -6.480  0.00  0.00    -0.012 C 
ATOM     21  C   LIG d   1       9.123   2.645  -4.945  0.00  0.00     0.132 C 
ATOM     22  H   LIG d   1      14.734   2.867  -4.616  0.00  0.00     0.027 H 
ATOM     23  H   LIG d   1      15.689   1.862  -3.505  0.00  0.00     0.027 H 
ATOM     24  H   LIG d   1      16.229   2.520  -6.415  0.00  0.00     0.029 H 
ATOM     25  H   LIG d   1      17.267   2.805  -5.005  0.00  0.00     0.029 H 
ATOM     26  H   LIG d   1      16.445  -1.185  -6.162  0.00  0.00     0.034 H 
ATOM     27  H   LIG d   1      16.611  -0.101  -7.565  0.00  0.00     0.034 H 
ATOM     28  H   LIG d   1      14.498   0.015  -8.298  0.00  0.00     0.057 H 
ATOM     29  H   LIG d   1      12.025   0.038  -7.151  0.00  0.00     0.031 H 
ATOM     30  H   LIG d   1      12.474   1.407  -8.207  0.00  0.00     0.031 H 
ATOM     31  H   LIG d   1      13.270   2.682  -3.489  0.00  0.00     0.027 H 
ATOM     32  H   LIG d   1      12.910   1.144  -2.700  0.00  0.00     0.027 H 
ATOM     33  H   LIG d   1      11.112   3.231  -3.224  0.00  0.00     0.027 H 
ATOM     34  H   LIG d   1      10.706   1.601  -2.665  0.00  0.00     0.027 H 
ATOM     35  H   LIG d   1      10.541   3.032  -7.916  0.00  0.00     0.027 H 
ATOM     36  H   LIG d   1      10.272   1.313  -7.507  0.00  0.00     0.027 H 
ATOM     37  H   LIG d   1       8.159   1.995  -6.787  0.00  0.00     0.030 H 
ATOM     38  H   LIG d   1       8.641   3.715  -6.779  0.00  0.00     0.030 H 
ENDROOT
BRANCH  21  39
ATOM     39  C   LIG d   1       8.039   1.880  -4.315  0.00  0.00    -0.062 C 
ATOM     40  C   LIG d   1       7.172   1.268  -3.812  0.00  0.00    -0.063 C 
BRANCH  40  41
ATOM     41  C   LIG d   1       6.116   0.522  -3.198  0.00  0.00     0.025 A 
ATOM     42  C   LIG d   1       6.110  -0.872  -3.270  0.00  0.00    -0.046 A 
ATOM     43  C   LIG d   1       5.089  -1.586  -2.677  0.00  0.00    -0.061 A 
ATOM     44  H   LIG d   1       6.902  -1.391  -3.789  0.00  0.00     0.063 H 
ATOM     45  C   LIG d   1       4.073  -0.923  -2.011  0.00  0.00    -0.062 A 
ATOM     46  H   LIG d   1       5.083  -2.664  -2.731  0.00  0.00     0.062 H 
ATOM     47  C   LIG d   1       4.074   0.459  -1.937  0.00  0.00    -0.061 A 
ATOM     48  H   LIG d   1       3.279  -1.486  -1.545  0.00  0.00     0.062 H 
ATOM     49  C   LIG d   1       5.089   1.185  -2.526  0.00  0.00    -0.046 A 
ATOM     50  H   LIG d   1       3.278   0.971  -1.416  0.00  0.00     0.062 H 
ATOM     51  H   LIG d   1       5.088   2.263  -2.468  0.00  0.00     0.063 H 
ENDBRANCH  40  41
ENDBRANCH  21  39
BRANCH  21  52
ATOM     52  O   LIG d   1       9.213   3.956  -4.395  0.00  0.00    -0.376 OA
ATOM     53  H   LIG d   1       9.882   4.046  -3.703  0.00  0.00     0.211 HD
ENDBRANCH  21  52
BRANCH  16  54
ATOM     54  C   LIG d   1      10.140   0.411  -4.937  0.00  0.00    -0.056 C 
ATOM     55  H   LIG d   1      11.034  -0.119  -5.268  0.00  0.00     0.024 H 
ATOM     56  H   LIG d   1       9.809   0.002  -3.981  0.00  0.00     0.024 H 
ATOM     57  H   LIG d   1       9.350   0.288  -5.678  0.00  0.00     0.024 H 
ENDBRANCH  16  54
BRANCH   1  58
ATOM     58  C   LIG d   1      14.827  -0.395  -3.959  0.00  0.00    -0.056 C 
ATOM     59  H   LIG d   1      15.844  -0.289  -3.582  0.00  0.00     0.024 H 
ATOM     60  H   LIG d   1      14.125  -0.364  -3.125  0.00  0.00     0.024 H 
ATOM     61  H   LIG d   1      14.729  -1.348  -4.480  0.00  0.00     0.024 H 
ENDBRANCH   1  58
BRANCH   4  62
ATOM     62  O   LIG d   1      18.467   0.993  -6.416  0.00  0.00    -0.392 OA
ATOM     63  H   LIG d   1      19.266   0.824  -5.899  0.00  0.00     0.210 HD
ENDBRANCH   4  62
TORSDOF 6
ENDMDL
