MODEL 1
REMARK VINA RESULT:      -7.1      0.000      0.000
REMARK  3 active torsions:
REMARK  status: ('A' for Active; 'I' for Inactive)
REMARK    1  A    between atoms: C_7  and  N_12 
REMARK    2  A    between atoms: C_13  and  C_19 
REMARK       I    between atoms: C_19  and  N_21 
REMARK    3  A    between atoms: N_21  and  C_22 
ROOT
ATOM      1  N   LIG d   1       5.301  -0.574  -3.079  0.00  0.00    -0.251 N 
ATOM      2  C   LIG d   1       4.287  -1.469  -3.649  0.00  0.00     0.107 C 
ATOM      3  H   LIG d   1       4.498  -2.502  -3.373  0.00  0.00     0.060 H 
ATOM      4  C   LIG d   1       2.944  -1.014  -3.034  0.00  0.00    -0.017 C 
ATOM      5  C   LIG d   1       3.236   0.468  -2.702  0.00  0.00     0.026 C 
ATOM      6  C   LIG d   1       4.739   0.524  -2.545  0.00  0.00     0.219 C 
ATOM      7  O   LIG d   1       5.349   1.429  -2.015  0.00  0.00    -0.276 OA
ATOM      8  H   LIG d   1       2.135  -1.099  -3.760  0.00  0.00     0.029 H 
ATOM      9  H   LIG d   1       2.717  -1.580  -2.130  0.00  0.00     0.029 H 
ATOM     10  H   LIG d   1       2.744   0.754  -1.772  0.00  0.00     0.036 H 
ATOM     11  H   LIG d   1       2.913   1.115  -3.517  0.00  0.00     0.036 H 
ENDROOT
BRANCH   2  12
ATOM     12  C   LIG d   1       4.249  -1.326  -5.148  0.00  0.00     0.238 C 
ATOM     13  O   LIG d   1       4.474  -2.284  -5.855  0.00  0.00    -0.273 OA
ATOM     14  N   LIG d   1       3.963  -0.131  -5.704  0.00  0.00    -0.284 N 
ATOM     15  H   LIG d   1       3.849   0.650  -5.141  0.00  0.00     0.155 HD
BRANCH  14  16
ATOM     16  C   LIG d   1       3.832  -0.018  -7.092  0.00  0.00     0.035 A 
ATOM     17  C   LIG d   1       4.961   0.128  -7.888  0.00  0.00    -0.022 A 
ATOM     18  C   LIG d   1       4.827   0.245  -9.259  0.00  0.00     0.043 A 
ATOM     19  H   LIG d   1       5.942   0.150  -7.436  0.00  0.00     0.065 H 
ATOM     20  C   LIG d   1       3.571   0.217  -9.838  0.00  0.00    -0.043 A 
ATOM     21 CL   LIG d   1       6.238   0.429 -10.255  0.00  0.00    -0.084 Cl
ATOM     22  C   LIG d   1       2.446   0.071  -9.047  0.00  0.00    -0.059 A 
ATOM     23  H   LIG d   1       3.469   0.309 -10.909  0.00  0.00     0.063 H 
ATOM     24  C   LIG d   1       2.573  -0.047  -7.677  0.00  0.00    -0.040 A 
ATOM     25  H   LIG d   1       1.466   0.049  -9.502  0.00  0.00     0.062 H 
ATOM     26  H   LIG d   1       1.693  -0.159  -7.060  0.00  0.00     0.064 H 
ENDBRANCH  14  16
ENDBRANCH   2  12
BRANCH   1  27
ATOM     27  C   LIG d   1       6.741  -0.843  -3.090  0.00  0.00     0.201 A 
ATOM     28  C   LIG d   1       7.360  -0.294  -4.351  0.00  0.00     0.025 A 
ATOM     29  C   LIG d   1       7.913  -1.388  -5.024  0.00  0.00     0.067 A 
ATOM     30  C   LIG d   1       7.455   0.971  -4.883  0.00  0.00    -0.053 A 
ATOM     31  C   LIG d   1       8.564  -1.186  -6.243  0.00  0.00    -0.047 A 
ATOM     32  C   LIG d   1       7.657  -2.597  -4.221  0.00  0.00     0.342 A 
ATOM     33  C   LIG d   1       8.654   0.091  -6.768  0.00  0.00    -0.061 A 
ATOM     34  H   LIG d   1       8.996  -2.022  -6.773  0.00  0.00     0.063 H 
ATOM     35  C   LIG d   1       8.102   1.165  -6.093  0.00  0.00    -0.061 A 
ATOM     36  H   LIG d   1       9.157   0.249  -7.710  0.00  0.00     0.062 H 
ATOM     37  H   LIG d   1       8.175   2.159  -6.510  0.00  0.00     0.062 H 
ATOM     38  O   LIG d   1       6.980  -2.278  -3.105  0.00  0.00    -0.435 OA
ATOM     39  O   LIG d   1       8.008  -3.720  -4.522  0.00  0.00    -0.245 OA
ATOM     40  H   LIG d   1       7.026   1.811  -4.359  0.00  0.00     0.062 H 
ATOM     41  H   LIG d   1       7.213  -0.394  -2.216  0.00  0.00     0.101 H 
ENDBRANCH   1  27
TORSDOF 3
ENDMDL
MODEL 2
REMARK VINA RESULT:      -6.9      3.214      6.143
REMARK  3 active torsions:
REMARK  status: ('A' for Active; 'I' for Inactive)
REMARK    1  A    between atoms: C_7  and  N_12 
REMARK    2  A    between atoms: C_13  and  C_19 
REMARK       I    between atoms: C_19  and  N_21 
REMARK    3  A    between atoms: N_21  and  C_22 
ROOT
ATOM      1  N   LIG d   1       7.320   0.244  -9.257  0.00  0.00    -0.251 N 
ATOM      2  C   LIG d   1       7.455  -0.746  -8.182  0.00  0.00     0.107 C 
ATOM      3  H   LIG d   1       7.288  -1.750  -8.571  0.00  0.00     0.060 H 
ATOM      4  C   LIG d   1       8.907  -0.604  -7.673  0.00  0.00    -0.017 C 
ATOM      5  C   LIG d   1       9.232   0.860  -8.051  0.00  0.00     0.026 C 
ATOM      6  C   LIG d   1       8.301   1.161  -9.204  0.00  0.00     0.219 C 
ATOM      7  O   LIG d   1       8.422   2.095  -9.969  0.00  0.00    -0.276 OA
ATOM      8  H   LIG d   1       8.958  -0.749  -6.593  0.00  0.00     0.029 H 
ATOM      9  H   LIG d   1       9.572  -1.297  -8.190  0.00  0.00     0.029 H 
ATOM     10  H   LIG d   1      10.272   0.951  -8.366  0.00  0.00     0.036 H 
ATOM     11  H   LIG d   1       9.029   1.526  -7.212  0.00  0.00     0.036 H 
ENDROOT
BRANCH   2  12
ATOM     12  C   LIG d   1       6.482  -0.447  -7.073  0.00  0.00     0.238 C 
ATOM     13  O   LIG d   1       6.537   0.613  -6.486  0.00  0.00    -0.273 OA
ATOM     14  N   LIG d   1       5.548  -1.357  -6.732  0.00  0.00    -0.284 N 
ATOM     15  H   LIG d   1       5.545  -2.230  -7.155  0.00  0.00     0.155 HD
BRANCH  14  16
ATOM     16  C   LIG d   1       4.582  -1.043  -5.769  0.00  0.00     0.035 A 
ATOM     17  C   LIG d   1       4.605  -1.672  -4.531  0.00  0.00    -0.022 A 
ATOM     18  C   LIG d   1       3.646  -1.364  -3.584  0.00  0.00     0.043 A 
ATOM     19  H   LIG d   1       5.371  -2.401  -4.309  0.00  0.00     0.065 H 
ATOM     20  C   LIG d   1       2.665  -0.431  -3.869  0.00  0.00    -0.043 A 
ATOM     21 CL   LIG d   1       3.673  -2.150  -2.035  0.00  0.00    -0.084 Cl
ATOM     22  C   LIG d   1       2.641   0.197  -5.101  0.00  0.00    -0.059 A 
ATOM     23  H   LIG d   1       1.917  -0.193  -3.127  0.00  0.00     0.063 H 
ATOM     24  C   LIG d   1       3.597  -0.108  -6.051  0.00  0.00    -0.040 A 
ATOM     25  H   LIG d   1       1.874   0.925  -5.321  0.00  0.00     0.062 H 
ATOM     26  H   LIG d   1       3.576   0.383  -7.014  0.00  0.00     0.064 H 
ENDBRANCH  14  16
ENDBRANCH   2  12
BRANCH   1  27
ATOM     27  C   LIG d   1       6.251   0.234 -10.260  0.00  0.00     0.201 A 
ATOM     28  C   LIG d   1       5.066   1.019  -9.759  0.00  0.00     0.025 A 
ATOM     29  C   LIG d   1       3.995   0.121  -9.706  0.00  0.00     0.067 A 
ATOM     30  C   LIG d   1       4.890   2.333  -9.389  0.00  0.00    -0.053 A 
ATOM     31  C   LIG d   1       2.745   0.568  -9.273  0.00  0.00    -0.047 A 
ATOM     32  C   LIG d   1       4.480  -1.196 -10.158  0.00  0.00     0.342 A 
ATOM     33  C   LIG d   1       2.581   1.890  -8.904  0.00  0.00    -0.061 A 
ATOM     34  H   LIG d   1       1.910  -0.116  -9.228  0.00  0.00     0.063 H 
ATOM     35  C   LIG d   1       3.648   2.770  -8.959  0.00  0.00    -0.061 A 
ATOM     36  H   LIG d   1       1.615   2.238  -8.569  0.00  0.00     0.062 H 
ATOM     37  H   LIG d   1       3.511   3.801  -8.668  0.00  0.00     0.062 H 
ATOM     38  O   LIG d   1       5.784  -1.125 -10.477  0.00  0.00    -0.435 OA
ATOM     39  O   LIG d   1       3.800  -2.199 -10.234  0.00  0.00    -0.245 OA
ATOM     40  H   LIG d   1       5.721   3.022  -9.432  0.00  0.00     0.062 H 
ATOM     41  H   LIG d   1       6.613   0.659 -11.196  0.00  0.00     0.101 H 
ENDBRANCH   1  27
TORSDOF 3
ENDMDL
MODEL 3
REMARK VINA RESULT:      -6.7      1.884      2.481
REMARK  3 active torsions:
REMARK  status: ('A' for Active; 'I' for Inactive)
REMARK    1  A    between atoms: C_7  and  N_12 
REMARK    2  A    between atoms: C_13  and  C_19 
REMARK       I    between atoms: C_19  and  N_21 
REMARK    3  A    between atoms: N_21  and  C_22 
ROOT
ATOM      1  N   LIG d   1       4.198  -0.703  -3.425  0.00  0.00    -0.251 N 
ATOM      2  C   LIG d   1       3.245  -0.535  -4.529  0.00  0.00     0.107 C 
ATOM      3  H   LIG d   1       2.543  -1.368  -4.551  0.00  0.00     0.060 H 
ATOM      4  C   LIG d   1       2.501   0.787  -4.233  0.00  0.00    -0.017 C 
ATOM      5  C   LIG d   1       3.537   1.545  -3.370  0.00  0.00     0.026 C 
ATOM      6  C   LIG d   1       4.385   0.451  -2.761  0.00  0.00     0.219 C 
ATOM      7  O   LIG d   1       5.126   0.594  -1.811  0.00  0.00    -0.276 OA
ATOM      8  H   LIG d   1       2.289   1.329  -5.155  0.00  0.00     0.029 H 
ATOM      9  H   LIG d   1       1.585   0.601  -3.671  0.00  0.00     0.029 H 
ATOM     10  H   LIG d   1       3.036   2.119  -2.590  0.00  0.00     0.036 H 
ATOM     11  H   LIG d   1       4.147   2.200  -3.992  0.00  0.00     0.036 H 
ENDROOT
BRANCH   2  12
ATOM     12  C   LIG d   1       3.979  -0.437  -5.841  0.00  0.00     0.238 C 
ATOM     13  O   LIG d   1       4.924   0.316  -5.954  0.00  0.00    -0.273 OA
ATOM     14  N   LIG d   1       3.587  -1.187  -6.890  0.00  0.00    -0.284 N 
ATOM     15  H   LIG d   1       2.793  -1.739  -6.821  0.00  0.00     0.155 HD
BRANCH  14  16
ATOM     16  C   LIG d   1       4.326  -1.170  -8.078  0.00  0.00     0.035 A 
ATOM     17  C   LIG d   1       3.916  -0.377  -9.141  0.00  0.00    -0.022 A 
ATOM     18  C   LIG d   1       4.645  -0.367 -10.316  0.00  0.00     0.043 A 
ATOM     19  H   LIG d   1       3.028   0.232  -9.050  0.00  0.00     0.065 H 
ATOM     20  C   LIG d   1       5.782  -1.147 -10.432  0.00  0.00    -0.043 A 
ATOM     21 CL   LIG d   1       4.132   0.624 -11.646  0.00  0.00    -0.084 Cl
ATOM     22  C   LIG d   1       6.193  -1.937  -9.374  0.00  0.00    -0.059 A 
ATOM     23  H   LIG d   1       6.350  -1.138 -11.351  0.00  0.00     0.063 H 
ATOM     24  C   LIG d   1       5.468  -1.951  -8.199  0.00  0.00    -0.040 A 
ATOM     25  H   LIG d   1       7.081  -2.545  -9.468  0.00  0.00     0.062 H 
ATOM     26  H   LIG d   1       5.790  -2.570  -7.373  0.00  0.00     0.064 H 
ENDBRANCH  14  16
ENDBRANCH   2  12
BRANCH   1  27
ATOM     27  C   LIG d   1       4.861  -1.966  -3.090  0.00  0.00     0.201 A 
ATOM     28  C   LIG d   1       6.165  -2.079  -3.839  0.00  0.00     0.025 A 
ATOM     29  C   LIG d   1       6.057  -3.219  -4.643  0.00  0.00     0.067 A 
ATOM     30  C   LIG d   1       7.315  -1.324  -3.854  0.00  0.00    -0.053 A 
ATOM     31  C   LIG d   1       7.128  -3.584  -5.462  0.00  0.00    -0.047 A 
ATOM     32  C   LIG d   1       4.728  -3.815  -4.416  0.00  0.00     0.342 A 
ATOM     33  C   LIG d   1       8.278  -2.817  -5.468  0.00  0.00    -0.061 A 
ATOM     34  H   LIG d   1       7.057  -4.462  -6.087  0.00  0.00     0.063 H 
ATOM     35  C   LIG d   1       8.373  -1.691  -4.670  0.00  0.00    -0.061 A 
ATOM     36  H   LIG d   1       9.107  -3.098  -6.101  0.00  0.00     0.062 H 
ATOM     37  H   LIG d   1       9.275  -1.097  -4.681  0.00  0.00     0.062 H 
ATOM     38  O   LIG d   1       4.041  -3.088  -3.519  0.00  0.00    -0.435 OA
ATOM     39  O   LIG d   1       4.314  -4.819  -4.959  0.00  0.00    -0.245 OA
ATOM     40  H   LIG d   1       7.392  -0.445  -3.232  0.00  0.00     0.062 H 
ATOM     41  H   LIG d   1       5.040  -2.021  -2.017  0.00  0.00     0.101 H 
ENDBRANCH   1  27
TORSDOF 3
ENDMDL
MODEL 4
REMARK VINA RESULT:      -6.7      2.832      5.176
REMARK  3 active torsions:
REMARK  status: ('A' for Active; 'I' for Inactive)
REMARK    1  A    between atoms: C_7  and  N_12 
REMARK    2  A    between atoms: C_13  and  C_19 
REMARK       I    between atoms: C_19  and  N_21 
REMARK    3  A    between atoms: N_21  and  C_22 
ROOT
ATOM      1  N   LIG d   1       4.553  -1.048  -4.141  0.00  0.00    -0.251 N 
ATOM      2  C   LIG d   1       4.914   0.255  -3.571  0.00  0.00     0.107 C 
ATOM      3  H   LIG d   1       4.431   1.057  -4.129  0.00  0.00     0.060 H 
ATOM      4  C   LIG d   1       4.395   0.226  -2.116  0.00  0.00    -0.017 C 
ATOM      5  C   LIG d   1       4.383  -1.291  -1.817  0.00  0.00     0.026 C 
ATOM      6  C   LIG d   1       4.255  -1.937  -3.178  0.00  0.00     0.219 C 
ATOM      7  O   LIG d   1       3.932  -3.090  -3.373  0.00  0.00    -0.276 OA
ATOM      8  H   LIG d   1       5.080   0.750  -1.448  0.00  0.00     0.029 H 
ATOM      9  H   LIG d   1       3.391   0.645  -2.051  0.00  0.00     0.029 H 
ATOM     10  H   LIG d   1       3.528  -1.549  -1.190  0.00  0.00     0.036 H 
ATOM     11  H   LIG d   1       5.312  -1.595  -1.335  0.00  0.00     0.036 H 
ENDROOT
BRANCH   2  12
ATOM     12  C   LIG d   1       6.409   0.435  -3.588  0.00  0.00     0.238 C 
ATOM     13  O   LIG d   1       7.128  -0.402  -3.085  0.00  0.00    -0.273 OA
ATOM     14  N   LIG d   1       6.951   1.527  -4.165  0.00  0.00    -0.284 N 
ATOM     15  H   LIG d   1       6.376   2.228  -4.509  0.00  0.00     0.155 HD
BRANCH  14  16
ATOM     16  C   LIG d   1       8.340   1.649  -4.268  0.00  0.00     0.035 A 
ATOM     17  C   LIG d   1       9.020   2.559  -3.469  0.00  0.00    -0.022 A 
ATOM     18  C   LIG d   1      10.393   2.681  -3.577  0.00  0.00     0.043 A 
ATOM     19  H   LIG d   1       8.476   3.171  -2.764  0.00  0.00     0.065 H 
ATOM     20  C   LIG d   1      11.089   1.897  -4.481  0.00  0.00    -0.043 A 
ATOM     21 CL   LIG d   1      11.244   3.820  -2.580  0.00  0.00    -0.084 Cl
ATOM     22  C   LIG d   1      10.414   0.990  -5.277  0.00  0.00    -0.059 A 
ATOM     23  H   LIG d   1      12.162   1.995  -4.564  0.00  0.00     0.063 H 
ATOM     24  C   LIG d   1       9.043   0.864  -5.172  0.00  0.00    -0.040 A 
ATOM     25  H   LIG d   1      10.961   0.380  -5.981  0.00  0.00     0.062 H 
ATOM     26  H   LIG d   1       8.517   0.156  -5.796  0.00  0.00     0.064 H 
ENDBRANCH  14  16
ENDBRANCH   2  12
BRANCH   1  27
ATOM     27  C   LIG d   1       4.521  -1.343  -5.577  0.00  0.00     0.201 A 
ATOM     28  C   LIG d   1       5.854  -1.890  -6.021  0.00  0.00     0.025 A 
ATOM     29  C   LIG d   1       6.343  -0.998  -6.981  0.00  0.00     0.067 A 
ATOM     30  C   LIG d   1       6.583  -3.003  -5.671  0.00  0.00    -0.053 A 
ATOM     31  C   LIG d   1       7.579  -1.246  -7.582  0.00  0.00    -0.047 A 
ATOM     32  C   LIG d   1       5.356   0.084  -7.145  0.00  0.00     0.342 A 
ATOM     33  C   LIG d   1       8.302  -2.369  -7.223  0.00  0.00    -0.061 A 
ATOM     34  H   LIG d   1       7.967  -0.565  -8.325  0.00  0.00     0.063 H 
ATOM     35  C   LIG d   1       7.808  -3.244  -6.271  0.00  0.00    -0.061 A 
ATOM     36  H   LIG d   1       9.258  -2.563  -7.687  0.00  0.00     0.062 H 
ATOM     37  H   LIG d   1       8.380  -4.118  -5.995  0.00  0.00     0.062 H 
ATOM     38  O   LIG d   1       4.306  -0.119  -6.332  0.00  0.00    -0.435 OA
ATOM     39  O   LIG d   1       5.473   1.024  -7.906  0.00  0.00    -0.245 OA
ATOM     40  H   LIG d   1       6.200  -3.688  -4.929  0.00  0.00     0.062 H 
ATOM     41  H   LIG d   1       3.731  -2.061  -5.794  0.00  0.00     0.101 H 
ENDBRANCH   1  27
TORSDOF 3
ENDMDL
MODEL 5
REMARK VINA RESULT:      -6.6      1.965      2.789
REMARK  3 active torsions:
REMARK  status: ('A' for Active; 'I' for Inactive)
REMARK    1  A    between atoms: C_7  and  N_12 
REMARK    2  A    between atoms: C_13  and  C_19 
REMARK       I    between atoms: C_19  and  N_21 
REMARK    3  A    between atoms: N_21  and  C_22 
ROOT
ATOM      1  N   LIG d   1       5.094  -2.080  -4.113  0.00  0.00    -0.251 N 
ATOM      2  C   LIG d   1       3.859  -1.335  -4.384  0.00  0.00     0.107 C 
ATOM      3  H   LIG d   1       3.026  -2.025  -4.525  0.00  0.00     0.060 H 
ATOM      4  C   LIG d   1       3.623  -0.460  -3.133  0.00  0.00    -0.017 C 
ATOM      5  C   LIG d   1       5.060  -0.308  -2.580  0.00  0.00     0.026 C 
ATOM      6  C   LIG d   1       5.791  -1.522  -3.108  0.00  0.00     0.219 C 
ATOM      7  O   LIG d   1       6.852  -1.933  -2.687  0.00  0.00    -0.276 OA
ATOM      8  H   LIG d   1       3.207   0.510  -3.409  0.00  0.00     0.029 H 
ATOM      9  H   LIG d   1       2.980  -0.969  -2.415  0.00  0.00     0.029 H 
ATOM     10  H   LIG d   1       5.051  -0.313  -1.490  0.00  0.00     0.036 H 
ATOM     11  H   LIG d   1       5.520   0.607  -2.953  0.00  0.00     0.036 H 
ENDROOT
BRANCH   2  12
ATOM     12  C   LIG d   1       4.030  -0.468  -5.603  0.00  0.00     0.238 C 
ATOM     13  O   LIG d   1       4.974   0.289  -5.682  0.00  0.00    -0.273 OA
ATOM     14  N   LIG d   1       3.134  -0.534  -6.609  0.00  0.00    -0.284 N 
ATOM     15  H   LIG d   1       2.344  -1.089  -6.518  0.00  0.00     0.155 HD
BRANCH  14  16
ATOM     16  C   LIG d   1       3.343   0.198  -7.782  0.00  0.00     0.035 A 
ATOM     17  C   LIG d   1       4.107  -0.339  -8.810  0.00  0.00    -0.022 A 
ATOM     18  C   LIG d   1       4.317   0.389  -9.966  0.00  0.00     0.043 A 
ATOM     19  H   LIG d   1       4.537  -1.325  -8.705  0.00  0.00     0.065 H 
ATOM     20  C   LIG d   1       3.768   1.651 -10.100  0.00  0.00    -0.043 A 
ATOM     21 CL   LIG d   1       5.274  -0.282 -11.251  0.00  0.00    -0.084 Cl
ATOM     22  C   LIG d   1       3.006   2.188  -9.078  0.00  0.00    -0.059 A 
ATOM     23  H   LIG d   1       3.934   2.218 -11.004  0.00  0.00     0.063 H 
ATOM     24  C   LIG d   1       2.793   1.465  -7.921  0.00  0.00    -0.040 A 
ATOM     25  H   LIG d   1       2.578   3.174  -9.185  0.00  0.00     0.062 H 
ATOM     26  H   LIG d   1       2.199   1.886  -7.122  0.00  0.00     0.064 H 
ENDBRANCH  14  16
ENDBRANCH   2  12
BRANCH   1  27
ATOM     27  C   LIG d   1       5.514  -3.279  -4.845  0.00  0.00     0.201 A 
ATOM     28  C   LIG d   1       6.291  -2.887  -6.076  0.00  0.00     0.025 A 
ATOM     29  C   LIG d   1       5.575  -3.389  -7.167  0.00  0.00     0.067 A 
ATOM     30  C   LIG d   1       7.462  -2.192  -6.272  0.00  0.00    -0.053 A 
ATOM     31  C   LIG d   1       6.059  -3.179  -8.460  0.00  0.00    -0.047 A 
ATOM     32  C   LIG d   1       4.379  -4.079  -6.652  0.00  0.00     0.342 A 
ATOM     33  C   LIG d   1       7.237  -2.479  -8.645  0.00  0.00    -0.061 A 
ATOM     34  H   LIG d   1       5.516  -3.561  -9.311  0.00  0.00     0.063 H 
ATOM     35  C   LIG d   1       7.936  -1.986  -7.558  0.00  0.00    -0.061 A 
ATOM     36  H   LIG d   1       7.614  -2.316  -9.644  0.00  0.00     0.062 H 
ATOM     37  H   LIG d   1       8.856  -1.440  -7.711  0.00  0.00     0.062 H 
ATOM     38  O   LIG d   1       4.348  -4.013  -5.310  0.00  0.00    -0.435 OA
ATOM     39  O   LIG d   1       3.543  -4.630  -7.339  0.00  0.00    -0.245 OA
ATOM     40  H   LIG d   1       8.010  -1.807  -5.426  0.00  0.00     0.062 H 
ATOM     41  H   LIG d   1       6.125  -3.914  -4.203  0.00  0.00     0.101 H 
ENDBRANCH   1  27
TORSDOF 3
ENDMDL
MODEL 6
REMARK VINA RESULT:      -6.6      1.719      4.221
REMARK  3 active torsions:
REMARK  status: ('A' for Active; 'I' for Inactive)
REMARK    1  A    between atoms: C_7  and  N_12 
REMARK    2  A    between atoms: C_13  and  C_19 
REMARK       I    between atoms: C_19  and  N_21 
REMARK    3  A    between atoms: N_21  and  C_22 
ROOT
ATOM      1  N   LIG d   1       7.599  -1.810  -4.931  0.00  0.00    -0.251 N 
ATOM      2  C   LIG d   1       7.907  -1.044  -6.145  0.00  0.00     0.107 C 
ATOM      3  H   LIG d   1       8.580  -0.219  -5.909  0.00  0.00     0.060 H 
ATOM      4  C   LIG d   1       8.599  -2.044  -7.098  0.00  0.00    -0.017 C 
ATOM      5  C   LIG d   1       8.033  -3.395  -6.602  0.00  0.00     0.026 C 
ATOM      6  C   LIG d   1       7.656  -3.133  -5.161  0.00  0.00     0.219 C 
ATOM      7  O   LIG d   1       7.438  -3.992  -4.332  0.00  0.00    -0.276 OA
ATOM      8  H   LIG d   1       8.312  -1.857  -8.133  0.00  0.00     0.029 H 
ATOM      9  H   LIG d   1       9.683  -2.008  -6.982  0.00  0.00     0.029 H 
ATOM     10  H   LIG d   1       8.794  -4.173  -6.662  0.00  0.00     0.036 H 
ATOM     11  H   LIG d   1       7.154  -3.678  -7.181  0.00  0.00     0.036 H 
ENDROOT
BRANCH   2  12
ATOM     12  C   LIG d   1       6.639  -0.522  -6.768  0.00  0.00     0.238 C 
ATOM     13  O   LIG d   1       6.444   0.673  -6.836  0.00  0.00    -0.273 OA
ATOM     14  N   LIG d   1       5.721  -1.383  -7.251  0.00  0.00    -0.284 N 
ATOM     15  H   LIG d   1       5.846  -2.337  -7.138  0.00  0.00     0.155 HD
BRANCH  14  16
ATOM     16  C   LIG d   1       4.590  -0.899  -7.917  0.00  0.00     0.035 A 
ATOM     17  C   LIG d   1       4.596  -0.779  -9.301  0.00  0.00    -0.022 A 
ATOM     18  C   LIG d   1       3.478  -0.295  -9.955  0.00  0.00     0.043 A 
ATOM     19  H   LIG d   1       5.473  -1.063  -9.864  0.00  0.00     0.065 H 
ATOM     20  C   LIG d   1       2.356   0.069  -9.233  0.00  0.00    -0.043 A 
ATOM     21 CL   LIG d   1       3.485  -0.144 -11.686  0.00  0.00    -0.084 Cl
ATOM     22  C   LIG d   1       2.348  -0.050  -7.856  0.00  0.00    -0.059 A 
ATOM     23  H   LIG d   1       1.484   0.447  -9.747  0.00  0.00     0.063 H 
ATOM     24  C   LIG d   1       3.462  -0.533  -7.197  0.00  0.00    -0.040 A 
ATOM     25  H   LIG d   1       1.470   0.235  -7.295  0.00  0.00     0.062 H 
ATOM     26  H   LIG d   1       3.454  -0.624  -6.120  0.00  0.00     0.064 H 
ENDBRANCH  14  16
ENDBRANCH   2  12
BRANCH   1  27
ATOM     27  C   LIG d   1       7.269  -1.209  -3.636  0.00  0.00     0.201 A 
ATOM     28  C   LIG d   1       5.774  -1.190  -3.440  0.00  0.00     0.025 A 
ATOM     29  C   LIG d   1       5.414   0.155  -3.307  0.00  0.00     0.067 A 
ATOM     30  C   LIG d   1       4.817  -2.176  -3.378  0.00  0.00    -0.053 A 
ATOM     31  C   LIG d   1       4.072   0.489  -3.110  0.00  0.00    -0.047 A 
ATOM     32  C   LIG d   1       6.637   0.969  -3.414  0.00  0.00     0.342 A 
ATOM     33  C   LIG d   1       3.119  -0.511  -3.049  0.00  0.00    -0.061 A 
ATOM     34  H   LIG d   1       3.781   1.523  -3.006  0.00  0.00     0.063 H 
ATOM     35  C   LIG d   1       3.488  -1.838  -3.184  0.00  0.00    -0.061 A 
ATOM     36  H   LIG d   1       2.081  -0.255  -2.897  0.00  0.00     0.062 H 
ATOM     37  H   LIG d   1       2.737  -2.613  -3.136  0.00  0.00     0.062 H 
ATOM     38  O   LIG d   1       7.706   0.177  -3.604  0.00  0.00    -0.435 OA
ATOM     39  O   LIG d   1       6.676   2.181  -3.339  0.00  0.00    -0.245 OA
ATOM     40  H   LIG d   1       5.102  -3.213  -3.482  0.00  0.00     0.062 H 
ATOM     41  H   LIG d   1       7.745  -1.770  -2.831  0.00  0.00     0.101 H 
ENDBRANCH   1  27
TORSDOF 3
ENDMDL
MODEL 7
REMARK VINA RESULT:      -6.3      2.503      5.413
REMARK  3 active torsions:
REMARK  status: ('A' for Active; 'I' for Inactive)
REMARK    1  A    between atoms: C_7  and  N_12 
REMARK    2  A    between atoms: C_13  and  C_19 
REMARK       I    between atoms: C_19  and  N_21 
REMARK    3  A    between atoms: N_21  and  C_22 
ROOT
ATOM      1  N   LIG d   1       4.575  -0.792  -6.643  0.00  0.00    -0.251 N 
ATOM      2  C   LIG d   1       5.861  -0.805  -7.350  0.00  0.00     0.107 C 
ATOM      3  H   LIG d   1       6.279  -1.811  -7.354  0.00  0.00     0.060 H 
ATOM      4  C   LIG d   1       5.542  -0.351  -8.792  0.00  0.00    -0.017 C 
ATOM      5  C   LIG d   1       4.257   0.483  -8.583  0.00  0.00     0.026 C 
ATOM      6  C   LIG d   1       3.658  -0.071  -7.310  0.00  0.00     0.219 C 
ATOM      7  O   LIG d   1       2.515   0.109  -6.944  0.00  0.00    -0.276 OA
ATOM      8  H   LIG d   1       6.347   0.265  -9.194  0.00  0.00     0.029 H 
ATOM      9  H   LIG d   1       5.350  -1.209  -9.438  0.00  0.00     0.029 H 
ATOM     10  H   LIG d   1       3.572   0.345  -9.420  0.00  0.00     0.036 H 
ATOM     11  H   LIG d   1       4.501   1.539  -8.463  0.00  0.00     0.036 H 
ENDROOT
BRANCH   2  12
ATOM     12  C   LIG d   1       6.822   0.157  -6.702  0.00  0.00     0.238 C 
ATOM     13  O   LIG d   1       6.801   1.332  -7.001  0.00  0.00    -0.273 OA
ATOM     14  N   LIG d   1       7.708  -0.289  -5.787  0.00  0.00    -0.284 N 
ATOM     15  H   LIG d   1       7.771  -1.237  -5.596  0.00  0.00     0.155 HD
BRANCH  14  16
ATOM     16  C   LIG d   1       8.534   0.617  -5.113  0.00  0.00     0.035 A 
ATOM     17  C   LIG d   1       9.905   0.603  -5.332  0.00  0.00    -0.022 A 
ATOM     18  C   LIG d   1      10.720   1.495  -4.661  0.00  0.00     0.043 A 
ATOM     19  H   LIG d   1      10.334  -0.105  -6.027  0.00  0.00     0.065 H 
ATOM     20  C   LIG d   1      10.170   2.401  -3.771  0.00  0.00    -0.043 A 
ATOM     21 CL   LIG d   1      12.435   1.478  -4.933  0.00  0.00    -0.084 Cl
ATOM     22  C   LIG d   1       8.804   2.417  -3.552  0.00  0.00    -0.059 A 
ATOM     23  H   LIG d   1      10.809   3.097  -3.247  0.00  0.00     0.063 H 
ATOM     24  C   LIG d   1       7.986   1.528  -4.220  0.00  0.00    -0.040 A 
ATOM     25  H   LIG d   1       8.378   3.125  -2.856  0.00  0.00     0.062 H 
ATOM     26  H   LIG d   1       6.920   1.540  -4.047  0.00  0.00     0.064 H 
ENDBRANCH  14  16
ENDBRANCH   2  12
BRANCH   1  27
ATOM     27  C   LIG d   1       4.324  -1.476  -5.372  0.00  0.00     0.201 A 
ATOM     28  C   LIG d   1       4.199  -0.468  -4.258  0.00  0.00     0.025 A 
ATOM     29  C   LIG d   1       5.221  -0.761  -3.349  0.00  0.00     0.067 A 
ATOM     30  C   LIG d   1       3.336   0.577  -4.021  0.00  0.00    -0.053 A 
ATOM     31  C   LIG d   1       5.357   0.017  -2.197  0.00  0.00    -0.047 A 
ATOM     32  C   LIG d   1       5.974  -1.918  -3.864  0.00  0.00     0.342 A 
ATOM     33  C   LIG d   1       4.483   1.064  -1.969  0.00  0.00    -0.061 A 
ATOM     34  H   LIG d   1       6.142  -0.199  -1.487  0.00  0.00     0.063 H 
ATOM     35  C   LIG d   1       3.477   1.345  -2.877  0.00  0.00    -0.061 A 
ATOM     36  H   LIG d   1       4.587   1.667  -1.079  0.00  0.00     0.062 H 
ATOM     37  H   LIG d   1       2.799   2.165  -2.692  0.00  0.00     0.062 H 
ATOM     38  O   LIG d   1       5.453  -2.328  -5.033  0.00  0.00    -0.435 OA
ATOM     39  O   LIG d   1       6.928  -2.429  -3.312  0.00  0.00    -0.245 OA
ATOM     40  H   LIG d   1       2.549   0.798  -4.727  0.00  0.00     0.062 H 
ATOM     41  H   LIG d   1       3.414  -2.071  -5.441  0.00  0.00     0.101 H 
ENDBRANCH   1  27
TORSDOF 3
ENDMDL
MODEL 8
REMARK VINA RESULT:      -6.1      3.881      6.133
REMARK  3 active torsions:
REMARK  status: ('A' for Active; 'I' for Inactive)
REMARK    1  A    between atoms: C_7  and  N_12 
REMARK    2  A    between atoms: C_13  and  C_19 
REMARK       I    between atoms: C_19  and  N_21 
REMARK    3  A    between atoms: N_21  and  C_22 
ROOT
ATOM      1  N   LIG d   1      10.723  -0.325  -5.750  0.00  0.00    -0.251 N 
ATOM      2  C   LIG d   1       9.545  -0.987  -6.322  0.00  0.00     0.107 C 
ATOM      3  H   LIG d   1       9.473  -0.775  -7.388  0.00  0.00     0.060 H 
ATOM      4  C   LIG d   1       9.768  -2.498  -6.089  0.00  0.00    -0.017 C 
ATOM      5  C   LIG d   1      10.705  -2.492  -4.859  0.00  0.00     0.026 C 
ATOM      6  C   LIG d   1      11.391  -1.146  -4.921  0.00  0.00     0.219 C 
ATOM      7  O   LIG d   1      12.396  -0.849  -4.310  0.00  0.00    -0.276 OA
ATOM      8  H   LIG d   1       8.828  -3.000  -5.861  0.00  0.00     0.029 H 
ATOM      9  H   LIG d   1      10.256  -2.957  -6.950  0.00  0.00     0.029 H 
ATOM     10  H   LIG d   1      11.437  -3.297  -4.934  0.00  0.00     0.036 H 
ATOM     11  H   LIG d   1      10.130  -2.586  -3.938  0.00  0.00     0.036 H 
ENDROOT
BRANCH   2  12
ATOM     12  C   LIG d   1       8.296  -0.530  -5.614  0.00  0.00     0.238 C 
ATOM     13  O   LIG d   1       7.385  -0.038  -6.246  0.00  0.00    -0.273 OA
ATOM     14  N   LIG d   1       8.190  -0.668  -4.277  0.00  0.00    -0.284 N 
ATOM     15  H   LIG d   1       8.943  -0.999  -3.763  0.00  0.00     0.155 HD
BRANCH  14  16
ATOM     16  C   LIG d   1       6.995  -0.334  -3.631  0.00  0.00     0.035 A 
ATOM     17  C   LIG d   1       6.095  -1.331  -3.277  0.00  0.00    -0.022 A 
ATOM     18  C   LIG d   1       4.911  -0.998  -2.644  0.00  0.00     0.043 A 
ATOM     19  H   LIG d   1       6.319  -2.365  -3.495  0.00  0.00     0.065 H 
ATOM     20  C   LIG d   1       4.624   0.327  -2.364  0.00  0.00    -0.043 A 
ATOM     21 CL   LIG d   1       3.785  -2.243  -2.200  0.00  0.00    -0.084 Cl
ATOM     22  C   LIG d   1       5.519   1.320  -2.717  0.00  0.00    -0.059 A 
ATOM     23  H   LIG d   1       3.698   0.584  -1.871  0.00  0.00     0.063 H 
ATOM     24  C   LIG d   1       6.702   0.993  -3.349  0.00  0.00    -0.040 A 
ATOM     25  H   LIG d   1       5.292   2.353  -2.497  0.00  0.00     0.062 H 
ATOM     26  H   LIG d   1       7.400   1.770  -3.624  0.00  0.00     0.064 H 
ENDBRANCH  14  16
ENDBRANCH   2  12
BRANCH   1  27
ATOM     27  C   LIG d   1      11.122   1.054  -6.046  0.00  0.00     0.201 A 
ATOM     28  C   LIG d   1      10.643   1.976  -4.952  0.00  0.00     0.025 A 
ATOM     29  C   LIG d   1       9.779   2.891  -5.562  0.00  0.00     0.067 A 
ATOM     30  C   LIG d   1      10.894   2.050  -3.601  0.00  0.00    -0.053 A 
ATOM     31  C   LIG d   1       9.173   3.883  -4.788  0.00  0.00    -0.047 A 
ATOM     32  C   LIG d   1       9.708   2.567  -6.998  0.00  0.00     0.342 A 
ATOM     33  C   LIG d   1       9.434   3.948  -3.431  0.00  0.00    -0.061 A 
ATOM     34  H   LIG d   1       8.505   4.596  -5.246  0.00  0.00     0.063 H 
ATOM     35  C   LIG d   1      10.289   3.035  -2.839  0.00  0.00    -0.061 A 
ATOM     36  H   LIG d   1       8.966   4.714  -2.830  0.00  0.00     0.062 H 
ATOM     37  H   LIG d   1      10.486   3.092  -1.778  0.00  0.00     0.062 H 
ATOM     38  O   LIG d   1      10.485   1.505  -7.272  0.00  0.00    -0.435 OA
ATOM     39  O   LIG d   1       9.045   3.172  -7.816  0.00  0.00    -0.245 OA
ATOM     40  H   LIG d   1      11.562   1.339  -3.136  0.00  0.00     0.062 H 
ATOM     41  H   LIG d   1      12.205   1.119  -6.141  0.00  0.00     0.101 H 
ENDBRANCH   1  27
TORSDOF 3
ENDMDL
MODEL 9
REMARK VINA RESULT:      -6.0      3.229      5.519
REMARK  3 active torsions:
REMARK  status: ('A' for Active; 'I' for Inactive)
REMARK    1  A    between atoms: C_7  and  N_12 
REMARK    2  A    between atoms: C_13  and  C_19 
REMARK       I    between atoms: C_19  and  N_21 
REMARK    3  A    between atoms: N_21  and  C_22 
ROOT
ATOM      1  N   LIG d   1       9.455  -0.096  -6.521  0.00  0.00    -0.251 N 
ATOM      2  C   LIG d   1       9.332   0.728  -5.312  0.00  0.00     0.107 C 
ATOM      3  H   LIG d   1      10.010   0.367  -4.539  0.00  0.00     0.060 H 
ATOM      4  C   LIG d   1       9.728   2.157  -5.747  0.00  0.00    -0.017 C 
ATOM      5  C   LIG d   1       9.404   2.128  -7.259  0.00  0.00     0.026 C 
ATOM      6  C   LIG d   1       9.492   0.664  -7.629  0.00  0.00     0.219 C 
ATOM      7  O   LIG d   1       9.582   0.237  -8.761  0.00  0.00    -0.276 OA
ATOM      8  H   LIG d   1       9.122   2.903  -5.232  0.00  0.00     0.029 H 
ATOM      9  H   LIG d   1      10.790   2.336  -5.579  0.00  0.00     0.029 H 
ATOM     10  H   LIG d   1      10.139   2.707  -7.818  0.00  0.00     0.036 H 
ATOM     11  H   LIG d   1       8.399   2.509  -7.444  0.00  0.00     0.036 H 
ENDROOT
BRANCH   2  12
ATOM     12  C   LIG d   1       7.912   0.710  -4.811  0.00  0.00     0.238 C 
ATOM     13  O   LIG d   1       7.001   1.000  -5.557  0.00  0.00    -0.273 OA
ATOM     14  N   LIG d   1       7.653   0.371  -3.532  0.00  0.00    -0.284 N 
ATOM     15  H   LIG d   1       8.384   0.204  -2.918  0.00  0.00     0.155 HD
BRANCH  14  16
ATOM     16  C   LIG d   1       6.330   0.259  -3.092  0.00  0.00     0.035 A 
ATOM     17  C   LIG d   1       5.743  -0.993  -2.963  0.00  0.00    -0.022 A 
ATOM     18  C   LIG d   1       4.434  -1.100  -2.533  0.00  0.00     0.043 A 
ATOM     19  H   LIG d   1       6.310  -1.882  -3.199  0.00  0.00     0.065 H 
ATOM     20  C   LIG d   1       3.708   0.039  -2.232  0.00  0.00    -0.043 A 
ATOM     21 CL   LIG d   1       3.699  -2.666  -2.373  0.00  0.00    -0.084 Cl
ATOM     22  C   LIG d   1       4.290   1.287  -2.359  0.00  0.00    -0.059 A 
ATOM     23  H   LIG d   1       2.685  -0.048  -1.897  0.00  0.00     0.063 H 
ATOM     24  C   LIG d   1       5.598   1.399  -2.788  0.00  0.00    -0.040 A 
ATOM     25  H   LIG d   1       3.721   2.174  -2.123  0.00  0.00     0.062 H 
ATOM     26  H   LIG d   1       6.052   2.375  -2.888  0.00  0.00     0.064 H 
ENDBRANCH  14  16
ENDBRANCH   2  12
BRANCH   1  27
ATOM     27  C   LIG d   1       9.527  -1.560  -6.519  0.00  0.00     0.201 A 
ATOM     28  C   LIG d   1       8.138  -2.146  -6.485  0.00  0.00     0.025 A 
ATOM     29  C   LIG d   1       8.060  -2.899  -5.309  0.00  0.00     0.067 A 
ATOM     30  C   LIG d   1       7.058  -2.065  -7.333  0.00  0.00    -0.053 A 
ATOM     31  C   LIG d   1       6.875  -3.571  -5.003  0.00  0.00    -0.047 A 
ATOM     32  C   LIG d   1       9.356  -2.799  -4.614  0.00  0.00     0.342 A 
ATOM     33  C   LIG d   1       5.796  -3.483  -5.863  0.00  0.00    -0.061 A 
ATOM     34  H   LIG d   1       6.801  -4.156  -4.098  0.00  0.00     0.063 H 
ATOM     35  C   LIG d   1       5.884  -2.733  -7.022  0.00  0.00    -0.061 A 
ATOM     36  H   LIG d   1       4.878  -4.001  -5.628  0.00  0.00     0.062 H 
ATOM     37  H   LIG d   1       5.037  -2.669  -7.689  0.00  0.00     0.062 H 
ATOM     38  O   LIG d   1      10.200  -2.024  -5.317  0.00  0.00    -0.435 OA
ATOM     39  O   LIG d   1       9.624  -3.339  -3.560  0.00  0.00    -0.245 OA
ATOM     40  H   LIG d   1       7.124  -1.482  -8.239  0.00  0.00     0.062 H 
ATOM     41  H   LIG d   1      10.059  -1.909  -7.404  0.00  0.00     0.101 H 
ENDBRANCH   1  27
TORSDOF 3
ENDMDL
