MODEL 1
REMARK VINA RESULT:      -7.8      0.000      0.000
REMARK  1 active torsions:
REMARK  status: ('A' for Active; 'I' for Inactive)
REMARK    1  A    between atoms: C_6  and  C_7 
ROOT
ATOM      1  C   LIG d   1       7.443  -3.239  -5.663  0.00  0.00    -0.052 A 
ATOM      2  C   LIG d   1       6.445  -2.446  -6.165  0.00  0.00    -0.037 A 
ATOM      3  C   LIG d   1       5.675  -1.721  -5.256  0.00  0.00     0.050 A 
ATOM      4  C   LIG d   1       5.920  -1.818  -3.853  0.00  0.00     0.004 A 
ATOM      5  C   LIG d   1       6.939  -2.634  -3.356  0.00  0.00    -0.045 A 
ATOM      6  C   LIG d   1       7.692  -3.344  -4.292  0.00  0.00    -0.021 A 
ATOM      7  C   LIG d   1       4.955  -0.959  -3.220  0.00  0.00    -0.013 A 
ATOM      8  C   LIG d   1       4.211  -0.426  -4.209  0.00  0.00     0.071 A 
ATOM      9  N   LIG d   1       4.639  -0.854  -5.435  0.00  0.00    -0.334 N 
ATOM     10  C   LIG d   1       4.013  -0.367  -6.674  0.00  0.00     0.064 C 
ATOM     11  C   LIG d   1       2.675   0.287  -6.308  0.00  0.00    -0.015 C 
ATOM     12  C   LIG d   1       3.078   0.536  -3.930  0.00  0.00     0.019 C 
ATOM     13  H   LIG d   1       2.189  -0.005  -3.604  0.00  0.00     0.092 H 
ATOM     14  C   LIG d   1       3.536   1.506  -2.854  0.00  0.00    -0.004 C 
ATOM     15  C   LIG d   1       4.368   0.924  -1.738  0.00  0.00    -0.043 C 
ATOM     16  C   LIG d   1       4.659  -0.569  -1.799  0.00  0.00    -0.025 C 
ATOM     17  H   LIG d   1       8.055  -3.805  -6.349  0.00  0.00     0.062 H 
ATOM     18  H   LIG d   1       6.264  -2.380  -7.228  0.00  0.00     0.064 H 
ATOM     19  H   LIG d   1       7.134  -2.712  -2.297  0.00  0.00     0.063 H 
ATOM     20  H   LIG d   1       4.664   0.367  -7.150  0.00  0.00     0.054 H 
ATOM     21  H   LIG d   1       3.841  -1.202  -7.353  0.00  0.00     0.054 H 
ATOM     22  H   LIG d   1       1.968  -0.488  -6.012  0.00  0.00     0.083 H 
ATOM     23  H   LIG d   1       2.284   0.811  -7.180  0.00  0.00     0.083 H 
ATOM     24  H   LIG d   1       2.651   1.964  -2.412  0.00  0.00     0.032 H 
ATOM     25  H   LIG d   1       4.117   2.293  -3.335  0.00  0.00     0.032 H 
ATOM     26  H   LIG d   1       3.859   1.129  -0.797  0.00  0.00     0.027 H 
ATOM     27  H   LIG d   1       5.322   1.451  -1.721  0.00  0.00     0.027 H 
ATOM     28  H   LIG d   1       3.791  -1.124  -1.442  0.00  0.00     0.031 H 
ATOM     29  H   LIG d   1       5.521  -0.798  -1.172  0.00  0.00     0.031 H 
ATOM     30  N   LIG d   1       2.831   1.252  -5.204  0.00  0.00     0.235 N 
ATOM     31  H   LIG d   1       1.975   1.812  -5.118  0.00  0.00     0.202 HD
ATOM     32  H   LIG d   1       3.626   1.871  -5.404  0.00  0.00     0.202 HD
ENDROOT
BRANCH   6  33
ATOM     33  C   LIG d   1       8.784  -4.223  -3.823  0.00  0.00    -0.044 C 
ATOM     34  C   LIG d   1       9.508  -4.063  -2.506  0.00  0.00    -0.027 C 
ATOM     35  C   LIG d   1      10.223  -5.415  -2.282  0.00  0.00    -0.046 C 
ATOM     36  H   LIG d   1       8.796  -3.872  -1.703  0.00  0.00     0.031 H 
ATOM     37  H   LIG d   1      10.236  -3.254  -2.568  0.00  0.00     0.031 H 
ATOM     38  C   LIG d   1      10.368  -5.935  -3.730  0.00  0.00    -0.034 C 
ATOM     39  H   LIG d   1       9.609  -6.088  -1.685  0.00  0.00     0.027 H 
ATOM     40  H   LIG d   1      11.200  -5.268  -1.820  0.00  0.00     0.027 H 
ATOM     41  C   LIG d   1       9.258  -5.258  -4.500  0.00  0.00    -0.080 C 
ATOM     42  H   LIG d   1      11.339  -5.654  -4.139  0.00  0.00     0.031 H 
ATOM     43  H   LIG d   1      10.244  -7.017  -3.759  0.00  0.00     0.031 H 
ATOM     44  H   LIG d   1       8.901  -5.575  -5.469  0.00  0.00     0.058 H 
ENDBRANCH   6  33
TORSDOF 1
ENDMDL
MODEL 2
REMARK VINA RESULT:      -7.5      4.076      5.579
REMARK  1 active torsions:
REMARK  status: ('A' for Active; 'I' for Inactive)
REMARK    1  A    between atoms: C_6  and  C_7 
ROOT
ATOM      1  C   LIG d   1       8.932   1.213  -5.377  0.00  0.00    -0.052 A 
ATOM      2  C   LIG d   1       8.275   0.022  -5.550  0.00  0.00    -0.037 A 
ATOM      3  C   LIG d   1       7.165  -0.227  -4.746  0.00  0.00     0.050 A 
ATOM      4  C   LIG d   1       6.741   0.727  -3.771  0.00  0.00     0.004 A 
ATOM      5  C   LIG d   1       7.423   1.935  -3.604  0.00  0.00    -0.045 A 
ATOM      6  C   LIG d   1       8.529   2.154  -4.427  0.00  0.00    -0.021 A 
ATOM      7  C   LIG d   1       5.590   0.154  -3.127  0.00  0.00    -0.013 A 
ATOM      8  C   LIG d   1       5.391  -1.050  -3.699  0.00  0.00     0.071 A 
ATOM      9  N   LIG d   1       6.311  -1.287  -4.682  0.00  0.00    -0.334 N 
ATOM     10  C   LIG d   1       6.265  -2.518  -5.487  0.00  0.00     0.064 C 
ATOM     11  C   LIG d   1       5.358  -3.524  -4.771  0.00  0.00    -0.015 C 
ATOM     12  C   LIG d   1       4.261  -1.961  -3.276  0.00  0.00     0.019 C 
ATOM     13  H   LIG d   1       4.516  -2.484  -2.353  0.00  0.00     0.092 H 
ATOM     14  C   LIG d   1       3.016  -1.112  -3.080  0.00  0.00    -0.004 C 
ATOM     15  C   LIG d   1       3.222   0.238  -2.439  0.00  0.00    -0.043 C 
ATOM     16  C   LIG d   1       4.645   0.609  -2.049  0.00  0.00    -0.025 C 
ATOM     17  H   LIG d   1       9.792   1.428  -5.993  0.00  0.00     0.062 H 
ATOM     18  H   LIG d   1       8.603  -0.695  -6.287  0.00  0.00     0.064 H 
ATOM     19  H   LIG d   1       7.109   2.664  -2.872  0.00  0.00     0.063 H 
ATOM     20  H   LIG d   1       5.862  -2.296  -6.475  0.00  0.00     0.054 H 
ATOM     21  H   LIG d   1       7.270  -2.931  -5.584  0.00  0.00     0.054 H 
ATOM     22  H   LIG d   1       5.861  -3.885  -3.874  0.00  0.00     0.083 H 
ATOM     23  H   LIG d   1       5.167  -4.368  -5.435  0.00  0.00     0.083 H 
ATOM     24  H   LIG d   1       2.315  -1.675  -2.464  0.00  0.00     0.032 H 
ATOM     25  H   LIG d   1       2.558  -0.957  -4.056  0.00  0.00     0.032 H 
ATOM     26  H   LIG d   1       2.606   0.281  -1.541  0.00  0.00     0.027 H 
ATOM     27  H   LIG d   1       2.854   0.997  -3.130  0.00  0.00     0.027 H 
ATOM     28  H   LIG d   1       4.904   0.123  -1.109  0.00  0.00     0.031 H 
ATOM     29  H   LIG d   1       4.721   1.690  -1.933  0.00  0.00     0.031 H 
ATOM     30  N   LIG d   1       4.069  -2.914  -4.394  0.00  0.00     0.235 N 
ATOM     31  H   LIG d   1       3.416  -3.651  -4.103  0.00  0.00     0.202 HD
ATOM     32  H   LIG d   1       3.681  -2.414  -5.203  0.00  0.00     0.202 HD
ENDROOT
BRANCH   6  33
ATOM     33  C   LIG d   1       9.288   3.415  -4.294  0.00  0.00    -0.044 C 
ATOM     34  C   LIG d   1       9.568   4.373  -5.428  0.00  0.00    -0.027 C 
ATOM     35  C   LIG d   1       9.990   5.689  -4.739  0.00  0.00    -0.046 C 
ATOM     36  H   LIG d   1       8.667   4.527  -6.024  0.00  0.00     0.031 H 
ATOM     37  H   LIG d   1      10.376   3.995  -6.055  0.00  0.00     0.031 H 
ATOM     38  C   LIG d   1      10.522   5.175  -3.382  0.00  0.00    -0.034 C 
ATOM     39  H   LIG d   1       9.135   6.349  -4.598  0.00  0.00     0.027 H 
ATOM     40  H   LIG d   1      10.778   6.190  -5.304  0.00  0.00     0.027 H 
ATOM     41  C   LIG d   1       9.815   3.858  -3.162  0.00  0.00    -0.080 C 
ATOM     42  H   LIG d   1      11.600   5.023  -3.430  0.00  0.00     0.031 H 
ATOM     43  H   LIG d   1      10.274   5.877  -2.587  0.00  0.00     0.031 H 
ATOM     44  H   LIG d   1       9.749   3.349  -2.211  0.00  0.00     0.058 H 
ENDBRANCH   6  33
TORSDOF 1
ENDMDL
MODEL 3
REMARK VINA RESULT:      -7.1      3.264      6.674
REMARK  1 active torsions:
REMARK  status: ('A' for Active; 'I' for Inactive)
REMARK    1  A    between atoms: C_6  and  C_7 
ROOT
ATOM      1  C   LIG d   1       4.953  -0.837  -9.176  0.00  0.00    -0.052 A 
ATOM      2  C   LIG d   1       5.795  -0.720  -8.100  0.00  0.00    -0.037 A 
ATOM      3  C   LIG d   1       5.220  -0.489  -6.851  0.00  0.00     0.050 A 
ATOM      4  C   LIG d   1       3.804  -0.372  -6.710  0.00  0.00     0.004 A 
ATOM      5  C   LIG d   1       2.960  -0.490  -7.817  0.00  0.00    -0.045 A 
ATOM      6  C   LIG d   1       3.566  -0.722  -9.052  0.00  0.00    -0.021 A 
ATOM      7  C   LIG d   1       3.562  -0.133  -5.313  0.00  0.00    -0.013 A 
ATOM      8  C   LIG d   1       4.768  -0.109  -4.714  0.00  0.00     0.071 A 
ATOM      9  N   LIG d   1       5.771  -0.339  -5.614  0.00  0.00    -0.334 N 
ATOM     10  C   LIG d   1       7.177  -0.412  -5.186  0.00  0.00     0.064 C 
ATOM     11  C   LIG d   1       7.281   0.190  -3.780  0.00  0.00    -0.015 C 
ATOM     12  C   LIG d   1       4.921   0.124  -3.227  0.00  0.00     0.019 C 
ATOM     13  H   LIG d   1       4.826   1.185  -2.995  0.00  0.00     0.092 H 
ATOM     14  C   LIG d   1       3.846  -0.676  -2.510  0.00  0.00    -0.004 C 
ATOM     15  C   LIG d   1       2.488  -0.712  -3.168  0.00  0.00    -0.043 C 
ATOM     16  C   LIG d   1       2.330   0.058  -4.471  0.00  0.00    -0.025 C 
ATOM     17  H   LIG d   1       5.377  -1.020 -10.152  0.00  0.00     0.062 H 
ATOM     18  H   LIG d   1       6.865  -0.807  -8.215  0.00  0.00     0.064 H 
ATOM     19  H   LIG d   1       1.888  -0.405  -7.721  0.00  0.00     0.063 H 
ATOM     20  H   LIG d   1       7.502  -1.452  -5.167  0.00  0.00     0.054 H 
ATOM     21  H   LIG d   1       7.801   0.156  -5.877  0.00  0.00     0.054 H 
ATOM     22  H   LIG d   1       7.140   1.269  -3.842  0.00  0.00     0.083 H 
ATOM     23  H   LIG d   1       8.271  -0.017  -3.376  0.00  0.00     0.083 H 
ATOM     24  H   LIG d   1       3.726  -0.262  -1.509  0.00  0.00     0.032 H 
ATOM     25  H   LIG d   1       4.201  -1.702  -2.410  0.00  0.00     0.032 H 
ATOM     26  H   LIG d   1       1.761  -0.321  -2.457  0.00  0.00     0.027 H 
ATOM     27  H   LIG d   1       2.237  -1.755  -3.361  0.00  0.00     0.027 H 
ATOM     28  H   LIG d   1       2.199   1.118  -4.255  0.00  0.00     0.031 H 
ATOM     29  H   LIG d   1       1.460  -0.315  -5.011  0.00  0.00     0.031 H 
ATOM     30  N   LIG d   1       6.267  -0.382  -2.874  0.00  0.00     0.235 N 
ATOM     31  H   LIG d   1       6.487  -0.115  -1.907  0.00  0.00     0.202 HD
ATOM     32  H   LIG d   1       6.278  -1.406  -2.956  0.00  0.00     0.202 HD
ENDROOT
BRANCH   6  33
ATOM     33  C   LIG d   1       2.721  -0.857 -10.257  0.00  0.00    -0.044 C 
ATOM     34  C   LIG d   1       3.233  -0.783 -11.677  0.00  0.00    -0.027 C 
ATOM     35  C   LIG d   1       2.102  -1.391 -12.536  0.00  0.00    -0.046 C 
ATOM     36  H   LIG d   1       4.147  -1.368 -11.781  0.00  0.00     0.031 H 
ATOM     37  H   LIG d   1       3.413   0.254 -11.963  0.00  0.00     0.031 H 
ATOM     38  C   LIG d   1       0.865  -1.148 -11.642  0.00  0.00    -0.034 C 
ATOM     39  H   LIG d   1       2.263  -2.456 -12.698  0.00  0.00     0.027 H 
ATOM     40  H   LIG d   1       2.007  -0.864 -13.486  0.00  0.00     0.027 H 
ATOM     41  C   LIG d   1       1.412  -1.059 -10.237  0.00  0.00    -0.080 C 
ATOM     42  H   LIG d   1       0.375  -0.214 -11.918  0.00  0.00     0.031 H 
ATOM     43  H   LIG d   1       0.166  -1.980 -11.726  0.00  0.00     0.031 H 
ATOM     44  H   LIG d   1       0.817  -1.149  -9.340  0.00  0.00     0.058 H 
ENDBRANCH   6  33
TORSDOF 1
ENDMDL
MODEL 4
REMARK VINA RESULT:      -7.0      3.603      6.030
REMARK  1 active torsions:
REMARK  status: ('A' for Active; 'I' for Inactive)
REMARK    1  A    between atoms: C_6  and  C_7 
ROOT
ATOM      1  C   LIG d   1       4.681  -2.681  -5.728  0.00  0.00    -0.052 A 
ATOM      2  C   LIG d   1       4.577  -3.042  -7.046  0.00  0.00    -0.037 A 
ATOM      3  C   LIG d   1       4.175  -2.064  -7.955  0.00  0.00     0.050 A 
ATOM      4  C   LIG d   1       3.876  -0.739  -7.516  0.00  0.00     0.004 A 
ATOM      5  C   LIG d   1       3.983  -0.388  -6.168  0.00  0.00    -0.045 A 
ATOM      6  C   LIG d   1       4.389  -1.389  -5.285  0.00  0.00    -0.021 A 
ATOM      7  C   LIG d   1       3.494  -0.006  -8.693  0.00  0.00    -0.013 A 
ATOM      8  C   LIG d   1       3.567  -0.872  -9.723  0.00  0.00     0.071 A 
ATOM      9  N   LIG d   1       3.991  -2.102  -9.305  0.00  0.00    -0.334 N 
ATOM     10  C   LIG d   1       4.197  -3.202 -10.260  0.00  0.00     0.064 C 
ATOM     11  C   LIG d   1       3.498  -2.833 -11.573  0.00  0.00    -0.015 C 
ATOM     12  C   LIG d   1       3.231  -0.462 -11.139  0.00  0.00     0.019 C 
ATOM     13  H   LIG d   1       2.150  -0.438 -11.285  0.00  0.00     0.092 H 
ATOM     14  C   LIG d   1       3.833   0.911 -11.390  0.00  0.00    -0.004 C 
ATOM     15  C   LIG d   1       3.758   1.893 -10.247  0.00  0.00    -0.043 C 
ATOM     16  C   LIG d   1       3.086   1.415  -8.967  0.00  0.00    -0.025 C 
ATOM     17  H   LIG d   1       4.995  -3.422  -5.008  0.00  0.00     0.062 H 
ATOM     18  H   LIG d   1       4.803  -4.047  -7.371  0.00  0.00     0.064 H 
ATOM     19  H   LIG d   1       3.761   0.612  -5.826  0.00  0.00     0.063 H 
ATOM     20  H   LIG d   1       5.264  -3.340 -10.437  0.00  0.00     0.054 H 
ATOM     21  H   LIG d   1       3.769  -4.122  -9.860  0.00  0.00     0.054 H 
ATOM     22  H   LIG d   1       2.418  -2.885 -11.430  0.00  0.00     0.083 H 
ATOM     23  H   LIG d   1       3.789  -3.545 -12.345  0.00  0.00     0.083 H 
ATOM     24  H   LIG d   1       3.325   1.352 -12.248  0.00  0.00     0.032 H 
ATOM     25  H   LIG d   1       4.881   0.775 -11.653  0.00  0.00     0.032 H 
ATOM     26  H   LIG d   1       3.225   2.776 -10.597  0.00  0.00     0.027 H 
ATOM     27  H   LIG d   1       4.775   2.196  -9.999  0.00  0.00     0.027 H 
ATOM     28  H   LIG d   1       2.004   1.466  -9.083  0.00  0.00     0.031 H 
ATOM     29  H   LIG d   1       3.394   2.049  -8.136  0.00  0.00     0.031 H 
ATOM     30  N   LIG d   1       3.865  -1.475 -12.015  0.00  0.00     0.235 N 
ATOM     31  H   LIG d   1       3.548  -1.334 -12.981  0.00  0.00     0.202 HD
ATOM     32  H   LIG d   1       4.886  -1.369 -11.973  0.00  0.00     0.202 HD
ENDROOT
BRANCH   6  33
ATOM     33  C   LIG d   1       4.520  -1.073  -3.847  0.00  0.00    -0.044 C 
ATOM     34  C   LIG d   1       4.949   0.268  -3.298  0.00  0.00    -0.027 C 
ATOM     35  C   LIG d   1       4.528   0.240  -1.812  0.00  0.00    -0.046 C 
ATOM     36  H   LIG d   1       4.436   1.074  -3.824  0.00  0.00     0.031 H 
ATOM     37  H   LIG d   1       6.030   0.387  -3.386  0.00  0.00     0.031 H 
ATOM     38  C   LIG d   1       4.509  -1.278  -1.522  0.00  0.00    -0.034 C 
ATOM     39  H   LIG d   1       3.538   0.675  -1.678  0.00  0.00     0.027 H 
ATOM     40  H   LIG d   1       5.264   0.748  -1.188  0.00  0.00     0.027 H 
ATOM     41  C   LIG d   1       4.276  -1.928  -2.865  0.00  0.00    -0.080 C 
ATOM     42  H   LIG d   1       5.465  -1.597  -1.107  0.00  0.00     0.031 H 
ATOM     43  H   LIG d   1       3.698  -1.523  -0.836  0.00  0.00     0.031 H 
ATOM     44  H   LIG d   1       3.954  -2.950  -3.005  0.00  0.00     0.058 H 
ENDBRANCH   6  33
TORSDOF 1
ENDMDL
MODEL 5
REMARK VINA RESULT:      -6.4      3.779      6.159
REMARK  1 active torsions:
REMARK  status: ('A' for Active; 'I' for Inactive)
REMARK    1  A    between atoms: C_6  and  C_7 
ROOT
ATOM      1  C   LIG d   1       6.654  -0.056  -5.781  0.00  0.00    -0.052 A 
ATOM      2  C   LIG d   1       6.964  -0.100  -7.115  0.00  0.00    -0.037 A 
ATOM      3  C   LIG d   1       5.935  -0.389  -8.010  0.00  0.00     0.050 A 
ATOM      4  C   LIG d   1       4.609  -0.639  -7.541  0.00  0.00     0.004 A 
ATOM      5  C   LIG d   1       4.309  -0.593  -6.177  0.00  0.00    -0.045 A 
ATOM      6  C   LIG d   1       5.361  -0.300  -5.309  0.00  0.00    -0.021 A 
ATOM      7  C   LIG d   1       3.816  -0.905  -8.711  0.00  0.00    -0.013 A 
ATOM      8  C   LIG d   1       4.651  -0.820  -9.766  0.00  0.00     0.071 A 
ATOM      9  N   LIG d   1       5.917  -0.494  -9.369  0.00  0.00    -0.334 N 
ATOM     10  C   LIG d   1       6.996  -0.293 -10.349  0.00  0.00     0.064 C 
ATOM     11  C   LIG d   1       6.542  -0.889 -11.686  0.00  0.00    -0.015 C 
ATOM     12  C   LIG d   1       4.175  -1.046 -11.183  0.00  0.00     0.019 C 
ATOM     13  H   LIG d   1       4.082  -2.112 -11.391  0.00  0.00     0.092 H 
ATOM     14  C   LIG d   1       2.833  -0.352 -11.348  0.00  0.00    -0.004 C 
ATOM     15  C   LIG d   1       1.887  -0.440 -10.176  0.00  0.00    -0.043 C 
ATOM     16  C   LIG d   1       2.365  -1.214  -8.957  0.00  0.00    -0.025 C 
ATOM     17  H   LIG d   1       7.435   0.170  -5.071  0.00  0.00     0.062 H 
ATOM     18  H   LIG d   1       7.969   0.087  -7.462  0.00  0.00     0.064 H 
ATOM     19  H   LIG d   1       3.310  -0.778  -5.812  0.00  0.00     0.063 H 
ATOM     20  H   LIG d   1       7.190   0.773 -10.468  0.00  0.00     0.054 H 
ATOM     21  H   LIG d   1       7.901  -0.797 -10.009  0.00  0.00     0.054 H 
ATOM     22  H   LIG d   1       6.535  -1.976 -11.609  0.00  0.00     0.083 H 
ATOM     23  H   LIG d   1       7.245  -0.593 -12.465  0.00  0.00     0.083 H 
ATOM     24  H   LIG d   1       2.335  -0.781 -12.218  0.00  0.00     0.032 H 
ATOM     25  H   LIG d   1       3.022   0.701 -11.554  0.00  0.00     0.032 H 
ATOM     26  H   LIG d   1       0.963  -0.899 -10.525  0.00  0.00     0.027 H 
ATOM     27  H   LIG d   1       1.653   0.576  -9.858  0.00  0.00     0.027 H 
ATOM     28  H   LIG d   1       2.246  -2.283  -9.134  0.00  0.00     0.031 H 
ATOM     29  H   LIG d   1       1.779  -0.921  -8.086  0.00  0.00     0.031 H 
ATOM     30  N   LIG d   1       5.195  -0.418 -12.057  0.00  0.00     0.235 N 
ATOM     31  H   LIG d   1       5.004  -0.668 -13.034  0.00  0.00     0.202 HD
ATOM     32  H   LIG d   1       5.151   0.602 -11.951  0.00  0.00     0.202 HD
ENDROOT
BRANCH   6  33
ATOM     33  C   LIG d   1       5.101  -0.239  -3.855  0.00  0.00    -0.044 C 
ATOM     34  C   LIG d   1       5.392   0.959  -2.981  0.00  0.00    -0.027 C 
ATOM     35  C   LIG d   1       4.581   0.711  -1.689  0.00  0.00    -0.046 C 
ATOM     36  H   LIG d   1       5.058   1.875  -3.470  0.00  0.00     0.031 H 
ATOM     37  H   LIG d   1       6.457   1.017  -2.756  0.00  0.00     0.031 H 
ATOM     38  C   LIG d   1       4.452  -0.829  -1.692  0.00  0.00    -0.034 C 
ATOM     39  H   LIG d   1       3.601   1.185  -1.746  0.00  0.00     0.027 H 
ATOM     40  H   LIG d   1       5.129   1.057  -0.812  0.00  0.00     0.027 H 
ATOM     41  C   LIG d   1       4.581  -1.227  -3.143  0.00  0.00    -0.080 C 
ATOM     42  H   LIG d   1       5.252  -1.277  -1.103  0.00  0.00     0.031 H 
ATOM     43  H   LIG d   1       3.480  -1.129  -1.301  0.00  0.00     0.031 H 
ATOM     44  H   LIG d   1       4.289  -2.187  -3.545  0.00  0.00     0.058 H 
ENDBRANCH   6  33
TORSDOF 1
ENDMDL
MODEL 6
REMARK VINA RESULT:      -6.4      3.766      6.471
REMARK  1 active torsions:
REMARK  status: ('A' for Active; 'I' for Inactive)
REMARK    1  A    between atoms: C_6  and  C_7 
ROOT
ATOM      1  C   LIG d   1       2.803   0.313  -5.928  0.00  0.00    -0.052 A 
ATOM      2  C   LIG d   1       2.561   0.274  -7.277  0.00  0.00    -0.037 A 
ATOM      3  C   LIG d   1       3.315  -0.611  -8.045  0.00  0.00     0.050 A 
ATOM      4  C   LIG d   1       4.309  -1.438  -7.438  0.00  0.00     0.004 A 
ATOM      5  C   LIG d   1       4.547  -1.385  -6.063  0.00  0.00    -0.045 A 
ATOM      6  C   LIG d   1       3.773  -0.489  -5.323  0.00  0.00    -0.021 A 
ATOM      7  C   LIG d   1       4.890  -2.210  -8.504  0.00  0.00    -0.013 A 
ATOM      8  C   LIG d   1       4.265  -1.829  -9.636  0.00  0.00     0.071 A 
ATOM      9  N   LIG d   1       3.307  -0.888  -9.379  0.00  0.00    -0.334 N 
ATOM     10  C   LIG d   1       2.455  -0.355 -10.453  0.00  0.00     0.064 C 
ATOM     11  C   LIG d   1       3.100  -0.714 -11.797  0.00  0.00    -0.015 C 
ATOM     12  C   LIG d   1       4.613  -2.424 -10.982  0.00  0.00     0.019 C 
ATOM     13  H   LIG d   1       5.523  -1.972 -11.377  0.00  0.00     0.092 H 
ATOM     14  C   LIG d   1       4.796  -3.923 -10.803  0.00  0.00    -0.004 C 
ATOM     15  C   LIG d   1       5.495  -4.365  -9.542  0.00  0.00    -0.043 C 
ATOM     16  C   LIG d   1       5.950  -3.274  -8.583  0.00  0.00    -0.025 C 
ATOM     17  H   LIG d   1       2.227   0.989  -5.314  0.00  0.00     0.062 H 
ATOM     18  H   LIG d   1       1.809   0.905  -7.728  0.00  0.00     0.064 H 
ATOM     19  H   LIG d   1       5.294  -2.007  -5.594  0.00  0.00     0.063 H 
ATOM     20  H   LIG d   1       1.462  -0.801 -10.389  0.00  0.00     0.054 H 
ATOM     21  H   LIG d   1       2.379   0.728 -10.358  0.00  0.00     0.054 H 
ATOM     22  H   LIG d   1       4.000  -0.114 -11.933  0.00  0.00     0.083 H 
ATOM     23  H   LIG d   1       2.398  -0.489 -12.600  0.00  0.00     0.083 H 
ATOM     24  H   LIG d   1       5.365  -4.298 -11.654  0.00  0.00     0.032 H 
ATOM     25  H   LIG d   1       3.811  -4.387 -10.825  0.00  0.00     0.032 H 
ATOM     26  H   LIG d   1       6.371  -4.945  -9.829  0.00  0.00     0.027 H 
ATOM     27  H   LIG d   1       4.821  -5.028  -9.000  0.00  0.00     0.027 H 
ATOM     28  H   LIG d   1       6.879  -2.834  -8.945  0.00  0.00     0.031 H 
ATOM     29  H   LIG d   1       6.110  -3.701  -7.594  0.00  0.00     0.031 H 
ATOM     30  N   LIG d   1       3.453  -2.144 -11.860  0.00  0.00     0.235 N 
ATOM     31  H   LIG d   1       3.692  -2.393 -12.827  0.00  0.00     0.202 HD
ATOM     32  H   LIG d   1       2.650  -2.706 -11.551  0.00  0.00     0.202 HD
ENDROOT
BRANCH   6  33
ATOM     33  C   LIG d   1       3.982  -0.391  -3.863  0.00  0.00    -0.044 C 
ATOM     34  C   LIG d   1       3.769  -1.525  -2.887  0.00  0.00    -0.027 C 
ATOM     35  C   LIG d   1       4.504  -1.084  -1.602  0.00  0.00    -0.046 C 
ATOM     36  H   LIG d   1       4.204  -2.446  -3.277  0.00  0.00     0.031 H 
ATOM     37  H   LIG d   1       2.706  -1.663  -2.690  0.00  0.00     0.031 H 
ATOM     38  C   LIG d   1       4.490   0.455  -1.747  0.00  0.00    -0.034 C 
ATOM     39  H   LIG d   1       5.524  -1.465  -1.584  0.00  0.00     0.027 H 
ATOM     40  H   LIG d   1       3.957  -1.397  -0.712  0.00  0.00     0.027 H 
ATOM     41  C   LIG d   1       4.381   0.704  -3.233  0.00  0.00    -0.080 C 
ATOM     42  H   LIG d   1       3.630   0.878  -1.228  0.00  0.00     0.031 H 
ATOM     43  H   LIG d   1       5.415   0.881  -1.358  0.00  0.00     0.031 H 
ATOM     44  H   LIG d   1       4.599   1.646  -3.715  0.00  0.00     0.058 H 
ENDBRANCH   6  33
TORSDOF 1
ENDMDL
MODEL 7
REMARK VINA RESULT:      -6.3      2.769      6.548
REMARK  1 active torsions:
REMARK  status: ('A' for Active; 'I' for Inactive)
REMARK    1  A    between atoms: C_6  and  C_7 
ROOT
ATOM      1  C   LIG d   1       2.621   0.115  -8.171  0.00  0.00    -0.052 A 
ATOM      2  C   LIG d   1       2.719   0.452  -6.846  0.00  0.00    -0.037 A 
ATOM      3  C   LIG d   1       3.557  -0.319  -6.042  0.00  0.00     0.050 A 
ATOM      4  C   LIG d   1       4.277  -1.425  -6.588  0.00  0.00     0.004 A 
ATOM      5  C   LIG d   1       4.163  -1.758  -7.940  0.00  0.00    -0.045 A 
ATOM      6  C   LIG d   1       3.318  -0.966  -8.717  0.00  0.00    -0.021 A 
ATOM      7  C   LIG d   1       5.025  -1.991  -5.498  0.00  0.00    -0.013 A 
ATOM      8  C   LIG d   1       4.733  -1.252  -4.410  0.00  0.00     0.071 A 
ATOM      9  N   LIG d   1       3.872  -0.236  -4.719  0.00  0.00    -0.334 N 
ATOM     10  C   LIG d   1       3.446   0.738  -3.702  0.00  0.00     0.064 C 
ATOM     11  C   LIG d   1       3.785   0.166  -2.321  0.00  0.00    -0.015 C 
ATOM     12  C   LIG d   1       5.333  -1.550  -3.054  0.00  0.00     0.019 C 
ATOM     13  H   LIG d   1       4.815  -2.385  -2.581  0.00  0.00     0.092 H 
ATOM     14  C   LIG d   1       6.804  -1.879  -3.251  0.00  0.00    -0.004 C 
ATOM     15  C   LIG d   1       7.148  -2.707  -4.465  0.00  0.00    -0.043 C 
ATOM     16  C   LIG d   1       5.994  -3.132  -5.361  0.00  0.00    -0.025 C 
ATOM     17  H   LIG d   1       1.980   0.701  -8.812  0.00  0.00     0.062 H 
ATOM     18  H   LIG d   1       2.170   1.289  -6.440  0.00  0.00     0.064 H 
ATOM     19  H   LIG d   1       4.705  -2.591  -8.364  0.00  0.00     0.063 H 
ATOM     20  H   LIG d   1       3.975   1.679  -3.851  0.00  0.00     0.054 H 
ATOM     21  H   LIG d   1       2.371   0.903  -3.778  0.00  0.00     0.054 H 
ATOM     22  H   LIG d   1       3.114  -0.665  -2.103  0.00  0.00     0.083 H 
ATOM     23  H   LIG d   1       3.645   0.943  -1.569  0.00  0.00     0.083 H 
ATOM     24  H   LIG d   1       7.153  -2.413  -2.367  0.00  0.00     0.032 H 
ATOM     25  H   LIG d   1       7.353  -0.939  -3.315  0.00  0.00     0.032 H 
ATOM     26  H   LIG d   1       7.658  -3.607  -4.124  0.00  0.00     0.027 H 
ATOM     27  H   LIG d   1       7.851  -2.136  -5.071  0.00  0.00     0.027 H 
ATOM     28  H   LIG d   1       5.486  -3.989  -4.919  0.00  0.00     0.031 H 
ATOM     29  H   LIG d   1       6.378  -3.403  -6.345  0.00  0.00     0.031 H 
ATOM     30  N   LIG d   1       5.181  -0.307  -2.262  0.00  0.00     0.235 N 
ATOM     31  H   LIG d   1       5.435  -0.495  -1.285  0.00  0.00     0.202 HD
ATOM     32  H   LIG d   1       5.801   0.417  -2.643  0.00  0.00     0.202 HD
ENDROOT
BRANCH   6  33
ATOM     33  C   LIG d   1       3.160  -1.273 -10.154  0.00  0.00    -0.044 C 
ATOM     34  C   LIG d   1       4.115  -2.122 -10.960  0.00  0.00    -0.027 C 
ATOM     35  C   LIG d   1       3.329  -2.498 -12.237  0.00  0.00    -0.046 C 
ATOM     36  H   LIG d   1       4.387  -3.019 -10.403  0.00  0.00     0.031 H 
ATOM     37  H   LIG d   1       5.008  -1.552 -11.217  0.00  0.00     0.031 H 
ATOM     38  C   LIG d   1       2.310  -1.340 -12.327  0.00  0.00    -0.034 C 
ATOM     39  H   LIG d   1       2.823  -3.455 -12.117  0.00  0.00     0.027 H 
ATOM     40  H   LIG d   1       3.984  -2.511 -13.108  0.00  0.00     0.027 H 
ATOM     41  C   LIG d   1       2.161  -0.840 -10.909  0.00  0.00    -0.080 C 
ATOM     42  H   LIG d   1       2.692  -0.547 -12.971  0.00  0.00     0.031 H 
ATOM     43  H   LIG d   1       1.354  -1.704 -12.704  0.00  0.00     0.031 H 
ATOM     44  H   LIG d   1       1.352  -0.216 -10.560  0.00  0.00     0.058 H 
ENDBRANCH   6  33
TORSDOF 1
ENDMDL
MODEL 8
REMARK VINA RESULT:      -6.1      5.723      6.875
REMARK  1 active torsions:
REMARK  status: ('A' for Active; 'I' for Inactive)
REMARK    1  A    between atoms: C_6  and  C_7 
ROOT
ATOM      1  C   LIG d   1       7.108   0.306  -5.535  0.00  0.00    -0.052 A 
ATOM      2  C   LIG d   1       7.964   0.888  -6.434  0.00  0.00    -0.037 A 
ATOM      3  C   LIG d   1       8.688   2.002  -6.011  0.00  0.00     0.050 A 
ATOM      4  C   LIG d   1       8.529   2.515  -4.687  0.00  0.00     0.004 A 
ATOM      5  C   LIG d   1       7.650   1.913  -3.784  0.00  0.00    -0.045 A 
ATOM      6  C   LIG d   1       6.942   0.800  -4.239  0.00  0.00    -0.021 A 
ATOM      7  C   LIG d   1       9.406   3.651  -4.593  0.00  0.00    -0.013 A 
ATOM      8  C   LIG d   1      10.008   3.770  -5.793  0.00  0.00     0.071 A 
ATOM      9  N   LIG d   1       9.606   2.781  -6.647  0.00  0.00    -0.334 N 
ATOM     10  C   LIG d   1      10.167   2.672  -8.003  0.00  0.00     0.064 C 
ATOM     11  C   LIG d   1      10.865   3.994  -8.340  0.00  0.00    -0.015 C 
ATOM     12  C   LIG d   1      11.008   4.866  -6.082  0.00  0.00     0.019 C 
ATOM     13  H   LIG d   1      10.497   5.807  -6.288  0.00  0.00     0.092 H 
ATOM     14  C   LIG d   1      11.918   5.008  -4.872  0.00  0.00    -0.004 C 
ATOM     15  C   LIG d   1      11.258   4.879  -3.521  0.00  0.00    -0.043 C 
ATOM     16  C   LIG d   1       9.757   4.628  -3.505  0.00  0.00    -0.025 C 
ATOM     17  H   LIG d   1       6.541  -0.560  -5.841  0.00  0.00     0.062 H 
ATOM     18  H   LIG d   1       8.076   0.496  -7.433  0.00  0.00     0.064 H 
ATOM     19  H   LIG d   1       7.524   2.292  -2.781  0.00  0.00     0.063 H 
ATOM     20  H   LIG d   1      10.887   1.854  -8.037  0.00  0.00     0.054 H 
ATOM     21  H   LIG d   1       9.365   2.486  -8.718  0.00  0.00     0.054 H 
ATOM     22  H   LIG d   1      10.113   4.768  -8.491  0.00  0.00     0.083 H 
ATOM     23  H   LIG d   1      11.438   3.870  -9.259  0.00  0.00     0.083 H 
ATOM     24  H   LIG d   1      12.398   5.985  -4.922  0.00  0.00     0.032 H 
ATOM     25  H   LIG d   1      12.694   4.247  -4.944  0.00  0.00     0.032 H 
ATOM     26  H   LIG d   1      11.451   5.796  -2.965  0.00  0.00     0.027 H 
ATOM     27  H   LIG d   1      11.741   4.060  -2.989  0.00  0.00     0.027 H 
ATOM     28  H   LIG d   1       9.229   5.566  -3.675  0.00  0.00     0.031 H 
ATOM     29  H   LIG d   1       9.467   4.216  -2.539  0.00  0.00     0.031 H 
ATOM     30  N   LIG d   1      11.781   4.409  -7.261  0.00  0.00     0.235 N 
ATOM     31  H   LIG d   1      12.375   5.176  -7.595  0.00  0.00     0.202 HD
ATOM     32  H   LIG d   1      12.372   3.613  -6.992  0.00  0.00     0.202 HD
ENDROOT
BRANCH   6  33
ATOM     33  C   LIG d   1       5.998   0.122  -3.325  0.00  0.00    -0.044 C 
ATOM     34  C   LIG d   1       5.133   0.828  -2.307  0.00  0.00    -0.027 C 
ATOM     35  C   LIG d   1       4.053  -0.207  -1.921  0.00  0.00    -0.046 C 
ATOM     36  H   LIG d   1       4.672   1.712  -2.750  0.00  0.00     0.031 H 
ATOM     37  H   LIG d   1       5.722   1.107  -1.433  0.00  0.00     0.031 H 
ATOM     38  C   LIG d   1       4.769  -1.539  -2.239  0.00  0.00    -0.034 C 
ATOM     39  H   LIG d   1       3.160  -0.088  -2.534  0.00  0.00     0.027 H 
ATOM     40  H   LIG d   1       3.807  -0.138  -0.861  0.00  0.00     0.027 H 
ATOM     41  C   LIG d   1       5.798  -1.187  -3.288  0.00  0.00    -0.080 C 
ATOM     42  H   LIG d   1       5.257  -1.930  -1.346  0.00  0.00     0.031 H 
ATOM     43  H   LIG d   1       4.060  -2.267  -2.632  0.00  0.00     0.031 H 
ATOM     44  H   LIG d   1       6.300  -1.904  -3.921  0.00  0.00     0.058 H 
ENDBRANCH   6  33
TORSDOF 1
ENDMDL
MODEL 9
REMARK VINA RESULT:      -6.1      8.929     11.265
REMARK  1 active torsions:
REMARK  status: ('A' for Active; 'I' for Inactive)
REMARK    1  A    between atoms: C_6  and  C_7 
ROOT
ATOM      1  C   LIG d   1      10.907   6.776   0.037  0.00  0.00    -0.052 A 
ATOM      2  C   LIG d   1      10.855   5.551  -0.574  0.00  0.00    -0.037 A 
ATOM      3  C   LIG d   1      10.419   5.505  -1.897  0.00  0.00     0.050 A 
ATOM      4  C   LIG d   1      10.032   6.699  -2.579  0.00  0.00     0.004 A 
ATOM      5  C   LIG d   1      10.086   7.940  -1.941  0.00  0.00    -0.045 A 
ATOM      6  C   LIG d   1      10.529   7.951  -0.618  0.00  0.00    -0.021 A 
ATOM      7  C   LIG d   1       9.636   6.292  -3.901  0.00  0.00    -0.013 A 
ATOM      8  C   LIG d   1       9.784   4.954  -3.949  0.00  0.00     0.071 A 
ATOM      9  N   LIG d   1      10.269   4.467  -2.767  0.00  0.00    -0.334 N 
ATOM     10  C   LIG d   1      10.562   3.036  -2.595  0.00  0.00     0.064 C 
ATOM     11  C   LIG d   1       9.873   2.267  -3.729  0.00  0.00    -0.015 C 
ATOM     12  C   LIG d   1       9.458   4.156  -5.192  0.00  0.00     0.019 C 
ATOM     13  H   LIG d   1       8.381   4.003  -5.277  0.00  0.00     0.092 H 
ATOM     14  C   LIG d   1       9.984   4.921  -6.396  0.00  0.00    -0.004 C 
ATOM     15  C   LIG d   1       9.825   6.420  -6.358  0.00  0.00    -0.043 C 
ATOM     16  C   LIG d   1       9.152   7.014  -5.128  0.00  0.00    -0.025 C 
ATOM     17  H   LIG d   1      11.246   6.834   1.061  0.00  0.00     0.062 H 
ATOM     18  H   LIG d   1      11.147   4.652  -0.051  0.00  0.00     0.064 H 
ATOM     19  H   LIG d   1       9.798   8.849  -2.448  0.00  0.00     0.063 H 
ATOM     20  H   LIG d   1      11.639   2.873  -2.641  0.00  0.00     0.054 H 
ATOM     21  H   LIG d   1      10.178   2.695  -1.633  0.00  0.00     0.054 H 
ATOM     22  H   LIG d   1       8.796   2.277  -3.565  0.00  0.00     0.083 H 
ATOM     23  H   LIG d   1      10.224   1.235  -3.725  0.00  0.00     0.083 H 
ATOM     24  H   LIG d   1       9.472   4.549  -7.283  0.00  0.00     0.032 H 
ATOM     25  H   LIG d   1      11.045   4.695  -6.500  0.00  0.00     0.032 H 
ATOM     26  H   LIG d   1       9.249   6.719  -7.233  0.00  0.00     0.027 H 
ATOM     27  H   LIG d   1      10.817   6.865  -6.445  0.00  0.00     0.027 H 
ATOM     28  H   LIG d   1       8.071   6.900  -5.214  0.00  0.00     0.031 H 
ATOM     29  H   LIG d   1       9.403   8.071  -5.050  0.00  0.00     0.031 H 
ATOM     30  N   LIG d   1      10.171   2.866  -5.044  0.00  0.00     0.235 N 
ATOM     31  H   LIG d   1       9.869   2.224  -5.786  0.00  0.00     0.202 HD
ATOM     32  H   LIG d   1      11.183   3.027  -5.122  0.00  0.00     0.202 HD
ENDROOT
BRANCH   6  33
ATOM     33  C   LIG d   1      10.607   9.237   0.107  0.00  0.00    -0.044 C 
ATOM     34  C   LIG d   1      11.514   9.505   1.285  0.00  0.00    -0.027 C 
ATOM     35  C   LIG d   1      11.556  11.045   1.409  0.00  0.00    -0.046 C 
ATOM     36  H   LIG d   1      12.513   9.112   1.091  0.00  0.00     0.031 H 
ATOM     37  H   LIG d   1      11.102   9.061   2.192  0.00  0.00     0.031 H 
ATOM     38  C   LIG d   1      10.218  11.447   0.749  0.00  0.00    -0.034 C 
ATOM     39  H   LIG d   1      12.402  11.459   0.861  0.00  0.00     0.027 H 
ATOM     40  H   LIG d   1      11.583  11.351   2.456  0.00  0.00     0.027 H 
ATOM     41  C   LIG d   1       9.890  10.311  -0.191  0.00  0.00    -0.080 C 
ATOM     42  H   LIG d   1       9.438  11.553   1.503  0.00  0.00     0.031 H 
ATOM     43  H   LIG d   1      10.334  12.378   0.193  0.00  0.00     0.031 H 
ATOM     44  H   LIG d   1       9.170  10.367  -0.994  0.00  0.00     0.058 H 
ENDBRANCH   6  33
TORSDOF 1
ENDMDL
MODEL 10
REMARK VINA RESULT:      -6.0      2.904      3.739
REMARK  1 active torsions:
REMARK  status: ('A' for Active; 'I' for Inactive)
REMARK    1  A    between atoms: C_6  and  C_7 
ROOT
ATOM      1  C   LIG d   1       7.525  -4.679  -6.079  0.00  0.00    -0.052 A 
ATOM      2  C   LIG d   1       7.903  -3.383  -5.845  0.00  0.00    -0.037 A 
ATOM      3  C   LIG d   1       7.016  -2.568  -5.143  0.00  0.00     0.050 A 
ATOM      4  C   LIG d   1       5.757  -3.074  -4.697  0.00  0.00     0.004 A 
ATOM      5  C   LIG d   1       5.385  -4.397  -4.948  0.00  0.00    -0.045 A 
ATOM      6  C   LIG d   1       6.296  -5.186  -5.651  0.00  0.00    -0.021 A 
ATOM      7  C   LIG d   1       5.104  -1.982  -4.027  0.00  0.00    -0.013 A 
ATOM      8  C   LIG d   1       5.943  -0.930  -4.102  0.00  0.00     0.071 A 
ATOM      9  N   LIG d   1       7.099  -1.266  -4.749  0.00  0.00    -0.334 N 
ATOM     10  C   LIG d   1       8.192  -0.294  -4.910  0.00  0.00     0.064 C 
ATOM     11  C   LIG d   1       7.634   1.105  -4.625  0.00  0.00    -0.015 C 
ATOM     12  C   LIG d   1       5.596   0.416  -3.506  0.00  0.00     0.019 C 
ATOM     13  H   LIG d   1       4.914   0.960  -4.160  0.00  0.00     0.092 H 
ATOM     14  C   LIG d   1       4.956   0.181  -2.147  0.00  0.00    -0.004 C 
ATOM     15  C   LIG d   1       4.013  -0.993  -2.046  0.00  0.00    -0.043 C 
ATOM     16  C   LIG d   1       3.793  -1.814  -3.309  0.00  0.00    -0.025 C 
ATOM     17  H   LIG d   1       8.199  -5.329  -6.617  0.00  0.00     0.062 H 
ATOM     18  H   LIG d   1       8.855  -3.007  -6.187  0.00  0.00     0.064 H 
ATOM     19  H   LIG d   1       4.436  -4.790  -4.614  0.00  0.00     0.063 H 
ATOM     20  H   LIG d   1       8.993  -0.522  -4.207  0.00  0.00     0.054 H 
ATOM     21  H   LIG d   1       8.575  -0.337  -5.930  0.00  0.00     0.054 H 
ATOM     22  H   LIG d   1       6.975   1.400  -5.441  0.00  0.00     0.083 H 
ATOM     23  H   LIG d   1       8.461   1.812  -4.561  0.00  0.00     0.083 H 
ATOM     24  H   LIG d   1       4.407   1.080  -1.871  0.00  0.00     0.032 H 
ATOM     25  H   LIG d   1       5.755   0.037  -1.420  0.00  0.00     0.032 H 
ATOM     26  H   LIG d   1       3.045  -0.618  -1.717  0.00  0.00     0.027 H 
ATOM     27  H   LIG d   1       4.392  -1.661  -1.273  0.00  0.00     0.027 H 
ATOM     28  H   LIG d   1       3.086  -1.300  -3.959  0.00  0.00     0.031 H 
ATOM     29  H   LIG d   1       3.397  -2.794  -3.041  0.00  0.00     0.031 H 
ATOM     30  N   LIG d   1       6.882   1.136  -3.356  0.00  0.00     0.235 N 
ATOM     31  H   LIG d   1       6.696   2.111  -3.095  0.00  0.00     0.202 HD
ATOM     32  H   LIG d   1       7.440   0.686  -2.620  0.00  0.00     0.202 HD
ENDROOT
BRANCH   6  33
ATOM     33  C   LIG d   1       5.955  -6.594  -5.944  0.00  0.00    -0.044 C 
ATOM     34  C   LIG d   1       6.741  -7.493  -6.869  0.00  0.00    -0.027 C 
ATOM     35  C   LIG d   1       6.272  -8.924  -6.523  0.00  0.00    -0.046 C 
ATOM     36  H   LIG d   1       7.810  -7.388  -6.682  0.00  0.00     0.031 H 
ATOM     37  H   LIG d   1       6.514  -7.260  -7.910  0.00  0.00     0.031 H 
ATOM     38  C   LIG d   1       4.865  -8.659  -5.940  0.00  0.00    -0.034 C 
ATOM     39  H   LIG d   1       6.924  -9.380  -5.778  0.00  0.00     0.027 H 
ATOM     40  H   LIG d   1       6.213  -9.543  -7.419  0.00  0.00     0.027 H 
ATOM     41  C   LIG d   1       4.918  -7.238  -5.429  0.00  0.00    -0.080 C 
ATOM     42  H   LIG d   1       4.108  -8.755  -6.717  0.00  0.00     0.031 H 
ATOM     43  H   LIG d   1       4.657  -9.349  -5.122  0.00  0.00     0.031 H 
ATOM     44  H   LIG d   1       4.207  -6.807  -4.739  0.00  0.00     0.058 H 
ENDBRANCH   6  33
TORSDOF 1
ENDMDL
