MODEL 1
REMARK VINA RESULT:      -6.6      0.000      0.000
REMARK  4 active torsions:
REMARK  status: ('A' for Active; 'I' for Inactive)
REMARK    1  A    between atoms: C_4  and  C_7 
REMARK    2  A    between atoms: C_8  and  C_9 
REMARK    3  A    between atoms: C_9  and  N_10 
REMARK    4  A    between atoms: C_15  and  C_17 
ROOT
ATOM      1  N   LIG d   1       3.039  -2.082  -9.409  0.00  0.00    -0.284 N 
ATOM      2  C   LIG d   1       2.674  -3.428  -9.870  0.00  0.00     0.000 C 
ATOM      3  C   LIG d   1       1.221  -3.427 -10.351  0.00  0.00    -0.040 C 
ATOM      4  C   LIG d   1       1.067  -2.416 -11.492  0.00  0.00    -0.050 C 
ATOM      5  C   LIG d   1       1.499  -1.033 -10.999  0.00  0.00    -0.033 C 
ATOM      6  C   LIG d   1       2.944  -1.103 -10.499  0.00  0.00     0.038 C 
ATOM      7  H   LIG d   1       3.597  -1.406 -11.318  0.00  0.00     0.051 H 
ATOM      8  H   LIG d   1       3.328  -3.720 -10.691  0.00  0.00     0.043 H 
ATOM      9  H   LIG d   1       2.784  -4.136  -9.048  0.00  0.00     0.043 H 
ATOM     10  H   LIG d   1       0.955  -4.422 -10.708  0.00  0.00     0.028 H 
ATOM     11  H   LIG d   1       0.565  -3.148  -9.527  0.00  0.00     0.028 H 
ATOM     12  H   LIG d   1       1.694  -2.717 -12.332  0.00  0.00     0.027 H 
ATOM     13  H   LIG d   1       0.024  -2.382 -11.809  0.00  0.00     0.027 H 
ATOM     14  H   LIG d   1       1.432  -0.317 -11.819  0.00  0.00     0.028 H 
ATOM     15  H   LIG d   1       0.847  -0.717 -10.185  0.00  0.00     0.028 H 
ENDROOT
BRANCH   1  16
ATOM     16  C   LIG d   1       4.381  -2.076  -8.811  0.00  0.00     0.062 C 
ATOM     17  H   LIG d   1       4.994  -1.321  -9.302  0.00  0.00     0.056 H 
ATOM     18  H   LIG d   1       4.839  -3.057  -8.939  0.00  0.00     0.056 H 
BRANCH  16  19
ATOM     19  C   LIG d   1       4.278  -1.767  -7.376  0.00  0.00    -0.081 C 
ATOM     20  C   LIG d   1       4.196  -1.520  -6.231  0.00  0.00    -0.065 C 
BRANCH  20  21
ATOM     21  C   LIG d   1       4.096  -1.219  -4.834  0.00  0.00     0.025 A 
ATOM     22  C   LIG d   1       4.482  -2.164  -3.884  0.00  0.00    -0.046 A 
ATOM     23  C   LIG d   1       4.384  -1.867  -2.540  0.00  0.00    -0.061 A 
ATOM     24  H   LIG d   1       4.859  -3.126  -4.201  0.00  0.00     0.063 H 
ATOM     25  C   LIG d   1       3.902  -0.636  -2.134  0.00  0.00    -0.062 A 
ATOM     26  H   LIG d   1       4.683  -2.599  -1.804  0.00  0.00     0.062 H 
ATOM     27  C   LIG d   1       3.517   0.306  -3.071  0.00  0.00    -0.061 A 
ATOM     28  H   LIG d   1       3.823  -0.410  -1.081  0.00  0.00     0.062 H 
ATOM     29  C   LIG d   1       3.610   0.022  -4.418  0.00  0.00    -0.046 A 
ATOM     30  H   LIG d   1       3.142   1.266  -2.749  0.00  0.00     0.062 H 
ATOM     31  H   LIG d   1       3.309   0.758  -5.149  0.00  0.00     0.063 H 
ENDBRANCH  20  21
ENDBRANCH  16  19
ENDBRANCH   1  16
BRANCH   6  32
ATOM     32  C   LIG d   1       3.366   0.253  -9.995  0.00  0.00    -0.012 A 
ATOM     33  C   LIG d   1       4.559   0.813 -10.408  0.00  0.00     0.032 A 
ATOM     34  N   LIG d   1       4.932   2.003  -9.977  0.00  0.00    -0.263 NA
ATOM     35  H   LIG d   1       5.192   0.273 -11.098  0.00  0.00     0.083 H 
ATOM     36  C   LIG d   1       4.195   2.695  -9.130  0.00  0.00     0.028 A 
ATOM     37  C   LIG d   1       2.991   2.196  -8.669  0.00  0.00    -0.043 A 
ATOM     38  H   LIG d   1       4.535   3.663  -8.794  0.00  0.00     0.083 H 
ATOM     39  C   LIG d   1       2.564   0.951  -9.105  0.00  0.00    -0.054 A 
ATOM     40  H   LIG d   1       2.392   2.768  -7.976  0.00  0.00     0.063 H 
ATOM     41  H   LIG d   1       1.628   0.537  -8.761  0.00  0.00     0.062 H 
ENDBRANCH   6  32
TORSDOF 4
ENDMDL
MODEL 2
REMARK VINA RESULT:      -6.6      3.054      6.887
REMARK  4 active torsions:
REMARK  status: ('A' for Active; 'I' for Inactive)
REMARK    1  A    between atoms: C_4  and  C_7 
REMARK    2  A    between atoms: C_8  and  C_9 
REMARK    3  A    between atoms: C_9  and  N_10 
REMARK    4  A    between atoms: C_15  and  C_17 
ROOT
ATOM      1  N   LIG d   1       6.071  -2.614  -4.985  0.00  0.00    -0.284 N 
ATOM      2  C   LIG d   1       6.552  -3.917  -5.461  0.00  0.00     0.000 C 
ATOM      3  C   LIG d   1       8.076  -3.978  -5.331  0.00  0.00    -0.040 C 
ATOM      4  C   LIG d   1       8.467  -3.772  -3.865  0.00  0.00    -0.050 C 
ATOM      5  C   LIG d   1       7.913  -2.430  -3.381  0.00  0.00    -0.033 C 
ATOM      6  C   LIG d   1       6.393  -2.413  -3.567  0.00  0.00     0.038 C 
ATOM      7  H   LIG d   1       5.947  -3.214  -2.977  0.00  0.00     0.051 H 
ATOM      8  H   LIG d   1       6.105  -4.710  -4.862  0.00  0.00     0.043 H 
ATOM      9  H   LIG d   1       6.271  -4.050  -6.506  0.00  0.00     0.043 H 
ATOM     10  H   LIG d   1       8.431  -4.952  -5.669  0.00  0.00     0.028 H 
ATOM     11  H   LIG d   1       8.525  -3.194  -5.941  0.00  0.00     0.028 H 
ATOM     12  H   LIG d   1       8.051  -4.578  -3.260  0.00  0.00     0.027 H 
ATOM     13  H   LIG d   1       9.554  -3.772  -3.775  0.00  0.00     0.027 H 
ATOM     14  H   LIG d   1       8.151  -2.297  -2.325  0.00  0.00     0.028 H 
ATOM     15  H   LIG d   1       8.358  -1.622  -3.960  0.00  0.00     0.028 H 
ENDROOT
BRANCH   1  16
ATOM     16  C   LIG d   1       4.629  -2.467  -5.223  0.00  0.00     0.062 C 
ATOM     17  H   LIG d   1       4.139  -2.150  -4.303  0.00  0.00     0.056 H 
ATOM     18  H   LIG d   1       4.215  -3.422  -5.545  0.00  0.00     0.056 H 
BRANCH  16  19
ATOM     19  C   LIG d   1       4.405  -1.457  -6.270  0.00  0.00    -0.081 C 
ATOM     20  C   LIG d   1       4.227  -0.652  -7.106  0.00  0.00    -0.065 C 
BRANCH  20  21
ATOM     21  C   LIG d   1       4.009   0.330  -8.126  0.00  0.00     0.025 A 
ATOM     22  C   LIG d   1       3.020   1.301  -7.964  0.00  0.00    -0.046 A 
ATOM     23  C   LIG d   1       2.816   2.245  -8.949  0.00  0.00    -0.061 A 
ATOM     24  H   LIG d   1       2.417   1.314  -7.068  0.00  0.00     0.063 H 
ATOM     25  C   LIG d   1       3.588   2.229 -10.097  0.00  0.00    -0.062 A 
ATOM     26  H   LIG d   1       2.051   2.997  -8.824  0.00  0.00     0.062 H 
ATOM     27  C   LIG d   1       4.570   1.269 -10.264  0.00  0.00    -0.061 A 
ATOM     28  H   LIG d   1       3.421   2.967 -10.868  0.00  0.00     0.062 H 
ATOM     29  C   LIG d   1       4.785   0.319  -9.287  0.00  0.00    -0.046 A 
ATOM     30  H   LIG d   1       5.169   1.262 -11.162  0.00  0.00     0.062 H 
ATOM     31  H   LIG d   1       5.551  -0.429  -9.418  0.00  0.00     0.063 H 
ENDBRANCH  20  21
ENDBRANCH  16  19
ENDBRANCH   1  16
BRANCH   6  32
ATOM     32  C   LIG d   1       5.846  -1.086  -3.110  0.00  0.00    -0.012 A 
ATOM     33  C   LIG d   1       6.431   0.093  -3.528  0.00  0.00     0.032 A 
ATOM     34  N   LIG d   1       5.953   1.259  -3.137  0.00  0.00    -0.263 NA
ATOM     35  H   LIG d   1       7.287   0.061  -4.186  0.00  0.00     0.083 H 
ATOM     36  C   LIG d   1       4.915   1.347  -2.330  0.00  0.00     0.028 A 
ATOM     37  C   LIG d   1       4.281   0.209  -1.867  0.00  0.00    -0.043 A 
ATOM     38  H   LIG d   1       4.555   2.319  -2.027  0.00  0.00     0.083 H 
ATOM     39  C   LIG d   1       4.751  -1.034  -2.261  0.00  0.00    -0.054 A 
ATOM     40  H   LIG d   1       3.430   0.288  -1.206  0.00  0.00     0.063 H 
ATOM     41  H   LIG d   1       4.275  -1.939  -1.915  0.00  0.00     0.062 H 
ENDBRANCH   6  32
TORSDOF 4
ENDMDL
MODEL 3
REMARK VINA RESULT:      -6.3      1.257      3.769
REMARK  4 active torsions:
REMARK  status: ('A' for Active; 'I' for Inactive)
REMARK    1  A    between atoms: C_4  and  C_7 
REMARK    2  A    between atoms: C_8  and  C_9 
REMARK    3  A    between atoms: C_9  and  N_10 
REMARK    4  A    between atoms: C_15  and  C_17 
ROOT
ATOM      1  N   LIG d   1       4.896  -0.115  -9.168  0.00  0.00    -0.284 N 
ATOM      2  C   LIG d   1       5.678   0.805  -8.332  0.00  0.00     0.000 C 
ATOM      3  C   LIG d   1       5.813   2.153  -9.046  0.00  0.00    -0.040 C 
ATOM      4  C   LIG d   1       4.419   2.729  -9.308  0.00  0.00    -0.050 C 
ATOM      5  C   LIG d   1       3.611   1.729 -10.139  0.00  0.00    -0.033 C 
ATOM      6  C   LIG d   1       3.538   0.394  -9.394  0.00  0.00     0.038 C 
ATOM      7  H   LIG d   1       3.041   0.540  -8.435  0.00  0.00     0.051 H 
ATOM      8  H   LIG d   1       5.170   0.949  -7.379  0.00  0.00     0.043 H 
ATOM      9  H   LIG d   1       6.668   0.386  -8.157  0.00  0.00     0.043 H 
ATOM     10  H   LIG d   1       6.379   2.841  -8.418  0.00  0.00     0.028 H 
ATOM     11  H   LIG d   1       6.333   2.012  -9.993  0.00  0.00     0.028 H 
ATOM     12  H   LIG d   1       3.913   2.907  -8.358  0.00  0.00     0.027 H 
ATOM     13  H   LIG d   1       4.510   3.668  -9.854  0.00  0.00     0.027 H 
ATOM     14  H   LIG d   1       2.602   2.115 -10.293  0.00  0.00     0.028 H 
ATOM     15  H   LIG d   1       4.095   1.582 -11.103  0.00  0.00     0.028 H 
ENDROOT
BRANCH   1  16
ATOM     16  C   LIG d   1       4.863  -1.461  -8.579  0.00  0.00     0.062 C 
ATOM     17  H   LIG d   1       5.777  -1.994  -8.839  0.00  0.00     0.056 H 
ATOM     18  H   LIG d   1       4.001  -2.005  -8.967  0.00  0.00     0.056 H 
BRANCH  16  19
ATOM     19  C   LIG d   1       4.757  -1.354  -7.116  0.00  0.00    -0.081 C 
ATOM     20  C   LIG d   1       4.673  -1.268  -5.947  0.00  0.00    -0.065 C 
BRANCH  20  21
ATOM     21  C   LIG d   1       4.570  -1.163  -4.522  0.00  0.00     0.025 A 
ATOM     22  C   LIG d   1       4.968   0.008  -3.876  0.00  0.00    -0.046 A 
ATOM     23  C   LIG d   1       4.866   0.103  -2.503  0.00  0.00    -0.061 A 
ATOM     24  H   LIG d   1       5.354   0.838  -4.449  0.00  0.00     0.063 H 
ATOM     25  C   LIG d   1       4.372  -0.960  -1.768  0.00  0.00    -0.062 A 
ATOM     26  H   LIG d   1       5.173   1.009  -2.002  0.00  0.00     0.062 H 
ATOM     27  C   LIG d   1       3.976  -2.123  -2.403  0.00  0.00    -0.061 A 
ATOM     28  H   LIG d   1       4.298  -0.882  -0.693  0.00  0.00     0.062 H 
ATOM     29  C   LIG d   1       4.072  -2.232  -3.775  0.00  0.00    -0.046 A 
ATOM     30  H   LIG d   1       3.591  -2.949  -1.824  0.00  0.00     0.062 H 
ATOM     31  H   LIG d   1       3.764  -3.140  -4.270  0.00  0.00     0.063 H 
ENDBRANCH  20  21
ENDBRANCH  16  19
ENDBRANCH   1  16
BRANCH   6  32
ATOM     32  C   LIG d   1       2.760  -0.598 -10.219  0.00  0.00    -0.012 A 
ATOM     33  C   LIG d   1       1.872  -1.466  -9.614  0.00  0.00     0.032 A 
ATOM     34  N   LIG d   1       1.181  -2.333 -10.331  0.00  0.00    -0.263 NA
ATOM     35  H   LIG d   1       1.736  -1.432  -8.543  0.00  0.00     0.083 H 
ATOM     36  C   LIG d   1       1.319  -2.415 -11.639  0.00  0.00     0.028 A 
ATOM     37  C   LIG d   1       2.193  -1.583 -12.313  0.00  0.00    -0.043 A 
ATOM     38  H   LIG d   1       0.741  -3.142 -12.192  0.00  0.00     0.083 H 
ATOM     39  C   LIG d   1       2.931  -0.655 -11.594  0.00  0.00    -0.054 A 
ATOM     40  H   LIG d   1       2.300  -1.654 -13.385  0.00  0.00     0.063 H 
ATOM     41  H   LIG d   1       3.621   0.008 -12.093  0.00  0.00     0.062 H 
ENDBRANCH   6  32
TORSDOF 4
ENDMDL
MODEL 4
REMARK VINA RESULT:      -6.2      6.046      7.909
REMARK  4 active torsions:
REMARK  status: ('A' for Active; 'I' for Inactive)
REMARK    1  A    between atoms: C_4  and  C_7 
REMARK    2  A    between atoms: C_8  and  C_9 
REMARK    3  A    between atoms: C_9  and  N_10 
REMARK    4  A    between atoms: C_15  and  C_17 
ROOT
ATOM      1  N   LIG d   1       9.105   2.973  -5.633  0.00  0.00    -0.284 N 
ATOM      2  C   LIG d   1       8.962   1.932  -6.658  0.00  0.00     0.000 C 
ATOM      3  C   LIG d   1       8.602   2.581  -7.998  0.00  0.00    -0.040 C 
ATOM      4  C   LIG d   1       9.704   3.568  -8.394  0.00  0.00    -0.050 C 
ATOM      5  C   LIG d   1       9.864   4.612  -7.287  0.00  0.00    -0.033 C 
ATOM      6  C   LIG d   1      10.188   3.905  -5.968  0.00  0.00     0.038 C 
ATOM      7  H   LIG d   1      11.123   3.353  -6.072  0.00  0.00     0.051 H 
ATOM      8  H   LIG d   1       9.901   1.390  -6.759  0.00  0.00     0.043 H 
ATOM      9  H   LIG d   1       8.172   1.240  -6.367  0.00  0.00     0.043 H 
ATOM     10  H   LIG d   1       8.511   1.809  -8.763  0.00  0.00     0.028 H 
ATOM     11  H   LIG d   1       7.655   3.112  -7.902  0.00  0.00     0.028 H 
ATOM     12  H   LIG d   1      10.643   3.030  -8.528  0.00  0.00     0.027 H 
ATOM     13  H   LIG d   1       9.430   4.063  -9.326  0.00  0.00     0.027 H 
ATOM     14  H   LIG d   1      10.677   5.292  -7.544  0.00  0.00     0.028 H 
ATOM     15  H   LIG d   1       8.938   5.175  -7.180  0.00  0.00     0.028 H 
ENDROOT
BRANCH   1  16
ATOM     16  C   LIG d   1       9.313   2.379  -4.305  0.00  0.00     0.062 C 
ATOM     17  H   LIG d   1       9.564   3.163  -3.592  0.00  0.00     0.056 H 
ATOM     18  H   LIG d   1      10.129   1.658  -4.355  0.00  0.00     0.056 H 
BRANCH  16  19
ATOM     19  C   LIG d   1       8.082   1.698  -3.873  0.00  0.00    -0.081 C 
ATOM     20  C   LIG d   1       7.100   1.155  -3.528  0.00  0.00    -0.065 C 
BRANCH  20  21
ATOM     21  C   LIG d   1       5.901   0.493  -3.108  0.00  0.00     0.025 A 
ATOM     22  C   LIG d   1       5.841  -0.901  -3.089  0.00  0.00    -0.046 A 
ATOM     23  C   LIG d   1       4.684  -1.533  -2.683  0.00  0.00    -0.061 A 
ATOM     24  H   LIG d   1       6.699  -1.484  -3.392  0.00  0.00     0.063 H 
ATOM     25  C   LIG d   1       3.585  -0.787  -2.295  0.00  0.00    -0.062 A 
ATOM     26  H   LIG d   1       4.636  -2.612  -2.668  0.00  0.00     0.062 H 
ATOM     27  C   LIG d   1       3.638   0.595  -2.311  0.00  0.00    -0.061 A 
ATOM     28  H   LIG d   1       2.680  -1.287  -1.982  0.00  0.00     0.062 H 
ATOM     29  C   LIG d   1       4.789   1.239  -2.715  0.00  0.00    -0.046 A 
ATOM     30  H   LIG d   1       2.777   1.171  -2.007  0.00  0.00     0.062 H 
ATOM     31  H   LIG d   1       4.830   2.318  -2.728  0.00  0.00     0.063 H 
ENDBRANCH  20  21
ENDBRANCH  16  19
ENDBRANCH   1  16
BRANCH   6  32
ATOM     32  C   LIG d   1      10.328   4.929  -4.872  0.00  0.00    -0.012 A 
ATOM     33  C   LIG d   1      11.504   5.031  -4.155  0.00  0.00     0.032 A 
ATOM     34  N   LIG d   1      11.636   5.930  -3.198  0.00  0.00    -0.263 NA
ATOM     35  H   LIG d   1      12.328   4.371  -4.384  0.00  0.00     0.083 H 
ATOM     36  C   LIG d   1      10.656   6.752  -2.881  0.00  0.00     0.028 A 
ATOM     37  C   LIG d   1       9.448   6.705  -3.550  0.00  0.00    -0.043 A 
ATOM     38  H   LIG d   1      10.799   7.472  -2.087  0.00  0.00     0.083 H 
ATOM     39  C   LIG d   1       9.274   5.778  -4.566  0.00  0.00    -0.054 A 
ATOM     40  H   LIG d   1       8.649   7.382  -3.286  0.00  0.00     0.063 H 
ATOM     41  H   LIG d   1       8.342   5.719  -5.107  0.00  0.00     0.062 H 
ENDBRANCH   6  32
TORSDOF 4
ENDMDL
MODEL 5
REMARK VINA RESULT:      -6.1      2.456      7.281
REMARK  4 active torsions:
REMARK  status: ('A' for Active; 'I' for Inactive)
REMARK    1  A    between atoms: C_4  and  C_7 
REMARK    2  A    between atoms: C_8  and  C_9 
REMARK    3  A    between atoms: C_9  and  N_10 
REMARK    4  A    between atoms: C_15  and  C_17 
ROOT
ATOM      1  N   LIG d   1       4.758  -0.571  -4.429  0.00  0.00    -0.284 N 
ATOM      2  C   LIG d   1       4.480   0.718  -3.783  0.00  0.00     0.000 C 
ATOM      3  C   LIG d   1       3.625   0.490  -2.534  0.00  0.00    -0.040 C 
ATOM      4  C   LIG d   1       4.373  -0.435  -1.570  0.00  0.00    -0.050 C 
ATOM      5  C   LIG d   1       4.692  -1.752  -2.284  0.00  0.00    -0.033 C 
ATOM      6  C   LIG d   1       5.517  -1.459  -3.540  0.00  0.00     0.038 C 
ATOM      7  H   LIG d   1       6.452  -0.975  -3.256  0.00  0.00     0.051 H 
ATOM      8  H   LIG d   1       5.419   1.191  -3.498  0.00  0.00     0.043 H 
ATOM      9  H   LIG d   1       3.943   1.365  -4.477  0.00  0.00     0.043 H 
ATOM     10  H   LIG d   1       3.432   1.445  -2.046  0.00  0.00     0.028 H 
ATOM     11  H   LIG d   1       2.679   0.029  -2.820  0.00  0.00     0.028 H 
ATOM     12  H   LIG d   1       5.301   0.042  -1.254  0.00  0.00     0.027 H 
ATOM     13  H   LIG d   1       3.749  -0.634  -0.699  0.00  0.00     0.027 H 
ATOM     14  H   LIG d   1       5.263  -2.398  -1.617  0.00  0.00     0.028 H 
ATOM     15  H   LIG d   1       3.764  -2.247  -2.566  0.00  0.00     0.028 H 
ENDROOT
BRANCH   1  16
ATOM     16  C   LIG d   1       5.459  -0.380  -5.706  0.00  0.00     0.062 C 
ATOM     17  H   LIG d   1       6.334  -1.028  -5.740  0.00  0.00     0.056 H 
ATOM     18  H   LIG d   1       5.772   0.660  -5.795  0.00  0.00     0.056 H 
BRANCH  16  19
ATOM     19  C   LIG d   1       4.555  -0.718  -6.817  0.00  0.00    -0.081 C 
ATOM     20  C   LIG d   1       3.834  -0.988  -7.704  0.00  0.00    -0.065 C 
BRANCH  20  21
ATOM     21  C   LIG d   1       2.954  -1.317  -8.786  0.00  0.00     0.025 A 
ATOM     22  C   LIG d   1       2.138  -0.335  -9.348  0.00  0.00    -0.046 A 
ATOM     23  C   LIG d   1       1.294  -0.658 -10.390  0.00  0.00    -0.061 A 
ATOM     24  H   LIG d   1       2.169   0.676  -8.969  0.00  0.00     0.063 H 
ATOM     25  C   LIG d   1       1.254  -1.953 -10.876  0.00  0.00    -0.062 A 
ATOM     26  H   LIG d   1       0.662   0.101 -10.826  0.00  0.00     0.062 H 
ATOM     27  C   LIG d   1       2.060  -2.931 -10.322  0.00  0.00    -0.061 A 
ATOM     28  H   LIG d   1       0.587  -2.202 -11.689  0.00  0.00     0.062 H 
ATOM     29  C   LIG d   1       2.909  -2.622  -9.280  0.00  0.00    -0.046 A 
ATOM     30  H   LIG d   1       2.025  -3.940 -10.706  0.00  0.00     0.062 H 
ATOM     31  H   LIG d   1       3.538  -3.385  -8.849  0.00  0.00     0.063 H 
ENDBRANCH  20  21
ENDBRANCH  16  19
ENDBRANCH   1  16
BRANCH   6  32
ATOM     32  C   LIG d   1       5.816  -2.751  -4.256  0.00  0.00    -0.012 A 
ATOM     33  C   LIG d   1       7.122  -3.128  -4.501  0.00  0.00     0.032 A 
ATOM     34  N   LIG d   1       7.392  -4.262  -5.121  0.00  0.00    -0.263 NA
ATOM     35  H   LIG d   1       7.932  -2.491  -4.178  0.00  0.00     0.083 H 
ATOM     36  C   LIG d   1       6.435  -5.067  -5.539  0.00  0.00     0.028 A 
ATOM     37  C   LIG d   1       5.105  -4.753  -5.333  0.00  0.00    -0.043 A 
ATOM     38  H   LIG d   1       6.694  -5.984  -6.048  0.00  0.00     0.083 H 
ATOM     39  C   LIG d   1       4.783  -3.573  -4.680  0.00  0.00    -0.054 A 
ATOM     40  H   LIG d   1       4.327  -5.418  -5.677  0.00  0.00     0.063 H 
ATOM     41  H   LIG d   1       3.753  -3.302  -4.505  0.00  0.00     0.062 H 
ENDBRANCH   6  32
TORSDOF 4
ENDMDL
MODEL 6
REMARK VINA RESULT:      -6.1      2.881      7.075
REMARK  4 active torsions:
REMARK  status: ('A' for Active; 'I' for Inactive)
REMARK    1  A    between atoms: C_4  and  C_7 
REMARK    2  A    between atoms: C_8  and  C_9 
REMARK    3  A    between atoms: C_9  and  N_10 
REMARK    4  A    between atoms: C_15  and  C_17 
ROOT
ATOM      1  N   LIG d   1       4.546  -1.299  -3.959  0.00  0.00    -0.284 N 
ATOM      2  C   LIG d   1       3.301  -0.539  -3.795  0.00  0.00     0.000 C 
ATOM      3  C   LIG d   1       3.336   0.218  -2.464  0.00  0.00    -0.040 C 
ATOM      4  C   LIG d   1       4.540   1.163  -2.452  0.00  0.00    -0.050 C 
ATOM      5  C   LIG d   1       5.819   0.351  -2.672  0.00  0.00    -0.033 C 
ATOM      6  C   LIG d   1       5.713  -0.409  -3.997  0.00  0.00     0.038 C 
ATOM      7  H   LIG d   1       5.600   0.303  -4.815  0.00  0.00     0.051 H 
ATOM      8  H   LIG d   1       3.200   0.173  -4.614  0.00  0.00     0.043 H 
ATOM      9  H   LIG d   1       2.453  -1.223  -3.802  0.00  0.00     0.043 H 
ATOM     10  H   LIG d   1       2.418   0.795  -2.350  0.00  0.00     0.028 H 
ATOM     11  H   LIG d   1       3.423  -0.494  -1.644  0.00  0.00     0.028 H 
ATOM     12  H   LIG d   1       4.434   1.900  -3.248  0.00  0.00     0.027 H 
ATOM     13  H   LIG d   1       4.593   1.672  -1.489  0.00  0.00     0.027 H 
ATOM     14  H   LIG d   1       6.676   1.024  -2.707  0.00  0.00     0.028 H 
ATOM     15  H   LIG d   1       5.945  -0.358  -1.856  0.00  0.00     0.028 H 
ENDROOT
BRANCH   1  16
ATOM     16  C   LIG d   1       4.491  -2.146  -5.159  0.00  0.00     0.062 C 
ATOM     17  H   LIG d   1       3.645  -2.829  -5.083  0.00  0.00     0.056 H 
ATOM     18  H   LIG d   1       5.415  -2.720  -5.240  0.00  0.00     0.056 H 
BRANCH  16  19
ATOM     19  C   LIG d   1       4.333  -1.299  -6.351  0.00  0.00    -0.081 C 
ATOM     20  C   LIG d   1       4.208  -0.623  -7.303  0.00  0.00    -0.065 C 
BRANCH  20  21
ATOM     21  C   LIG d   1       4.054   0.202  -8.464  0.00  0.00     0.025 A 
ATOM     22  C   LIG d   1       4.607  -0.194  -9.683  0.00  0.00    -0.046 A 
ATOM     23  C   LIG d   1       4.455   0.605 -10.797  0.00  0.00    -0.061 A 
ATOM     24  H   LIG d   1       5.152  -1.124  -9.752  0.00  0.00     0.063 H 
ATOM     25  C   LIG d   1       3.757   1.796 -10.708  0.00  0.00    -0.062 A 
ATOM     26  H   LIG d   1       4.883   0.299 -11.741  0.00  0.00     0.062 H 
ATOM     27  C   LIG d   1       3.207   2.194  -9.503  0.00  0.00    -0.061 A 
ATOM     28  H   LIG d   1       3.645   2.420 -11.583  0.00  0.00     0.062 H 
ATOM     29  C   LIG d   1       3.351   1.405  -8.381  0.00  0.00    -0.046 A 
ATOM     30  H   LIG d   1       2.663   3.125  -9.440  0.00  0.00     0.062 H 
ATOM     31  H   LIG d   1       2.921   1.716  -7.441  0.00  0.00     0.063 H 
ENDBRANCH  20  21
ENDBRANCH  16  19
ENDBRANCH   1  16
BRANCH   6  32
ATOM     32  C   LIG d   1       6.961  -1.225  -4.209  0.00  0.00    -0.012 A 
ATOM     33  C   LIG d   1       7.867  -0.876  -5.191  0.00  0.00     0.032 A 
ATOM     34  N   LIG d   1       8.966  -1.582  -5.377  0.00  0.00    -0.263 NA
ATOM     35  H   LIG d   1       7.677  -0.012  -5.811  0.00  0.00     0.083 H 
ATOM     36  C   LIG d   1       9.237  -2.647  -4.649  0.00  0.00     0.028 A 
ATOM     37  C   LIG d   1       8.375  -3.060  -3.651  0.00  0.00    -0.043 A 
ATOM     38  H   LIG d   1      10.145  -3.204  -4.834  0.00  0.00     0.083 H 
ATOM     39  C   LIG d   1       7.213  -2.339  -3.422  0.00  0.00    -0.054 A 
ATOM     40  H   LIG d   1       8.603  -3.932  -3.057  0.00  0.00     0.063 H 
ATOM     41  H   LIG d   1       6.521  -2.638  -2.649  0.00  0.00     0.062 H 
ENDBRANCH   6  32
TORSDOF 4
ENDMDL
MODEL 7
REMARK VINA RESULT:      -5.8      3.613      6.310
REMARK  4 active torsions:
REMARK  status: ('A' for Active; 'I' for Inactive)
REMARK    1  A    between atoms: C_4  and  C_7 
REMARK    2  A    between atoms: C_8  and  C_9 
REMARK    3  A    between atoms: C_9  and  N_10 
REMARK    4  A    between atoms: C_15  and  C_17 
ROOT
ATOM      1  N   LIG d   1       5.525  -0.085  -4.252  0.00  0.00    -0.284 N 
ATOM      2  C   LIG d   1       5.872  -0.003  -2.828  0.00  0.00     0.000 C 
ATOM      3  C   LIG d   1       4.637   0.410  -2.024  0.00  0.00    -0.040 C 
ATOM      4  C   LIG d   1       3.525  -0.621  -2.240  0.00  0.00    -0.050 C 
ATOM      5  C   LIG d   1       3.217  -0.721  -3.736  0.00  0.00    -0.033 C 
ATOM      6  C   LIG d   1       4.493  -1.102  -4.491  0.00  0.00     0.038 C 
ATOM      7  H   LIG d   1       4.849  -2.070  -4.137  0.00  0.00     0.051 H 
ATOM      8  H   LIG d   1       6.221  -0.976  -2.483  0.00  0.00     0.043 H 
ATOM      9  H   LIG d   1       6.661   0.737  -2.687  0.00  0.00     0.043 H 
ATOM     10  H   LIG d   1       4.891   0.455  -0.965  0.00  0.00     0.028 H 
ATOM     11  H   LIG d   1       4.295   1.389  -2.359  0.00  0.00     0.028 H 
ATOM     12  H   LIG d   1       3.852  -1.593  -1.869  0.00  0.00     0.027 H 
ATOM     13  H   LIG d   1       2.630  -0.308  -1.703  0.00  0.00     0.027 H 
ATOM     14  H   LIG d   1       2.456  -1.485  -3.900  0.00  0.00     0.028 H 
ATOM     15  H   LIG d   1       2.853   0.240  -4.098  0.00  0.00     0.028 H 
ENDROOT
BRANCH   1  16
ATOM     16  C   LIG d   1       6.718  -0.343  -5.071  0.00  0.00     0.062 C 
ATOM     17  H   LIG d   1       7.414   0.490  -4.972  0.00  0.00     0.056 H 
ATOM     18  H   LIG d   1       6.424  -0.451  -6.115  0.00  0.00     0.056 H 
BRANCH  16  19
ATOM     19  C   LIG d   1       7.368  -1.582  -4.614  0.00  0.00    -0.081 C 
ATOM     20  C   LIG d   1       7.887  -2.570  -4.249  0.00  0.00    -0.065 C 
BRANCH  20  21
ATOM     21  C   LIG d   1       8.519  -3.776  -3.804  0.00  0.00     0.025 A 
ATOM     22  C   LIG d   1       9.262  -3.782  -2.623  0.00  0.00    -0.046 A 
ATOM     23  C   LIG d   1       9.868  -4.947  -2.199  0.00  0.00    -0.061 A 
ATOM     24  H   LIG d   1       9.361  -2.877  -2.042  0.00  0.00     0.063 H 
ATOM     25  C   LIG d   1       9.742  -6.106  -2.943  0.00  0.00    -0.062 A 
ATOM     26  H   LIG d   1      10.443  -4.953  -1.285  0.00  0.00     0.062 H 
ATOM     27  C   LIG d   1       9.007  -6.107  -4.115  0.00  0.00    -0.061 A 
ATOM     28  H   LIG d   1      10.222  -7.015  -2.609  0.00  0.00     0.062 H 
ATOM     29  C   LIG d   1       8.395  -4.949  -4.550  0.00  0.00    -0.046 A 
ATOM     30  H   LIG d   1       8.911  -7.015  -4.691  0.00  0.00     0.062 H 
ATOM     31  H   LIG d   1       7.822  -4.950  -5.464  0.00  0.00     0.063 H 
ENDBRANCH  20  21
ENDBRANCH  16  19
ENDBRANCH   1  16
BRANCH   6  32
ATOM     32  C   LIG d   1       4.198  -1.182  -5.966  0.00  0.00    -0.012 A 
ATOM     33  C   LIG d   1       3.573  -0.134  -6.613  0.00  0.00     0.032 A 
ATOM     34  N   LIG d   1       3.319  -0.195  -7.906  0.00  0.00    -0.263 NA
ATOM     35  H   LIG d   1       3.295   0.748  -6.055  0.00  0.00     0.083 H 
ATOM     36  C   LIG d   1       3.635  -1.253  -8.626  0.00  0.00     0.028 A 
ATOM     37  C   LIG d   1       4.257  -2.343  -8.046  0.00  0.00    -0.043 A 
ATOM     38  H   LIG d   1       3.405  -1.269  -9.681  0.00  0.00     0.083 H 
ATOM     39  C   LIG d   1       4.547  -2.313  -6.690  0.00  0.00    -0.054 A 
ATOM     40  H   LIG d   1       4.515  -3.206  -8.641  0.00  0.00     0.063 H 
ATOM     41  H   LIG d   1       5.033  -3.149  -6.211  0.00  0.00     0.062 H 
ENDBRANCH   6  32
TORSDOF 4
ENDMDL
MODEL 8
REMARK VINA RESULT:      -5.8      2.960      7.142
REMARK  4 active torsions:
REMARK  status: ('A' for Active; 'I' for Inactive)
REMARK    1  A    between atoms: C_4  and  C_7 
REMARK    2  A    between atoms: C_8  and  C_9 
REMARK    3  A    between atoms: C_9  and  N_10 
REMARK    4  A    between atoms: C_15  and  C_17 
ROOT
ATOM      1  N   LIG d   1       6.808  -0.144  -5.498  0.00  0.00    -0.284 N 
ATOM      2  C   LIG d   1       8.135   0.246  -5.989  0.00  0.00     0.000 C 
ATOM      3  C   LIG d   1       8.413   1.703  -5.612  0.00  0.00    -0.040 C 
ATOM      4  C   LIG d   1       8.346   1.853  -4.089  0.00  0.00    -0.050 C 
ATOM      5  C   LIG d   1       6.970   1.395  -3.599  0.00  0.00    -0.033 C 
ATOM      6  C   LIG d   1       6.734  -0.054  -4.034  0.00  0.00     0.038 C 
ATOM      7  H   LIG d   1       7.498  -0.694  -3.593  0.00  0.00     0.051 H 
ATOM      8  H   LIG d   1       8.892  -0.396  -5.538  0.00  0.00     0.043 H 
ATOM      9  H   LIG d   1       8.168   0.139  -7.074  0.00  0.00     0.043 H 
ATOM     10  H   LIG d   1       9.405   1.987  -5.963  0.00  0.00     0.028 H 
ATOM     11  H   LIG d   1       7.665   2.347  -6.074  0.00  0.00     0.028 H 
ATOM     12  H   LIG d   1       9.121   1.238  -3.629  0.00  0.00     0.027 H 
ATOM     13  H   LIG d   1       8.501   2.897  -3.819  0.00  0.00     0.027 H 
ATOM     14  H   LIG d   1       6.932   1.458  -2.511  0.00  0.00     0.028 H 
ATOM     15  H   LIG d   1       6.200   2.034  -4.029  0.00  0.00     0.028 H 
ENDROOT
BRANCH   1  16
ATOM     16  C   LIG d   1       6.449  -1.492  -5.961  0.00  0.00     0.062 C 
ATOM     17  H   LIG d   1       6.056  -2.070  -5.125  0.00  0.00     0.056 H 
ATOM     18  H   LIG d   1       7.335  -1.985  -6.360  0.00  0.00     0.056 H 
BRANCH  16  19
ATOM     19  C   LIG d   1       5.426  -1.393  -7.014  0.00  0.00    -0.081 C 
ATOM     20  C   LIG d   1       4.611  -1.314  -7.855  0.00  0.00    -0.065 C 
BRANCH  20  21
ATOM     21  C   LIG d   1       3.615  -1.218  -8.881  0.00  0.00     0.025 A 
ATOM     22  C   LIG d   1       3.797  -1.878 -10.097  0.00  0.00    -0.046 A 
ATOM     23  C   LIG d   1       2.834  -1.782 -11.080  0.00  0.00    -0.061 A 
ATOM     24  H   LIG d   1       4.689  -2.463 -10.267  0.00  0.00     0.063 H 
ATOM     25  C   LIG d   1       1.691  -1.032 -10.863  0.00  0.00    -0.062 A 
ATOM     26  H   LIG d   1       2.973  -2.293 -12.022  0.00  0.00     0.062 H 
ATOM     27  C   LIG d   1       1.506  -0.376  -9.660  0.00  0.00    -0.061 A 
ATOM     28  H   LIG d   1       0.943  -0.957 -11.639  0.00  0.00     0.062 H 
ATOM     29  C   LIG d   1       2.460  -0.463  -8.668  0.00  0.00    -0.046 A 
ATOM     30  H   LIG d   1       0.612   0.207  -9.497  0.00  0.00     0.062 H 
ATOM     31  H   LIG d   1       2.315   0.049  -7.730  0.00  0.00     0.063 H 
ENDBRANCH  20  21
ENDBRANCH  16  19
ENDBRANCH   1  16
BRANCH   6  32
ATOM     32  C   LIG d   1       5.373  -0.502  -3.571  0.00  0.00    -0.012 A 
ATOM     33  C   LIG d   1       4.250   0.243  -3.876  0.00  0.00     0.032 A 
ATOM     34  N   LIG d   1       3.053  -0.147  -3.479  0.00  0.00    -0.263 NA
ATOM     35  H   LIG d   1       4.352   1.151  -4.451  0.00  0.00     0.083 H 
ATOM     36  C   LIG d   1       2.882  -1.246  -2.771  0.00  0.00     0.028 A 
ATOM     37  C   LIG d   1       3.960  -2.038  -2.423  0.00  0.00    -0.043 A 
ATOM     38  H   LIG d   1       1.888  -1.530  -2.459  0.00  0.00     0.083 H 
ATOM     39  C   LIG d   1       5.232  -1.664  -2.827  0.00  0.00    -0.054 A 
ATOM     40  H   LIG d   1       3.813  -2.937  -1.843  0.00  0.00     0.063 H 
ATOM     41  H   LIG d   1       6.092  -2.264  -2.570  0.00  0.00     0.062 H 
ENDBRANCH   6  32
TORSDOF 4
ENDMDL
MODEL 9
REMARK VINA RESULT:      -5.7      5.895      7.934
REMARK  4 active torsions:
REMARK  status: ('A' for Active; 'I' for Inactive)
REMARK    1  A    between atoms: C_4  and  C_7 
REMARK    2  A    between atoms: C_8  and  C_9 
REMARK    3  A    between atoms: C_9  and  N_10 
REMARK    4  A    between atoms: C_15  and  C_17 
ROOT
ATOM      1  N   LIG d   1      10.160   2.528  -4.804  0.00  0.00    -0.284 N 
ATOM      2  C   LIG d   1      10.840   2.207  -3.543  0.00  0.00     0.000 C 
ATOM      3  C   LIG d   1      12.099   1.388  -3.836  0.00  0.00    -0.040 C 
ATOM      4  C   LIG d   1      13.027   2.196  -4.748  0.00  0.00    -0.050 C 
ATOM      5  C   LIG d   1      12.278   2.557  -6.033  0.00  0.00    -0.033 C 
ATOM      6  C   LIG d   1      11.014   3.343  -5.677  0.00  0.00     0.038 C 
ATOM      7  H   LIG d   1      11.291   4.261  -5.159  0.00  0.00     0.051 H 
ATOM      8  H   LIG d   1      11.118   3.131  -3.036  0.00  0.00     0.043 H 
ATOM      9  H   LIG d   1      10.171   1.629  -2.905  0.00  0.00     0.043 H 
ATOM     10  H   LIG d   1      12.613   1.164  -2.901  0.00  0.00     0.028 H 
ATOM     11  H   LIG d   1      11.821   0.458  -4.331  0.00  0.00     0.028 H 
ATOM     12  H   LIG d   1      13.337   3.108  -4.237  0.00  0.00     0.027 H 
ATOM     13  H   LIG d   1      13.906   1.598  -4.993  0.00  0.00     0.027 H 
ATOM     14  H   LIG d   1      12.920   3.169  -6.668  0.00  0.00     0.028 H 
ATOM     15  H   LIG d   1      12.003   1.646  -6.563  0.00  0.00     0.028 H 
ENDROOT
BRANCH   1  16
ATOM     16  C   LIG d   1       8.874   3.195  -4.554  0.00  0.00     0.062 C 
ATOM     17  H   LIG d   1       8.498   3.618  -5.485  0.00  0.00     0.056 H 
ATOM     18  H   LIG d   1       9.015   3.990  -3.823  0.00  0.00     0.056 H 
BRANCH  16  19
ATOM     19  C   LIG d   1       7.907   2.215  -4.034  0.00  0.00    -0.081 C 
ATOM     20  C   LIG d   1       7.134   1.434  -3.620  0.00  0.00    -0.065 C 
BRANCH  20  21
ATOM     21  C   LIG d   1       6.193   0.480  -3.114  0.00  0.00     0.025 A 
ATOM     22  C   LIG d   1       6.345  -0.876  -3.404  0.00  0.00    -0.046 A 
ATOM     23  C   LIG d   1       5.435  -1.789  -2.913  0.00  0.00    -0.061 A 
ATOM     24  H   LIG d   1       7.174  -1.210  -4.011  0.00  0.00     0.063 H 
ATOM     25  C   LIG d   1       4.372  -1.363  -2.137  0.00  0.00    -0.062 A 
ATOM     26  H   LIG d   1       5.552  -2.840  -3.137  0.00  0.00     0.062 H 
ATOM     27  C   LIG d   1       4.216  -0.020  -1.846  0.00  0.00    -0.061 A 
ATOM     28  H   LIG d   1       3.660  -2.082  -1.759  0.00  0.00     0.062 H 
ATOM     29  C   LIG d   1       5.119   0.904  -2.330  0.00  0.00    -0.046 A 
ATOM     30  H   LIG d   1       3.385   0.307  -1.239  0.00  0.00     0.062 H 
ATOM     31  H   LIG d   1       4.996   1.952  -2.103  0.00  0.00     0.063 H 
ENDBRANCH  20  21
ENDBRANCH  16  19
ENDBRANCH   1  16
BRANCH   6  32
ATOM     32  C   LIG d   1      10.263   3.684  -6.939  0.00  0.00    -0.012 A 
ATOM     33  C   LIG d   1       9.726   2.684  -7.725  0.00  0.00     0.032 A 
ATOM     34  N   LIG d   1       9.061   2.975  -8.827  0.00  0.00    -0.263 NA
ATOM     35  H   LIG d   1       9.846   1.651  -7.431  0.00  0.00     0.083 H 
ATOM     36  C   LIG d   1       8.895   4.220  -9.227  0.00  0.00     0.028 A 
ATOM     37  C   LIG d   1       9.410   5.273  -8.494  0.00  0.00    -0.043 A 
ATOM     38  H   LIG d   1       8.350   4.420 -10.138  0.00  0.00     0.083 H 
ATOM     39  C   LIG d   1      10.109   5.006  -7.327  0.00  0.00    -0.054 A 
ATOM     40  H   LIG d   1       9.270   6.291  -8.827  0.00  0.00     0.063 H 
ATOM     41  H   LIG d   1      10.521   5.809  -6.735  0.00  0.00     0.062 H 
ENDBRANCH   6  32
TORSDOF 4
ENDMDL
MODEL 10
REMARK VINA RESULT:      -5.7      5.075      7.961
REMARK  4 active torsions:
REMARK  status: ('A' for Active; 'I' for Inactive)
REMARK    1  A    between atoms: C_4  and  C_7 
REMARK    2  A    between atoms: C_8  and  C_9 
REMARK    3  A    between atoms: C_9  and  N_10 
REMARK    4  A    between atoms: C_15  and  C_17 
ROOT
ATOM      1  N   LIG d   1       5.937  -0.090  -3.980  0.00  0.00    -0.284 N 
ATOM      2  C   LIG d   1       5.832   1.110  -3.141  0.00  0.00     0.000 C 
ATOM      3  C   LIG d   1       4.503   1.086  -2.381  0.00  0.00    -0.040 C 
ATOM      4  C   LIG d   1       4.438  -0.174  -1.514  0.00  0.00    -0.050 C 
ATOM      5  C   LIG d   1       4.599  -1.407  -2.408  0.00  0.00    -0.033 C 
ATOM      6  C   LIG d   1       5.925  -1.312  -3.167  0.00  0.00     0.038 C 
ATOM      7  H   LIG d   1       6.749  -1.282  -2.454  0.00  0.00     0.051 H 
ATOM      8  H   LIG d   1       6.656   1.128  -2.429  0.00  0.00     0.043 H 
ATOM      9  H   LIG d   1       5.875   1.999  -3.770  0.00  0.00     0.043 H 
ATOM     10  H   LIG d   1       4.432   1.969  -1.745  0.00  0.00     0.028 H 
ATOM     11  H   LIG d   1       3.677   1.082  -3.092  0.00  0.00     0.028 H 
ATOM     12  H   LIG d   1       5.241  -0.151  -0.776  0.00  0.00     0.027 H 
ATOM     13  H   LIG d   1       3.476  -0.216  -1.004  0.00  0.00     0.027 H 
ATOM     14  H   LIG d   1       4.597  -2.306  -1.790  0.00  0.00     0.028 H 
ATOM     15  H   LIG d   1       3.775  -1.451  -3.119  0.00  0.00     0.028 H 
ENDROOT
BRANCH   1  16
ATOM     16  C   LIG d   1       7.136  -0.035  -4.829  0.00  0.00     0.062 C 
ATOM     17  H   LIG d   1       6.837   0.030  -5.875  0.00  0.00     0.056 H 
ATOM     18  H   LIG d   1       7.730  -0.936  -4.676  0.00  0.00     0.056 H 
BRANCH  16  19
ATOM     19  C   LIG d   1       7.936   1.147  -4.472  0.00  0.00    -0.081 C 
ATOM     20  C   LIG d   1       8.574   2.091  -4.187  0.00  0.00    -0.065 C 
BRANCH  20  21
ATOM     21  C   LIG d   1       9.353   3.241  -3.839  0.00  0.00     0.025 A 
ATOM     22  C   LIG d   1      10.249   3.184  -2.771  0.00  0.00    -0.046 A 
ATOM     23  C   LIG d   1      10.996   4.296  -2.442  0.00  0.00    -0.061 A 
ATOM     24  H   LIG d   1      10.356   2.271  -2.204  0.00  0.00     0.063 H 
ATOM     25  C   LIG d   1      10.859   5.466  -3.168  0.00  0.00    -0.062 A 
ATOM     26  H   LIG d   1      11.690   4.253  -1.615  0.00  0.00     0.062 H 
ATOM     27  C   LIG d   1       9.973   5.529  -4.228  0.00  0.00    -0.061 A 
ATOM     28  H   LIG d   1      11.444   6.335  -2.903  0.00  0.00     0.062 H 
ATOM     29  C   LIG d   1       9.219   4.425  -4.568  0.00  0.00    -0.046 A 
ATOM     30  H   LIG d   1       9.870   6.444  -4.791  0.00  0.00     0.062 H 
ATOM     31  H   LIG d   1       8.527   4.475  -5.395  0.00  0.00     0.063 H 
ENDBRANCH  20  21
ENDBRANCH  16  19
ENDBRANCH   1  16
BRANCH   6  32
ATOM     32  C   LIG d   1       6.078  -2.514  -4.062  0.00  0.00    -0.012 A 
ATOM     33  C   LIG d   1       5.002  -2.987  -4.788  0.00  0.00     0.032 A 
ATOM     34  N   LIG d   1       5.130  -4.035  -5.580  0.00  0.00    -0.263 NA
ATOM     35  H   LIG d   1       4.046  -2.490  -4.711  0.00  0.00     0.083 H 
ATOM     36  C   LIG d   1       6.276  -4.676  -5.700  0.00  0.00     0.028 A 
ATOM     37  C   LIG d   1       7.394  -4.264  -5.000  0.00  0.00    -0.043 A 
ATOM     38  H   LIG d   1       6.341  -5.534  -6.353  0.00  0.00     0.083 H 
ATOM     39  C   LIG d   1       7.300  -3.163  -4.163  0.00  0.00    -0.054 A 
ATOM     40  H   LIG d   1       8.330  -4.793  -5.103  0.00  0.00     0.063 H 
ATOM     41  H   LIG d   1       8.157  -2.819  -3.604  0.00  0.00     0.062 H 
ENDBRANCH   6  32
TORSDOF 4
ENDMDL
