MODEL 1
REMARK VINA RESULT:      -5.1      0.000      0.000
REMARK  1 active torsions:
REMARK  status: ('A' for Active; 'I' for Inactive)
REMARK    1  A    between atoms: C_3  and  N_11 
ROOT
ATOM      1  C   LIG d   1       4.305  -1.191  -1.983  0.00  0.00    -0.054 A 
ATOM      2  C   LIG d   1       3.379  -0.399  -2.649  0.00  0.00     0.016 A 
ATOM      3  C   LIG d   1       3.362  -0.309  -4.005  0.00  0.00     0.282 A 
ATOM      4  C   LIG d   1       4.296  -1.028  -4.787  0.00  0.00     0.080 A 
ATOM      5  C   LIG d   1       5.227  -1.826  -4.089  0.00  0.00     0.027 A 
ATOM      6  C   LIG d   1       5.234  -1.908  -2.712  0.00  0.00    -0.047 A 
ATOM      7  S   LIG d   1       6.206  -2.554  -5.377  0.00  0.00    -0.095 SA
ATOM      8  C   LIG d   1       5.398  -1.818  -6.787  0.00  0.00    -0.009 A 
ATOM      9  C   LIG d   1       4.436  -1.063  -6.237  0.00  0.00     0.039 A 
ATOM     10 BR   LIG d   1       3.271  -0.052  -7.333  0.00  0.00    -0.049 Br
ATOM     11  H   LIG d   1       4.302  -1.244  -0.905  0.00  0.00     0.062 H 
ATOM     12  H   LIG d   1       2.654   0.160  -2.074  0.00  0.00     0.069 H 
ATOM     13  H   LIG d   1       5.959  -2.529  -2.208  0.00  0.00     0.063 H 
ATOM     14  H   LIG d   1       5.628  -1.949  -7.833  0.00  0.00     0.070 H 
ENDROOT
BRANCH   3  15
ATOM     15  N   LIG d   1       2.355   0.548  -4.669  0.00  0.00     0.080 N 
ATOM     16  O   LIG d   1       2.610   1.707  -4.907  0.00  0.00     0.042 OA
ATOM     17  O   LIG d   1       1.280   0.090  -4.976  0.00  0.00    -0.576 OA
ENDBRANCH   3  15
TORSDOF 1
ENDMDL
MODEL 2
REMARK VINA RESULT:      -5.0      2.941      3.451
REMARK  1 active torsions:
REMARK  status: ('A' for Active; 'I' for Inactive)
REMARK    1  A    between atoms: C_3  and  N_11 
ROOT
ATOM      1  C   LIG d   1       8.211   0.886  -4.303  0.00  0.00    -0.054 A 
ATOM      2  C   LIG d   1       7.126   1.411  -3.613  0.00  0.00     0.016 A 
ATOM      3  C   LIG d   1       6.013   0.671  -3.365  0.00  0.00     0.282 A 
ATOM      4  C   LIG d   1       5.927  -0.671  -3.804  0.00  0.00     0.080 A 
ATOM      5  C   LIG d   1       7.041  -1.182  -4.504  0.00  0.00     0.027 A 
ATOM      6  C   LIG d   1       8.163  -0.420  -4.750  0.00  0.00    -0.047 A 
ATOM      7  S   LIG d   1       6.569  -2.850  -4.883  0.00  0.00    -0.095 SA
ATOM      8  C   LIG d   1       4.951  -2.856  -4.135  0.00  0.00    -0.009 A 
ATOM      9  C   LIG d   1       4.831  -1.617  -3.636  0.00  0.00     0.039 A 
ATOM     10 BR   LIG d   1       3.257  -1.101  -2.723  0.00  0.00    -0.049 Br
ATOM     11  H   LIG d   1       9.082   1.495  -4.492  0.00  0.00     0.062 H 
ATOM     12  H   LIG d   1       7.167   2.433  -3.265  0.00  0.00     0.069 H 
ATOM     13  H   LIG d   1       9.000  -0.842  -5.287  0.00  0.00     0.063 H 
ATOM     14  H   LIG d   1       4.236  -3.664  -4.093  0.00  0.00     0.070 H 
ENDROOT
BRANCH   3  15
ATOM     15  N   LIG d   1       4.883   1.273  -2.624  0.00  0.00     0.080 N 
ATOM     16  O   LIG d   1       4.013   1.863  -3.224  0.00  0.00     0.042 OA
ATOM     17  O   LIG d   1       4.827   1.175  -1.421  0.00  0.00    -0.576 OA
ENDBRANCH   3  15
TORSDOF 1
ENDMDL
MODEL 3
REMARK VINA RESULT:      -4.8      1.862      2.213
REMARK  1 active torsions:
REMARK  status: ('A' for Active; 'I' for Inactive)
REMARK    1  A    between atoms: C_3  and  N_11 
ROOT
ATOM      1  C   LIG d   1       2.451  -0.454  -3.164  0.00  0.00    -0.054 A 
ATOM      2  C   LIG d   1       2.249  -0.076  -4.486  0.00  0.00     0.016 A 
ATOM      3  C   LIG d   1       3.269  -0.061  -5.385  0.00  0.00     0.282 A 
ATOM      4  C   LIG d   1       4.578  -0.435  -4.999  0.00  0.00     0.080 A 
ATOM      5  C   LIG d   1       4.757  -0.814  -3.652  0.00  0.00     0.027 A 
ATOM      6  C   LIG d   1       3.714  -0.825  -2.749  0.00  0.00    -0.047 A 
ATOM      7  S   LIG d   1       6.485  -1.204  -3.552  0.00  0.00    -0.095 SA
ATOM      8  C   LIG d   1       6.941  -0.871  -5.244  0.00  0.00    -0.009 A 
ATOM      9  C   LIG d   1       5.788  -0.484  -5.809  0.00  0.00     0.039 A 
ATOM     10 BR   LIG d   1       5.732  -0.007  -7.638  0.00  0.00    -0.049 Br
ATOM     11  H   LIG d   1       1.627  -0.454  -2.467  0.00  0.00     0.062 H 
ATOM     12  H   LIG d   1       1.260   0.213  -4.806  0.00  0.00     0.069 H 
ATOM     13  H   LIG d   1       3.885  -1.122  -1.725  0.00  0.00     0.063 H 
ATOM     14  H   LIG d   1       7.913  -0.959  -5.704  0.00  0.00     0.070 H 
ENDROOT
BRANCH   3  15
ATOM     15  N   LIG d   1       3.006   0.349  -6.782  0.00  0.00     0.080 N 
ATOM     16  O   LIG d   1       2.720  -0.484  -7.612  0.00  0.00     0.042 OA
ATOM     17  O   LIG d   1       3.075   1.514  -7.094  0.00  0.00    -0.576 OA
ENDBRANCH   3  15
TORSDOF 1
ENDMDL
MODEL 4
REMARK VINA RESULT:      -4.7      2.822      3.343
REMARK  1 active torsions:
REMARK  status: ('A' for Active; 'I' for Inactive)
REMARK    1  A    between atoms: C_3  and  N_11 
ROOT
ATOM      1  C   LIG d   1       2.307   0.804  -5.227  0.00  0.00    -0.054 A 
ATOM      2  C   LIG d   1       2.931   0.733  -3.987  0.00  0.00     0.016 A 
ATOM      3  C   LIG d   1       4.086   0.039  -3.811  0.00  0.00     0.282 A 
ATOM      4  C   LIG d   1       4.694  -0.638  -4.894  0.00  0.00     0.080 A 
ATOM      5  C   LIG d   1       4.041  -0.551  -6.142  0.00  0.00     0.027 A 
ATOM      6  C   LIG d   1       2.870   0.156  -6.308  0.00  0.00    -0.047 A 
ATOM      7  S   LIG d   1       5.078  -1.502  -7.224  0.00  0.00    -0.095 SA
ATOM      8  C   LIG d   1       6.328  -1.990  -6.050  0.00  0.00    -0.009 A 
ATOM      9  C   LIG d   1       5.920  -1.425  -4.904  0.00  0.00     0.039 A 
ATOM     10 BR   LIG d   1       6.925  -1.648  -3.317  0.00  0.00    -0.049 Br
ATOM     11  H   LIG d   1       1.387   1.358  -5.342  0.00  0.00     0.062 H 
ATOM     12  H   LIG d   1       2.487   1.242  -3.145  0.00  0.00     0.069 H 
ATOM     13  H   LIG d   1       2.396   0.203  -7.277  0.00  0.00     0.063 H 
ATOM     14  H   LIG d   1       7.205  -2.597  -6.220  0.00  0.00     0.070 H 
ENDROOT
BRANCH   3  15
ATOM     15  N   LIG d   1       4.714  -0.007  -2.472  0.00  0.00     0.080 N 
ATOM     16  O   LIG d   1       5.502   0.851  -2.144  0.00  0.00     0.042 OA
ATOM     17  O   LIG d   1       4.440  -0.901  -1.706  0.00  0.00    -0.576 OA
ENDBRANCH   3  15
TORSDOF 1
ENDMDL
MODEL 5
REMARK VINA RESULT:      -4.6      2.888      3.654
REMARK  1 active torsions:
REMARK  status: ('A' for Active; 'I' for Inactive)
REMARK    1  A    between atoms: C_3  and  N_11 
ROOT
ATOM      1  C   LIG d   1       5.746  -3.145  -5.760  0.00  0.00    -0.054 A 
ATOM      2  C   LIG d   1       4.732  -2.963  -4.829  0.00  0.00     0.016 A 
ATOM      3  C   LIG d   1       4.705  -1.880  -4.008  0.00  0.00     0.282 A 
ATOM      4  C   LIG d   1       5.719  -0.895  -4.080  0.00  0.00     0.080 A 
ATOM      5  C   LIG d   1       6.738  -1.103  -5.033  0.00  0.00     0.027 A 
ATOM      6  C   LIG d   1       6.754  -2.207  -5.859  0.00  0.00    -0.047 A 
ATOM      7  S   LIG d   1       7.797   0.306  -4.828  0.00  0.00    -0.095 SA
ATOM      8  C   LIG d   1       6.908   1.132  -3.522  0.00  0.00    -0.009 A 
ATOM      9  C   LIG d   1       5.862   0.324  -3.295  0.00  0.00     0.039 A 
ATOM     10 BR   LIG d   1       4.586   0.762  -1.969  0.00  0.00    -0.049 Br
ATOM     11  H   LIG d   1       5.749  -4.016  -6.399  0.00  0.00     0.062 H 
ATOM     12  H   LIG d   1       3.946  -3.700  -4.755  0.00  0.00     0.069 H 
ATOM     13  H   LIG d   1       7.548  -2.335  -6.580  0.00  0.00     0.063 H 
ATOM     14  H   LIG d   1       7.153   2.061  -3.030  0.00  0.00     0.070 H 
ENDROOT
BRANCH   3  15
ATOM     15  N   LIG d   1       3.604  -1.728  -3.033  0.00  0.00     0.080 N 
ATOM     16  O   LIG d   1       3.679  -2.259  -1.948  0.00  0.00     0.042 OA
ATOM     17  O   LIG d   1       2.630  -1.072  -3.317  0.00  0.00    -0.576 OA
ENDBRANCH   3  15
TORSDOF 1
ENDMDL
MODEL 6
REMARK VINA RESULT:      -4.6      3.193      3.513
REMARK  1 active torsions:
REMARK  status: ('A' for Active; 'I' for Inactive)
REMARK    1  A    between atoms: C_3  and  N_11 
ROOT
ATOM      1  C   LIG d   1       4.285  -0.840  -1.864  0.00  0.00    -0.054 A 
ATOM      2  C   LIG d   1       5.197  -1.636  -2.545  0.00  0.00     0.016 A 
ATOM      3  C   LIG d   1       5.225  -1.685  -3.903  0.00  0.00     0.282 A 
ATOM      4  C   LIG d   1       4.318  -0.918  -4.672  0.00  0.00     0.080 A 
ATOM      5  C   LIG d   1       3.401  -0.118  -3.957  0.00  0.00     0.027 A 
ATOM      6  C   LIG d   1       3.383  -0.078  -2.579  0.00  0.00    -0.047 A 
ATOM      7  S   LIG d   1       2.454   0.674  -5.232  0.00  0.00    -0.095 SA
ATOM      8  C   LIG d   1       3.256  -0.040  -6.656  0.00  0.00    -0.009 A 
ATOM      9  C   LIG d   1       4.193  -0.837  -6.121  0.00  0.00     0.039 A 
ATOM     10 BR   LIG d   1       5.341  -1.844  -7.237  0.00  0.00    -0.049 Br
ATOM     11  H   LIG d   1       4.280  -0.820  -0.785  0.00  0.00     0.062 H 
ATOM     12  H   LIG d   1       5.901  -2.230  -1.982  0.00  0.00     0.069 H 
ATOM     13  H   LIG d   1       2.669   0.547  -2.063  0.00  0.00     0.063 H 
ATOM     14  H   LIG d   1       3.039   0.128  -7.700  0.00  0.00     0.070 H 
ENDROOT
BRANCH   3  15
ATOM     15  N   LIG d   1       6.215  -2.548  -4.585  0.00  0.00     0.080 N 
ATOM     16  O   LIG d   1       7.298  -2.102  -4.888  0.00  0.00     0.042 OA
ATOM     17  O   LIG d   1       5.944  -3.698  -4.837  0.00  0.00    -0.576 OA
ENDBRANCH   3  15
TORSDOF 1
ENDMDL
MODEL 7
REMARK VINA RESULT:      -4.5      1.992      3.286
REMARK  1 active torsions:
REMARK  status: ('A' for Active; 'I' for Inactive)
REMARK    1  A    between atoms: C_3  and  N_11 
ROOT
ATOM      1  C   LIG d   1       4.554  -1.055  -7.664  0.00  0.00    -0.054 A 
ATOM      2  C   LIG d   1       3.553  -0.431  -6.929  0.00  0.00     0.016 A 
ATOM      3  C   LIG d   1       3.725  -0.114  -5.619  0.00  0.00     0.282 A 
ATOM      4  C   LIG d   1       4.941  -0.411  -4.957  0.00  0.00     0.080 A 
ATOM      5  C   LIG d   1       5.941  -1.045  -5.725  0.00  0.00     0.027 A 
ATOM      6  C   LIG d   1       5.754  -1.362  -7.054  0.00  0.00    -0.047 A 
ATOM      7  S   LIG d   1       7.281  -1.249  -4.580  0.00  0.00    -0.095 SA
ATOM      8  C   LIG d   1       6.528  -0.516  -3.140  0.00  0.00    -0.009 A 
ATOM      9  C   LIG d   1       5.312  -0.151  -3.573  0.00  0.00     0.039 A 
ATOM     10 BR   LIG d   1       4.092   0.691  -2.399  0.00  0.00    -0.049 Br
ATOM     11  H   LIG d   1       4.393  -1.301  -8.703  0.00  0.00     0.062 H 
ATOM     12  H   LIG d   1       2.617  -0.193  -7.411  0.00  0.00     0.069 H 
ATOM     13  H   LIG d   1       6.540  -1.845  -7.613  0.00  0.00     0.063 H 
ATOM     14  H   LIG d   1       6.949  -0.394  -2.153  0.00  0.00     0.070 H 
ENDROOT
BRANCH   3  15
ATOM     15  N   LIG d   1       2.631   0.550  -4.877  0.00  0.00     0.080 N 
ATOM     16  O   LIG d   1       1.820  -0.113  -4.272  0.00  0.00     0.042 OA
ATOM     17  O   LIG d   1       2.548   1.756  -4.873  0.00  0.00    -0.576 OA
ENDBRANCH   3  15
TORSDOF 1
ENDMDL
MODEL 8
REMARK VINA RESULT:      -4.4      2.127      3.217
REMARK  1 active torsions:
REMARK  status: ('A' for Active; 'I' for Inactive)
REMARK    1  A    between atoms: C_3  and  N_11 
ROOT
ATOM      1  C   LIG d   1       3.025  -0.108  -7.538  0.00  0.00    -0.054 A 
ATOM      2  C   LIG d   1       2.808   0.361  -6.248  0.00  0.00     0.016 A 
ATOM      3  C   LIG d   1       3.449  -0.178  -5.178  0.00  0.00     0.282 A 
ATOM      4  C   LIG d   1       4.367  -1.242  -5.347  0.00  0.00     0.080 A 
ATOM      5  C   LIG d   1       4.569  -1.701  -6.666  0.00  0.00     0.027 A 
ATOM      6  C   LIG d   1       3.912  -1.145  -7.743  0.00  0.00    -0.047 A 
ATOM      7  S   LIG d   1       5.757  -3.006  -6.478  0.00  0.00    -0.095 SA
ATOM      8  C   LIG d   1       5.967  -2.935  -4.709  0.00  0.00    -0.009 A 
ATOM      9  C   LIG d   1       5.145  -1.944  -4.335  0.00  0.00     0.039 A 
ATOM     10 BR   LIG d   1       4.998  -1.461  -2.512  0.00  0.00    -0.049 Br
ATOM     11  H   LIG d   1       2.501   0.334  -8.373  0.00  0.00     0.062 H 
ATOM     12  H   LIG d   1       2.114   1.173  -6.093  0.00  0.00     0.069 H 
ATOM     13  H   LIG d   1       4.091  -1.519  -8.741  0.00  0.00     0.063 H 
ATOM     14  H   LIG d   1       6.604  -3.545  -4.086  0.00  0.00     0.070 H 
ENDROOT
BRANCH   3  15
ATOM     15  N   LIG d   1       3.187   0.355  -3.823  0.00  0.00     0.080 N 
ATOM     16  O   LIG d   1       3.741   1.365  -3.453  0.00  0.00     0.042 OA
ATOM     17  O   LIG d   1       2.418  -0.217  -3.087  0.00  0.00    -0.576 OA
ENDBRANCH   3  15
TORSDOF 1
ENDMDL
MODEL 9
REMARK VINA RESULT:      -4.4      2.684      3.334
REMARK  1 active torsions:
REMARK  status: ('A' for Active; 'I' for Inactive)
REMARK    1  A    between atoms: C_3  and  N_11 
ROOT
ATOM      1  C   LIG d   1       7.692  -2.090  -4.233  0.00  0.00    -0.054 A 
ATOM      2  C   LIG d   1       6.713  -2.070  -3.248  0.00  0.00     0.016 A 
ATOM      3  C   LIG d   1       5.471  -1.573  -3.489  0.00  0.00     0.282 A 
ATOM      4  C   LIG d   1       5.135  -1.057  -4.763  0.00  0.00     0.080 A 
ATOM      5  C   LIG d   1       6.147  -1.088  -5.746  0.00  0.00     0.027 A 
ATOM      6  C   LIG d   1       7.403  -1.595  -5.489  0.00  0.00    -0.047 A 
ATOM      7  S   LIG d   1       5.367  -0.375  -7.172  0.00  0.00    -0.095 SA
ATOM      8  C   LIG d   1       3.759  -0.052  -6.475  0.00  0.00    -0.009 A 
ATOM      9  C   LIG d   1       3.871  -0.488  -5.211  0.00  0.00     0.039 A 
ATOM     10 BR   LIG d   1       2.404  -0.367  -4.024  0.00  0.00    -0.049 Br
ATOM     11  H   LIG d   1       8.673  -2.487  -4.017  0.00  0.00     0.062 H 
ATOM     12  H   LIG d   1       6.944  -2.459  -2.267  0.00  0.00     0.069 H 
ATOM     13  H   LIG d   1       8.154  -1.605  -6.264  0.00  0.00     0.063 H 
ATOM     14  H   LIG d   1       2.898   0.391  -6.954  0.00  0.00     0.070 H 
ENDROOT
BRANCH   3  15
ATOM     15  N   LIG d   1       4.460  -1.573  -2.409  0.00  0.00     0.080 N 
ATOM     16  O   LIG d   1       3.683  -2.495  -2.309  0.00  0.00     0.042 OA
ATOM     17  O   LIG d   1       4.412  -0.654  -1.626  0.00  0.00    -0.576 OA
ENDBRANCH   3  15
TORSDOF 1
ENDMDL
