MODEL 1
REMARK VINA RESULT:      -7.4      0.000      0.000
REMARK  10 active torsions:
REMARK  status: ('A' for Active; 'I' for Inactive)
REMARK    1  A    between atoms: C_1  and  C_2 
REMARK    2  A    between atoms: C_13  and  O_15 
REMARK    3  A    between atoms: O_15  and  C_16 
REMARK    4  A    between atoms: C_16  and  C_18 
REMARK    5  A    between atoms: C_18  and  C_19 
REMARK    6  A    between atoms: C_19  and  C_20 
REMARK       I    between atoms: C_20  and  N_22 
REMARK    7  A    between atoms: N_22  and  C_23 
REMARK    8  A    between atoms: C_23  and  C_24 
REMARK    9  A    between atoms: C_24  and  C_25 
REMARK   10  A    between atoms: C_43  and  C_44 
ROOT
ATOM      1  C   LIG d   1       6.543  -2.290  -4.644  0.00  0.00     0.008 C 
ATOM      2  C   LIG d   1       5.324  -3.072  -4.205  0.00  0.00    -0.044 C 
ATOM      3  C   LIG d   1       5.069  -4.209  -5.213  0.00  0.00    -0.049 C 
ATOM      4  C   LIG d   1       6.390  -4.890  -5.559  0.00  0.00    -0.029 C 
ATOM      5  H   LIG d   1       6.907  -4.987  -4.590  0.00  0.00     0.031 H 
ATOM      6  C   LIG d   1       7.277  -3.973  -6.374  0.00  0.00    -0.034 C 
ATOM      7  H   LIG d   1       8.311  -4.082  -6.052  0.00  0.00     0.031 H 
ATOM      8  C   LIG d   1       6.805  -2.541  -6.144  0.00  0.00    -0.029 C 
ATOM      9  H   LIG d   1       5.890  -2.356  -6.724  0.00  0.00     0.031 H 
ATOM     10  C   LIG d   1       7.847  -1.463  -6.480  0.00  0.00    -0.046 C 
ATOM     11  C   LIG d   1       7.378  -0.235  -5.656  0.00  0.00    -0.015 C 
ATOM     12  C   LIG d   1       6.364  -0.763  -4.612  0.00  0.00     0.109 C 
ATOM     13  H   LIG d   1       5.350  -0.500  -4.896  0.00  0.00     0.074 H 
ATOM     14  C   LIG d   1       7.208  -4.235  -7.876  0.00  0.00    -0.046 C 
ATOM     15  C   LIG d   1       7.490  -5.695  -8.197  0.00  0.00    -0.030 C 
ATOM     16  C   LIG d   1       6.463  -6.540  -7.469  0.00  0.00    -0.060 C 
ATOM     17  C   LIG d   1       5.789  -7.445  -8.181  0.00  0.00    -0.019 C 
ATOM     18  C   LIG d   1       4.800  -8.322  -7.549  0.00  0.00     0.156 C 
ATOM     19  O   LIG d   1       4.062  -9.019  -8.221  0.00  0.00    -0.293 OA
ATOM     20  C   LIG d   1       4.725  -8.339  -6.039  0.00  0.00     0.011 C 
ATOM     21  C   LIG d   1       4.930  -6.917  -5.521  0.00  0.00    -0.037 C 
ATOM     22  C   LIG d   1       6.240  -6.317  -6.011  0.00  0.00    -0.007 C 
ATOM     23  H   LIG d   1       4.453  -2.413  -4.175  0.00  0.00     0.027 H 
ATOM     24  H   LIG d   1       5.487  -3.493  -3.212  0.00  0.00     0.027 H 
ATOM     25  H   LIG d   1       4.619  -3.800  -6.117  0.00  0.00     0.027 H 
ATOM     26  H   LIG d   1       4.383  -4.925  -4.760  0.00  0.00     0.027 H 
ATOM     27  H   LIG d   1       7.823  -1.232  -7.547  0.00  0.00     0.027 H 
ATOM     28  H   LIG d   1       8.848  -1.769  -6.186  0.00  0.00     0.027 H 
ATOM     29  H   LIG d   1       6.894   0.490  -6.311  0.00  0.00     0.030 H 
ATOM     30  H   LIG d   1       8.228   0.225  -5.154  0.00  0.00     0.030 H 
ATOM     31  H   LIG d   1       6.208  -3.977  -8.228  0.00  0.00     0.027 H 
ATOM     32  H   LIG d   1       7.939  -3.605  -8.380  0.00  0.00     0.027 H 
ATOM     33  H   LIG d   1       7.401  -5.857  -9.272  0.00  0.00     0.031 H 
ATOM     34  H   LIG d   1       8.493  -5.961  -7.870  0.00  0.00     0.031 H 
ATOM     35  H   LIG d   1       5.980  -7.534  -9.244  0.00  0.00     0.065 H 
ATOM     36  H   LIG d   1       5.435  -8.943  -5.675  0.00  0.00     0.035 H 
ATOM     37  H   LIG d   1       3.737  -8.697  -5.727  0.00  0.00     0.035 H 
ATOM     38  H   LIG d   1       4.928  -6.924  -4.432  0.00  0.00     0.028 H 
ATOM     39  H   LIG d   1       4.105  -6.301  -5.879  0.00  0.00     0.028 H 
ENDROOT
BRANCH  12  40
ATOM     40  O   LIG d   1       6.684  -0.253  -3.293  0.00  0.00    -0.461 OA
BRANCH  40  41
ATOM     41  C   LIG d   1       5.926   0.751  -2.828  0.00  0.00     0.308 C 
ATOM     42  O   LIG d   1       6.162   1.890  -3.156  0.00  0.00    -0.251 OA
BRANCH  41  43
ATOM     43  C   LIG d   1       4.779   0.460  -1.894  0.00  0.00     0.053 C 
ATOM     44  H   LIG d   1       4.615  -0.617  -1.847  0.00  0.00     0.038 H 
ATOM     45  H   LIG d   1       5.016   0.835  -0.900  0.00  0.00     0.038 H 
BRANCH  43  46
ATOM     46  C   LIG d   1       3.512   1.146  -2.411  0.00  0.00     0.034 C 
ATOM     47  H   LIG d   1       2.761   1.161  -1.621  0.00  0.00     0.036 H 
ATOM     48  H   LIG d   1       3.747   2.167  -2.709  0.00  0.00     0.036 H 
BRANCH  46  49
ATOM     49  C   LIG d   1       2.978   0.387  -3.598  0.00  0.00     0.214 C 
ATOM     50  O   LIG d   1       2.535  -0.733  -3.454  0.00  0.00    -0.276 OA
ATOM     51  N   LIG d   1       2.994   0.953  -4.821  0.00  0.00    -0.315 N 
ATOM     52  H   LIG d   1       3.348   1.848  -4.938  0.00  0.00     0.149 HD
BRANCH  51  53
ATOM     53  C   LIG d   1       2.475   0.215  -5.976  0.00  0.00     0.016 C 
ATOM     54  H   LIG d   1       1.964  -0.684  -5.634  0.00  0.00     0.046 H 
ATOM     55  H   LIG d   1       1.775   0.844  -6.526  0.00  0.00     0.046 H 
BRANCH  53  56
ATOM     56  C   LIG d   1       3.636  -0.177  -6.893  0.00  0.00    -0.010 C 
ATOM     57  H   LIG d   1       4.256   0.698  -7.089  0.00  0.00     0.033 H 
ATOM     58  H   LIG d   1       4.237  -0.947  -6.410  0.00  0.00     0.033 H 
BRANCH  56  59
ATOM     59  C   LIG d   1       3.091  -0.708  -8.194  0.00  0.00    -0.021 A 
ATOM     60  C   LIG d   1       3.195  -2.085  -8.684  0.00  0.00     0.003 A 
ATOM     61  C   LIG d   1       2.541  -2.103  -9.931  0.00  0.00     0.047 A 
ATOM     62  C   LIG d   1       3.770  -3.253  -8.182  0.00  0.00    -0.052 A 
ATOM     63  N   LIG d   1       2.079  -0.827 -10.166  0.00  0.00    -0.360 N 
ATOM     64  C   LIG d   1       2.476  -3.293 -10.648  0.00  0.00    -0.038 A 
ATOM     65  C   LIG d   1       2.412  -0.011  -9.119  0.00  0.00     0.006 A 
ATOM     66  H   LIG d   1       1.589  -0.549 -10.955  0.00  0.00     0.165 HD
ATOM     67  H   LIG d   1       2.166   1.037  -9.048  0.00  0.00     0.081 H 
ATOM     68  C   LIG d   1       3.050  -4.434 -10.134  0.00  0.00    -0.060 A 
ATOM     69  H   LIG d   1       1.979  -3.321 -11.606  0.00  0.00     0.064 H 
ATOM     70  C   LIG d   1       3.694  -4.411  -8.904  0.00  0.00    -0.061 A 
ATOM     71  H   LIG d   1       2.999  -5.357 -10.692  0.00  0.00     0.062 H 
ATOM     72  H   LIG d   1       4.140  -5.315  -8.516  0.00  0.00     0.062 H 
ATOM     73  H   LIG d   1       4.272  -3.242  -7.226  0.00  0.00     0.062 H 
ENDBRANCH  56  59
ENDBRANCH  53  56
ENDBRANCH  51  53
ENDBRANCH  46  49
ENDBRANCH  43  46
ENDBRANCH  41  43
ENDBRANCH  40  41
ENDBRANCH  12  40
BRANCH   1  74
ATOM     74  C   LIG d   1       7.755  -2.652  -3.787  0.00  0.00    -0.056 C 
ATOM     75  H   LIG d   1       8.268  -1.740  -3.480  0.00  0.00     0.024 H 
ATOM     76  H   LIG d   1       7.426  -3.198  -2.903  0.00  0.00     0.024 H 
ATOM     77  H   LIG d   1       8.437  -3.274  -4.366  0.00  0.00     0.024 H 
ENDBRANCH   1  74
BRANCH  22  78
ATOM     78  C   LIG d   1       7.351  -7.093  -5.290  0.00  0.00    -0.056 C 
ATOM     79  H   LIG d   1       8.257  -6.488  -5.260  0.00  0.00     0.024 H 
ATOM     80  H   LIG d   1       7.033  -7.322  -4.273  0.00  0.00     0.024 H 
ATOM     81  H   LIG d   1       7.552  -8.021  -5.826  0.00  0.00     0.024 H 
ENDBRANCH  22  78
TORSDOF 10
ENDMDL
MODEL 2
REMARK VINA RESULT:      -7.2      2.544      8.020
REMARK  10 active torsions:
REMARK  status: ('A' for Active; 'I' for Inactive)
REMARK    1  A    between atoms: C_1  and  C_2 
REMARK    2  A    between atoms: C_13  and  O_15 
REMARK    3  A    between atoms: O_15  and  C_16 
REMARK    4  A    between atoms: C_16  and  C_18 
REMARK    5  A    between atoms: C_18  and  C_19 
REMARK    6  A    between atoms: C_19  and  C_20 
REMARK       I    between atoms: C_20  and  N_22 
REMARK    7  A    between atoms: N_22  and  C_23 
REMARK    8  A    between atoms: C_23  and  C_24 
REMARK    9  A    between atoms: C_24  and  C_25 
REMARK   10  A    between atoms: C_43  and  C_44 
ROOT
ATOM      1  C   LIG d   1       3.716  -4.739  -9.620  0.00  0.00     0.008 C 
ATOM      2  C   LIG d   1       3.783  -4.001  -8.301  0.00  0.00    -0.044 C 
ATOM      3  C   LIG d   1       4.037  -2.507  -8.577  0.00  0.00    -0.049 C 
ATOM      4  C   LIG d   1       3.146  -2.041  -9.724  0.00  0.00    -0.029 C 
ATOM      5  H   LIG d   1       2.168  -2.504  -9.512  0.00  0.00     0.031 H 
ATOM      6  C   LIG d   1       3.583  -2.656 -11.037  0.00  0.00    -0.034 C 
ATOM      7  H   LIG d   1       2.707  -2.926 -11.624  0.00  0.00     0.031 H 
ATOM      8  C   LIG d   1       4.404  -3.901 -10.718  0.00  0.00    -0.029 C 
ATOM      9  H   LIG d   1       5.411  -3.605 -10.392  0.00  0.00     0.031 H 
ATOM     10  C   LIG d   1       4.518  -4.905 -11.875  0.00  0.00    -0.046 C 
ATOM     11  C   LIG d   1       4.858  -6.242 -11.165  0.00  0.00    -0.015 C 
ATOM     12  C   LIG d   1       4.536  -6.040  -9.664  0.00  0.00     0.109 C 
ATOM     13  H   LIG d   1       5.450  -5.924  -9.089  0.00  0.00     0.074 H 
ATOM     14  C   LIG d   1       4.464  -1.737 -11.877  0.00  0.00    -0.046 C 
ATOM     15  C   LIG d   1       3.800  -0.386 -12.100  0.00  0.00    -0.030 C 
ATOM     16  C   LIG d   1       3.538   0.236 -10.743  0.00  0.00    -0.060 C 
ATOM     17  C   LIG d   1       3.962   1.485 -10.542  0.00  0.00    -0.019 C 
ATOM     18  C   LIG d   1       3.723   2.170  -9.269  0.00  0.00     0.156 C 
ATOM     19  O   LIG d   1       4.259   3.234  -9.020  0.00  0.00    -0.293 OA
ATOM     20  C   LIG d   1       2.787   1.519  -8.275  0.00  0.00     0.011 C 
ATOM     21  C   LIG d   1       3.016   0.009  -8.301  0.00  0.00    -0.037 C 
ATOM     22  C   LIG d   1       2.840  -0.567  -9.699  0.00  0.00    -0.007 C 
ATOM     23  H   LIG d   1       4.600  -4.401  -7.696  0.00  0.00     0.027 H 
ATOM     24  H   LIG d   1       2.845  -4.119  -7.758  0.00  0.00     0.027 H 
ATOM     25  H   LIG d   1       5.084  -2.357  -8.842  0.00  0.00     0.027 H 
ATOM     26  H   LIG d   1       3.810  -1.945  -7.670  0.00  0.00     0.027 H 
ATOM     27  H   LIG d   1       5.330  -4.618 -12.548  0.00  0.00     0.027 H 
ATOM     28  H   LIG d   1       3.586  -4.984 -12.429  0.00  0.00     0.027 H 
ATOM     29  H   LIG d   1       5.916  -6.471 -11.292  0.00  0.00     0.030 H 
ATOM     30  H   LIG d   1       4.249  -7.047 -11.574  0.00  0.00     0.030 H 
ATOM     31  H   LIG d   1       5.410  -1.588 -11.355  0.00  0.00     0.027 H 
ATOM     32  H   LIG d   1       4.656  -2.210 -12.838  0.00  0.00     0.027 H 
ATOM     33  H   LIG d   1       4.467   0.259 -12.676  0.00  0.00     0.031 H 
ATOM     34  H   LIG d   1       2.865  -0.515 -12.640  0.00  0.00     0.031 H 
ATOM     35  H   LIG d   1       4.489   2.001 -11.336  0.00  0.00     0.065 H 
ATOM     36  H   LIG d   1       1.840   1.727  -8.520  0.00  0.00     0.035 H 
ATOM     37  H   LIG d   1       3.004   1.898  -7.269  0.00  0.00     0.035 H 
ATOM     38  H   LIG d   1       2.313  -0.475  -7.626  0.00  0.00     0.028 H 
ATOM     39  H   LIG d   1       4.035  -0.188  -7.965  0.00  0.00     0.028 H 
ENDROOT
BRANCH  12  40
ATOM     40  O   LIG d   1       3.743  -7.145  -9.164  0.00  0.00    -0.461 OA
BRANCH  40  41
ATOM     41  C   LIG d   1       4.246  -7.838  -8.131  0.00  0.00     0.308 C 
ATOM     42  O   LIG d   1       3.624  -8.762  -7.664  0.00  0.00    -0.251 OA
BRANCH  41  43
ATOM     43  C   LIG d   1       5.585  -7.462  -7.552  0.00  0.00     0.053 C 
ATOM     44  H   LIG d   1       6.329  -8.202  -7.848  0.00  0.00     0.038 H 
ATOM     45  H   LIG d   1       5.880  -6.482  -7.924  0.00  0.00     0.038 H 
BRANCH  43  46
ATOM     46  C   LIG d   1       5.489  -7.420  -6.025  0.00  0.00     0.034 C 
ATOM     47  H   LIG d   1       4.674  -8.065  -5.696  0.00  0.00     0.036 H 
ATOM     48  H   LIG d   1       6.426  -7.769  -5.592  0.00  0.00     0.036 H 
BRANCH  46  49
ATOM     49  C   LIG d   1       5.223  -6.007  -5.577  0.00  0.00     0.214 C 
ATOM     50  O   LIG d   1       4.139  -5.706  -5.125  0.00  0.00    -0.276 OA
ATOM     51  N   LIG d   1       6.193  -5.075  -5.678  0.00  0.00    -0.315 N 
ATOM     52  H   LIG d   1       7.060  -5.315  -6.039  0.00  0.00     0.149 HD
BRANCH  51  53
ATOM     53  C   LIG d   1       5.934  -3.700  -5.242  0.00  0.00     0.016 C 
ATOM     54  H   LIG d   1       5.872  -3.048  -6.113  0.00  0.00     0.046 H 
ATOM     55  H   LIG d   1       4.993  -3.664  -4.693  0.00  0.00     0.046 H 
BRANCH  53  56
ATOM     56  C   LIG d   1       7.073  -3.231  -4.334  0.00  0.00    -0.010 C 
ATOM     57  H   LIG d   1       7.005  -3.741  -3.373  0.00  0.00     0.033 H 
ATOM     58  H   LIG d   1       8.030  -3.463  -4.802  0.00  0.00     0.033 H 
BRANCH  56  59
ATOM     59  C   LIG d   1       6.966  -1.743  -4.123  0.00  0.00    -0.021 A 
ATOM     60  C   LIG d   1       5.995  -1.052  -3.270  0.00  0.00     0.003 A 
ATOM     61  C   LIG d   1       6.281   0.321  -3.389  0.00  0.00     0.047 A 
ATOM     62  C   LIG d   1       4.948  -1.477  -2.451  0.00  0.00    -0.052 A 
ATOM     63  N   LIG d   1       7.348   0.440  -4.251  0.00  0.00    -0.360 N 
ATOM     64  C   LIG d   1       5.513   1.240  -2.683  0.00  0.00    -0.038 A 
ATOM     65  C   LIG d   1       7.745  -0.800  -4.675  0.00  0.00     0.006 A 
ATOM     66  H   LIG d   1       7.759   1.277  -4.517  0.00  0.00     0.165 HD
ATOM     67  H   LIG d   1       8.564  -0.990  -5.352  0.00  0.00     0.081 H 
ATOM     68  C   LIG d   1       4.484   0.799  -1.880  0.00  0.00    -0.060 A 
ATOM     69  H   LIG d   1       5.721   2.296  -2.766  0.00  0.00     0.064 H 
ATOM     70  C   LIG d   1       4.205  -0.556  -1.766  0.00  0.00    -0.061 A 
ATOM     71  H   LIG d   1       3.888   1.514  -1.333  0.00  0.00     0.062 H 
ATOM     72  H   LIG d   1       3.395  -0.885  -1.133  0.00  0.00     0.062 H 
ATOM     73  H   LIG d   1       4.726  -2.530  -2.358  0.00  0.00     0.062 H 
ENDBRANCH  56  59
ENDBRANCH  53  56
ENDBRANCH  51  53
ENDBRANCH  46  49
ENDBRANCH  43  46
ENDBRANCH  41  43
ENDBRANCH  40  41
ENDBRANCH  12  40
BRANCH   1  74
ATOM     74  C   LIG d   1       2.268  -5.070  -9.982  0.00  0.00    -0.056 C 
ATOM     75  H   LIG d   1       1.599  -4.377  -9.471  0.00  0.00     0.024 H 
ATOM     76  H   LIG d   1       2.132  -4.978 -11.059  0.00  0.00     0.024 H 
ATOM     77  H   LIG d   1       2.041  -6.090  -9.672  0.00  0.00     0.024 H 
ENDBRANCH   1  74
BRANCH  22  78
ATOM     78  C   LIG d   1       1.341  -0.456 -10.010  0.00  0.00    -0.056 C 
ATOM     79  H   LIG d   1       1.200  -0.342 -11.086  0.00  0.00     0.024 H 
ATOM     80  H   LIG d   1       0.831  -1.358  -9.671  0.00  0.00     0.024 H 
ATOM     81  H   LIG d   1       0.926   0.411  -9.497  0.00  0.00     0.024 H 
ENDBRANCH  22  78
TORSDOF 10
ENDMDL
MODEL 3
REMARK VINA RESULT:      -7.0      7.361     11.886
REMARK  10 active torsions:
REMARK  status: ('A' for Active; 'I' for Inactive)
REMARK    1  A    between atoms: C_1  and  C_2 
REMARK    2  A    between atoms: C_13  and  O_15 
REMARK    3  A    between atoms: O_15  and  C_16 
REMARK    4  A    between atoms: C_16  and  C_18 
REMARK    5  A    between atoms: C_18  and  C_19 
REMARK    6  A    between atoms: C_19  and  C_20 
REMARK       I    between atoms: C_20  and  N_22 
REMARK    7  A    between atoms: N_22  and  C_23 
REMARK    8  A    between atoms: C_23  and  C_24 
REMARK    9  A    between atoms: C_24  and  C_25 
REMARK   10  A    between atoms: C_43  and  C_44 
ROOT
ATOM      1  C   LIG d   1      10.694   6.172  -3.868  0.00  0.00     0.008 C 
ATOM      2  C   LIG d   1      10.371   6.206  -5.346  0.00  0.00    -0.044 C 
ATOM      3  C   LIG d   1       9.965   7.640  -5.737  0.00  0.00    -0.049 C 
ATOM      4  C   LIG d   1      10.925   8.636  -5.092  0.00  0.00    -0.029 C 
ATOM      5  H   LIG d   1      11.920   8.182  -5.233  0.00  0.00     0.031 H 
ATOM      6  C   LIG d   1      10.735   8.679  -3.591  0.00  0.00    -0.034 C 
ATOM      7  H   LIG d   1      11.704   8.763  -3.102  0.00  0.00     0.031 H 
ATOM      8  C   LIG d   1      10.046   7.386  -3.169  0.00  0.00    -0.029 C 
ATOM      9  H   LIG d   1       8.977   7.440  -3.418  0.00  0.00     0.031 H 
ATOM     10  C   LIG d   1      10.205   7.032  -1.682  0.00  0.00    -0.046 C 
ATOM     11  C   LIG d   1       9.952   5.502  -1.644  0.00  0.00    -0.015 C 
ATOM     12  C   LIG d   1      10.058   4.999  -3.104  0.00  0.00     0.109 C 
ATOM     13  H   LIG d   1       9.073   4.782  -3.506  0.00  0.00     0.074 H 
ATOM     14  C   LIG d   1       9.855   9.834  -3.121  0.00  0.00    -0.046 C 
ATOM     15  C   LIG d   1      10.364  11.168  -3.647  0.00  0.00    -0.030 C 
ATOM     16  C   LIG d   1      10.375  11.099  -5.161  0.00  0.00    -0.060 C 
ATOM     17  C   LIG d   1       9.775  12.085  -5.831  0.00  0.00    -0.019 C 
ATOM     18  C   LIG d   1       9.766  12.109  -7.295  0.00  0.00     0.156 C 
ATOM     19  O   LIG d   1       9.072  12.904  -7.903  0.00  0.00    -0.293 OA
ATOM     20  C   LIG d   1      10.646  11.123  -8.030  0.00  0.00     0.011 C 
ATOM     21  C   LIG d   1      10.616   9.790  -7.286  0.00  0.00    -0.037 C 
ATOM     22  C   LIG d   1      11.036   9.942  -5.832  0.00  0.00    -0.007 C 
ATOM     23  H   LIG d   1       9.543   5.525  -5.558  0.00  0.00     0.027 H 
ATOM     24  H   LIG d   1      11.242   5.901  -5.927  0.00  0.00     0.027 H 
ATOM     25  H   LIG d   1       8.948   7.837  -5.396  0.00  0.00     0.027 H 
ATOM     26  H   LIG d   1      10.005   7.726  -6.823  0.00  0.00     0.027 H 
ATOM     27  H   LIG d   1       9.452   7.554  -1.086  0.00  0.00     0.027 H 
ATOM     28  H   LIG d   1      11.201   7.272  -1.319  0.00  0.00     0.027 H 
ATOM     29  H   LIG d   1       8.956   5.300  -1.251  0.00  0.00     0.030 H 
ATOM     30  H   LIG d   1      10.704   5.016  -1.024  0.00  0.00     0.030 H 
ATOM     31  H   LIG d   1       8.841   9.669  -3.486  0.00  0.00     0.027 H 
ATOM     32  H   LIG d   1       9.846   9.853  -2.033  0.00  0.00     0.027 H 
ATOM     33  H   LIG d   1       9.698  11.968  -3.322  0.00  0.00     0.031 H 
ATOM     34  H   LIG d   1      11.369  11.357  -3.273  0.00  0.00     0.031 H 
ATOM     35  H   LIG d   1       9.288  12.881  -5.280  0.00  0.00     0.065 H 
ATOM     36  H   LIG d   1      11.581  11.474  -8.069  0.00  0.00     0.035 H 
ATOM     37  H   LIG d   1      10.260  10.978  -9.046  0.00  0.00     0.035 H 
ATOM     38  H   LIG d   1      11.286   9.086  -7.778  0.00  0.00     0.028 H 
ATOM     39  H   LIG d   1       9.597   9.402  -7.320  0.00  0.00     0.028 H 
ENDROOT
BRANCH  12  40
ATOM     40  O   LIG d   1      10.917   3.834  -3.176  0.00  0.00    -0.461 OA
BRANCH  40  41
ATOM     41  C   LIG d   1      10.346   2.677  -3.543  0.00  0.00     0.308 C 
ATOM     42  O   LIG d   1      11.029   1.699  -3.732  0.00  0.00    -0.251 OA
BRANCH  41  43
ATOM     43  C   LIG d   1       8.851   2.597  -3.720  0.00  0.00     0.053 C 
ATOM     44  H   LIG d   1       8.469   1.724  -3.190  0.00  0.00     0.038 H 
ATOM     45  H   LIG d   1       8.389   3.497  -3.318  0.00  0.00     0.038 H 
BRANCH  43  46
ATOM     46  C   LIG d   1       8.519   2.474  -5.209  0.00  0.00     0.034 C 
ATOM     47  H   LIG d   1       7.781   3.229  -5.479  0.00  0.00     0.036 H 
ATOM     48  H   LIG d   1       9.425   2.624  -5.797  0.00  0.00     0.036 H 
BRANCH  46  49
ATOM     49  C   LIG d   1       7.961   1.103  -5.488  0.00  0.00     0.214 C 
ATOM     50  O   LIG d   1       6.934   0.982  -6.122  0.00  0.00    -0.276 OA
ATOM     51  N   LIG d   1       8.604   0.009  -5.032  0.00  0.00    -0.315 N 
ATOM     52  H   LIG d   1       9.424   0.104  -4.525  0.00  0.00     0.149 HD
BRANCH  51  53
ATOM     53  C   LIG d   1       8.060  -1.325  -5.302  0.00  0.00     0.016 C 
ATOM     54  H   LIG d   1       7.202  -1.240  -5.968  0.00  0.00     0.046 H 
ATOM     55  H   LIG d   1       8.826  -1.941  -5.774  0.00  0.00     0.046 H 
BRANCH  53  56
ATOM     56  C   LIG d   1       7.623  -1.973  -3.987  0.00  0.00    -0.010 C 
ATOM     57  H   LIG d   1       7.952  -3.012  -3.967  0.00  0.00     0.033 H 
ATOM     58  H   LIG d   1       8.069  -1.434  -3.151  0.00  0.00     0.033 H 
BRANCH  56  59
ATOM     59  C   LIG d   1       6.121  -1.919  -3.876  0.00  0.00    -0.021 A 
ATOM     60  C   LIG d   1       5.330  -0.835  -3.286  0.00  0.00     0.003 A 
ATOM     61  C   LIG d   1       3.983  -1.226  -3.410  0.00  0.00     0.047 A 
ATOM     62  C   LIG d   1       5.649   0.384  -2.688  0.00  0.00    -0.052 A 
ATOM     63  N   LIG d   1       3.973  -2.455  -4.030  0.00  0.00    -0.360 N 
ATOM     64  C   LIG d   1       2.984  -0.386  -2.931  0.00  0.00    -0.038 A 
ATOM     65  C   LIG d   1       5.255  -2.850  -4.304  0.00  0.00     0.006 A 
ATOM     66  H   LIG d   1       3.176  -2.965  -4.243  0.00  0.00     0.165 HD
ATOM     67  H   LIG d   1       5.528  -3.774  -4.791  0.00  0.00     0.081 H 
ATOM     68  C   LIG d   1       3.321   0.813  -2.343  0.00  0.00    -0.060 A 
ATOM     69  H   LIG d   1       1.947  -0.674  -3.018  0.00  0.00     0.064 H 
ATOM     70  C   LIG d   1       4.651   1.195  -2.224  0.00  0.00    -0.061 A 
ATOM     71  H   LIG d   1       2.544   1.465  -1.972  0.00  0.00     0.062 H 
ATOM     72  H   LIG d   1       4.898   2.138  -1.760  0.00  0.00     0.062 H 
ATOM     73  H   LIG d   1       6.681   0.687  -2.592  0.00  0.00     0.062 H 
ENDBRANCH  56  59
ENDBRANCH  53  56
ENDBRANCH  51  53
ENDBRANCH  46  49
ENDBRANCH  43  46
ENDBRANCH  41  43
ENDBRANCH  40  41
ENDBRANCH  12  40
BRANCH   1  74
ATOM     74  C   LIG d   1      12.206   6.129  -3.646  0.00  0.00    -0.056 C 
ATOM     75  H   LIG d   1      12.642   5.348  -4.269  0.00  0.00     0.024 H 
ATOM     76  H   LIG d   1      12.640   7.092  -3.913  0.00  0.00     0.024 H 
ATOM     77  H   LIG d   1      12.413   5.915  -2.598  0.00  0.00     0.024 H 
ENDBRANCH   1  74
BRANCH  22  78
ATOM     78  C   LIG d   1      12.535  10.268  -5.861  0.00  0.00    -0.056 C 
ATOM     79  H   LIG d   1      13.103   9.354  -6.036  0.00  0.00     0.024 H 
ATOM     80  H   LIG d   1      12.736  10.980  -6.662  0.00  0.00     0.024 H 
ATOM     81  H   LIG d   1      12.831  10.702  -4.906  0.00  0.00     0.024 H 
ENDBRANCH  22  78
TORSDOF 10
ENDMDL
MODEL 4
REMARK VINA RESULT:      -7.0      6.487     11.423
REMARK  10 active torsions:
REMARK  status: ('A' for Active; 'I' for Inactive)
REMARK    1  A    between atoms: C_1  and  C_2 
REMARK    2  A    between atoms: C_13  and  O_15 
REMARK    3  A    between atoms: O_15  and  C_16 
REMARK    4  A    between atoms: C_16  and  C_18 
REMARK    5  A    between atoms: C_18  and  C_19 
REMARK    6  A    between atoms: C_19  and  C_20 
REMARK       I    between atoms: C_20  and  N_22 
REMARK    7  A    between atoms: N_22  and  C_23 
REMARK    8  A    between atoms: C_23  and  C_24 
REMARK    9  A    between atoms: C_24  and  C_25 
REMARK   10  A    between atoms: C_43  and  C_44 
ROOT
ATOM      1  C   LIG d   1      10.241   5.105  -4.543  0.00  0.00     0.008 C 
ATOM      2  C   LIG d   1       9.526   5.960  -5.567  0.00  0.00    -0.044 C 
ATOM      3  C   LIG d   1       9.140   7.302  -4.917  0.00  0.00    -0.049 C 
ATOM      4  C   LIG d   1      10.314   7.829  -4.097  0.00  0.00    -0.029 C 
ATOM      5  H   LIG d   1      11.193   7.647  -4.737  0.00  0.00     0.031 H 
ATOM      6  C   LIG d   1      10.550   6.970  -2.873  0.00  0.00    -0.034 C 
ATOM      7  H   LIG d   1      11.620   6.852  -2.709  0.00  0.00     0.031 H 
ATOM      8  C   LIG d   1       9.907   5.611  -3.124  0.00  0.00    -0.029 C 
ATOM      9  H   LIG d   1       8.818   5.689  -2.997  0.00  0.00     0.031 H 
ATOM     10  C   LIG d   1      10.442   4.476  -2.237  0.00  0.00    -0.046 C 
ATOM     11  C   LIG d   1      10.093   3.193  -3.038  0.00  0.00    -0.015 C 
ATOM     12  C   LIG d   1       9.752   3.649  -4.477  0.00  0.00     0.109 C 
ATOM     13  H   LIG d   1       8.680   3.607  -4.648  0.00  0.00     0.074 H 
ATOM     14  C   LIG d   1       9.926   7.537  -1.601  0.00  0.00    -0.046 C 
ATOM     15  C   LIG d   1      10.371   8.971  -1.358  0.00  0.00    -0.030 C 
ATOM     16  C   LIG d   1       9.959   9.799  -2.558  0.00  0.00    -0.060 C 
ATOM     17  C   LIG d   1       9.274  10.922  -2.331  0.00  0.00    -0.019 C 
ATOM     18  C   LIG d   1       8.863  11.793  -3.434  0.00  0.00     0.156 C 
ATOM     19  O   LIG d   1       8.092  12.717  -3.248  0.00  0.00    -0.293 OA
ATOM     20  C   LIG d   1       9.428  11.517  -4.810  0.00  0.00     0.011 C 
ATOM     21  C   LIG d   1       9.502  10.006  -5.015  0.00  0.00    -0.037 C 
ATOM     22  C   LIG d   1      10.317   9.324  -3.926  0.00  0.00    -0.007 C 
ATOM     23  H   LIG d   1       8.621   5.450  -5.907  0.00  0.00     0.027 H 
ATOM     24  H   LIG d   1      10.176   6.142  -6.423  0.00  0.00     0.027 H 
ATOM     25  H   LIG d   1       8.275   7.158  -4.268  0.00  0.00     0.027 H 
ATOM     26  H   LIG d   1       8.885   8.009  -5.707  0.00  0.00     0.027 H 
ATOM     27  H   LIG d   1       9.926   4.471  -1.274  0.00  0.00     0.027 H 
ATOM     28  H   LIG d   1      11.515   4.560  -2.085  0.00  0.00     0.027 H 
ATOM     29  H   LIG d   1       9.231   2.699  -2.589  0.00  0.00     0.030 H 
ATOM     30  H   LIG d   1      10.946   2.518  -3.050  0.00  0.00     0.030 H 
ATOM     31  H   LIG d   1       8.841   7.512  -1.706  0.00  0.00     0.027 H 
ATOM     32  H   LIG d   1      10.219   6.918  -0.755  0.00  0.00     0.027 H 
ATOM     33  H   LIG d   1       9.884   9.359  -0.461  0.00  0.00     0.031 H 
ATOM     34  H   LIG d   1      11.451   9.009  -1.229  0.00  0.00     0.031 H 
ATOM     35  H   LIG d   1       9.022  11.193  -1.313  0.00  0.00     0.065 H 
ATOM     36  H   LIG d   1      10.340  11.919  -4.884  0.00  0.00     0.035 H 
ATOM     37  H   LIG d   1       8.767  11.951  -5.569  0.00  0.00     0.035 H 
ATOM     38  H   LIG d   1       9.953   9.793  -5.983  0.00  0.00     0.028 H 
ATOM     39  H   LIG d   1       8.486   9.608  -4.996  0.00  0.00     0.028 H 
ENDROOT
BRANCH  12  40
ATOM     40  O   LIG d   1      10.465   2.840  -5.445  0.00  0.00    -0.461 OA
BRANCH  40  41
ATOM     41  C   LIG d   1       9.793   1.822  -6.002  0.00  0.00     0.308 C 
ATOM     42  O   LIG d   1      10.395   0.904  -6.507  0.00  0.00    -0.251 OA
BRANCH  41  43
ATOM     43  C   LIG d   1       8.286   1.822  -6.000  0.00  0.00     0.053 C 
ATOM     44  H   LIG d   1       7.924   1.347  -5.088  0.00  0.00     0.038 H 
ATOM     45  H   LIG d   1       7.922   2.848  -6.044  0.00  0.00     0.038 H 
BRANCH  43  46
ATOM     46  C   LIG d   1       7.772   1.046  -7.216  0.00  0.00     0.034 C 
ATOM     47  H   LIG d   1       6.995   1.626  -7.714  0.00  0.00     0.036 H 
ATOM     48  H   LIG d   1       8.595   0.870  -7.909  0.00  0.00     0.036 H 
BRANCH  46  49
ATOM     49  C   LIG d   1       7.204  -0.274  -6.765  0.00  0.00     0.214 C 
ATOM     50  O   LIG d   1       6.025  -0.512  -6.919  0.00  0.00    -0.276 OA
ATOM     51  N   LIG d   1       8.007  -1.192  -6.191  0.00  0.00    -0.315 N 
ATOM     52  H   LIG d   1       8.950  -1.003  -6.067  0.00  0.00     0.149 HD
BRANCH  51  53
ATOM     53  C   LIG d   1       7.454  -2.476  -5.752  0.00  0.00     0.016 C 
ATOM     54  H   LIG d   1       6.495  -2.645  -6.240  0.00  0.00     0.046 H 
ATOM     55  H   LIG d   1       8.143  -3.278  -6.018  0.00  0.00     0.046 H 
BRANCH  53  56
ATOM     56  C   LIG d   1       7.258  -2.455  -4.235  0.00  0.00    -0.010 C 
ATOM     57  H   LIG d   1       7.521  -3.428  -3.820  0.00  0.00     0.033 H 
ATOM     58  H   LIG d   1       7.897  -1.688  -3.797  0.00  0.00     0.033 H 
BRANCH  56  59
ATOM     59  C   LIG d   1       5.817  -2.147  -3.920  0.00  0.00    -0.021 A 
ATOM     60  C   LIG d   1       5.293  -0.893  -3.371  0.00  0.00     0.003 A 
ATOM     61  C   LIG d   1       3.902  -1.073  -3.251  0.00  0.00     0.047 A 
ATOM     62  C   LIG d   1       5.875   0.316  -2.990  0.00  0.00    -0.052 A 
ATOM     63  N   LIG d   1       3.617  -2.344  -3.696  0.00  0.00    -0.360 N 
ATOM     64  C   LIG d   1       3.123  -0.036  -2.750  0.00  0.00    -0.038 A 
ATOM     65  C   LIG d   1       4.769  -2.968  -4.095  0.00  0.00     0.006 A 
ATOM     66  H   LIG d   1       2.731  -2.739  -3.725  0.00  0.00     0.165 HD
ATOM     67  H   LIG d   1       4.826  -3.970  -4.490  0.00  0.00     0.081 H 
ATOM     68  C   LIG d   1       3.717   1.149  -2.378  0.00  0.00    -0.060 A 
ATOM     69  H   LIG d   1       2.055  -0.161  -2.651  0.00  0.00     0.064 H 
ATOM     70  C   LIG d   1       5.090   1.322  -2.500  0.00  0.00    -0.061 A 
ATOM     71  H   LIG d   1       3.110   1.954  -1.989  0.00  0.00     0.062 H 
ATOM     72  H   LIG d   1       5.540   2.258  -2.203  0.00  0.00     0.062 H 
ATOM     73  H   LIG d   1       6.941   0.458  -3.081  0.00  0.00     0.062 H 
ENDBRANCH  56  59
ENDBRANCH  53  56
ENDBRANCH  51  53
ENDBRANCH  46  49
ENDBRANCH  43  46
ENDBRANCH  41  43
ENDBRANCH  40  41
ENDBRANCH  12  40
BRANCH   1  74
ATOM     74  C   LIG d   1      11.747   5.097  -4.803  0.00  0.00    -0.056 C 
ATOM     75  H   LIG d   1      12.120   4.074  -4.739  0.00  0.00     0.024 H 
ATOM     76  H   LIG d   1      11.946   5.495  -5.798  0.00  0.00     0.024 H 
ATOM     77  H   LIG d   1      12.248   5.714  -4.058  0.00  0.00     0.024 H 
ENDBRANCH   1  74
BRANCH  22  78
ATOM     78  C   LIG d   1      11.770   9.759  -4.158  0.00  0.00    -0.056 C 
ATOM     79  H   LIG d   1      12.436   9.138  -3.558  0.00  0.00     0.024 H 
ATOM     80  H   LIG d   1      12.020   9.645  -5.213  0.00  0.00     0.024 H 
ATOM     81  H   LIG d   1      11.888  10.802  -3.867  0.00  0.00     0.024 H 
ENDBRANCH  22  78
TORSDOF 10
ENDMDL
MODEL 5
REMARK VINA RESULT:      -6.9      2.522      6.905
REMARK  10 active torsions:
REMARK  status: ('A' for Active; 'I' for Inactive)
REMARK    1  A    between atoms: C_1  and  C_2 
REMARK    2  A    between atoms: C_13  and  O_15 
REMARK    3  A    between atoms: O_15  and  C_16 
REMARK    4  A    between atoms: C_16  and  C_18 
REMARK    5  A    between atoms: C_18  and  C_19 
REMARK    6  A    between atoms: C_19  and  C_20 
REMARK       I    between atoms: C_20  and  N_22 
REMARK    7  A    between atoms: N_22  and  C_23 
REMARK    8  A    between atoms: C_23  and  C_24 
REMARK    9  A    between atoms: C_24  and  C_25 
REMARK   10  A    between atoms: C_43  and  C_44 
ROOT
ATOM      1  C   LIG d   1       8.414  -4.849  -5.555  0.00  0.00     0.008 C 
ATOM      2  C   LIG d   1       7.426  -4.180  -4.623  0.00  0.00    -0.044 C 
ATOM      3  C   LIG d   1       7.957  -2.783  -4.250  0.00  0.00    -0.049 C 
ATOM      4  C   LIG d   1       8.492  -2.090  -5.501  0.00  0.00    -0.029 C 
ATOM      5  H   LIG d   1       7.740  -2.313  -6.275  0.00  0.00     0.031 H 
ATOM      6  C   LIG d   1       9.758  -2.760  -5.993  0.00  0.00    -0.034 C 
ATOM      7  H   LIG d   1       9.751  -2.799  -7.081  0.00  0.00     0.031 H 
ATOM      8  C   LIG d   1       9.794  -4.171  -5.418  0.00  0.00    -0.029 C 
ATOM      9  H   LIG d   1      10.092  -4.132  -4.361  0.00  0.00     0.031 H 
ATOM     10  C   LIG d   1      10.713  -5.145  -6.171  0.00  0.00    -0.046 C 
ATOM     11  C   LIG d   1      10.153  -6.541  -5.792  0.00  0.00    -0.015 C 
ATOM     12  C   LIG d   1       8.746  -6.306  -5.190  0.00  0.00     0.109 C 
ATOM     13  H   LIG d   1       8.767  -6.425  -4.111  0.00  0.00     0.074 H 
ATOM     14  C   LIG d   1      11.034  -2.056  -5.543  0.00  0.00    -0.046 C 
ATOM     15  C   LIG d   1      11.015  -0.581  -5.916  0.00  0.00    -0.030 C 
ATOM     16  C   LIG d   1       9.806   0.052  -5.255  0.00  0.00    -0.060 C 
ATOM     17  C   LIG d   1      10.002   1.159  -4.536  0.00  0.00    -0.019 C 
ATOM     18  C   LIG d   1       8.883   1.849  -3.890  0.00  0.00     0.156 C 
ATOM     19  O   LIG d   1       9.079   2.749  -3.094  0.00  0.00    -0.293 OA
ATOM     20  C   LIG d   1       7.478   1.415  -4.244  0.00  0.00     0.011 C 
ATOM     21  C   LIG d   1       7.457  -0.104  -4.394  0.00  0.00    -0.037 C 
ATOM     22  C   LIG d   1       8.469  -0.587  -5.421  0.00  0.00    -0.007 C 
ATOM     23  H   LIG d   1       7.313  -4.778  -3.715  0.00  0.00     0.027 H 
ATOM     24  H   LIG d   1       6.456  -4.085  -5.112  0.00  0.00     0.027 H 
ATOM     25  H   LIG d   1       8.756  -2.881  -3.515  0.00  0.00     0.027 H 
ATOM     26  H   LIG d   1       7.138  -2.206  -3.820  0.00  0.00     0.027 H 
ATOM     27  H   LIG d   1      11.743  -5.043  -5.819  0.00  0.00     0.027 H 
ATOM     28  H   LIG d   1      10.669  -4.986  -7.246  0.00  0.00     0.027 H 
ATOM     29  H   LIG d   1      10.801  -7.013  -5.052  0.00  0.00     0.030 H 
ATOM     30  H   LIG d   1      10.081  -7.168  -6.679  0.00  0.00     0.030 H 
ATOM     31  H   LIG d   1      11.119  -2.150  -4.460  0.00  0.00     0.027 H 
ATOM     32  H   LIG d   1      11.890  -2.537  -6.013  0.00  0.00     0.027 H 
ATOM     33  H   LIG d   1      11.924  -0.099  -5.553  0.00  0.00     0.031 H 
ATOM     34  H   LIG d   1      10.952  -0.471  -6.996  0.00  0.00     0.031 H 
ATOM     35  H   LIG d   1      11.006   1.554  -4.433  0.00  0.00     0.065 H 
ATOM     36  H   LIG d   1       7.199   1.849  -5.100  0.00  0.00     0.035 H 
ATOM     37  H   LIG d   1       6.794   1.708  -3.439  0.00  0.00     0.035 H 
ATOM     38  H   LIG d   1       6.461  -0.424  -4.697  0.00  0.00     0.028 H 
ATOM     39  H   LIG d   1       7.699  -0.546  -3.426  0.00  0.00     0.028 H 
ENDROOT
BRANCH  12  40
ATOM     40  O   LIG d   1       7.782  -7.202  -5.795  0.00  0.00    -0.461 OA
BRANCH  40  41
ATOM     41  C   LIG d   1       7.017  -7.925  -4.963  0.00  0.00     0.308 C 
ATOM     42  O   LIG d   1       7.531  -8.669  -4.162  0.00  0.00    -0.251 OA
BRANCH  41  43
ATOM     43  C   LIG d   1       5.516  -7.811  -5.028  0.00  0.00     0.053 C 
ATOM     44  H   LIG d   1       5.069  -8.786  -4.831  0.00  0.00     0.038 H 
ATOM     45  H   LIG d   1       5.172  -7.097  -4.281  0.00  0.00     0.038 H 
BRANCH  43  46
ATOM     46  C   LIG d   1       5.099  -7.332  -6.421  0.00  0.00     0.034 C 
ATOM     47  H   LIG d   1       5.976  -7.294  -7.068  0.00  0.00     0.036 H 
ATOM     48  H   LIG d   1       4.368  -8.024  -6.840  0.00  0.00     0.036 H 
BRANCH  46  49
ATOM     49  C   LIG d   1       4.490  -5.958  -6.319  0.00  0.00     0.214 C 
ATOM     50  O   LIG d   1       3.924  -5.619  -5.301  0.00  0.00    -0.276 OA
ATOM     51  N   LIG d   1       4.574  -5.106  -7.360  0.00  0.00    -0.315 N 
ATOM     52  H   LIG d   1       5.026  -5.376  -8.174  0.00  0.00     0.149 HD
BRANCH  51  53
ATOM     53  C   LIG d   1       3.980  -3.769  -7.260  0.00  0.00     0.016 C 
ATOM     54  H   LIG d   1       3.461  -3.531  -8.188  0.00  0.00     0.046 H 
ATOM     55  H   LIG d   1       3.272  -3.747  -6.432  0.00  0.00     0.046 H 
BRANCH  53  56
ATOM     56  C   LIG d   1       5.084  -2.739  -7.014  0.00  0.00    -0.010 C 
ATOM     57  H   LIG d   1       5.879  -3.192  -6.421  0.00  0.00     0.033 H 
ATOM     58  H   LIG d   1       5.489  -2.405  -7.970  0.00  0.00     0.033 H 
BRANCH  56  59
ATOM     59  C   LIG d   1       4.513  -1.559  -6.271  0.00  0.00    -0.021 A 
ATOM     60  C   LIG d   1       4.256  -1.478  -4.831  0.00  0.00     0.003 A 
ATOM     61  C   LIG d   1       3.726  -0.194  -4.603  0.00  0.00     0.047 A 
ATOM     62  C   LIG d   1       4.427  -2.361  -3.764  0.00  0.00    -0.052 A 
ATOM     63  N   LIG d   1       3.672   0.446  -5.821  0.00  0.00    -0.360 N 
ATOM     64  C   LIG d   1       3.380   0.180  -3.309  0.00  0.00    -0.038 A 
ATOM     65  C   LIG d   1       4.149  -0.381  -6.802  0.00  0.00     0.006 A 
ATOM     66  H   LIG d   1       3.347   1.348  -5.962  0.00  0.00     0.165 HD
ATOM     67  H   LIG d   1       4.221  -0.124  -7.848  0.00  0.00     0.081 H 
ATOM     68  C   LIG d   1       3.556  -0.707  -2.270  0.00  0.00    -0.060 A 
ATOM     69  H   LIG d   1       2.971   1.161  -3.119  0.00  0.00     0.064 H 
ATOM     70  C   LIG d   1       4.079  -1.973  -2.500  0.00  0.00    -0.061 A 
ATOM     71  H   LIG d   1       3.286  -0.416  -1.265  0.00  0.00     0.062 H 
ATOM     72  H   LIG d   1       4.210  -2.656  -1.674  0.00  0.00     0.062 H 
ATOM     73  H   LIG d   1       4.833  -3.347  -3.936  0.00  0.00     0.062 H 
ENDBRANCH  56  59
ENDBRANCH  53  56
ENDBRANCH  51  53
ENDBRANCH  46  49
ENDBRANCH  43  46
ENDBRANCH  41  43
ENDBRANCH  40  41
ENDBRANCH  12  40
BRANCH   1  74
ATOM     74  C   LIG d   1       7.905  -4.817  -6.996  0.00  0.00    -0.056 C 
ATOM     75  H   LIG d   1       8.745  -4.666  -7.674  0.00  0.00     0.024 H 
ATOM     76  H   LIG d   1       7.414  -5.761  -7.229  0.00  0.00     0.024 H 
ATOM     77  H   LIG d   1       7.194  -3.999  -7.112  0.00  0.00     0.024 H 
ENDBRANCH   1  74
BRANCH  22  78
ATOM     78  C   LIG d   1       7.940  -0.115  -6.783  0.00  0.00    -0.056 C 
ATOM     79  H   LIG d   1       7.348  -0.909  -7.238  0.00  0.00     0.024 H 
ATOM     80  H   LIG d   1       7.317   0.769  -6.644  0.00  0.00     0.024 H 
ATOM     81  H   LIG d   1       8.779   0.130  -7.434  0.00  0.00     0.024 H 
ENDBRANCH  22  78
TORSDOF 10
ENDMDL
MODEL 6
REMARK VINA RESULT:      -6.7      6.098     10.907
REMARK  10 active torsions:
REMARK  status: ('A' for Active; 'I' for Inactive)
REMARK    1  A    between atoms: C_1  and  C_2 
REMARK    2  A    between atoms: C_13  and  O_15 
REMARK    3  A    between atoms: O_15  and  C_16 
REMARK    4  A    between atoms: C_16  and  C_18 
REMARK    5  A    between atoms: C_18  and  C_19 
REMARK    6  A    between atoms: C_19  and  C_20 
REMARK       I    between atoms: C_20  and  N_22 
REMARK    7  A    between atoms: N_22  and  C_23 
REMARK    8  A    between atoms: C_23  and  C_24 
REMARK    9  A    between atoms: C_24  and  C_25 
REMARK   10  A    between atoms: C_43  and  C_44 
ROOT
ATOM      1  C   LIG d   1       9.912   4.472  -4.300  0.00  0.00     0.008 C 
ATOM      2  C   LIG d   1       9.125   5.734  -4.577  0.00  0.00    -0.044 C 
ATOM      3  C   LIG d   1       9.290   6.698  -3.386  0.00  0.00    -0.049 C 
ATOM      4  C   LIG d   1      10.754   6.731  -2.956  0.00  0.00    -0.029 C 
ATOM      5  H   LIG d   1      11.314   6.771  -3.905  0.00  0.00     0.031 H 
ATOM      6  C   LIG d   1      11.165   5.417  -2.325  0.00  0.00    -0.034 C 
ATOM      7  H   LIG d   1      12.173   5.158  -2.645  0.00  0.00     0.031 H 
ATOM      8  C   LIG d   1      10.178   4.350  -2.785  0.00  0.00    -0.029 C 
ATOM      9  H   LIG d   1       9.237   4.452  -2.227  0.00  0.00     0.031 H 
ATOM     10  C   LIG d   1      10.691   2.907  -2.657  0.00  0.00    -0.046 C 
ATOM     11  C   LIG d   1       9.817   2.119  -3.667  0.00  0.00    -0.015 C 
ATOM     12  C   LIG d   1       9.147   3.169  -4.587  0.00  0.00     0.109 C 
ATOM     13  H   LIG d   1       8.098   3.288  -4.331  0.00  0.00     0.074 H 
ATOM     14  C   LIG d   1      11.131   5.437  -0.800  0.00  0.00    -0.046 C 
ATOM     15  C   LIG d   1      11.950   6.591  -0.243  0.00  0.00    -0.030 C 
ATOM     16  C   LIG d   1      11.378   7.881  -0.796  0.00  0.00    -0.060 C 
ATOM     17  C   LIG d   1      11.082   8.850   0.072  0.00  0.00    -0.019 C 
ATOM     18  C   LIG d   1      10.553  10.138  -0.383  0.00  0.00     0.156 C 
ATOM     19  O   LIG d   1      10.118  10.952   0.411  0.00  0.00    -0.293 OA
ATOM     20  C   LIG d   1      10.565  10.429  -1.867  0.00  0.00     0.011 C 
ATOM     21  C   LIG d   1      10.217   9.148  -2.622  0.00  0.00    -0.037 C 
ATOM     22  C   LIG d   1      11.158   8.006  -2.266  0.00  0.00    -0.007 C 
ATOM     23  H   LIG d   1       8.067   5.490  -4.700  0.00  0.00     0.027 H 
ATOM     24  H   LIG d   1       9.490   6.211  -5.487  0.00  0.00     0.027 H 
ATOM     25  H   LIG d   1       8.671   6.360  -2.555  0.00  0.00     0.027 H 
ATOM     26  H   LIG d   1       8.966   7.691  -3.698  0.00  0.00     0.027 H 
ATOM     27  H   LIG d   1      10.526   2.534  -1.643  0.00  0.00     0.027 H 
ATOM     28  H   LIG d   1      11.745   2.834  -2.914  0.00  0.00     0.027 H 
ATOM     29  H   LIG d   1       9.055   1.550  -3.134  0.00  0.00     0.030 H 
ATOM     30  H   LIG d   1      10.440   1.448  -4.256  0.00  0.00     0.030 H 
ATOM     31  H   LIG d   1      10.095   5.544  -0.477  0.00  0.00     0.027 H 
ATOM     32  H   LIG d   1      11.528   4.495  -0.424  0.00  0.00     0.027 H 
ATOM     33  H   LIG d   1      11.880   6.598   0.847  0.00  0.00     0.031 H 
ATOM     34  H   LIG d   1      12.992   6.486  -0.539  0.00  0.00     0.031 H 
ATOM     35  H   LIG d   1      11.240   8.681   1.131  0.00  0.00     0.065 H 
ATOM     36  H   LIG d   1      11.473  10.752  -2.138  0.00  0.00     0.035 H 
ATOM     37  H   LIG d   1       9.815  11.196  -2.094  0.00  0.00     0.035 H 
ATOM     38  H   LIG d   1      10.272   9.333  -3.694  0.00  0.00     0.028 H 
ATOM     39  H   LIG d   1       9.199   8.861  -2.357  0.00  0.00     0.028 H 
ENDROOT
BRANCH  12  40
ATOM     40  O   LIG d   1       9.304   2.796  -5.978  0.00  0.00    -0.461 OA
BRANCH  40  41
ATOM     41  C   LIG d   1       8.337   2.039  -6.519  0.00  0.00     0.308 C 
ATOM     42  O   LIG d   1       7.427   1.639  -5.832  0.00  0.00    -0.251 OA
BRANCH  41  43
ATOM     43  C   LIG d   1       8.385   1.687  -7.983  0.00  0.00     0.053 C 
ATOM     44  H   LIG d   1       9.359   1.961  -8.390  0.00  0.00     0.038 H 
ATOM     45  H   LIG d   1       8.230   0.616  -8.105  0.00  0.00     0.038 H 
BRANCH  43  46
ATOM     46  C   LIG d   1       7.289   2.451  -8.730  0.00  0.00     0.034 C 
ATOM     47  H   LIG d   1       6.954   3.291  -8.121  0.00  0.00     0.036 H 
ATOM     48  H   LIG d   1       7.684   2.822  -9.675  0.00  0.00     0.036 H 
BRANCH  46  49
ATOM     49  C   LIG d   1       6.128   1.529  -8.997  0.00  0.00     0.214 C 
ATOM     50  O   LIG d   1       5.966   1.061 -10.104  0.00  0.00    -0.276 OA
ATOM     51  N   LIG d   1       5.269   1.223  -8.004  0.00  0.00    -0.315 N 
ATOM     52  H   LIG d   1       5.397   1.596  -7.119  0.00  0.00     0.149 HD
BRANCH  51  53
ATOM     53  C   LIG d   1       4.139   0.326  -8.264  0.00  0.00     0.016 C 
ATOM     54  H   LIG d   1       3.571   0.694  -9.118  0.00  0.00     0.046 H 
ATOM     55  H   LIG d   1       4.512  -0.675  -8.481  0.00  0.00     0.046 H 
BRANCH  53  56
ATOM     56  C   LIG d   1       3.233   0.277  -7.032  0.00  0.00    -0.010 C 
ATOM     57  H   LIG d   1       3.077   1.289  -6.656  0.00  0.00     0.033 H 
ATOM     58  H   LIG d   1       2.273  -0.162  -7.304  0.00  0.00     0.033 H 
BRANCH  56  59
ATOM     59  C   LIG d   1       3.884  -0.561  -5.963  0.00  0.00    -0.021 A 
ATOM     60  C   LIG d   1       3.923  -0.267  -4.529  0.00  0.00     0.003 A 
ATOM     61  C   LIG d   1       4.633  -1.328  -3.934  0.00  0.00     0.047 A 
ATOM     62  C   LIG d   1       3.431   0.771  -3.737  0.00  0.00    -0.052 A 
ATOM     63  N   LIG d   1       4.992  -2.193  -4.944  0.00  0.00    -0.360 N 
ATOM     64  C   LIG d   1       4.835  -1.325  -2.558  0.00  0.00    -0.038 A 
ATOM     65  C   LIG d   1       4.534  -1.722  -6.145  0.00  0.00     0.006 A 
ATOM     66  H   LIG d   1       5.492  -3.014  -4.822  0.00  0.00     0.165 HD
ATOM     67  H   LIG d   1       4.674  -2.212  -7.096  0.00  0.00     0.081 H 
ATOM     68  C   LIG d   1       4.341  -0.290  -1.796  0.00  0.00    -0.060 A 
ATOM     69  H   LIG d   1       5.379  -2.132  -2.089  0.00  0.00     0.064 H 
ATOM     70  C   LIG d   1       3.641   0.754  -2.387  0.00  0.00    -0.061 A 
ATOM     71  H   LIG d   1       4.498  -0.289  -0.727  0.00  0.00     0.062 H 
ATOM     72  H   LIG d   1       3.261   1.558  -1.774  0.00  0.00     0.062 H 
ATOM     73  H   LIG d   1       2.886   1.586  -4.190  0.00  0.00     0.062 H 
ENDBRANCH  56  59
ENDBRANCH  53  56
ENDBRANCH  51  53
ENDBRANCH  46  49
ENDBRANCH  43  46
ENDBRANCH  41  43
ENDBRANCH  40  41
ENDBRANCH  12  40
BRANCH   1  74
ATOM     74  C   LIG d   1      11.210   4.456  -5.108  0.00  0.00    -0.056 C 
ATOM     75  H   LIG d   1      11.159   5.212  -5.891  0.00  0.00     0.024 H 
ATOM     76  H   LIG d   1      12.051   4.671  -4.449  0.00  0.00     0.024 H 
ATOM     77  H   LIG d   1      11.345   3.474  -5.560  0.00  0.00     0.024 H 
ENDBRANCH   1  74
BRANCH  22  78
ATOM     78  C   LIG d   1      12.519   8.383  -2.867  0.00  0.00    -0.056 C 
ATOM     79  H   LIG d   1      13.028   7.481  -3.208  0.00  0.00     0.024 H 
ATOM     80  H   LIG d   1      12.369   9.056  -3.711  0.00  0.00     0.024 H 
ATOM     81  H   LIG d   1      13.126   8.877  -2.110  0.00  0.00     0.024 H 
ENDBRANCH  22  78
TORSDOF 10
ENDMDL
MODEL 7
REMARK VINA RESULT:      -6.7      3.462      8.753
REMARK  10 active torsions:
REMARK  status: ('A' for Active; 'I' for Inactive)
REMARK    1  A    between atoms: C_1  and  C_2 
REMARK    2  A    between atoms: C_13  and  O_15 
REMARK    3  A    between atoms: O_15  and  C_16 
REMARK    4  A    between atoms: C_16  and  C_18 
REMARK    5  A    between atoms: C_18  and  C_19 
REMARK    6  A    between atoms: C_19  and  C_20 
REMARK       I    between atoms: C_20  and  N_22 
REMARK    7  A    between atoms: N_22  and  C_23 
REMARK    8  A    between atoms: C_23  and  C_24 
REMARK    9  A    between atoms: C_24  and  C_25 
REMARK   10  A    between atoms: C_43  and  C_44 
ROOT
ATOM      1  C   LIG d   1       5.522  -4.606  -6.546  0.00  0.00     0.008 C 
ATOM      2  C   LIG d   1       4.680  -4.719  -5.293  0.00  0.00    -0.044 C 
ATOM      3  C   LIG d   1       4.920  -3.476  -4.415  0.00  0.00    -0.049 C 
ATOM      4  C   LIG d   1       4.913  -2.225  -5.289  0.00  0.00    -0.029 C 
ATOM      5  H   LIG d   1       4.064  -2.380  -5.975  0.00  0.00     0.031 H 
ATOM      6  C   LIG d   1       6.129  -2.183  -6.190  0.00  0.00    -0.034 C 
ATOM      7  H   LIG d   1       5.845  -1.808  -7.171  0.00  0.00     0.031 H 
ATOM      8  C   LIG d   1       6.671  -3.604  -6.308  0.00  0.00    -0.029 C 
ATOM      9  H   LIG d   1       7.219  -3.867  -5.392  0.00  0.00     0.031 H 
ATOM     10  C   LIG d   1       7.574  -3.843  -7.528  0.00  0.00    -0.046 C 
ATOM     11  C   LIG d   1       7.505  -5.380  -7.735  0.00  0.00    -0.015 C 
ATOM     12  C   LIG d   1       6.296  -5.884  -6.911  0.00  0.00     0.109 C 
ATOM     13  H   LIG d   1       6.630  -6.388  -6.009  0.00  0.00     0.074 H 
ATOM     14  C   LIG d   1       7.259  -1.313  -5.648  0.00  0.00    -0.046 C 
ATOM     15  C   LIG d   1       6.769   0.091  -5.324  0.00  0.00    -0.030 C 
ATOM     16  C   LIG d   1       5.659  -0.025  -4.298  0.00  0.00    -0.060 C 
ATOM     17  C   LIG d   1       5.752   0.722  -3.197  0.00  0.00    -0.019 C 
ATOM     18  C   LIG d   1       4.708   0.691  -2.171  0.00  0.00     0.156 C 
ATOM     19  O   LIG d   1       4.874   1.231  -1.092  0.00  0.00    -0.293 OA
ATOM     20  C   LIG d   1       3.416  -0.028  -2.490  0.00  0.00     0.011 C 
ATOM     21  C   LIG d   1       3.740  -1.287  -3.292  0.00  0.00    -0.037 C 
ATOM     22  C   LIG d   1       4.532  -0.969  -4.552  0.00  0.00    -0.007 C 
ATOM     23  H   LIG d   1       4.966  -5.615  -4.737  0.00  0.00     0.027 H 
ATOM     24  H   LIG d   1       3.624  -4.783  -5.557  0.00  0.00     0.027 H 
ATOM     25  H   LIG d   1       5.883  -3.566  -3.912  0.00  0.00     0.027 H 
ATOM     26  H   LIG d   1       4.126  -3.421  -3.670  0.00  0.00     0.027 H 
ATOM     27  H   LIG d   1       8.599  -3.538  -7.307  0.00  0.00     0.027 H 
ATOM     28  H   LIG d   1       7.208  -3.316  -8.406  0.00  0.00     0.027 H 
ATOM     29  H   LIG d   1       8.423  -5.845  -7.373  0.00  0.00     0.030 H 
ATOM     30  H   LIG d   1       7.362  -5.608  -8.790  0.00  0.00     0.030 H 
ATOM     31  H   LIG d   1       7.648  -1.774  -4.740  0.00  0.00     0.027 H 
ATOM     32  H   LIG d   1       8.052  -1.258  -6.391  0.00  0.00     0.027 H 
ATOM     33  H   LIG d   1       7.590   0.679  -4.909  0.00  0.00     0.031 H 
ATOM     34  H   LIG d   1       6.397   0.573  -6.226  0.00  0.00     0.031 H 
ATOM     35  H   LIG d   1       6.614   1.366  -3.064  0.00  0.00     0.065 H 
ATOM     36  H   LIG d   1       2.820   0.574  -3.022  0.00  0.00     0.035 H 
ATOM     37  H   LIG d   1       2.918  -0.314  -1.557  0.00  0.00     0.035 H 
ATOM     38  H   LIG d   1       2.814  -1.787  -3.571  0.00  0.00     0.028 H 
ATOM     39  H   LIG d   1       4.333  -1.950  -2.661  0.00  0.00     0.028 H 
ENDROOT
BRANCH  12  40
ATOM     40  O   LIG d   1       5.464  -6.756  -7.716  0.00  0.00    -0.461 OA
BRANCH  40  41
ATOM     41  C   LIG d   1       4.992  -7.864  -7.125  0.00  0.00     0.308 C 
ATOM     42  O   LIG d   1       3.887  -8.270  -7.397  0.00  0.00    -0.251 OA
BRANCH  41  43
ATOM     43  C   LIG d   1       5.839  -8.602  -6.121  0.00  0.00     0.053 C 
ATOM     44  H   LIG d   1       6.376  -9.408  -6.622  0.00  0.00     0.038 H 
ATOM     45  H   LIG d   1       6.555  -7.914  -5.673  0.00  0.00     0.038 H 
BRANCH  43  46
ATOM     46  C   LIG d   1       4.943  -9.190  -5.029  0.00  0.00     0.034 C 
ATOM     47  H   LIG d   1       4.231  -8.433  -4.698  0.00  0.00     0.036 H 
ATOM     48  H   LIG d   1       4.402 -10.049  -5.426  0.00  0.00     0.036 H 
BRANCH  46  49
ATOM     49  C   LIG d   1       5.792  -9.626  -3.863  0.00  0.00     0.214 C 
ATOM     50  O   LIG d   1       5.268 -10.066  -2.862  0.00  0.00    -0.276 OA
ATOM     51  N   LIG d   1       7.134  -9.526  -3.933  0.00  0.00    -0.315 N 
ATOM     52  H   LIG d   1       7.553  -9.174  -4.733  0.00  0.00     0.149 HD
BRANCH  51  53
ATOM     53  C   LIG d   1       7.960  -9.950  -2.799  0.00  0.00     0.016 C 
ATOM     54  H   LIG d   1       7.605  -9.466  -1.889  0.00  0.00     0.046 H 
ATOM     55  H   LIG d   1       7.893 -11.032  -2.685  0.00  0.00     0.046 H 
BRANCH  53  56
ATOM     56  C   LIG d   1       9.416  -9.553  -3.052  0.00  0.00    -0.010 C 
ATOM     57  H   LIG d   1      10.076 -10.333  -2.674  0.00  0.00     0.033 H 
ATOM     58  H   LIG d   1       9.577  -9.428  -4.123  0.00  0.00     0.033 H 
BRANCH  56  59
ATOM     59  C   LIG d   1       9.713  -8.256  -2.345  0.00  0.00    -0.021 A 
ATOM     60  C   LIG d   1       9.460  -6.907  -2.857  0.00  0.00     0.003 A 
ATOM     61  C   LIG d   1       9.895  -6.022  -1.852  0.00  0.00     0.047 A 
ATOM     62  C   LIG d   1       8.921  -6.404  -4.042  0.00  0.00    -0.052 A 
ATOM     63  N   LIG d   1      10.373  -6.791  -0.814  0.00  0.00    -0.360 N 
ATOM     64  C   LIG d   1       9.781  -4.652  -2.056  0.00  0.00    -0.038 A 
ATOM     65  C   LIG d   1      10.252  -8.119  -1.123  0.00  0.00     0.006 A 
ATOM     66  H   LIG d   1      10.739  -6.443   0.014  0.00  0.00     0.165 HD
ATOM     67  H   LIG d   1      10.547  -8.934  -0.481  0.00  0.00     0.081 H 
ATOM     68  C   LIG d   1       9.247  -4.176  -3.233  0.00  0.00    -0.060 A 
ATOM     69  H   LIG d   1      10.112  -3.962  -1.294  0.00  0.00     0.064 H 
ATOM     70  C   LIG d   1       8.819  -5.053  -4.221  0.00  0.00    -0.061 A 
ATOM     71  H   LIG d   1       9.159  -3.111  -3.390  0.00  0.00     0.062 H 
ATOM     72  H   LIG d   1       8.403  -4.663  -5.138  0.00  0.00     0.062 H 
ATOM     73  H   LIG d   1       8.586  -7.080  -4.815  0.00  0.00     0.062 H 
ENDBRANCH  56  59
ENDBRANCH  53  56
ENDBRANCH  51  53
ENDBRANCH  46  49
ENDBRANCH  43  46
ENDBRANCH  41  43
ENDBRANCH  40  41
ENDBRANCH  12  40
BRANCH   1  74
ATOM     74  C   LIG d   1       4.659  -4.207  -7.743  0.00  0.00    -0.056 C 
ATOM     75  H   LIG d   1       4.966  -4.779  -8.619  0.00  0.00     0.024 H 
ATOM     76  H   LIG d   1       3.612  -4.414  -7.522  0.00  0.00     0.024 H 
ATOM     77  H   LIG d   1       4.784  -3.143  -7.943  0.00  0.00     0.024 H 
ENDBRANCH   1  74
BRANCH  22  78
ATOM     78  C   LIG d   1       3.561  -0.228  -5.481  0.00  0.00    -0.056 C 
ATOM     79  H   LIG d   1       2.560  -0.645  -5.366  0.00  0.00     0.024 H 
ATOM     80  H   LIG d   1       3.545   0.830  -5.222  0.00  0.00     0.024 H 
ATOM     81  H   LIG d   1       3.886  -0.345  -6.514  0.00  0.00     0.024 H 
ENDBRANCH  22  78
TORSDOF 10
ENDMDL
MODEL 8
REMARK VINA RESULT:      -6.7      1.915      6.676
REMARK  10 active torsions:
REMARK  status: ('A' for Active; 'I' for Inactive)
REMARK    1  A    between atoms: C_1  and  C_2 
REMARK    2  A    between atoms: C_13  and  O_15 
REMARK    3  A    between atoms: O_15  and  C_16 
REMARK    4  A    between atoms: C_16  and  C_18 
REMARK    5  A    between atoms: C_18  and  C_19 
REMARK    6  A    between atoms: C_19  and  C_20 
REMARK       I    between atoms: C_20  and  N_22 
REMARK    7  A    between atoms: N_22  and  C_23 
REMARK    8  A    between atoms: C_23  and  C_24 
REMARK    9  A    between atoms: C_24  and  C_25 
REMARK   10  A    between atoms: C_43  and  C_44 
ROOT
ATOM      1  C   LIG d   1       6.352  -4.829  -6.014  0.00  0.00     0.008 C 
ATOM      2  C   LIG d   1       4.869  -4.550  -5.901  0.00  0.00    -0.044 C 
ATOM      3  C   LIG d   1       4.655  -3.370  -4.933  0.00  0.00    -0.049 C 
ATOM      4  C   LIG d   1       5.668  -2.270  -5.237  0.00  0.00    -0.029 C 
ATOM      5  H   LIG d   1       5.681  -2.212  -6.338  0.00  0.00     0.031 H 
ATOM      6  C   LIG d   1       7.069  -2.703  -4.861  0.00  0.00    -0.034 C 
ATOM      7  H   LIG d   1       7.775  -2.352  -5.611  0.00  0.00     0.031 H 
ATOM      8  C   LIG d   1       7.086  -4.227  -4.797  0.00  0.00    -0.029 C 
ATOM      9  H   LIG d   1       6.611  -4.562  -3.865  0.00  0.00     0.031 H 
ATOM     10  C   LIG d   1       8.483  -4.856  -4.912  0.00  0.00    -0.046 C 
ATOM     11  C   LIG d   1       8.192  -6.303  -5.390  0.00  0.00    -0.015 C 
ATOM     12  C   LIG d   1       6.731  -6.316  -5.899  0.00  0.00     0.109 C 
ATOM     13  H   LIG d   1       6.081  -6.812  -5.184  0.00  0.00     0.074 H 
ATOM     14  C   LIG d   1       7.519  -2.190  -3.496  0.00  0.00    -0.046 C 
ATOM     15  C   LIG d   1       7.368  -0.679  -3.396  0.00  0.00    -0.030 C 
ATOM     16  C   LIG d   1       5.909  -0.339  -3.628  0.00  0.00    -0.060 C 
ATOM     17  C   LIG d   1       5.304   0.441  -2.731  0.00  0.00    -0.019 C 
ATOM     18  C   LIG d   1       3.905   0.841  -2.897  0.00  0.00     0.156 C 
ATOM     19  O   LIG d   1       3.303   1.400  -1.998  0.00  0.00    -0.293 OA
ATOM     20  C   LIG d   1       3.230   0.543  -4.217  0.00  0.00     0.011 C 
ATOM     21  C   LIG d   1       3.700  -0.823  -4.711  0.00  0.00    -0.037 C 
ATOM     22  C   LIG d   1       5.216  -0.895  -4.826  0.00  0.00    -0.007 C 
ATOM     23  H   LIG d   1       4.356  -5.433  -5.514  0.00  0.00     0.027 H 
ATOM     24  H   LIG d   1       4.460  -4.299  -6.880  0.00  0.00     0.027 H 
ATOM     25  H   LIG d   1       4.782  -3.713  -3.907  0.00  0.00     0.027 H 
ATOM     26  H   LIG d   1       3.639  -2.995  -5.066  0.00  0.00     0.027 H 
ATOM     27  H   LIG d   1       8.973  -4.872  -3.935  0.00  0.00     0.027 H 
ATOM     28  H   LIG d   1       9.103  -4.325  -5.631  0.00  0.00     0.027 H 
ATOM     29  H   LIG d   1       8.304  -6.998  -4.558  0.00  0.00     0.030 H 
ATOM     30  H   LIG d   1       8.872  -6.573  -6.196  0.00  0.00     0.030 H 
ATOM     31  H   LIG d   1       6.908  -2.662  -2.727  0.00  0.00     0.027 H 
ATOM     32  H   LIG d   1       8.562  -2.461  -3.341  0.00  0.00     0.027 H 
ATOM     33  H   LIG d   1       7.667  -0.346  -2.400  0.00  0.00     0.031 H 
ATOM     34  H   LIG d   1       7.990  -0.192  -4.144  0.00  0.00     0.031 H 
ATOM     35  H   LIG d   1       5.860   0.787  -1.867  0.00  0.00     0.065 H 
ATOM     36  H   LIG d   1       3.469   1.250  -4.882  0.00  0.00     0.035 H 
ATOM     37  H   LIG d   1       2.144   0.520  -4.074  0.00  0.00     0.035 H 
ATOM     38  H   LIG d   1       3.260  -1.027  -5.686  0.00  0.00     0.028 H 
ATOM     39  H   LIG d   1       3.365  -1.578  -3.999  0.00  0.00     0.028 H 
ENDROOT
BRANCH  12  40
ATOM     40  O   LIG d   1       6.654  -6.950  -7.199  0.00  0.00    -0.461 OA
BRANCH  40  41
ATOM     41  C   LIG d   1       5.714  -7.894  -7.362  0.00  0.00     0.308 C 
ATOM     42  O   LIG d   1       6.035  -9.055  -7.461  0.00  0.00    -0.251 OA
BRANCH  41  43
ATOM     43  C   LIG d   1       4.259  -7.507  -7.423  0.00  0.00     0.053 C 
ATOM     44  H   LIG d   1       3.665  -8.244  -6.883  0.00  0.00     0.038 H 
ATOM     45  H   LIG d   1       4.124  -6.527  -6.967  0.00  0.00     0.038 H 
BRANCH  43  46
ATOM     46  C   LIG d   1       3.804  -7.458  -8.883  0.00  0.00     0.034 C 
ATOM     47  H   LIG d   1       4.457  -8.087  -9.488  0.00  0.00     0.036 H 
ATOM     48  H   LIG d   1       2.779  -7.822  -8.957  0.00  0.00     0.036 H 
BRANCH  46  49
ATOM     49  C   LIG d   1       3.870  -6.038  -9.383  0.00  0.00     0.214 C 
ATOM     50  O   LIG d   1       4.811  -5.674 -10.055  0.00  0.00    -0.276 OA
ATOM     51  N   LIG d   1       2.881  -5.172  -9.082  0.00  0.00    -0.315 N 
ATOM     52  H   LIG d   1       2.128  -5.462  -8.545  0.00  0.00     0.149 HD
BRANCH  51  53
ATOM     53  C   LIG d   1       2.946  -3.791  -9.567  0.00  0.00     0.016 C 
ATOM     54  H   LIG d   1       3.625  -3.735 -10.417  0.00  0.00     0.046 H 
ATOM     55  H   LIG d   1       1.952  -3.467  -9.875  0.00  0.00     0.046 H 
BRANCH  53  56
ATOM     56  C   LIG d   1       3.455  -2.881  -8.447  0.00  0.00    -0.010 C 
ATOM     57  H   LIG d   1       2.610  -2.512  -7.866  0.00  0.00     0.033 H 
ATOM     58  H   LIG d   1       4.125  -3.444  -7.798  0.00  0.00     0.033 H 
BRANCH  56  59
ATOM     59  C   LIG d   1       4.199  -1.716  -9.047  0.00  0.00    -0.021 A 
ATOM     60  C   LIG d   1       3.841  -0.300  -8.930  0.00  0.00     0.003 A 
ATOM     61  C   LIG d   1       4.822   0.410  -9.646  0.00  0.00     0.047 A 
ATOM     62  C   LIG d   1       2.804   0.390  -8.298  0.00  0.00    -0.052 A 
ATOM     63  N   LIG d   1       5.704  -0.518 -10.154  0.00  0.00    -0.360 N 
ATOM     64  C   LIG d   1       4.746   1.797  -9.715  0.00  0.00    -0.038 A 
ATOM     65  C   LIG d   1       5.320  -1.778  -9.783  0.00  0.00     0.006 A 
ATOM     66  H   LIG d   1       6.484  -0.309 -10.693  0.00  0.00     0.165 HD
ATOM     67  H   LIG d   1       5.840  -2.687 -10.045  0.00  0.00     0.081 H 
ATOM     68  C   LIG d   1       3.714   2.458  -9.086  0.00  0.00    -0.060 A 
ATOM     69  H   LIG d   1       5.491   2.354 -10.263  0.00  0.00     0.064 H 
ATOM     70  C   LIG d   1       2.748   1.753  -8.379  0.00  0.00    -0.061 A 
ATOM     71  H   LIG d   1       3.656   3.534  -9.140  0.00  0.00     0.062 H 
ATOM     72  H   LIG d   1       1.946   2.286  -7.892  0.00  0.00     0.062 H 
ATOM     73  H   LIG d   1       2.050  -0.152  -7.748  0.00  0.00     0.062 H 
ENDBRANCH  56  59
ENDBRANCH  53  56
ENDBRANCH  51  53
ENDBRANCH  46  49
ENDBRANCH  43  46
ENDBRANCH  41  43
ENDBRANCH  40  41
ENDBRANCH  12  40
BRANCH   1  74
ATOM     74  C   LIG d   1       6.905  -4.292  -7.334  0.00  0.00    -0.056 C 
ATOM     75  H   LIG d   1       7.362  -3.316  -7.166  0.00  0.00     0.024 H 
ATOM     76  H   LIG d   1       7.654  -4.982  -7.722  0.00  0.00     0.024 H 
ATOM     77  H   LIG d   1       6.093  -4.194  -8.054  0.00  0.00     0.024 H 
ENDBRANCH   1  74
BRANCH  22  78
ATOM     78  C   LIG d   1       5.590   0.024  -5.997  0.00  0.00    -0.056 C 
ATOM     79  H   LIG d   1       5.984  -0.574  -6.818  0.00  0.00     0.024 H 
ATOM     80  H   LIG d   1       4.704   0.564  -6.333  0.00  0.00     0.024 H 
ATOM     81  H   LIG d   1       6.348   0.737  -5.671  0.00  0.00     0.024 H 
ENDBRANCH  22  78
TORSDOF 10
ENDMDL
MODEL 9
REMARK VINA RESULT:      -6.6      2.931      7.282
REMARK  10 active torsions:
REMARK  status: ('A' for Active; 'I' for Inactive)
REMARK    1  A    between atoms: C_1  and  C_2 
REMARK    2  A    between atoms: C_13  and  O_15 
REMARK    3  A    between atoms: O_15  and  C_16 
REMARK    4  A    between atoms: C_16  and  C_18 
REMARK    5  A    between atoms: C_18  and  C_19 
REMARK    6  A    between atoms: C_19  and  C_20 
REMARK       I    between atoms: C_20  and  N_22 
REMARK    7  A    between atoms: N_22  and  C_23 
REMARK    8  A    between atoms: C_23  and  C_24 
REMARK    9  A    between atoms: C_24  and  C_25 
REMARK   10  A    between atoms: C_43  and  C_44 
ROOT
ATOM      1  C   LIG d   1       6.807  -0.773  -7.811  0.00  0.00     0.008 C 
ATOM      2  C   LIG d   1       6.181   0.236  -6.873  0.00  0.00    -0.044 C 
ATOM      3  C   LIG d   1       7.245   0.704  -5.861  0.00  0.00    -0.049 C 
ATOM      4  C   LIG d   1       8.557   0.977  -6.591  0.00  0.00    -0.029 C 
ATOM      5  H   LIG d   1       8.252   1.512  -7.505  0.00  0.00     0.031 H 
ATOM      6  C   LIG d   1       9.179  -0.309  -7.090  0.00  0.00    -0.034 C 
ATOM      7  H   LIG d   1       9.610  -0.148  -8.077  0.00  0.00     0.031 H 
ATOM      8  C   LIG d   1       8.078  -1.362  -7.165  0.00  0.00    -0.029 C 
ATOM      9  H   LIG d   1       7.853  -1.732  -6.155  0.00  0.00     0.031 H 
ATOM     10  C   LIG d   1       8.393  -2.552  -8.084  0.00  0.00    -0.046 C 
ATOM     11  C   LIG d   1       6.993  -3.125  -8.430  0.00  0.00    -0.015 C 
ATOM     12  C   LIG d   1       5.962  -2.038  -8.041  0.00  0.00     0.109 C 
ATOM     13  H   LIG d   1       5.444  -2.312  -7.126  0.00  0.00     0.074 H 
ATOM     14  C   LIG d   1      10.266  -0.857  -6.171  0.00  0.00    -0.046 C 
ATOM     15  C   LIG d   1      11.332   0.191  -5.887  0.00  0.00    -0.030 C 
ATOM     16  C   LIG d   1      10.654   1.384  -5.243  0.00  0.00    -0.060 C 
ATOM     17  C   LIG d   1      11.169   1.849  -4.104  0.00  0.00    -0.019 C 
ATOM     18  C   LIG d   1      10.592   3.017  -3.434  0.00  0.00     0.156 C 
ATOM     19  O   LIG d   1      10.945   3.333  -2.312  0.00  0.00    -0.293 OA
ATOM     20  C   LIG d   1       9.547   3.820  -4.175  0.00  0.00     0.011 C 
ATOM     21  C   LIG d   1       8.648   2.860  -4.951  0.00  0.00    -0.037 C 
ATOM     22  C   LIG d   1       9.446   1.971  -5.893  0.00  0.00    -0.007 C 
ATOM     23  H   LIG d   1       5.350  -0.226  -6.335  0.00  0.00     0.027 H 
ATOM     24  H   LIG d   1       5.810   1.092  -7.437  0.00  0.00     0.027 H 
ATOM     25  H   LIG d   1       7.397  -0.069  -5.108  0.00  0.00     0.027 H 
ATOM     26  H   LIG d   1       6.885   1.613  -5.378  0.00  0.00     0.027 H 
ATOM     27  H   LIG d   1       8.984  -3.299  -7.549  0.00  0.00     0.027 H 
ATOM     28  H   LIG d   1       8.918  -2.235  -8.982  0.00  0.00     0.027 H 
ATOM     29  H   LIG d   1       6.812  -4.034  -7.857  0.00  0.00     0.030 H 
ATOM     30  H   LIG d   1       6.930  -3.336  -9.496  0.00  0.00     0.030 H 
ATOM     31  H   LIG d   1       9.806  -1.163  -5.231  0.00  0.00     0.027 H 
ATOM     32  H   LIG d   1      10.727  -1.724  -6.642  0.00  0.00     0.027 H 
ATOM     33  H   LIG d   1      12.076  -0.220  -5.203  0.00  0.00     0.031 H 
ATOM     34  H   LIG d   1      11.816   0.490  -6.814  0.00  0.00     0.031 H 
ATOM     35  H   LIG d   1      12.031   1.356  -3.671  0.00  0.00     0.065 H 
ATOM     36  H   LIG d   1       9.997   4.454  -4.804  0.00  0.00     0.035 H 
ATOM     37  H   LIG d   1       8.940   4.381  -3.455  0.00  0.00     0.035 H 
ATOM     38  H   LIG d   1       7.923   3.430  -5.529  0.00  0.00     0.028 H 
ATOM     39  H   LIG d   1       8.122   2.230  -4.233  0.00  0.00     0.028 H 
ENDROOT
BRANCH  12  40
ATOM     40  O   LIG d   1       5.024  -1.820  -9.124  0.00  0.00    -0.461 OA
BRANCH  40  41
ATOM     41  C   LIG d   1       3.763  -2.235  -8.931  0.00  0.00     0.308 C 
ATOM     42  O   LIG d   1       3.539  -3.399  -8.698  0.00  0.00    -0.251 OA
BRANCH  41  43
ATOM     43  C   LIG d   1       2.625  -1.250  -9.007  0.00  0.00     0.053 C 
ATOM     44  H   LIG d   1       2.072  -1.406  -9.934  0.00  0.00     0.038 H 
ATOM     45  H   LIG d   1       1.960  -1.397  -8.158  0.00  0.00     0.038 H 
BRANCH  43  46
ATOM     46  C   LIG d   1       3.181   0.176  -8.980  0.00  0.00     0.034 C 
ATOM     47  H   LIG d   1       4.262   0.146  -9.118  0.00  0.00     0.036 H 
ATOM     48  H   LIG d   1       2.728   0.758  -9.783  0.00  0.00     0.036 H 
BRANCH  46  49
ATOM     49  C   LIG d   1       2.860   0.815  -7.654  0.00  0.00     0.214 C 
ATOM     50  O   LIG d   1       2.793   2.022  -7.562  0.00  0.00    -0.276 OA
ATOM     51  N   LIG d   1       2.646   0.043  -6.570  0.00  0.00    -0.315 N 
ATOM     52  H   LIG d   1       2.699  -0.922  -6.642  0.00  0.00     0.149 HD
BRANCH  51  53
ATOM     53  C   LIG d   1       2.334   0.665  -5.279  0.00  0.00     0.016 C 
ATOM     54  H   LIG d   1       3.035   1.477  -5.088  0.00  0.00     0.046 H 
ATOM     55  H   LIG d   1       1.318   1.059  -5.302  0.00  0.00     0.046 H 
BRANCH  53  56
ATOM     56  C   LIG d   1       2.451  -0.381  -4.169  0.00  0.00    -0.010 C 
ATOM     57  H   LIG d   1       1.802  -0.103  -3.338  0.00  0.00     0.033 H 
ATOM     58  H   LIG d   1       2.150  -1.356  -4.554  0.00  0.00     0.033 H 
BRANCH  56  59
ATOM     59  C   LIG d   1       3.878  -0.449  -3.691  0.00  0.00    -0.021 A 
ATOM     60  C   LIG d   1       4.848  -1.504  -3.992  0.00  0.00     0.003 A 
ATOM     61  C   LIG d   1       6.038  -1.138  -3.334  0.00  0.00     0.047 A 
ATOM     62  C   LIG d   1       4.800  -2.683  -4.737  0.00  0.00    -0.052 A 
ATOM     63  N   LIG d   1       5.793   0.052  -2.686  0.00  0.00    -0.360 N 
ATOM     64  C   LIG d   1       7.154  -1.960  -3.437  0.00  0.00    -0.038 A 
ATOM     65  C   LIG d   1       4.503   0.450  -2.914  0.00  0.00     0.006 A 
ATOM     66  H   LIG d   1       6.439   0.539  -2.151  0.00  0.00     0.165 HD
ATOM     67  H   LIG d   1       4.055   1.352  -2.526  0.00  0.00     0.081 H 
ATOM     68  C   LIG d   1       7.085  -3.119  -4.178  0.00  0.00    -0.060 A 
ATOM     69  H   LIG d   1       8.073  -1.692  -2.936  0.00  0.00     0.064 H 
ATOM     70  C   LIG d   1       5.909  -3.477  -4.826  0.00  0.00    -0.061 A 
ATOM     71  H   LIG d   1       7.953  -3.757  -4.257  0.00  0.00     0.062 H 
ATOM     72  H   LIG d   1       5.872  -4.389  -5.402  0.00  0.00     0.062 H 
ATOM     73  H   LIG d   1       3.889  -2.967  -5.244  0.00  0.00     0.062 H 
ENDBRANCH  56  59
ENDBRANCH  53  56
ENDBRANCH  51  53
ENDBRANCH  46  49
ENDBRANCH  43  46
ENDBRANCH  41  43
ENDBRANCH  40  41
ENDBRANCH  12  40
BRANCH   1  74
ATOM     74  C   LIG d   1       7.102  -0.138  -9.170  0.00  0.00    -0.056 C 
ATOM     75  H   LIG d   1       6.178  -0.062  -9.743  0.00  0.00     0.024 H 
ATOM     76  H   LIG d   1       7.521   0.857  -9.022  0.00  0.00     0.024 H 
ATOM     77  H   LIG d   1       7.816  -0.757  -9.712  0.00  0.00     0.024 H 
ENDBRANCH   1  74
BRANCH  22  78
ATOM     78  C   LIG d   1       9.969   2.898  -6.999  0.00  0.00    -0.056 C 
ATOM     79  H   LIG d   1       9.551   3.896  -6.866  0.00  0.00     0.024 H 
ATOM     80  H   LIG d   1      11.057   2.950  -6.946  0.00  0.00     0.024 H 
ATOM     81  H   LIG d   1       9.671   2.507  -7.972  0.00  0.00     0.024 H 
ENDBRANCH  22  78
TORSDOF 10
ENDMDL
