MODEL 1
REMARK VINA RESULT:      -7.6      0.000      0.000
REMARK  3 active torsions:
REMARK  status: ('A' for Active; 'I' for Inactive)
REMARK    1  A    between atoms: C_5  and  N_7 
REMARK    2  A    between atoms: N_10  and  C_13 
REMARK    3  A    between atoms: C_13  and  C_14 
ROOT
ATOM      1  C   LIG d   1       5.854  -2.436  -7.346  0.00  0.00    -0.005 C 
ATOM      2  H   LIG d   1       6.462  -2.234  -6.465  0.00  0.00     0.087 H 
ATOM      3  H   LIG d   1       6.427  -2.206  -8.244  0.00  0.00     0.087 H 
ENDROOT
BRANCH   1   4
ATOM      4  N   LIG d   1       5.470  -3.854  -7.360  0.00  0.00     0.241 N 
ATOM      5  C   LIG d   1       6.679  -4.686  -7.339  0.00  0.00    -0.015 C 
ATOM      6  C   LIG d   1       6.286  -6.162  -7.469  0.00  0.00     0.054 C 
ATOM      7  H   LIG d   1       7.209  -4.534  -6.398  0.00  0.00     0.083 H 
ATOM      8  H   LIG d   1       7.328  -4.408  -8.171  0.00  0.00     0.083 H 
ATOM      9  N   LIG d   1       5.311  -6.479  -6.414  0.00  0.00    -0.305 N 
ATOM     10  H   LIG d   1       7.170  -6.789  -7.352  0.00  0.00     0.052 H 
ATOM     11  H   LIG d   1       5.837  -6.335  -8.447  0.00  0.00     0.052 H 
ATOM     12  C   LIG d   1       4.143  -5.599  -6.263  0.00  0.00     0.054 C 
ATOM     13  C   LIG d   1       4.641  -4.147  -6.185  0.00  0.00    -0.015 C 
ATOM     14  H   LIG d   1       3.481  -5.716  -7.120  0.00  0.00     0.052 H 
ATOM     15  H   LIG d   1       3.608  -5.853  -5.347  0.00  0.00     0.052 H 
ATOM     16  H   LIG d   1       5.231  -4.010  -5.280  0.00  0.00     0.083 H 
ATOM     17  H   LIG d   1       3.786  -3.471  -6.167  0.00  0.00     0.083 H 
ATOM     18  H   LIG d   1       4.945  -4.049  -8.200  0.00  0.00     0.204 HD
BRANCH   9  19
ATOM     19  C   LIG d   1       5.486  -7.584  -5.589  0.00  0.00     0.121 A 
ATOM     20  N   LIG d   1       4.447  -8.343  -5.279  0.00  0.00    -0.240 NA
ATOM     21  C   LIG d   1       4.571  -9.401  -4.499  0.00  0.00     0.030 A 
ATOM     22  C   LIG d   1       5.798  -9.753  -3.975  0.00  0.00    -0.043 A 
ATOM     23  H   LIG d   1       3.702  -9.997  -4.268  0.00  0.00     0.083 H 
ATOM     24  C   LIG d   1       6.914  -8.983  -4.276  0.00  0.00    -0.057 A 
ATOM     25  H   LIG d   1       5.890 -10.621  -3.337  0.00  0.00     0.063 H 
ATOM     26  C   LIG d   1       6.753  -7.881  -5.096  0.00  0.00    -0.022 A 
ATOM     27  H   LIG d   1       7.883  -9.235  -3.874  0.00  0.00     0.062 H 
ATOM     28  H   LIG d   1       7.599  -7.260  -5.350  0.00  0.00     0.065 H 
ENDBRANCH   9  19
ENDBRANCH   1   4
BRANCH   1  29
ATOM     29  C   LIG d   1       4.614  -1.581  -7.307  0.00  0.00     0.015 A 
ATOM     30  C   LIG d   1       4.291  -0.775  -6.124  0.00  0.00     0.026 A 
ATOM     31  C   LIG d   1       3.126   0.011  -6.132  0.00  0.00     0.140 A 
ATOM     32  C   LIG d   1       5.123  -0.776  -5.003  0.00  0.00    -0.047 A 
ATOM     33  O   LIG d   1       2.320   0.008  -7.216  0.00  0.00    -0.422 OA
ATOM     34  C   LIG d   1       2.816   0.778  -5.019  0.00  0.00    -0.015 A 
ATOM     35  C   LIG d   1       2.606  -0.730  -8.299  0.00  0.00     0.338 A 
ATOM     36  C   LIG d   1       3.761  -1.539  -8.362  0.00  0.00     0.032 A 
ATOM     37  O   LIG d   1       1.849  -0.702  -9.254  0.00  0.00    -0.245 OA
ATOM     38  H   LIG d   1       3.967  -2.123  -9.248  0.00  0.00     0.069 H 
ATOM     39  C   LIG d   1       3.641   0.762  -3.910  0.00  0.00    -0.041 A 
ATOM     40  H   LIG d   1       1.921   1.382  -5.014  0.00  0.00     0.066 H 
ATOM     41  C   LIG d   1       4.796  -0.010  -3.903  0.00  0.00    -0.043 A 
ATOM     42  C   LIG d   1       3.517   1.500  -2.592  0.00  0.00    -0.027 C 
ATOM     43  C   LIG d   1       5.517   0.161  -2.584  0.00  0.00    -0.027 C 
ATOM     44  C   LIG d   1       4.469   0.765  -1.625  0.00  0.00    -0.045 C 
ATOM     45  H   LIG d   1       5.858  -0.804  -2.211  0.00  0.00     0.031 H 
ATOM     46  H   LIG d   1       6.360   0.843  -2.699  0.00  0.00     0.031 H 
ATOM     47  H   LIG d   1       4.936   1.467  -0.934  0.00  0.00     0.027 H 
ATOM     48  H   LIG d   1       3.941  -0.020  -1.084  0.00  0.00     0.027 H 
ATOM     49  H   LIG d   1       3.826   2.539  -2.710  0.00  0.00     0.031 H 
ATOM     50  H   LIG d   1       2.492   1.448  -2.225  0.00  0.00     0.031 H 
ATOM     51  H   LIG d   1       6.021  -1.376  -4.995  0.00  0.00     0.063 H 
ENDBRANCH   1  29
TORSDOF 3
ENDMDL
MODEL 2
REMARK VINA RESULT:      -7.3      3.327      6.064
REMARK  3 active torsions:
REMARK  status: ('A' for Active; 'I' for Inactive)
REMARK    1  A    between atoms: C_5  and  N_7 
REMARK    2  A    between atoms: N_10  and  C_13 
REMARK    3  A    between atoms: C_13  and  C_14 
ROOT
ATOM      1  C   LIG d   1       4.830  -4.736  -5.626  0.00  0.00    -0.005 C 
ATOM      2  H   LIG d   1       3.901  -4.437  -5.142  0.00  0.00     0.087 H 
ATOM      3  H   LIG d   1       4.993  -5.802  -5.474  0.00  0.00     0.087 H 
ENDROOT
BRANCH   1   4
ATOM      4  N   LIG d   1       4.743  -4.454  -7.066  0.00  0.00     0.241 N 
ATOM      5  C   LIG d   1       3.534  -5.080  -7.613  0.00  0.00    -0.015 C 
ATOM      6  C   LIG d   1       3.501  -4.886  -9.133  0.00  0.00     0.054 C 
ATOM      7  H   LIG d   1       2.652  -4.617  -7.169  0.00  0.00     0.083 H 
ATOM      8  H   LIG d   1       3.540  -6.146  -7.383  0.00  0.00     0.083 H 
ATOM      9  N   LIG d   1       3.625  -3.449  -9.421  0.00  0.00    -0.305 N 
ATOM     10  H   LIG d   1       2.557  -5.259  -9.530  0.00  0.00     0.052 H 
ATOM     11  H   LIG d   1       4.332  -5.424  -9.588  0.00  0.00     0.052 H 
ATOM     12  C   LIG d   1       4.723  -2.706  -8.785  0.00  0.00     0.054 C 
ATOM     13  C   LIG d   1       4.694  -3.002  -7.277  0.00  0.00    -0.015 C 
ATOM     14  H   LIG d   1       5.676  -3.027  -9.206  0.00  0.00     0.052 H 
ATOM     15  H   LIG d   1       4.588  -1.637  -8.952  0.00  0.00     0.052 H 
ATOM     16  H   LIG d   1       3.778  -2.602  -6.843  0.00  0.00     0.083 H 
ATOM     17  H   LIG d   1       5.556  -2.536  -6.800  0.00  0.00     0.083 H 
ATOM     18  H   LIG d   1       5.556  -4.834  -7.529  0.00  0.00     0.204 HD
BRANCH   9  19
ATOM     19  C   LIG d   1       2.733  -2.812 -10.277  0.00  0.00     0.121 A 
ATOM     20  N   LIG d   1       2.436  -3.364 -11.444  0.00  0.00    -0.240 NA
ATOM     21  C   LIG d   1       1.594  -2.792 -12.284  0.00  0.00     0.030 A 
ATOM     22  C   LIG d   1       0.989  -1.591 -11.973  0.00  0.00    -0.043 A 
ATOM     23  H   LIG d   1       1.375  -3.271 -13.227  0.00  0.00     0.083 H 
ATOM     24  C   LIG d   1       1.273  -0.980 -10.759  0.00  0.00    -0.057 A 
ATOM     25  H   LIG d   1       0.301  -1.131 -12.667  0.00  0.00     0.063 H 
ATOM     26  C   LIG d   1       2.159  -1.603  -9.898  0.00  0.00    -0.022 A 
ATOM     27  H   LIG d   1       0.816  -0.039 -10.495  0.00  0.00     0.062 H 
ATOM     28  H   LIG d   1       2.403  -1.155  -8.947  0.00  0.00     0.065 H 
ENDBRANCH   9  19
ENDBRANCH   1   4
BRANCH   1  29
ATOM     29  C   LIG d   1       5.978  -3.961  -5.032  0.00  0.00     0.015 A 
ATOM     30  C   LIG d   1       5.737  -2.760  -4.224  0.00  0.00     0.026 A 
ATOM     31  C   LIG d   1       6.838  -2.070  -3.685  0.00  0.00     0.140 A 
ATOM     32  C   LIG d   1       4.441  -2.301  -3.982  0.00  0.00    -0.047 A 
ATOM     33  O   LIG d   1       8.091  -2.513  -3.923  0.00  0.00    -0.422 OA
ATOM     34  C   LIG d   1       6.618  -0.935  -2.918  0.00  0.00    -0.015 A 
ATOM     35  C   LIG d   1       8.318  -3.607  -4.665  0.00  0.00     0.338 A 
ATOM     36  C   LIG d   1       7.262  -4.351  -5.233  0.00  0.00     0.032 A 
ATOM     37  O   LIG d   1       9.466  -3.969  -4.854  0.00  0.00    -0.245 OA
ATOM     38  H   LIG d   1       7.474  -5.229  -5.826  0.00  0.00     0.069 H 
ATOM     39  C   LIG d   1       5.332  -0.484  -2.693  0.00  0.00    -0.041 A 
ATOM     40  H   LIG d   1       7.457  -0.396  -2.503  0.00  0.00     0.066 H 
ATOM     41  C   LIG d   1       4.244  -1.168  -3.220  0.00  0.00    -0.043 A 
ATOM     42  C   LIG d   1       4.843   0.713  -1.903  0.00  0.00    -0.027 C 
ATOM     43  C   LIG d   1       2.961  -0.474  -2.818  0.00  0.00    -0.027 C 
ATOM     44  C   LIG d   1       3.388   0.938  -2.366  0.00  0.00    -0.045 C 
ATOM     45  H   LIG d   1       2.283  -0.410  -3.668  0.00  0.00     0.031 H 
ATOM     46  H   LIG d   1       2.485  -1.007  -1.994  0.00  0.00     0.031 H 
ATOM     47  H   LIG d   1       2.768   1.285  -1.540  0.00  0.00     0.027 H 
ATOM     48  H   LIG d   1       3.351   1.639  -3.200  0.00  0.00     0.027 H 
ATOM     49  H   LIG d   1       4.871   0.499  -0.835  0.00  0.00     0.031 H 
ATOM     50  H   LIG d   1       5.452   1.589  -2.130  0.00  0.00     0.031 H 
ATOM     51  H   LIG d   1       3.594  -2.831  -4.392  0.00  0.00     0.063 H 
ENDBRANCH   1  29
TORSDOF 3
ENDMDL
MODEL 3
REMARK VINA RESULT:      -7.2      6.968     10.679
REMARK  3 active torsions:
REMARK  status: ('A' for Active; 'I' for Inactive)
REMARK    1  A    between atoms: C_5  and  N_7 
REMARK    2  A    between atoms: N_10  and  C_13 
REMARK    3  A    between atoms: C_13  and  C_14 
ROOT
ATOM      1  C   LIG d   1       8.746   3.212  -5.206  0.00  0.00    -0.005 C 
ATOM      2  H   LIG d   1       7.791   3.473  -4.751  0.00  0.00     0.087 H 
ATOM      3  H   LIG d   1       8.770   3.571  -6.235  0.00  0.00     0.087 H 
ENDROOT
BRANCH   1   4
ATOM      4  N   LIG d   1       9.837   3.835  -4.445  0.00  0.00     0.241 N 
ATOM      5  C   LIG d   1       9.694   5.295  -4.494  0.00  0.00    -0.015 C 
ATOM      6  C   LIG d   1      10.893   5.949  -3.799  0.00  0.00     0.054 C 
ATOM      7  H   LIG d   1       8.775   5.588  -3.985  0.00  0.00     0.083 H 
ATOM      8  H   LIG d   1       9.654   5.622  -5.534  0.00  0.00     0.083 H 
ATOM      9  N   LIG d   1      11.003   5.395  -2.441  0.00  0.00    -0.305 N 
ATOM     10  H   LIG d   1      10.740   7.028  -3.744  0.00  0.00     0.052 H 
ATOM     11  H   LIG d   1      11.803   5.732  -4.358  0.00  0.00     0.052 H 
ATOM     12  C   LIG d   1      10.996   3.933  -2.286  0.00  0.00     0.054 C 
ATOM     13  C   LIG d   1       9.786   3.374  -3.052  0.00  0.00    -0.015 C 
ATOM     14  H   LIG d   1      11.915   3.516  -2.695  0.00  0.00     0.052 H 
ATOM     15  H   LIG d   1      10.912   3.676  -1.230  0.00  0.00     0.052 H 
ATOM     16  H   LIG d   1       8.864   3.724  -2.587  0.00  0.00     0.083 H 
ATOM     17  H   LIG d   1       9.814   2.285  -3.028  0.00  0.00     0.083 H 
ATOM     18  H   LIG d   1      10.722   3.571  -4.853  0.00  0.00     0.204 HD
BRANCH   9  19
ATOM     19  C   LIG d   1      11.118   6.231  -1.336  0.00  0.00     0.121 A 
ATOM     20  N   LIG d   1      11.346   7.523  -1.511  0.00  0.00    -0.240 NA
ATOM     21  C   LIG d   1      11.461   8.350  -0.489  0.00  0.00     0.030 A 
ATOM     22  C   LIG d   1      11.348   7.892   0.808  0.00  0.00    -0.043 A 
ATOM     23  H   LIG d   1      11.646   9.398  -0.670  0.00  0.00     0.083 H 
ATOM     24  C   LIG d   1      11.108   6.543   1.036  0.00  0.00    -0.057 A 
ATOM     25  H   LIG d   1      11.443   8.577   1.638  0.00  0.00     0.063 H 
ATOM     26  C   LIG d   1      10.992   5.701  -0.055  0.00  0.00    -0.022 A 
ATOM     27  H   LIG d   1      11.020   6.160   2.041  0.00  0.00     0.062 H 
ATOM     28  H   LIG d   1      10.807   4.647   0.085  0.00  0.00     0.065 H 
ENDBRANCH   9  19
ENDBRANCH   1   4
BRANCH   1  29
ATOM     29  C   LIG d   1       8.916   1.714  -5.192  0.00  0.00     0.015 A 
ATOM     30  C   LIG d   1       7.942   0.853  -4.512  0.00  0.00     0.026 A 
ATOM     31  C   LIG d   1       8.137  -0.540  -4.527  0.00  0.00     0.140 A 
ATOM     32  C   LIG d   1       6.831   1.393  -3.861  0.00  0.00    -0.047 A 
ATOM     33  O   LIG d   1       9.214  -1.061  -5.154  0.00  0.00    -0.422 OA
ATOM     34  C   LIG d   1       7.220  -1.361  -3.889  0.00  0.00    -0.015 A 
ATOM     35  C   LIG d   1      10.111  -0.279  -5.773  0.00  0.00     0.338 A 
ATOM     36  C   LIG d   1       9.976   1.126  -5.802  0.00  0.00     0.032 A 
ATOM     37  O   LIG d   1      11.068  -0.794  -6.324  0.00  0.00    -0.245 OA
ATOM     38  H   LIG d   1      10.714   1.732  -6.308  0.00  0.00     0.069 H 
ATOM     39  C   LIG d   1       6.129  -0.815  -3.239  0.00  0.00    -0.041 A 
ATOM     40  H   LIG d   1       7.363  -2.431  -3.892  0.00  0.00     0.066 H 
ATOM     41  C   LIG d   1       5.932   0.560  -3.230  0.00  0.00    -0.043 A 
ATOM     42  C   LIG d   1       5.006  -1.493  -2.481  0.00  0.00    -0.027 C 
ATOM     43  C   LIG d   1       4.668   0.889  -2.465  0.00  0.00    -0.027 C 
ATOM     44  C   LIG d   1       4.352  -0.377  -1.640  0.00  0.00    -0.045 C 
ATOM     45  H   LIG d   1       4.836   1.738  -1.804  0.00  0.00     0.031 H 
ATOM     46  H   LIG d   1       3.853   1.102  -3.156  0.00  0.00     0.031 H 
ATOM     47  H   LIG d   1       3.276  -0.530  -1.563  0.00  0.00     0.027 H 
ATOM     48  H   LIG d   1       4.808  -0.318  -0.651  0.00  0.00     0.027 H 
ATOM     49  H   LIG d   1       4.282  -1.917  -3.176  0.00  0.00     0.031 H 
ATOM     50  H   LIG d   1       5.407  -2.272  -1.830  0.00  0.00     0.031 H 
ATOM     51  H   LIG d   1       6.677   2.462  -3.851  0.00  0.00     0.063 H 
ENDBRANCH   1  29
TORSDOF 3
ENDMDL
MODEL 4
REMARK VINA RESULT:      -7.1      3.674      5.250
REMARK  3 active torsions:
REMARK  status: ('A' for Active; 'I' for Inactive)
REMARK    1  A    between atoms: C_5  and  N_7 
REMARK    2  A    between atoms: N_10  and  C_13 
REMARK    3  A    between atoms: C_13  and  C_14 
ROOT
ATOM      1  C   LIG d   1       5.190  -5.147  -5.305  0.00  0.00    -0.005 C 
ATOM      2  H   LIG d   1       4.287  -4.840  -4.778  0.00  0.00     0.087 H 
ATOM      3  H   LIG d   1       5.512  -6.122  -4.939  0.00  0.00     0.087 H 
ENDROOT
BRANCH   1   4
ATOM      4  N   LIG d   1       4.911  -5.233  -6.745  0.00  0.00     0.241 N 
ATOM      5  C   LIG d   1       4.394  -6.570  -7.062  0.00  0.00    -0.015 C 
ATOM      6  C   LIG d   1       4.211  -6.700  -8.578  0.00  0.00     0.054 C 
ATOM      7  H   LIG d   1       3.434  -6.715  -6.567  0.00  0.00     0.083 H 
ATOM      8  H   LIG d   1       5.101  -7.325  -6.716  0.00  0.00     0.083 H 
ATOM      9  N   LIG d   1       3.359  -5.593  -9.041  0.00  0.00    -0.305 N 
ATOM     10  H   LIG d   1       3.733  -7.652  -8.809  0.00  0.00     0.052 H 
ATOM     11  H   LIG d   1       5.182  -6.645  -9.070  0.00  0.00     0.052 H 
ATOM     12  C   LIG d   1       3.717  -4.226  -8.635  0.00  0.00     0.054 C 
ATOM     13  C   LIG d   1       3.921  -4.214  -7.112  0.00  0.00    -0.015 C 
ATOM     14  H   LIG d   1       4.639  -3.925  -9.132  0.00  0.00     0.052 H 
ATOM     15  H   LIG d   1       2.913  -3.541  -8.904  0.00  0.00     0.052 H 
ATOM     16  H   LIG d   1       2.975  -4.430  -6.615  0.00  0.00     0.083 H 
ATOM     17  H   LIG d   1       4.278  -3.232  -6.802  0.00  0.00     0.083 H 
ATOM     18  H   LIG d   1       5.764  -5.073  -7.260  0.00  0.00     0.204 HD
BRANCH   9  19
ATOM     19  C   LIG d   1       2.251  -5.833  -9.845  0.00  0.00     0.121 A 
ATOM     20  N   LIG d   1       1.631  -7.001  -9.776  0.00  0.00    -0.240 NA
ATOM     21  C   LIG d   1       0.575  -7.269 -10.521  0.00  0.00     0.030 A 
ATOM     22  C   LIG d   1       0.077  -6.333 -11.406  0.00  0.00    -0.043 A 
ATOM     23  H   LIG d   1       0.094  -8.232 -10.438  0.00  0.00     0.083 H 
ATOM     24  C   LIG d   1       0.699  -5.095 -11.508  0.00  0.00    -0.057 A 
ATOM     25  H   LIG d   1      -0.787  -6.561 -12.012  0.00  0.00     0.063 H 
ATOM     26  C   LIG d   1       1.803  -4.843 -10.714  0.00  0.00    -0.022 A 
ATOM     27  H   LIG d   1       0.331  -4.349 -12.196  0.00  0.00     0.062 H 
ATOM     28  H   LIG d   1       2.310  -3.892 -10.769  0.00  0.00     0.065 H 
ENDBRANCH   9  19
ENDBRANCH   1   4
BRANCH   1  29
ATOM     29  C   LIG d   1       6.281  -4.135  -5.065  0.00  0.00     0.015 A 
ATOM     30  C   LIG d   1       6.006  -2.890  -4.339  0.00  0.00     0.026 A 
ATOM     31  C   LIG d   1       7.053  -1.975  -4.134  0.00  0.00     0.140 A 
ATOM     32  C   LIG d   1       4.729  -2.608  -3.848  0.00  0.00    -0.047 A 
ATOM     33  O   LIG d   1       8.286  -2.247  -4.612  0.00  0.00    -0.422 OA
ATOM     34  C   LIG d   1       6.802  -0.798  -3.445  0.00  0.00    -0.015 A 
ATOM     35  C   LIG d   1       8.544  -3.381  -5.282  0.00  0.00     0.338 A 
ATOM     36  C   LIG d   1       7.542  -4.346  -5.520  0.00  0.00     0.032 A 
ATOM     37  O   LIG d   1       9.672  -3.583  -5.696  0.00  0.00    -0.245 OA
ATOM     38  H   LIG d   1       7.777  -5.250  -6.062  0.00  0.00     0.069 H 
ATOM     39  C   LIG d   1       5.532  -0.524  -2.972  0.00  0.00    -0.041 A 
ATOM     40  H   LIG d   1       7.599  -0.087  -3.286  0.00  0.00     0.066 H 
ATOM     41  C   LIG d   1       4.498  -1.431  -3.168  0.00  0.00    -0.043 A 
ATOM     42  C   LIG d   1       5.016   0.676  -2.205  0.00  0.00    -0.027 C 
ATOM     43  C   LIG d   1       3.226  -0.895  -2.547  0.00  0.00    -0.027 C 
ATOM     44  C   LIG d   1       3.480   0.612  -2.339  0.00  0.00    -0.045 C 
ATOM     45  H   LIG d   1       2.383  -1.047  -3.220  0.00  0.00     0.031 H 
ATOM     46  H   LIG d   1       3.039  -1.383  -1.590  0.00  0.00     0.031 H 
ATOM     47  H   LIG d   1       2.997   0.964  -1.427  0.00  0.00     0.027 H 
ATOM     48  H   LIG d   1       3.142   1.185  -3.203  0.00  0.00     0.027 H 
ATOM     49  H   LIG d   1       5.307   0.609  -1.157  0.00  0.00     0.031 H 
ATOM     50  H   LIG d   1       5.396   1.598  -2.646  0.00  0.00     0.031 H 
ATOM     51  H   LIG d   1       3.923  -3.311  -4.000  0.00  0.00     0.063 H 
ENDBRANCH   1  29
TORSDOF 3
ENDMDL
MODEL 5
REMARK VINA RESULT:      -7.0      4.779      5.672
REMARK  3 active torsions:
REMARK  status: ('A' for Active; 'I' for Inactive)
REMARK    1  A    between atoms: C_5  and  N_7 
REMARK    2  A    between atoms: N_10  and  C_13 
REMARK    3  A    between atoms: C_13  and  C_14 
ROOT
ATOM      1  C   LIG d   1       8.881  -2.018  -5.226  0.00  0.00    -0.005 C 
ATOM      2  H   LIG d   1       9.457  -1.985  -6.150  0.00  0.00     0.087 H 
ATOM      3  H   LIG d   1       7.950  -2.558  -5.396  0.00  0.00     0.087 H 
ENDROOT
BRANCH   1   4
ATOM      4  N   LIG d   1       9.663  -2.705  -4.188  0.00  0.00     0.241 N 
ATOM      5  C   LIG d   1       8.782  -3.598  -3.426  0.00  0.00    -0.015 C 
ATOM      6  C   LIG d   1       9.568  -4.228  -2.271  0.00  0.00     0.054 C 
ATOM      7  H   LIG d   1       8.407  -4.385  -4.081  0.00  0.00     0.083 H 
ATOM      8  H   LIG d   1       7.942  -3.028  -3.026  0.00  0.00     0.083 H 
ATOM      9  N   LIG d   1      10.765  -4.880  -2.824  0.00  0.00    -0.305 N 
ATOM     10  H   LIG d   1       8.947  -4.968  -1.765  0.00  0.00     0.052 H 
ATOM     11  H   LIG d   1       9.867  -3.452  -1.566  0.00  0.00     0.052 H 
ATOM     12  C   LIG d   1      11.624  -4.102  -3.727  0.00  0.00     0.054 C 
ATOM     13  C   LIG d   1      10.738  -3.481  -4.818  0.00  0.00    -0.015 C 
ATOM     14  H   LIG d   1      12.127  -3.314  -3.168  0.00  0.00     0.052 H 
ATOM     15  H   LIG d   1      12.365  -4.758  -4.186  0.00  0.00     0.052 H 
ATOM     16  H   LIG d   1      10.304  -4.270  -5.432  0.00  0.00     0.083 H 
ATOM     17  H   LIG d   1      11.341  -2.823  -5.445  0.00  0.00     0.083 H 
ATOM     18  H   LIG d   1      10.064  -2.020  -3.565  0.00  0.00     0.204 HD
BRANCH   9  19
ATOM     19  C   LIG d   1      11.078  -6.195  -2.495  0.00  0.00     0.121 A 
ATOM     20  N   LIG d   1      12.130  -6.777  -3.049  0.00  0.00    -0.240 NA
ATOM     21  C   LIG d   1      12.460  -8.023  -2.763  0.00  0.00     0.030 A 
ATOM     22  C   LIG d   1      11.716  -8.766  -1.870  0.00  0.00    -0.043 A 
ATOM     23  H   LIG d   1      13.325  -8.466  -3.235  0.00  0.00     0.083 H 
ATOM     24  C   LIG d   1      10.605  -8.191  -1.266  0.00  0.00    -0.057 A 
ATOM     25  H   LIG d   1      11.995  -9.785  -1.643  0.00  0.00     0.063 H 
ATOM     26  C   LIG d   1      10.283  -6.885  -1.585  0.00  0.00    -0.022 A 
ATOM     27  H   LIG d   1      10.004  -8.754  -0.568  0.00  0.00     0.062 H 
ATOM     28  H   LIG d   1       9.426  -6.407  -1.134  0.00  0.00     0.065 H 
ENDBRANCH   9  19
ENDBRANCH   1   4
BRANCH   1  29
ATOM     29  C   LIG d   1       8.574  -0.614  -4.775  0.00  0.00     0.015 A 
ATOM     30  C   LIG d   1       7.297  -0.293  -4.128  0.00  0.00     0.026 A 
ATOM     31  C   LIG d   1       7.053   1.030  -3.719  0.00  0.00     0.140 A 
ATOM     32  C   LIG d   1       6.331  -1.278  -3.910  0.00  0.00    -0.047 A 
ATOM     33  O   LIG d   1       7.986   1.982  -3.934  0.00  0.00    -0.422 OA
ATOM     34  C   LIG d   1       5.849   1.340  -3.104  0.00  0.00    -0.015 A 
ATOM     35  C   LIG d   1       9.154   1.698  -4.529  0.00  0.00     0.338 A 
ATOM     36  C   LIG d   1       9.467   0.391  -4.961  0.00  0.00     0.032 A 
ATOM     37  O   LIG d   1       9.965   2.590  -4.703  0.00  0.00    -0.245 OA
ATOM     38  H   LIG d   1      10.416   0.190  -5.438  0.00  0.00     0.069 H 
ATOM     39  C   LIG d   1       4.896   0.359  -2.903  0.00  0.00    -0.041 A 
ATOM     40  H   LIG d   1       5.651   2.354  -2.790  0.00  0.00     0.066 H 
ATOM     41  C   LIG d   1       5.139  -0.949  -3.300  0.00  0.00    -0.043 A 
ATOM     42  C   LIG d   1       3.525   0.449  -2.265  0.00  0.00    -0.027 C 
ATOM     43  C   LIG d   1       3.947  -1.816  -2.956  0.00  0.00    -0.027 C 
ATOM     44  C   LIG d   1       2.786  -0.830  -2.710  0.00  0.00    -0.045 C 
ATOM     45  H   LIG d   1       3.709  -2.480  -3.786  0.00  0.00     0.031 H 
ATOM     46  H   LIG d   1       4.149  -2.395  -2.054  0.00  0.00     0.031 H 
ATOM     47  H   LIG d   1       2.131  -1.194  -1.918  0.00  0.00     0.027 H 
ATOM     48  H   LIG d   1       2.226  -0.655  -3.628  0.00  0.00     0.027 H 
ATOM     49  H   LIG d   1       3.613   0.477  -1.179  0.00  0.00     0.031 H 
ATOM     50  H   LIG d   1       2.998   1.334  -2.625  0.00  0.00     0.031 H 
ATOM     51  H   LIG d   1       6.517  -2.296  -4.220  0.00  0.00     0.063 H 
ENDBRANCH   1  29
TORSDOF 3
ENDMDL
MODEL 6
REMARK VINA RESULT:      -7.0      4.451      5.462
REMARK  3 active torsions:
REMARK  status: ('A' for Active; 'I' for Inactive)
REMARK    1  A    between atoms: C_5  and  N_7 
REMARK    2  A    between atoms: N_10  and  C_13 
REMARK    3  A    between atoms: C_13  and  C_14 
ROOT
ATOM      1  C   LIG d   1       7.889  -4.073  -4.906  0.00  0.00    -0.005 C 
ATOM      2  H   LIG d   1       7.699  -4.407  -5.925  0.00  0.00     0.087 H 
ATOM      3  H   LIG d   1       6.987  -4.198  -4.308  0.00  0.00     0.087 H 
ENDROOT
BRANCH   1   4
ATOM      4  N   LIG d   1       8.977  -4.871  -4.325  0.00  0.00     0.241 N 
ATOM      5  C   LIG d   1       9.103  -4.556  -2.897  0.00  0.00    -0.015 C 
ATOM      6  C   LIG d   1      10.310  -5.300  -2.314  0.00  0.00     0.054 C 
ATOM      7  H   LIG d   1       8.198  -4.867  -2.374  0.00  0.00     0.083 H 
ATOM      8  H   LIG d   1       9.245  -3.481  -2.772  0.00  0.00     0.083 H 
ATOM      9  N   LIG d   1      10.160  -6.733  -2.609  0.00  0.00    -0.305 N 
ATOM     10  H   LIG d   1      10.348  -5.149  -1.235  0.00  0.00     0.052 H 
ATOM     11  H   LIG d   1      11.226  -4.926  -2.772  0.00  0.00     0.052 H 
ATOM     12  C   LIG d   1       9.873  -7.130  -3.995  0.00  0.00     0.054 C 
ATOM     13  C   LIG d   1       8.681  -6.299  -4.497  0.00  0.00    -0.015 C 
ATOM     14  H   LIG d   1      10.745  -6.938  -4.620  0.00  0.00     0.052 H 
ATOM     15  H   LIG d   1       9.622  -8.190  -4.030  0.00  0.00     0.052 H 
ATOM     16  H   LIG d   1       7.789  -6.557  -3.927  0.00  0.00     0.083 H 
ATOM     17  H   LIG d   1       8.511  -6.510  -5.553  0.00  0.00     0.083 H 
ATOM     18  H   LIG d   1       9.842  -4.648  -4.795  0.00  0.00     0.204 HD
BRANCH   9  19
ATOM     19  C   LIG d   1      10.292  -7.686  -1.606  0.00  0.00     0.121 A 
ATOM     20  N   LIG d   1      11.139  -7.477  -0.610  0.00  0.00    -0.240 NA
ATOM     21  C   LIG d   1      11.294  -8.356   0.363  0.00  0.00     0.030 A 
ATOM     22  C   LIG d   1      10.573  -9.533   0.375  0.00  0.00    -0.043 A 
ATOM     23  H   LIG d   1      11.994  -8.153   1.159  0.00  0.00     0.083 H 
ATOM     24  C   LIG d   1       9.673  -9.790  -0.652  0.00  0.00    -0.057 A 
ATOM     25  H   LIG d   1      10.706 -10.246   1.175  0.00  0.00     0.063 H 
ATOM     26  C   LIG d   1       9.532  -8.850  -1.657  0.00  0.00    -0.022 A 
ATOM     27  H   LIG d   1       9.101 -10.705  -0.667  0.00  0.00     0.062 H 
ATOM     28  H   LIG d   1       8.842  -9.019  -2.470  0.00  0.00     0.065 H 
ENDBRANCH   9  19
ENDBRANCH   1   4
BRANCH   1  29
ATOM     29  C   LIG d   1       8.286  -2.619  -4.919  0.00  0.00     0.015 A 
ATOM     30  C   LIG d   1       7.451  -1.605  -4.267  0.00  0.00     0.026 A 
ATOM     31  C   LIG d   1       7.861  -0.260  -4.300  0.00  0.00     0.140 A 
ATOM     32  C   LIG d   1       6.268  -1.955  -3.613  0.00  0.00    -0.047 A 
ATOM     33  O   LIG d   1       9.004   0.078  -4.935  0.00  0.00    -0.422 OA
ATOM     34  C   LIG d   1       7.079   0.704  -3.682  0.00  0.00    -0.015 A 
ATOM     35  C   LIG d   1       9.769  -0.843  -5.538  0.00  0.00     0.338 A 
ATOM     36  C   LIG d   1       9.421  -2.211  -5.540  0.00  0.00     0.032 A 
ATOM     37  O   LIG d   1      10.792  -0.491  -6.100  0.00  0.00    -0.245 OA
ATOM     38  H   LIG d   1      10.057  -2.932  -6.035  0.00  0.00     0.069 H 
ATOM     39  C   LIG d   1       5.904   0.348  -3.047  0.00  0.00    -0.041 A 
ATOM     40  H   LIG d   1       7.384   1.740  -3.705  0.00  0.00     0.066 H 
ATOM     41  C   LIG d   1       5.502  -0.981  -3.008  0.00  0.00    -0.043 A 
ATOM     42  C   LIG d   1       4.894   1.205  -2.313  0.00  0.00    -0.027 C 
ATOM     43  C   LIG d   1       4.198  -1.097  -2.249  0.00  0.00    -0.027 C 
ATOM     44  C   LIG d   1       3.624   0.335  -2.208  0.00  0.00    -0.045 C 
ATOM     45  H   LIG d   1       3.513  -1.764  -2.771  0.00  0.00     0.031 H 
ATOM     46  H   LIG d   1       4.381  -1.460  -1.237  0.00  0.00     0.031 H 
ATOM     47  H   LIG d   1       3.107   0.518  -1.266  0.00  0.00     0.027 H 
ATOM     48  H   LIG d   1       2.961   0.511  -3.056  0.00  0.00     0.027 H 
ATOM     49  H   LIG d   1       5.262   1.458  -1.320  0.00  0.00     0.031 H 
ATOM     50  H   LIG d   1       4.684   2.112  -2.882  0.00  0.00     0.031 H 
ATOM     51  H   LIG d   1       5.952  -2.988  -3.583  0.00  0.00     0.063 H 
ENDBRANCH   1  29
TORSDOF 3
ENDMDL
MODEL 7
REMARK VINA RESULT:      -6.8      6.336      7.963
REMARK  3 active torsions:
REMARK  status: ('A' for Active; 'I' for Inactive)
REMARK    1  A    between atoms: C_5  and  N_7 
REMARK    2  A    between atoms: N_10  and  C_13 
REMARK    3  A    between atoms: C_13  and  C_14 
ROOT
ATOM      1  C   LIG d   1       9.688   2.360  -5.334  0.00  0.00    -0.005 C 
ATOM      2  H   LIG d   1      10.164   2.394  -4.355  0.00  0.00     0.087 H 
ATOM      3  H   LIG d   1      10.206   1.641  -5.966  0.00  0.00     0.087 H 
ENDROOT
BRANCH   1   4
ATOM      4  N   LIG d   1       8.284   1.956  -5.180  0.00  0.00     0.241 N 
ATOM      5  C   LIG d   1       8.061   0.689  -5.889  0.00  0.00    -0.015 C 
ATOM      6  C   LIG d   1       6.574   0.324  -5.828  0.00  0.00     0.054 C 
ATOM      7  H   LIG d   1       8.649  -0.099  -5.418  0.00  0.00     0.083 H 
ATOM      8  H   LIG d   1       8.366   0.797  -6.931  0.00  0.00     0.083 H 
ATOM      9  N   LIG d   1       6.155   0.313  -4.418  0.00  0.00    -0.305 N 
ATOM     10  H   LIG d   1       6.421  -0.664  -6.264  0.00  0.00     0.052 H 
ATOM     11  H   LIG d   1       5.993   1.065  -6.377  0.00  0.00     0.052 H 
ATOM     12  C   LIG d   1       6.479   1.483  -3.589  0.00  0.00     0.054 C 
ATOM     13  C   LIG d   1       7.976   1.791  -3.754  0.00  0.00    -0.015 C 
ATOM     14  H   LIG d   1       5.888   2.339  -3.915  0.00  0.00     0.052 H 
ATOM     15  H   LIG d   1       6.263   1.263  -2.543  0.00  0.00     0.052 H 
ATOM     16  H   LIG d   1       8.566   0.970  -3.347  0.00  0.00     0.083 H 
ATOM     17  H   LIG d   1       8.218   2.711  -3.222  0.00  0.00     0.083 H 
ATOM     18  H   LIG d   1       7.686   2.668  -5.573  0.00  0.00     0.204 HD
BRANCH   9  19
ATOM     19  C   LIG d   1       5.466  -0.772  -3.886  0.00  0.00     0.121 A 
ATOM     20  N   LIG d   1       5.375  -1.895  -4.581  0.00  0.00    -0.240 NA
ATOM     21  C   LIG d   1       4.730  -2.947  -4.112  0.00  0.00     0.030 A 
ATOM     22  C   LIG d   1       4.125  -2.912  -2.872  0.00  0.00    -0.043 A 
ATOM     23  H   LIG d   1       4.676  -3.847  -4.706  0.00  0.00     0.083 H 
ATOM     24  C   LIG d   1       4.199  -1.753  -2.111  0.00  0.00    -0.057 A 
ATOM     25  H   LIG d   1       3.600  -3.779  -2.497  0.00  0.00     0.063 H 
ATOM     26  C   LIG d   1       4.881  -0.666  -2.628  0.00  0.00    -0.022 A 
ATOM     27  H   LIG d   1       3.729  -1.699  -1.140  0.00  0.00     0.062 H 
ATOM     28  H   LIG d   1       4.957   0.251  -2.064  0.00  0.00     0.065 H 
ENDBRANCH   9  19
ENDBRANCH   1   4
BRANCH   1  29
ATOM     29  C   LIG d   1       9.749   3.725  -5.970  0.00  0.00     0.015 A 
ATOM     30  C   LIG d   1       9.834   4.936  -5.146  0.00  0.00     0.026 A 
ATOM     31  C   LIG d   1       9.894   6.190  -5.782  0.00  0.00     0.140 A 
ATOM     32  C   LIG d   1       9.863   4.861  -3.752  0.00  0.00    -0.047 A 
ATOM     33  O   LIG d   1       9.862   6.262  -7.129  0.00  0.00    -0.422 OA
ATOM     34  C   LIG d   1       9.978   7.339  -5.010  0.00  0.00    -0.015 A 
ATOM     35  C   LIG d   1       9.779   5.159  -7.889  0.00  0.00     0.338 A 
ATOM     36  C   LIG d   1       9.720   3.869  -7.319  0.00  0.00     0.032 A 
ATOM     37  O   LIG d   1       9.752   5.273  -9.101  0.00  0.00    -0.245 OA
ATOM     38  H   LIG d   1       9.654   2.998  -7.955  0.00  0.00     0.069 H 
ATOM     39  C   LIG d   1       9.995   7.253  -3.630  0.00  0.00    -0.041 A 
ATOM     40  H   LIG d   1      10.020   8.306  -5.488  0.00  0.00     0.066 H 
ATOM     41  C   LIG d   1       9.943   6.015  -3.002  0.00  0.00    -0.043 A 
ATOM     42  C   LIG d   1      10.079   8.348  -2.587  0.00  0.00    -0.027 C 
ATOM     43  C   LIG d   1       9.987   6.203  -1.501  0.00  0.00    -0.027 C 
ATOM     44  C   LIG d   1       9.631   7.686  -1.267  0.00  0.00    -0.045 C 
ATOM     45  H   LIG d   1       9.256   5.557  -1.017  0.00  0.00     0.031 H 
ATOM     46  H   LIG d   1      10.988   5.991  -1.123  0.00  0.00     0.031 H 
ATOM     47  H   LIG d   1      10.188   8.089  -0.422  0.00  0.00     0.027 H 
ATOM     48  H   LIG d   1       8.557   7.806  -1.117  0.00  0.00     0.027 H 
ATOM     49  H   LIG d   1      11.103   8.710  -2.499  0.00  0.00     0.031 H 
ATOM     50  H   LIG d   1       9.408   9.168  -2.845  0.00  0.00     0.031 H 
ATOM     51  H   LIG d   1       9.821   3.899  -3.261  0.00  0.00     0.063 H 
ENDBRANCH   1  29
TORSDOF 3
ENDMDL
MODEL 8
REMARK VINA RESULT:      -6.7      1.534      2.121
REMARK  3 active torsions:
REMARK  status: ('A' for Active; 'I' for Inactive)
REMARK    1  A    between atoms: C_5  and  N_7 
REMARK    2  A    between atoms: N_10  and  C_13 
REMARK    3  A    between atoms: C_13  and  C_14 
ROOT
ATOM      1  C   LIG d   1       7.106  -4.080  -5.928  0.00  0.00    -0.005 C 
ATOM      2  H   LIG d   1       7.111  -3.829  -4.868  0.00  0.00     0.087 H 
ATOM      3  H   LIG d   1       8.111  -3.970  -6.333  0.00  0.00     0.087 H 
ENDROOT
BRANCH   1   4
ATOM      4  N   LIG d   1       6.657  -5.468  -6.100  0.00  0.00     0.241 N 
ATOM      5  C   LIG d   1       7.577  -6.368  -5.392  0.00  0.00    -0.015 C 
ATOM      6  C   LIG d   1       7.178  -7.823  -5.664  0.00  0.00     0.054 C 
ATOM      7  H   LIG d   1       7.524  -6.172  -4.321  0.00  0.00     0.083 H 
ATOM      8  H   LIG d   1       8.595  -6.199  -5.744  0.00  0.00     0.083 H 
ATOM      9  N   LIG d   1       5.762  -7.993  -5.303  0.00  0.00    -0.305 N 
ATOM     10  H   LIG d   1       7.794  -8.490  -5.061  0.00  0.00     0.052 H 
ATOM     11  H   LIG d   1       7.316  -8.048  -6.722  0.00  0.00     0.052 H 
ATOM     12  C   LIG d   1       4.788  -7.035  -5.845  0.00  0.00     0.054 C 
ATOM     13  C   LIG d   1       5.300  -5.614  -5.559  0.00  0.00    -0.015 C 
ATOM     14  H   LIG d   1       4.688  -7.181  -6.920  0.00  0.00     0.052 H 
ATOM     15  H   LIG d   1       3.822  -7.181  -5.362  0.00  0.00     0.052 H 
ATOM     16  H   LIG d   1       5.317  -5.440  -4.484  0.00  0.00     0.083 H 
ATOM     17  H   LIG d   1       4.640  -4.888  -6.035  0.00  0.00     0.083 H 
ATOM     18  H   LIG d   1       6.654  -5.699  -7.083  0.00  0.00     0.204 HD
BRANCH   9  19
ATOM     19  C   LIG d   1       5.357  -9.036  -4.477  0.00  0.00     0.121 A 
ATOM     20  N   LIG d   1       4.066  -9.295  -4.334  0.00  0.00    -0.240 NA
ATOM     21  C   LIG d   1       3.640 -10.276  -3.560  0.00  0.00     0.030 A 
ATOM     22  C   LIG d   1       4.532 -11.070  -2.868  0.00  0.00    -0.043 A 
ATOM     23  H   LIG d   1       2.580 -10.459  -3.466  0.00  0.00     0.083 H 
ATOM     24  C   LIG d   1       5.894 -10.832  -2.992  0.00  0.00    -0.057 A 
ATOM     25  H   LIG d   1       4.174 -11.871  -2.237  0.00  0.00     0.063 H 
ATOM     26  C   LIG d   1       6.311  -9.797  -3.810  0.00  0.00    -0.022 A 
ATOM     27  H   LIG d   1       6.611 -11.436  -2.458  0.00  0.00     0.062 H 
ATOM     28  H   LIG d   1       7.363  -9.584  -3.929  0.00  0.00     0.065 H 
ENDBRANCH   9  19
ENDBRANCH   1   4
BRANCH   1  29
ATOM     29  C   LIG d   1       6.165  -3.156  -6.659  0.00  0.00     0.015 A 
ATOM     30  C   LIG d   1       5.404  -2.132  -5.936  0.00  0.00     0.026 A 
ATOM     31  C   LIG d   1       4.541  -1.288  -6.657  0.00  0.00     0.140 A 
ATOM     32  C   LIG d   1       5.528  -1.982  -4.553  0.00  0.00    -0.047 A 
ATOM     33  O   LIG d   1       4.419  -1.436  -7.994  0.00  0.00    -0.422 OA
ATOM     34  C   LIG d   1       3.820  -0.315  -5.981  0.00  0.00    -0.015 A 
ATOM     35  C   LIG d   1       5.108  -2.374  -8.661  0.00  0.00     0.338 A 
ATOM     36  C   LIG d   1       5.995  -3.252  -8.002  0.00  0.00     0.032 A 
ATOM     37  O   LIG d   1       4.965  -2.471  -9.867  0.00  0.00    -0.245 OA
ATOM     38  H   LIG d   1       6.538  -3.998  -8.564  0.00  0.00     0.069 H 
ATOM     39  C   LIG d   1       3.942  -0.182  -4.611  0.00  0.00    -0.041 A 
ATOM     40  H   LIG d   1       3.152   0.335  -6.526  0.00  0.00     0.066 H 
ATOM     41  C   LIG d   1       4.800  -1.011  -3.898  0.00  0.00    -0.043 A 
ATOM     42  C   LIG d   1       3.269   0.788  -3.662  0.00  0.00    -0.027 C 
ATOM     43  C   LIG d   1       4.753  -0.650  -2.429  0.00  0.00    -0.027 C 
ATOM     44  C   LIG d   1       3.465   0.182  -2.256  0.00  0.00    -0.045 C 
ATOM     45  H   LIG d   1       4.706  -1.551  -1.819  0.00  0.00     0.031 H 
ATOM     46  H   LIG d   1       5.626  -0.055  -2.159  0.00  0.00     0.031 H 
ATOM     47  H   LIG d   1       3.607   0.966  -1.513  0.00  0.00     0.027 H 
ATOM     48  H   LIG d   1       2.624  -0.459  -1.989  0.00  0.00     0.027 H 
ATOM     49  H   LIG d   1       3.745   1.767  -3.721  0.00  0.00     0.031 H 
ATOM     50  H   LIG d   1       2.207   0.868  -3.894  0.00  0.00     0.031 H 
ATOM     51  H   LIG d   1       6.193  -2.626  -3.996  0.00  0.00     0.063 H 
ENDBRANCH   1  29
TORSDOF 3
ENDMDL
MODEL 9
REMARK VINA RESULT:      -6.6      5.904      9.132
REMARK  3 active torsions:
REMARK  status: ('A' for Active; 'I' for Inactive)
REMARK    1  A    between atoms: C_5  and  N_7 
REMARK    2  A    between atoms: N_10  and  C_13 
REMARK    3  A    between atoms: C_13  and  C_14 
ROOT
ATOM      1  C   LIG d   1       9.761   0.620  -5.543  0.00  0.00    -0.005 C 
ATOM      2  H   LIG d   1      10.825   0.548  -5.323  0.00  0.00     0.087 H 
ATOM      3  H   LIG d   1       9.308   1.380  -4.907  0.00  0.00     0.087 H 
ENDROOT
BRANCH   1   4
ATOM      4  N   LIG d   1       9.576   0.987  -6.953  0.00  0.00     0.241 N 
ATOM      5  C   LIG d   1       8.392   1.846  -7.082  0.00  0.00    -0.015 C 
ATOM      6  C   LIG d   1       8.131   2.136  -8.564  0.00  0.00     0.054 C 
ATOM      7  H   LIG d   1       8.565   2.784  -6.554  0.00  0.00     0.083 H 
ATOM      8  H   LIG d   1       7.527   1.340  -6.653  0.00  0.00     0.083 H 
ATOM      9  N   LIG d   1       9.357   2.697  -9.152  0.00  0.00    -0.305 N 
ATOM     10  H   LIG d   1       7.316   2.854  -8.659  0.00  0.00     0.052 H 
ATOM     11  H   LIG d   1       7.869   1.210  -9.077  0.00  0.00     0.052 H 
ATOM     12  C   LIG d   1      10.621   1.979  -8.937  0.00  0.00     0.054 C 
ATOM     13  C   LIG d   1      10.766   1.700  -7.432  0.00  0.00    -0.015 C 
ATOM     14  H   LIG d   1      10.607   1.039  -9.486  0.00  0.00     0.052 H 
ATOM     15  H   LIG d   1      11.455   2.594  -9.278  0.00  0.00     0.052 H 
ATOM     16  H   LIG d   1      10.867   2.642  -6.893  0.00  0.00     0.083 H 
ATOM     17  H   LIG d   1      11.651   1.087  -7.261  0.00  0.00     0.083 H 
ATOM     18  H   LIG d   1       9.443   0.149  -7.501  0.00  0.00     0.204 HD
BRANCH   9  19
ATOM     19  C   LIG d   1       9.318   3.871  -9.896  0.00  0.00     0.121 A 
ATOM     20  N   LIG d   1       9.858   3.899 -11.105  0.00  0.00    -0.240 NA
ATOM     21  C   LIG d   1       9.842   4.994 -11.844  0.00  0.00     0.030 A 
ATOM     22  C   LIG d   1       9.258   6.154 -11.378  0.00  0.00    -0.043 A 
ATOM     23  H   LIG d   1      10.291   4.980 -12.825  0.00  0.00     0.083 H 
ATOM     24  C   LIG d   1       8.681   6.166 -10.115  0.00  0.00    -0.057 A 
ATOM     25  H   LIG d   1       9.250   7.044 -11.989  0.00  0.00     0.063 H 
ATOM     26  C   LIG d   1       8.712   5.005  -9.364  0.00  0.00    -0.022 A 
ATOM     27  H   LIG d   1       8.222   7.063  -9.726  0.00  0.00     0.062 H 
ATOM     28  H   LIG d   1       8.273   4.979  -8.378  0.00  0.00     0.065 H 
ENDBRANCH   9  19
ENDBRANCH   1   4
BRANCH   1  29
ATOM     29  C   LIG d   1       9.104  -0.712  -5.281  0.00  0.00     0.015 A 
ATOM     30  C   LIG d   1       7.865  -0.799  -4.500  0.00  0.00     0.026 A 
ATOM     31  C   LIG d   1       7.284  -2.061  -4.284  0.00  0.00     0.140 A 
ATOM     32  C   LIG d   1       7.258   0.345  -3.979  0.00  0.00    -0.047 A 
ATOM     33  O   LIG d   1       7.874  -3.168  -4.785  0.00  0.00    -0.422 OA
ATOM     34  C   LIG d   1       6.111  -2.152  -3.549  0.00  0.00    -0.015 A 
ATOM     35  C   LIG d   1       9.009  -3.095  -5.495  0.00  0.00     0.338 A 
ATOM     36  C   LIG d   1       9.645  -1.862  -5.755  0.00  0.00     0.032 A 
ATOM     37  O   LIG d   1       9.506  -4.121  -5.927  0.00  0.00    -0.245 OA
ATOM     38  H   LIG d   1      10.559  -1.834  -6.331  0.00  0.00     0.069 H 
ATOM     39  C   LIG d   1       5.524  -1.014  -3.029  0.00  0.00    -0.041 A 
ATOM     40  H   LIG d   1       5.659  -3.117  -3.374  0.00  0.00     0.066 H 
ATOM     41  C   LIG d   1       6.094   0.234  -3.248  0.00  0.00    -0.043 A 
ATOM     42  C   LIG d   1       4.262  -0.857  -2.205  0.00  0.00    -0.027 C 
ATOM     43  C   LIG d   1       5.252   1.303  -2.585  0.00  0.00    -0.027 C 
ATOM     44  C   LIG d   1       4.361   0.549  -1.576  0.00  0.00    -0.045 C 
ATOM     45  H   LIG d   1       5.889   2.018  -2.065  0.00  0.00     0.031 H 
ATOM     46  H   LIG d   1       4.636   1.813  -3.326  0.00  0.00     0.031 H 
ATOM     47  H   LIG d   1       3.377   1.012  -1.507  0.00  0.00     0.027 H 
ATOM     48  H   LIG d   1       4.838   0.503  -0.597  0.00  0.00     0.027 H 
ATOM     49  H   LIG d   1       3.382  -0.925  -2.844  0.00  0.00     0.031 H 
ATOM     50  H   LIG d   1       4.224  -1.618  -1.425  0.00  0.00     0.031 H 
ATOM     51  H   LIG d   1       7.700   1.317  -4.147  0.00  0.00     0.063 H 
ENDBRANCH   1  29
TORSDOF 3
ENDMDL
