MODEL 1
REMARK VINA RESULT:      -5.2      0.000      0.000
REMARK  15 active torsions:
REMARK  status: ('A' for Active; 'I' for Inactive)
REMARK    1  A    between atoms: C_1  and  C_2 
REMARK    2  A    between atoms: C_2  and  O_4 
REMARK    3  A    between atoms: O_4  and  C_5 
REMARK    4  A    between atoms: C_5  and  C_6 
REMARK    5  A    between atoms: C_8  and  O_33 
REMARK    6  A    between atoms: C_10  and  O_29 
REMARK    7  A    between atoms: C_12  and  N_21 
REMARK    8  A    between atoms: C_14  and  O_17 
REMARK    9  A    between atoms: O_17  and  C_18 
REMARK   10  A    between atoms: C_18  and  C_20 
REMARK       I    between atoms: N_21  and  C_22 
REMARK   11  A    between atoms: C_22  and  C_24 
REMARK   12  A    between atoms: O_29  and  C_30 
REMARK   13  A    between atoms: C_30  and  C_32 
REMARK   14  A    between atoms: O_33  and  C_34 
REMARK   15  A    between atoms: C_34  and  C_36 
ROOT
ATOM      1  C   LIG d   1       8.372   2.019  -8.829  0.00  0.00     0.137 C 
ATOM      2  H   LIG d   1       7.743   2.909  -8.786  0.00  0.00     0.067 H 
ATOM      3  C   LIG d   1       9.007   1.776  -7.458  0.00  0.00     0.171 C 
ATOM      4  H   LIG d   1       9.668   0.910  -7.510  0.00  0.00     0.080 H 
ATOM      5  C   LIG d   1       7.901   1.514  -6.430  0.00  0.00     0.166 C 
ATOM      6  H   LIG d   1       7.271   2.398  -6.340  0.00  0.00     0.079 H 
ATOM      7  C   LIG d   1       7.056   0.326  -6.900  0.00  0.00     0.127 C 
ATOM      8  H   LIG d   1       7.676  -0.569  -6.941  0.00  0.00     0.060 H 
ATOM      9  C   LIG d   1       6.496   0.626  -8.292  0.00  0.00     0.227 C 
ATOM     10  H   LIG d   1       5.928  -0.234  -8.649  0.00  0.00     0.108 H 
ATOM     11  O   LIG d   1       7.575   0.890  -9.191  0.00  0.00    -0.329 OA
ENDROOT
BRANCH   7  12
ATOM     12  N   LIG d   1       5.950   0.112  -5.962  0.00  0.00    -0.297 N 
ATOM     13  C   LIG d   1       5.959  -0.957  -5.142  0.00  0.00     0.280 C 
ATOM     14  O   LIG d   1       6.886  -1.744  -5.179  0.00  0.00    -0.267 OA
ATOM     15  H   LIG d   1       5.210   0.739  -5.934  0.00  0.00     0.150 HD
BRANCH  13  16
ATOM     16  C   LIG d   1       4.851  -1.172  -4.205  0.00  0.00     0.189 A 
ATOM     17  O   LIG d   1       3.663  -0.532  -4.222  0.00  0.00    -0.458 OA
ATOM     18  C   LIG d   1       2.900  -0.984  -3.219  0.00  0.00     0.093 A 
ATOM     19  C   LIG d   1       3.590  -1.925  -2.538  0.00  0.00    -0.023 A 
ATOM     20  H   LIG d   1       1.899  -0.651  -2.991  0.00  0.00     0.103 H 
ATOM     21  C   LIG d   1       4.839  -2.057  -3.166  0.00  0.00    -0.011 A 
ATOM     22  H   LIG d   1       3.244  -2.477  -1.676  0.00  0.00     0.065 H 
ATOM     23  H   LIG d   1       5.637  -2.727  -2.881  0.00  0.00     0.066 H 
ENDBRANCH  13  16
ENDBRANCH   7  12
BRANCH   5  24
ATOM     24  O   LIG d   1       8.497   1.208  -5.143  0.00  0.00    -0.456 OA
BRANCH  24  25
ATOM     25  C   LIG d   1       8.176   2.011  -4.116  0.00  0.00     0.304 C 
ATOM     26  O   LIG d   1       7.063   1.974  -3.647  0.00  0.00    -0.251 OA
BRANCH  25  27
ATOM     27  C   LIG d   1       9.202   2.957  -3.549  0.00  0.00     0.033 C 
ATOM     28  H   LIG d   1       9.182   3.892  -4.108  0.00  0.00     0.034 H 
ATOM     29  H   LIG d   1       8.974   3.155  -2.501  0.00  0.00     0.034 H 
ATOM     30  H   LIG d   1      10.192   2.508  -3.626  0.00  0.00     0.034 H 
ENDBRANCH  25  27
ENDBRANCH  24  25
ENDBRANCH   5  24
BRANCH   9  31
ATOM     31  O   LIG d   1       5.626   1.786  -8.225  0.00  0.00    -0.433 OA
BRANCH  31  32
ATOM     32  C   LIG d   1       4.571   1.805  -9.054  0.00  0.00     0.306 C 
ATOM     33  O   LIG d   1       4.741   1.791 -10.250  0.00  0.00    -0.251 OA
BRANCH  32  34
ATOM     34  C   LIG d   1       3.173   1.850  -8.492  0.00  0.00     0.033 C 
ATOM     35  H   LIG d   1       2.453   1.864  -9.311  0.00  0.00     0.034 H 
ATOM     36  H   LIG d   1       3.002   0.970  -7.872  0.00  0.00     0.034 H 
ATOM     37  H   LIG d   1       3.053   2.749  -7.888  0.00  0.00     0.034 H 
ENDBRANCH  32  34
ENDBRANCH  31  32
ENDBRANCH   9  31
BRANCH   3  38
ATOM     38  O   LIG d   1       9.772   2.945  -7.062  0.00  0.00    -0.455 OA
BRANCH  38  39
ATOM     39  C   LIG d   1      11.062   2.752  -6.751  0.00  0.00     0.304 C 
ATOM     40  O   LIG d   1      11.522   1.634  -6.742  0.00  0.00    -0.251 OA
BRANCH  39  41
ATOM     41  C   LIG d   1      11.939   3.931  -6.412  0.00  0.00     0.033 C 
ATOM     42  H   LIG d   1      12.018   4.025  -5.329  0.00  0.00     0.034 H 
ATOM     43  H   LIG d   1      12.933   3.778  -6.836  0.00  0.00     0.034 H 
ATOM     44  H   LIG d   1      11.503   4.839  -6.825  0.00  0.00     0.034 H 
ENDBRANCH  39  41
ENDBRANCH  38  39
ENDBRANCH   3  38
BRANCH   1  45
ATOM     45  C   LIG d   1       9.473   2.222  -9.872  0.00  0.00     0.122 C 
ATOM     46  H   LIG d   1      10.440   2.274  -9.374  0.00  0.00     0.072 H 
ATOM     47  H   LIG d   1       9.468   1.388 -10.572  0.00  0.00     0.072 H 
BRANCH  45  48
ATOM     48  O   LIG d   1       9.233   3.460 -10.594  0.00  0.00    -0.462 OA
BRANCH  48  49
ATOM     49  C   LIG d   1       9.633   4.597 -10.003  0.00  0.00     0.304 C 
ATOM     50  O   LIG d   1      10.797   4.756  -9.723  0.00  0.00    -0.251 OA
BRANCH  49  51
ATOM     51  C   LIG d   1       8.628   5.676  -9.688  0.00  0.00     0.033 C 
ATOM     52  H   LIG d   1       7.964   5.813 -10.541  0.00  0.00     0.034 H 
ATOM     53  H   LIG d   1       8.043   5.384  -8.816  0.00  0.00     0.034 H 
ATOM     54  H   LIG d   1       9.150   6.609  -9.480  0.00  0.00     0.034 H 
ENDBRANCH  49  51
ENDBRANCH  48  49
ENDBRANCH  45  48
ENDBRANCH   1  45
TORSDOF 15
ENDMDL
MODEL 2
REMARK VINA RESULT:      -5.1      2.835      6.912
REMARK  15 active torsions:
REMARK  status: ('A' for Active; 'I' for Inactive)
REMARK    1  A    between atoms: C_1  and  C_2 
REMARK    2  A    between atoms: C_2  and  O_4 
REMARK    3  A    between atoms: O_4  and  C_5 
REMARK    4  A    between atoms: C_5  and  C_6 
REMARK    5  A    between atoms: C_8  and  O_33 
REMARK    6  A    between atoms: C_10  and  O_29 
REMARK    7  A    between atoms: C_12  and  N_21 
REMARK    8  A    between atoms: C_14  and  O_17 
REMARK    9  A    between atoms: O_17  and  C_18 
REMARK   10  A    between atoms: C_18  and  C_20 
REMARK       I    between atoms: N_21  and  C_22 
REMARK   11  A    between atoms: C_22  and  C_24 
REMARK   12  A    between atoms: O_29  and  C_30 
REMARK   13  A    between atoms: C_30  and  C_32 
REMARK   14  A    between atoms: O_33  and  C_34 
REMARK   15  A    between atoms: C_34  and  C_36 
ROOT
ATOM      1  C   LIG d   1       5.738  -1.765  -4.211  0.00  0.00     0.137 C 
ATOM      2  H   LIG d   1       6.428  -2.520  -4.588  0.00  0.00     0.067 H 
ATOM      3  C   LIG d   1       5.957  -0.452  -4.967  0.00  0.00     0.171 C 
ATOM      4  H   LIG d   1       5.295   0.316  -4.564  0.00  0.00     0.080 H 
ATOM      5  C   LIG d   1       5.645  -0.667  -6.452  0.00  0.00     0.166 C 
ATOM      6  H   LIG d   1       6.340  -1.397  -6.867  0.00  0.00     0.079 H 
ATOM      7  C   LIG d   1       4.211  -1.187  -6.590  0.00  0.00     0.127 C 
ATOM      8  H   LIG d   1       3.514  -0.434  -6.220  0.00  0.00     0.060 H 
ATOM      9  C   LIG d   1       4.060  -2.471  -5.772  0.00  0.00     0.227 C 
ATOM     10  H   LIG d   1       3.029  -2.822  -5.832  0.00  0.00     0.108 H 
ATOM     11  O   LIG d   1       4.393  -2.207  -4.408  0.00  0.00    -0.329 OA
ENDROOT
BRANCH   7  12
ATOM     12  N   LIG d   1       3.925  -1.467  -8.000  0.00  0.00    -0.297 N 
ATOM     13  C   LIG d   1       2.975  -0.765  -8.648  0.00  0.00     0.280 C 
ATOM     14  O   LIG d   1       2.353   0.102  -8.062  0.00  0.00    -0.267 OA
ATOM     15  H   LIG d   1       4.420  -2.158  -8.466  0.00  0.00     0.150 HD
BRANCH  13  16
ATOM     16  C   LIG d   1       2.688  -1.047 -10.058  0.00  0.00     0.189 A 
ATOM     17  O   LIG d   1       3.596  -1.369 -11.003  0.00  0.00    -0.458 OA
ATOM     18  C   LIG d   1       2.974  -1.555 -12.173  0.00  0.00     0.093 A 
ATOM     19  C   LIG d   1       1.649  -1.354 -11.998  0.00  0.00    -0.023 A 
ATOM     20  H   LIG d   1       3.451  -1.822 -13.104  0.00  0.00     0.103 H 
ATOM     21  C   LIG d   1       1.455  -1.033 -10.644  0.00  0.00    -0.011 A 
ATOM     22  H   LIG d   1       0.882  -1.430 -12.755  0.00  0.00     0.065 H 
ATOM     23  H   LIG d   1       0.514  -0.816 -10.162  0.00  0.00     0.066 H 
ENDBRANCH  13  16
ENDBRANCH   7  12
BRANCH   5  24
ATOM     24  O   LIG d   1       5.778   0.590  -7.164  0.00  0.00    -0.456 OA
BRANCH  24  25
ATOM     25  C   LIG d   1       6.680   0.637  -8.157  0.00  0.00     0.304 C 
ATOM     26  O   LIG d   1       6.525  -0.041  -9.145  0.00  0.00    -0.251 OA
BRANCH  25  27
ATOM     27  C   LIG d   1       7.884   1.534  -8.040  0.00  0.00     0.033 C 
ATOM     28  H   LIG d   1       8.566   1.337  -8.867  0.00  0.00     0.034 H 
ATOM     29  H   LIG d   1       7.566   2.576  -8.072  0.00  0.00     0.034 H 
ATOM     30  H   LIG d   1       8.392   1.339  -7.095  0.00  0.00     0.034 H 
ENDBRANCH  25  27
ENDBRANCH  24  25
ENDBRANCH   5  24
BRANCH   9  31
ATOM     31  O   LIG d   1       4.949  -3.489  -6.300  0.00  0.00    -0.433 OA
BRANCH  31  32
ATOM     32  C   LIG d   1       4.625  -4.768  -6.054  0.00  0.00     0.306 C 
ATOM     33  O   LIG d   1       3.477  -5.131  -6.154  0.00  0.00    -0.251 OA
BRANCH  32  34
ATOM     34  C   LIG d   1       5.693  -5.751  -5.646  0.00  0.00     0.033 C 
ATOM     35  H   LIG d   1       6.098  -5.463  -4.675  0.00  0.00     0.034 H 
ATOM     36  H   LIG d   1       5.261  -6.749  -5.578  0.00  0.00     0.034 H 
ATOM     37  H   LIG d   1       6.491  -5.749  -6.387  0.00  0.00     0.034 H 
ENDBRANCH  32  34
ENDBRANCH  31  32
ENDBRANCH   9  31
BRANCH   3  38
ATOM     38  O   LIG d   1       7.338  -0.029  -4.816  0.00  0.00    -0.455 OA
BRANCH  38  39
ATOM     39  C   LIG d   1       7.550   1.174  -4.261  0.00  0.00     0.304 C 
ATOM     40  O   LIG d   1       6.612   1.855  -3.918  0.00  0.00    -0.251 OA
BRANCH  39  41
ATOM     41  C   LIG d   1       8.958   1.675  -4.064  0.00  0.00     0.033 C 
ATOM     42  H   LIG d   1       9.022   2.215  -3.120  0.00  0.00     0.034 H 
ATOM     43  H   LIG d   1       9.646   0.829  -4.046  0.00  0.00     0.034 H 
ATOM     44  H   LIG d   1       9.224   2.342  -4.884  0.00  0.00     0.034 H 
ENDBRANCH  39  41
ENDBRANCH  38  39
ENDBRANCH   3  38
BRANCH   1  45
ATOM     45  C   LIG d   1       5.989  -1.542  -2.719  0.00  0.00     0.122 C 
ATOM     46  H   LIG d   1       6.451  -2.432  -2.292  0.00  0.00     0.072 H 
ATOM     47  H   LIG d   1       6.653  -0.688  -2.586  0.00  0.00     0.072 H 
BRANCH  45  48
ATOM     48  O   LIG d   1       4.727  -1.283  -2.048  0.00  0.00    -0.462 OA
BRANCH  48  49
ATOM     49  C   LIG d   1       4.337  -0.002  -1.958  0.00  0.00     0.304 C 
ATOM     50  O   LIG d   1       4.966   0.775  -1.279  0.00  0.00    -0.251 OA
BRANCH  49  51
ATOM     51  C   LIG d   1       3.115   0.468  -2.704  0.00  0.00     0.033 C 
ATOM     52  H   LIG d   1       3.404   0.799  -3.701  0.00  0.00     0.034 H 
ATOM     53  H   LIG d   1       2.402  -0.352  -2.785  0.00  0.00     0.034 H 
ATOM     54  H   LIG d   1       2.657   1.297  -2.165  0.00  0.00     0.034 H 
ENDBRANCH  49  51
ENDBRANCH  48  49
ENDBRANCH  45  48
ENDBRANCH   1  45
TORSDOF 15
ENDMDL
MODEL 3
REMARK VINA RESULT:      -5.1      3.555      7.246
REMARK  15 active torsions:
REMARK  status: ('A' for Active; 'I' for Inactive)
REMARK    1  A    between atoms: C_1  and  C_2 
REMARK    2  A    between atoms: C_2  and  O_4 
REMARK    3  A    between atoms: O_4  and  C_5 
REMARK    4  A    between atoms: C_5  and  C_6 
REMARK    5  A    between atoms: C_8  and  O_33 
REMARK    6  A    between atoms: C_10  and  O_29 
REMARK    7  A    between atoms: C_12  and  N_21 
REMARK    8  A    between atoms: C_14  and  O_17 
REMARK    9  A    between atoms: O_17  and  C_18 
REMARK   10  A    between atoms: C_18  and  C_20 
REMARK       I    between atoms: N_21  and  C_22 
REMARK   11  A    between atoms: C_22  and  C_24 
REMARK   12  A    between atoms: O_29  and  C_30 
REMARK   13  A    between atoms: C_30  and  C_32 
REMARK   14  A    between atoms: O_33  and  C_34 
REMARK   15  A    between atoms: C_34  and  C_36 
ROOT
ATOM      1  C   LIG d   1       3.150  -0.198  -5.860  0.00  0.00     0.137 C 
ATOM      2  H   LIG d   1       2.417  -0.865  -6.314  0.00  0.00     0.067 H 
ATOM      3  C   LIG d   1       4.443  -0.971  -5.588  0.00  0.00     0.171 C 
ATOM      4  H   LIG d   1       5.163  -0.316  -5.096  0.00  0.00     0.080 H 
ATOM      5  C   LIG d   1       5.024  -1.463  -6.917  0.00  0.00     0.166 C 
ATOM      6  H   LIG d   1       4.326  -2.158  -7.384  0.00  0.00     0.079 H 
ATOM      7  C   LIG d   1       5.247  -0.261  -7.840  0.00  0.00     0.127 C 
ATOM      8  H   LIG d   1       5.983   0.408  -7.394  0.00  0.00     0.060 H 
ATOM      9  C   LIG d   1       3.923   0.484  -8.024  0.00  0.00     0.227 C 
ATOM     10  H   LIG d   1       4.085   1.365  -8.646  0.00  0.00     0.108 H 
ATOM     11  O   LIG d   1       3.423   0.887  -6.748  0.00  0.00    -0.329 OA
ENDROOT
BRANCH   7  12
ATOM     12  N   LIG d   1       5.733  -0.727  -9.141  0.00  0.00    -0.297 N 
ATOM     13  C   LIG d   1       6.639   0.002  -9.823  0.00  0.00     0.280 C 
ATOM     14  O   LIG d   1       7.052   1.048  -9.357  0.00  0.00    -0.267 OA
ATOM     15  H   LIG d   1       5.403  -1.560  -9.513  0.00  0.00     0.150 HD
BRANCH  13  16
ATOM     16  C   LIG d   1       7.124  -0.463 -11.126  0.00  0.00     0.189 A 
ATOM     17  O   LIG d   1       6.358  -0.770 -12.194  0.00  0.00    -0.458 OA
ATOM     18  C   LIG d   1       7.142  -1.159 -13.207  0.00  0.00     0.093 A 
ATOM     19  C   LIG d   1       8.431  -1.107 -12.804  0.00  0.00    -0.023 A 
ATOM     20  H   LIG d   1       6.801  -1.463 -14.185  0.00  0.00     0.103 H 
ATOM     21  C   LIG d   1       8.430  -0.656 -11.474  0.00  0.00    -0.011 A 
ATOM     22  H   LIG d   1       9.299  -1.359 -13.395  0.00  0.00     0.065 H 
ATOM     23  H   LIG d   1       9.294  -0.497 -10.847  0.00  0.00     0.066 H 
ENDBRANCH  13  16
ENDBRANCH   7  12
BRANCH   5  24
ATOM     24  O   LIG d   1       6.289  -2.133  -6.676  0.00  0.00    -0.456 OA
BRANCH  24  25
ATOM     25  C   LIG d   1       6.382  -3.417  -7.058  0.00  0.00     0.304 C 
ATOM     26  O   LIG d   1       6.397  -3.698  -8.232  0.00  0.00    -0.251 OA
BRANCH  25  27
ATOM     27  C   LIG d   1       6.467  -4.506  -6.021  0.00  0.00     0.033 C 
ATOM     28  H   LIG d   1       7.450  -4.975  -6.066  0.00  0.00     0.034 H 
ATOM     29  H   LIG d   1       6.316  -4.077  -5.030  0.00  0.00     0.034 H 
ATOM     30  H   LIG d   1       5.698  -5.254  -6.215  0.00  0.00     0.034 H 
ENDBRANCH  25  27
ENDBRANCH  24  25
ENDBRANCH   5  24
BRANCH   9  31
ATOM     31  O   LIG d   1       2.960  -0.392  -8.668  0.00  0.00    -0.433 OA
BRANCH  31  32
ATOM     32  C   LIG d   1       2.588  -0.075  -9.918  0.00  0.00     0.306 C 
ATOM     33  O   LIG d   1       3.242   0.711 -10.562  0.00  0.00    -0.251 OA
BRANCH  32  34
ATOM     34  C   LIG d   1       1.351  -0.693 -10.515  0.00  0.00     0.033 C 
ATOM     35  H   LIG d   1       0.466  -0.256 -10.051  0.00  0.00     0.034 H 
ATOM     36  H   LIG d   1       1.331  -0.502 -11.588  0.00  0.00     0.034 H 
ATOM     37  H   LIG d   1       1.359  -1.768 -10.337  0.00  0.00     0.034 H 
ENDBRANCH  32  34
ENDBRANCH  31  32
ENDBRANCH   9  31
BRANCH   3  38
ATOM     38  O   LIG d   1       4.158  -2.108  -4.731  0.00  0.00    -0.455 OA
BRANCH  38  39
ATOM     39  C   LIG d   1       4.749  -2.126  -3.526  0.00  0.00     0.304 C 
ATOM     40  O   LIG d   1       5.954  -2.094  -3.443  0.00  0.00    -0.251 OA
BRANCH  39  41
ATOM     41  C   LIG d   1       3.908  -2.184  -2.276  0.00  0.00     0.033 C 
ATOM     42  H   LIG d   1       3.977  -1.234  -1.747  0.00  0.00     0.034 H 
ATOM     43  H   LIG d   1       2.869  -2.375  -2.545  0.00  0.00     0.034 H 
ATOM     44  H   LIG d   1       4.270  -2.986  -1.632  0.00  0.00     0.034 H 
ENDBRANCH  39  41
ENDBRANCH  38  39
ENDBRANCH   3  38
BRANCH   1  45
ATOM     45  C   LIG d   1       2.595   0.347  -4.542  0.00  0.00     0.122 C 
ATOM     46  H   LIG d   1       1.559   0.653  -4.683  0.00  0.00     0.072 H 
ATOM     47  H   LIG d   1       2.646  -0.427  -3.778  0.00  0.00     0.072 H 
BRANCH  45  48
ATOM     48  O   LIG d   1       3.384   1.493  -4.123  0.00  0.00    -0.462 OA
BRANCH  48  49
ATOM     49  C   LIG d   1       3.967   1.422  -2.916  0.00  0.00     0.304 C 
ATOM     50  O   LIG d   1       3.288   1.412  -1.916  0.00  0.00    -0.251 OA
BRANCH  49  51
ATOM     51  C   LIG d   1       5.468   1.354  -2.807  0.00  0.00     0.033 C 
ATOM     52  H   LIG d   1       5.834   2.233  -2.276  0.00  0.00     0.034 H 
ATOM     53  H   LIG d   1       5.753   0.455  -2.261  0.00  0.00     0.034 H 
ATOM     54  H   LIG d   1       5.904   1.326  -3.806  0.00  0.00     0.034 H 
ENDBRANCH  49  51
ENDBRANCH  48  49
ENDBRANCH  45  48
ENDBRANCH   1  45
TORSDOF 15
ENDMDL
MODEL 4
REMARK VINA RESULT:      -5.0      2.550      7.494
REMARK  15 active torsions:
REMARK  status: ('A' for Active; 'I' for Inactive)
REMARK    1  A    between atoms: C_1  and  C_2 
REMARK    2  A    between atoms: C_2  and  O_4 
REMARK    3  A    between atoms: O_4  and  C_5 
REMARK    4  A    between atoms: C_5  and  C_6 
REMARK    5  A    between atoms: C_8  and  O_33 
REMARK    6  A    between atoms: C_10  and  O_29 
REMARK    7  A    between atoms: C_12  and  N_21 
REMARK    8  A    between atoms: C_14  and  O_17 
REMARK    9  A    between atoms: O_17  and  C_18 
REMARK   10  A    between atoms: C_18  and  C_20 
REMARK       I    between atoms: N_21  and  C_22 
REMARK   11  A    between atoms: C_22  and  C_24 
REMARK   12  A    between atoms: O_29  and  C_30 
REMARK   13  A    between atoms: C_30  and  C_32 
REMARK   14  A    between atoms: O_33  and  C_34 
REMARK   15  A    between atoms: C_34  and  C_36 
ROOT
ATOM      1  C   LIG d   1       4.772  -1.830  -6.353  0.00  0.00     0.137 C 
ATOM      2  H   LIG d   1       3.979  -1.233  -5.901  0.00  0.00     0.067 H 
ATOM      3  C   LIG d   1       5.147  -1.234  -7.712  0.00  0.00     0.171 C 
ATOM      4  H   LIG d   1       5.912  -1.853  -8.183  0.00  0.00     0.080 H 
ATOM      5  C   LIG d   1       5.692   0.183  -7.507  0.00  0.00     0.166 C 
ATOM      6  H   LIG d   1       4.912   0.815  -7.084  0.00  0.00     0.079 H 
ATOM      7  C   LIG d   1       6.884   0.125  -6.547  0.00  0.00     0.127 C 
ATOM      8  H   LIG d   1       7.684  -0.466  -6.994  0.00  0.00     0.060 H 
ATOM      9  C   LIG d   1       6.441  -0.523  -5.233  0.00  0.00     0.227 C 
ATOM     10  H   LIG d   1       7.297  -0.606  -4.562  0.00  0.00     0.108 H 
ATOM     11  O   LIG d   1       5.918  -1.825  -5.499  0.00  0.00    -0.329 OA
ENDROOT
BRANCH   7  12
ATOM     12  N   LIG d   1       7.368   1.483  -6.285  0.00  0.00    -0.297 N 
ATOM     13  C   LIG d   1       8.689   1.715  -6.151  0.00  0.00     0.280 C 
ATOM     14  O   LIG d   1       9.480   0.795  -6.248  0.00  0.00    -0.267 OA
ATOM     15  H   LIG d   1       6.737   2.216  -6.207  0.00  0.00     0.150 HD
BRANCH  13  16
ATOM     16  C   LIG d   1       9.173   3.074  -5.887  0.00  0.00     0.189 A 
ATOM     17  O   LIG d   1       9.631   3.945  -6.809  0.00  0.00    -0.458 OA
ATOM     18  C   LIG d   1       9.987   5.086  -6.206  0.00  0.00     0.093 A 
ATOM     19  C   LIG d   1       9.762   4.964  -4.879  0.00  0.00    -0.023 A 
ATOM     20  H   LIG d   1      10.387   5.959  -6.697  0.00  0.00     0.103 H 
ATOM     21  C   LIG d   1       9.235   3.680  -4.665  0.00  0.00    -0.011 A 
ATOM     22  H   LIG d   1       9.948   5.714  -4.124  0.00  0.00     0.065 H 
ATOM     23  H   LIG d   1       8.939   3.254  -3.718  0.00  0.00     0.066 H 
ENDBRANCH  13  16
ENDBRANCH   7  12
BRANCH   5  24
ATOM     24  O   LIG d   1       6.120   0.728  -8.782  0.00  0.00    -0.456 OA
BRANCH  24  25
ATOM     25  C   LIG d   1       5.701   1.966  -9.088  0.00  0.00     0.304 C 
ATOM     26  O   LIG d   1       6.489   2.881  -9.117  0.00  0.00    -0.251 OA
BRANCH  25  27
ATOM     27  C   LIG d   1       4.247   2.214  -9.396  0.00  0.00     0.033 C 
ATOM     28  H   LIG d   1       4.053   3.286  -9.397  0.00  0.00     0.034 H 
ATOM     29  H   LIG d   1       4.007   1.800 -10.376  0.00  0.00     0.034 H 
ATOM     30  H   LIG d   1       3.628   1.733  -8.638  0.00  0.00     0.034 H 
ENDBRANCH  25  27
ENDBRANCH  24  25
ENDBRANCH   5  24
BRANCH   9  31
ATOM     31  O   LIG d   1       5.415   0.294  -4.612  0.00  0.00    -0.433 OA
BRANCH  31  32
ATOM     32  C   LIG d   1       5.672   0.761  -3.380  0.00  0.00     0.306 C 
ATOM     33  O   LIG d   1       6.653   1.437  -3.182  0.00  0.00    -0.251 OA
BRANCH  32  34
ATOM     34  C   LIG d   1       4.739   0.436  -2.242  0.00  0.00     0.033 C 
ATOM     35  H   LIG d   1       5.076   0.946  -1.339  0.00  0.00     0.034 H 
ATOM     36  H   LIG d   1       3.731   0.769  -2.492  0.00  0.00     0.034 H 
ATOM     37  H   LIG d   1       4.734  -0.639  -2.071  0.00  0.00     0.034 H 
ENDBRANCH  32  34
ENDBRANCH  31  32
ENDBRANCH   9  31
BRANCH   3  38
ATOM     38  O   LIG d   1       3.971  -1.185  -8.562  0.00  0.00    -0.455 OA
BRANCH  38  39
ATOM     39  C   LIG d   1       4.104  -1.653  -9.813  0.00  0.00     0.304 C 
ATOM     40  O   LIG d   1       5.073  -2.310 -10.113  0.00  0.00    -0.251 OA
BRANCH  39  41
ATOM     41  C   LIG d   1       3.042  -1.362 -10.842  0.00  0.00     0.033 C 
ATOM     42  H   LIG d   1       3.278  -1.889 -11.767  0.00  0.00     0.034 H 
ATOM     43  H   LIG d   1       2.073  -1.697 -10.471  0.00  0.00     0.034 H 
ATOM     44  H   LIG d   1       3.006  -0.290 -11.034  0.00  0.00     0.034 H 
ENDBRANCH  39  41
ENDBRANCH  38  39
ENDBRANCH   3  38
BRANCH   1  45
ATOM     45  C   LIG d   1       4.283  -3.267  -6.544  0.00  0.00     0.122 C 
ATOM     46  H   LIG d   1       3.244  -3.257  -6.872  0.00  0.00     0.072 H 
ATOM     47  H   LIG d   1       4.897  -3.763  -7.295  0.00  0.00     0.072 H 
BRANCH  45  48
ATOM     48  O   LIG d   1       4.385  -3.985  -5.285  0.00  0.00    -0.462 OA
BRANCH  48  49
ATOM     49  C   LIG d   1       4.818  -5.254  -5.340  0.00  0.00     0.304 C 
ATOM     50  O   LIG d   1       4.072  -6.160  -5.057  0.00  0.00    -0.251 OA
BRANCH  49  51
ATOM     51  C   LIG d   1       6.236  -5.548  -5.757  0.00  0.00     0.033 C 
ATOM     52  H   LIG d   1       6.692  -6.229  -5.038  0.00  0.00     0.034 H 
ATOM     53  H   LIG d   1       6.237  -6.008  -6.744  0.00  0.00     0.034 H 
ATOM     54  H   LIG d   1       6.806  -4.619  -5.788  0.00  0.00     0.034 H 
ENDBRANCH  49  51
ENDBRANCH  48  49
ENDBRANCH  45  48
ENDBRANCH   1  45
TORSDOF 15
ENDMDL
MODEL 5
REMARK VINA RESULT:      -5.0      2.597      7.135
REMARK  15 active torsions:
REMARK  status: ('A' for Active; 'I' for Inactive)
REMARK    1  A    between atoms: C_1  and  C_2 
REMARK    2  A    between atoms: C_2  and  O_4 
REMARK    3  A    between atoms: O_4  and  C_5 
REMARK    4  A    between atoms: C_5  and  C_6 
REMARK    5  A    between atoms: C_8  and  O_33 
REMARK    6  A    between atoms: C_10  and  O_29 
REMARK    7  A    between atoms: C_12  and  N_21 
REMARK    8  A    between atoms: C_14  and  O_17 
REMARK    9  A    between atoms: O_17  and  C_18 
REMARK   10  A    between atoms: C_18  and  C_20 
REMARK       I    between atoms: N_21  and  C_22 
REMARK   11  A    between atoms: C_22  and  C_24 
REMARK   12  A    between atoms: O_29  and  C_30 
REMARK   13  A    between atoms: C_30  and  C_32 
REMARK   14  A    between atoms: O_33  and  C_34 
REMARK   15  A    between atoms: C_34  and  C_36 
ROOT
ATOM      1  C   LIG d   1       5.945  -1.642  -4.600  0.00  0.00     0.137 C 
ATOM      2  H   LIG d   1       5.004  -1.118  -4.768  0.00  0.00     0.067 H 
ATOM      3  C   LIG d   1       6.946  -1.255  -5.691  0.00  0.00     0.171 C 
ATOM      4  H   LIG d   1       7.875  -1.808  -5.547  0.00  0.00     0.080 H 
ATOM      5  C   LIG d   1       7.229   0.249  -5.605  0.00  0.00     0.166 C 
ATOM      6  H   LIG d   1       6.312   0.803  -5.800  0.00  0.00     0.079 H 
ATOM      7  C   LIG d   1       7.742   0.580  -4.200  0.00  0.00     0.127 C 
ATOM      8  H   LIG d   1       8.686   0.064  -4.026  0.00  0.00     0.060 H 
ATOM      9  C   LIG d   1       6.710   0.122  -3.167  0.00  0.00     0.227 C 
ATOM     10  H   LIG d   1       7.089   0.317  -2.163  0.00  0.00     0.108 H 
ATOM     11  O   LIG d   1       6.471  -1.277  -3.322  0.00  0.00    -0.329 OA
ENDROOT
BRANCH   7  12
ATOM     12  N   LIG d   1       7.946   2.026  -4.082  0.00  0.00    -0.297 N 
ATOM     13  C   LIG d   1       9.189   2.522  -3.927  0.00  0.00     0.280 C 
ATOM     14  O   LIG d   1      10.143   1.767  -3.885  0.00  0.00    -0.267 OA
ATOM     15  H   LIG d   1       7.185   2.627  -4.115  0.00  0.00     0.150 HD
BRANCH  13  16
ATOM     16  C   LIG d   1       9.393   3.969  -3.807  0.00  0.00     0.189 A 
ATOM     17  O   LIG d   1       9.075   4.894  -4.737  0.00  0.00    -0.458 OA
ATOM     18  C   LIG d   1       9.404   6.110  -4.285  0.00  0.00     0.093 A 
ATOM     19  C   LIG d   1       9.942   5.985  -3.051  0.00  0.00    -0.023 A 
ATOM     20  H   LIG d   1       9.264   7.038  -4.817  0.00  0.00     0.103 H 
ATOM     21  C   LIG d   1       9.933   4.617  -2.734  0.00  0.00    -0.011 A 
ATOM     22  H   LIG d   1      10.305   6.786  -2.424  0.00  0.00     0.065 H 
ATOM     23  H   LIG d   1      10.288   4.165  -1.819  0.00  0.00     0.066 H 
ENDBRANCH  13  16
ENDBRANCH   7  12
BRANCH   5  24
ATOM     24  O   LIG d   1       8.234   0.611  -6.588  0.00  0.00    -0.456 OA
BRANCH  24  25
ATOM     25  C   LIG d   1       7.930   1.611  -7.430  0.00  0.00     0.304 C 
ATOM     26  O   LIG d   1       6.828   1.674  -7.921  0.00  0.00    -0.251 OA
BRANCH  25  27
ATOM     27  C   LIG d   1       8.964   2.655  -7.764  0.00  0.00     0.033 C 
ATOM     28  H   LIG d   1       8.508   3.644  -7.728  0.00  0.00     0.034 H 
ATOM     29  H   LIG d   1       9.778   2.604  -7.040  0.00  0.00     0.034 H 
ATOM     30  H   LIG d   1       9.356   2.472  -8.764  0.00  0.00     0.034 H 
ENDBRANCH  25  27
ENDBRANCH  24  25
ENDBRANCH   5  24
BRANCH   9  31
ATOM     31  O   LIG d   1       5.470   0.850  -3.366  0.00  0.00    -0.433 OA
BRANCH  31  32
ATOM     32  C   LIG d   1       4.566   0.796  -2.375  0.00  0.00     0.306 C 
ATOM     33  O   LIG d   1       4.843   1.224  -1.280  0.00  0.00    -0.251 OA
BRANCH  32  34
ATOM     34  C   LIG d   1       3.207   0.195  -2.628  0.00  0.00     0.033 C 
ATOM     35  H   LIG d   1       3.207  -0.848  -2.310  0.00  0.00     0.034 H 
ATOM     36  H   LIG d   1       2.455   0.747  -2.063  0.00  0.00     0.034 H 
ATOM     37  H   LIG d   1       2.977   0.250  -3.691  0.00  0.00     0.034 H 
ENDBRANCH  32  34
ENDBRANCH  31  32
ENDBRANCH   9  31
BRANCH   3  38
ATOM     38  O   LIG d   1       6.390  -1.571  -6.995  0.00  0.00    -0.455 OA
BRANCH  38  39
ATOM     39  C   LIG d   1       7.189  -2.218  -7.857  0.00  0.00     0.304 C 
ATOM     40  O   LIG d   1       6.983  -2.143  -9.046  0.00  0.00    -0.251 OA
BRANCH  39  41
ATOM     41  C   LIG d   1       8.345  -3.039  -7.343  0.00  0.00     0.033 C 
ATOM     42  H   LIG d   1       8.487  -3.908  -7.985  0.00  0.00     0.034 H 
ATOM     43  H   LIG d   1       9.252  -2.432  -7.348  0.00  0.00     0.034 H 
ATOM     44  H   LIG d   1       8.133  -3.368  -6.326  0.00  0.00     0.034 H 
ENDBRANCH  39  41
ENDBRANCH  38  39
ENDBRANCH   3  38
BRANCH   1  45
ATOM     45  C   LIG d   1       5.704  -3.152  -4.642  0.00  0.00     0.122 C 
ATOM     46  H   LIG d   1       6.442  -3.620  -5.293  0.00  0.00     0.072 H 
ATOM     47  H   LIG d   1       5.793  -3.562  -3.636  0.00  0.00     0.072 H 
BRANCH  45  48
ATOM     48  O   LIG d   1       4.370  -3.415  -5.154  0.00  0.00    -0.462 OA
BRANCH  48  49
ATOM     49  C   LIG d   1       4.207  -4.529  -5.884  0.00  0.00     0.304 C 
ATOM     50  O   LIG d   1       4.015  -5.589  -5.336  0.00  0.00    -0.251 OA
BRANCH  49  51
ATOM     51  C   LIG d   1       4.262  -4.459  -7.389  0.00  0.00     0.033 C 
ATOM     52  H   LIG d   1       5.212  -4.023  -7.697  0.00  0.00     0.034 H 
ATOM     53  H   LIG d   1       4.172  -5.463  -7.803  0.00  0.00     0.034 H 
ATOM     54  H   LIG d   1       3.443  -3.840  -7.754  0.00  0.00     0.034 H 
ENDBRANCH  49  51
ENDBRANCH  48  49
ENDBRANCH  45  48
ENDBRANCH   1  45
TORSDOF 15
ENDMDL
MODEL 6
REMARK VINA RESULT:      -4.9      1.882      7.837
REMARK  15 active torsions:
REMARK  status: ('A' for Active; 'I' for Inactive)
REMARK    1  A    between atoms: C_1  and  C_2 
REMARK    2  A    between atoms: C_2  and  O_4 
REMARK    3  A    between atoms: O_4  and  C_5 
REMARK    4  A    between atoms: C_5  and  C_6 
REMARK    5  A    between atoms: C_8  and  O_33 
REMARK    6  A    between atoms: C_10  and  O_29 
REMARK    7  A    between atoms: C_12  and  N_21 
REMARK    8  A    between atoms: C_14  and  O_17 
REMARK    9  A    between atoms: O_17  and  C_18 
REMARK   10  A    between atoms: C_18  and  C_20 
REMARK       I    between atoms: N_21  and  C_22 
REMARK   11  A    between atoms: C_22  and  C_24 
REMARK   12  A    between atoms: O_29  and  C_30 
REMARK   13  A    between atoms: C_30  and  C_32 
REMARK   14  A    between atoms: O_33  and  C_34 
REMARK   15  A    between atoms: C_34  and  C_36 
ROOT
ATOM      1  C   LIG d   1       6.080  -0.828  -5.679  0.00  0.00     0.137 C 
ATOM      2  H   LIG d   1       5.576  -0.040  -5.118  0.00  0.00     0.067 H 
ATOM      3  C   LIG d   1       5.654  -0.760  -7.148  0.00  0.00     0.171 C 
ATOM      4  H   LIG d   1       6.126  -1.572  -7.702  0.00  0.00     0.080 H 
ATOM      5  C   LIG d   1       6.094   0.584  -7.738  0.00  0.00     0.166 C 
ATOM      6  H   LIG d   1       5.583   1.394  -7.218  0.00  0.00     0.079 H 
ATOM      7  C   LIG d   1       7.608   0.734  -7.562  0.00  0.00     0.127 C 
ATOM      8  H   LIG d   1       8.120  -0.048  -8.124  0.00  0.00     0.060 H 
ATOM      9  C   LIG d   1       7.958   0.608  -6.077  0.00  0.00     0.227 C 
ATOM     10  H   LIG d   1       9.039   0.672  -5.951  0.00  0.00     0.108 H 
ATOM     11  O   LIG d   1       7.494  -0.650  -5.585  0.00  0.00    -0.329 OA
ENDROOT
BRANCH   7  12
ATOM     12  N   LIG d   1       8.031   2.048  -8.056  0.00  0.00    -0.297 N 
ATOM     13  C   LIG d   1       8.779   2.140  -9.172  0.00  0.00     0.280 C 
ATOM     14  O   LIG d   1       9.104   1.131  -9.771  0.00  0.00    -0.267 OA
ATOM     15  H   LIG d   1       7.772   2.851  -7.577  0.00  0.00     0.150 HD
BRANCH  13  16
ATOM     16  C   LIG d   1       9.203   3.454  -9.665  0.00  0.00     0.189 A 
ATOM     17  O   LIG d   1       9.598   3.740 -10.923  0.00  0.00    -0.458 OA
ATOM     18  C   LIG d   1       9.912   5.038 -11.007  0.00  0.00     0.093 A 
ATOM     19  C   LIG d   1       9.723   5.611  -9.798  0.00  0.00    -0.023 A 
ATOM     20  H   LIG d   1      10.259   5.545 -11.894  0.00  0.00     0.103 H 
ATOM     21  C   LIG d   1       9.264   4.604  -8.932  0.00  0.00    -0.011 A 
ATOM     22  H   LIG d   1       9.890   6.647  -9.544  0.00  0.00     0.065 H 
ATOM     23  H   LIG d   1       9.009   4.719  -7.889  0.00  0.00     0.066 H 
ENDBRANCH  13  16
ENDBRANCH   7  12
BRANCH   5  24
ATOM     24  O   LIG d   1       5.762   0.627  -9.150  0.00  0.00    -0.456 OA
BRANCH  24  25
ATOM     25  C   LIG d   1       5.014   1.660  -9.569  0.00  0.00     0.304 C 
ATOM     26  O   LIG d   1       5.256   2.777  -9.180  0.00  0.00    -0.251 OA
BRANCH  25  27
ATOM     27  C   LIG d   1       3.873   1.425 -10.525  0.00  0.00     0.033 C 
ATOM     28  H   LIG d   1       2.974   1.910 -10.144  0.00  0.00     0.034 H 
ATOM     29  H   LIG d   1       4.125   1.842 -11.500  0.00  0.00     0.034 H 
ATOM     30  H   LIG d   1       3.695   0.354 -10.622  0.00  0.00     0.034 H 
ENDBRANCH  25  27
ENDBRANCH  24  25
ENDBRANCH   5  24
BRANCH   9  31
ATOM     31  O   LIG d   1       7.320   1.682  -5.337  0.00  0.00    -0.433 OA
BRANCH  31  32
ATOM     32  C   LIG d   1       7.645   1.805  -4.041  0.00  0.00     0.306 C 
ATOM     33  O   LIG d   1       6.825   1.563  -3.187  0.00  0.00    -0.251 OA
BRANCH  32  34
ATOM     34  C   LIG d   1       9.029   2.254  -3.650  0.00  0.00     0.033 C 
ATOM     35  H   LIG d   1       9.061   3.343  -3.611  0.00  0.00     0.034 H 
ATOM     36  H   LIG d   1       9.280   1.847  -2.670  0.00  0.00     0.034 H 
ATOM     37  H   LIG d   1       9.748   1.897  -4.387  0.00  0.00     0.034 H 
ENDBRANCH  32  34
ENDBRANCH  31  32
ENDBRANCH   9  31
BRANCH   3  38
ATOM     38  O   LIG d   1       4.211  -0.884  -7.242  0.00  0.00    -0.455 OA
BRANCH  38  39
ATOM     39  C   LIG d   1       3.729  -1.694  -8.197  0.00  0.00     0.304 C 
ATOM     40  O   LIG d   1       2.677  -1.437  -8.734  0.00  0.00    -0.251 OA
BRANCH  39  41
ATOM     41  C   LIG d   1       4.502  -2.923  -8.602  0.00  0.00     0.033 C 
ATOM     42  H   LIG d   1       4.052  -3.358  -9.494  0.00  0.00     0.034 H 
ATOM     43  H   LIG d   1       5.536  -2.649  -8.814  0.00  0.00     0.034 H 
ATOM     44  H   LIG d   1       4.478  -3.651  -7.791  0.00  0.00     0.034 H 
ENDBRANCH  39  41
ENDBRANCH  38  39
ENDBRANCH   3  38
BRANCH   1  45
ATOM     45  C   LIG d   1       5.697  -2.191  -5.100  0.00  0.00     0.122 C 
ATOM     46  H   LIG d   1       4.666  -2.424  -5.369  0.00  0.00     0.072 H 
ATOM     47  H   LIG d   1       6.360  -2.956  -5.503  0.00  0.00     0.072 H 
BRANCH  45  48
ATOM     48  O   LIG d   1       5.822  -2.155  -3.653  0.00  0.00    -0.462 OA
BRANCH  48  49
ATOM     49  C   LIG d   1       4.684  -2.084  -2.944  0.00  0.00     0.304 C 
ATOM     50  O   LIG d   1       3.852  -2.953  -3.049  0.00  0.00    -0.251 OA
BRANCH  49  51
ATOM     51  C   LIG d   1       4.446  -0.920  -2.017  0.00  0.00     0.033 C 
ATOM     52  H   LIG d   1       3.613  -1.149  -1.354  0.00  0.00     0.034 H 
ATOM     53  H   LIG d   1       5.343  -0.738  -1.425  0.00  0.00     0.034 H 
ATOM     54  H   LIG d   1       4.211  -0.031  -2.603  0.00  0.00     0.034 H 
ENDBRANCH  49  51
ENDBRANCH  48  49
ENDBRANCH  45  48
ENDBRANCH   1  45
TORSDOF 15
ENDMDL
MODEL 7
REMARK VINA RESULT:      -4.9      3.376      6.232
REMARK  15 active torsions:
REMARK  status: ('A' for Active; 'I' for Inactive)
REMARK    1  A    between atoms: C_1  and  C_2 
REMARK    2  A    between atoms: C_2  and  O_4 
REMARK    3  A    between atoms: O_4  and  C_5 
REMARK    4  A    between atoms: C_5  and  C_6 
REMARK    5  A    between atoms: C_8  and  O_33 
REMARK    6  A    between atoms: C_10  and  O_29 
REMARK    7  A    between atoms: C_12  and  N_21 
REMARK    8  A    between atoms: C_14  and  O_17 
REMARK    9  A    between atoms: O_17  and  C_18 
REMARK   10  A    between atoms: C_18  and  C_20 
REMARK       I    between atoms: N_21  and  C_22 
REMARK   11  A    between atoms: C_22  and  C_24 
REMARK   12  A    between atoms: O_29  and  C_30 
REMARK   13  A    between atoms: C_30  and  C_32 
REMARK   14  A    between atoms: O_33  and  C_34 
REMARK   15  A    between atoms: C_34  and  C_36 
ROOT
ATOM      1  C   LIG d   1       4.176  -1.152  -6.237  0.00  0.00     0.137 C 
ATOM      2  H   LIG d   1       3.406  -1.678  -5.671  0.00  0.00     0.067 H 
ATOM      3  C   LIG d   1       5.062  -0.357  -5.276  0.00  0.00     0.171 C 
ATOM      4  H   LIG d   1       5.807   0.201  -5.843  0.00  0.00     0.080 H 
ATOM      5  C   LIG d   1       5.768  -1.327  -4.322  0.00  0.00     0.166 C 
ATOM      6  H   LIG d   1       5.026  -1.848  -3.718  0.00  0.00     0.079 H 
ATOM      7  C   LIG d   1       6.566  -2.343  -5.145  0.00  0.00     0.127 C 
ATOM      8  H   LIG d   1       7.341  -1.825  -5.711  0.00  0.00     0.060 H 
ATOM      9  C   LIG d   1       5.621  -3.061  -6.112  0.00  0.00     0.227 C 
ATOM     10  H   LIG d   1       6.191  -3.755  -6.730  0.00  0.00     0.108 H 
ATOM     11  O   LIG d   1       4.976  -2.099  -6.948  0.00  0.00    -0.329 OA
ENDROOT
BRANCH   7  12
ATOM     12  N   LIG d   1       7.186  -3.322  -4.248  0.00  0.00    -0.297 N 
ATOM     13  C   LIG d   1       8.397  -3.834  -4.541  0.00  0.00     0.280 C 
ATOM     14  O   LIG d   1       8.976  -3.484  -5.553  0.00  0.00    -0.267 OA
ATOM     15  H   LIG d   1       6.723  -3.601  -3.442  0.00  0.00     0.150 HD
BRANCH  13  16
ATOM     16  C   LIG d   1       9.016  -4.815  -3.644  0.00  0.00     0.189 A 
ATOM     17  O   LIG d   1       9.055  -6.150  -3.835  0.00  0.00    -0.458 OA
ATOM     18  C   LIG d   1       9.699  -6.727  -2.813  0.00  0.00     0.093 A 
ATOM     19  C   LIG d   1      10.086  -5.766  -1.945  0.00  0.00    -0.023 A 
ATOM     20  H   LIG d   1       9.880  -7.784  -2.700  0.00  0.00     0.103 H 
ATOM     21  C   LIG d   1       9.657  -4.536  -2.472  0.00  0.00    -0.011 A 
ATOM     22  H   LIG d   1      10.626  -5.914  -1.021  0.00  0.00     0.065 H 
ATOM     23  H   LIG d   1       9.805  -3.560  -2.033  0.00  0.00     0.066 H 
ENDBRANCH  13  16
ENDBRANCH   7  12
BRANCH   5  24
ATOM     24  O   LIG d   1       6.668  -0.589  -3.456  0.00  0.00    -0.456 OA
BRANCH  24  25
ATOM     25  C   LIG d   1       7.579   0.197  -4.051  0.00  0.00     0.304 C 
ATOM     26  O   LIG d   1       8.429  -0.291  -4.756  0.00  0.00    -0.251 OA
BRANCH  25  27
ATOM     27  C   LIG d   1       7.541   1.688  -3.838  0.00  0.00     0.033 C 
ATOM     28  H   LIG d   1       8.179   1.952  -2.995  0.00  0.00     0.034 H 
ATOM     29  H   LIG d   1       7.900   2.193  -4.736  0.00  0.00     0.034 H 
ATOM     30  H   LIG d   1       6.517   2.000  -3.632  0.00  0.00     0.034 H 
ENDBRANCH  25  27
ENDBRANCH  24  25
ENDBRANCH   5  24
BRANCH   9  31
ATOM     31  O   LIG d   1       4.622  -3.795  -5.357  0.00  0.00    -0.433 OA
BRANCH  31  32
ATOM     32  C   LIG d   1       4.365  -5.053  -5.747  0.00  0.00     0.306 C 
ATOM     33  O   LIG d   1       3.286  -5.332  -6.215  0.00  0.00    -0.251 OA
BRANCH  32  34
ATOM     34  C   LIG d   1       5.419  -6.119  -5.595  0.00  0.00     0.033 C 
ATOM     35  H   LIG d   1       5.876  -6.318  -6.565  0.00  0.00     0.034 H 
ATOM     36  H   LIG d   1       6.183  -5.777  -4.897  0.00  0.00     0.034 H 
ATOM     37  H   LIG d   1       4.961  -7.031  -5.215  0.00  0.00     0.034 H 
ENDBRANCH  32  34
ENDBRANCH  31  32
ENDBRANCH   9  31
BRANCH   3  38
ATOM     38  O   LIG d   1       4.244   0.567  -4.511  0.00  0.00    -0.455 OA
BRANCH  38  39
ATOM     39  C   LIG d   1       3.580   0.065  -3.459  0.00  0.00     0.304 C 
ATOM     40  O   LIG d   1       2.727  -0.776  -3.627  0.00  0.00    -0.251 OA
BRANCH  39  41
ATOM     41  C   LIG d   1       3.897   0.549  -2.067  0.00  0.00     0.033 C 
ATOM     42  H   LIG d   1       3.064   1.141  -1.689  0.00  0.00     0.034 H 
ATOM     43  H   LIG d   1       4.060  -0.308  -1.412  0.00  0.00     0.034 H 
ATOM     44  H   LIG d   1       4.797   1.162  -2.092  0.00  0.00     0.034 H 
ENDBRANCH  39  41
ENDBRANCH  38  39
ENDBRANCH   3  38
BRANCH   1  45
ATOM     45  C   LIG d   1       3.514  -0.195  -7.230  0.00  0.00     0.122 C 
ATOM     46  H   LIG d   1       2.658  -0.685  -7.692  0.00  0.00     0.072 H 
ATOM     47  H   LIG d   1       3.182   0.701  -6.706  0.00  0.00     0.072 H 
BRANCH  45  48
ATOM     48  O   LIG d   1       4.472   0.175  -8.258  0.00  0.00    -0.462 OA
BRANCH  48  49
ATOM     49  C   LIG d   1       4.442   1.445  -8.691  0.00  0.00     0.304 C 
ATOM     50  O   LIG d   1       5.462   2.090  -8.743  0.00  0.00    -0.251 OA
BRANCH  49  51
ATOM     51  C   LIG d   1       3.135   2.066  -9.112  0.00  0.00     0.033 C 
ATOM     52  H   LIG d   1       2.386   1.893  -8.340  0.00  0.00     0.034 H 
ATOM     53  H   LIG d   1       3.272   3.139  -9.252  0.00  0.00     0.034 H 
ATOM     54  H   LIG d   1       2.804   1.617 -10.047  0.00  0.00     0.034 H 
ENDBRANCH  49  51
ENDBRANCH  48  49
ENDBRANCH  45  48
ENDBRANCH   1  45
TORSDOF 15
ENDMDL
MODEL 8
REMARK VINA RESULT:      -4.9      4.690      7.749
REMARK  15 active torsions:
REMARK  status: ('A' for Active; 'I' for Inactive)
REMARK    1  A    between atoms: C_1  and  C_2 
REMARK    2  A    between atoms: C_2  and  O_4 
REMARK    3  A    between atoms: O_4  and  C_5 
REMARK    4  A    between atoms: C_5  and  C_6 
REMARK    5  A    between atoms: C_8  and  O_33 
REMARK    6  A    between atoms: C_10  and  O_29 
REMARK    7  A    between atoms: C_12  and  N_21 
REMARK    8  A    between atoms: C_14  and  O_17 
REMARK    9  A    between atoms: O_17  and  C_18 
REMARK   10  A    between atoms: C_18  and  C_20 
REMARK       I    between atoms: N_21  and  C_22 
REMARK   11  A    between atoms: C_22  and  C_24 
REMARK   12  A    between atoms: O_29  and  C_30 
REMARK   13  A    between atoms: C_30  and  C_32 
REMARK   14  A    between atoms: O_33  and  C_34 
REMARK   15  A    between atoms: C_34  and  C_36 
ROOT
ATOM      1  C   LIG d   1       6.262  -0.931  -4.817  0.00  0.00     0.137 C 
ATOM      2  H   LIG d   1       7.095  -0.844  -5.515  0.00  0.00     0.067 H 
ATOM      3  C   LIG d   1       4.969  -1.185  -5.595  0.00  0.00     0.171 C 
ATOM      4  H   LIG d   1       4.129  -1.233  -4.901  0.00  0.00     0.080 H 
ATOM      5  C   LIG d   1       5.086  -2.515  -6.348  0.00  0.00     0.166 C 
ATOM      6  H   LIG d   1       5.892  -2.449  -7.078  0.00  0.00     0.079 H 
ATOM      7  C   LIG d   1       5.391  -3.631  -5.344  0.00  0.00     0.127 C 
ATOM      8  H   LIG d   1       4.560  -3.728  -4.645  0.00  0.00     0.060 H 
ATOM      9  C   LIG d   1       6.668  -3.282  -4.576  0.00  0.00     0.227 C 
ATOM     10  H   LIG d   1       6.866  -4.053  -3.831  0.00  0.00     0.108 H 
ATOM     11  O   LIG d   1       6.502  -2.022  -3.925  0.00  0.00    -0.329 OA
ENDROOT
BRANCH   7  12
ATOM     12  N   LIG d   1       5.579  -4.895  -6.060  0.00  0.00    -0.297 N 
ATOM     13  C   LIG d   1       4.772  -5.943  -5.802  0.00  0.00     0.280 C 
ATOM     14  O   LIG d   1       3.886  -5.839  -4.974  0.00  0.00    -0.267 OA
ATOM     15  H   LIG d   1       6.285  -4.978  -6.720  0.00  0.00     0.150 HD
BRANCH  13  16
ATOM     16  C   LIG d   1       4.961  -7.209  -6.518  0.00  0.00     0.189 A 
ATOM     17  O   LIG d   1       3.998  -7.919  -7.141  0.00  0.00    -0.458 OA
ATOM     18  C   LIG d   1       4.536  -9.018  -7.683  0.00  0.00     0.093 A 
ATOM     19  C   LIG d   1       5.860  -9.032  -7.416  0.00  0.00    -0.023 A 
ATOM     20  H   LIG d   1       4.000  -9.770  -8.242  0.00  0.00     0.103 H 
ATOM     21  C   LIG d   1       6.143  -7.873  -6.674  0.00  0.00    -0.011 A 
ATOM     22  H   LIG d   1       6.569  -9.788  -7.719  0.00  0.00     0.065 H 
ATOM     23  H   LIG d   1       7.109  -7.568  -6.298  0.00  0.00     0.066 H 
ENDBRANCH  13  16
ENDBRANCH   7  12
BRANCH   5  24
ATOM     24  O   LIG d   1       3.836  -2.800  -7.028  0.00  0.00    -0.456 OA
BRANCH  24  25
ATOM     25  C   LIG d   1       3.889  -2.955  -8.360  0.00  0.00     0.304 C 
ATOM     26  O   LIG d   1       4.625  -3.782  -8.843  0.00  0.00    -0.251 OA
BRANCH  25  27
ATOM     27  C   LIG d   1       3.030  -2.098  -9.253  0.00  0.00     0.033 C 
ATOM     28  H   LIG d   1       2.903  -2.590 -10.217  0.00  0.00     0.034 H 
ATOM     29  H   LIG d   1       2.053  -1.954  -8.788  0.00  0.00     0.034 H 
ATOM     30  H   LIG d   1       3.509  -1.130  -9.398  0.00  0.00     0.034 H 
ENDBRANCH  25  27
ENDBRANCH  24  25
ENDBRANCH   5  24
BRANCH   9  31
ATOM     31  O   LIG d   1       7.784  -3.206  -5.502  0.00  0.00    -0.433 OA
BRANCH  31  32
ATOM     32  C   LIG d   1       8.812  -4.041  -5.286  0.00  0.00     0.306 C 
ATOM     33  O   LIG d   1       8.745  -5.190  -5.654  0.00  0.00    -0.251 OA
BRANCH  32  34
ATOM     34  C   LIG d   1      10.048  -3.548  -4.579  0.00  0.00     0.033 C 
ATOM     35  H   LIG d   1      10.490  -4.365  -4.008  0.00  0.00     0.034 H 
ATOM     36  H   LIG d   1      10.767  -3.186  -5.313  0.00  0.00     0.034 H 
ATOM     37  H   LIG d   1       9.780  -2.737  -3.902  0.00  0.00     0.034 H 
ENDBRANCH  32  34
ENDBRANCH  31  32
ENDBRANCH   9  31
BRANCH   3  38
ATOM     38  O   LIG d   1       4.752  -0.107  -6.543  0.00  0.00    -0.455 OA
BRANCH  38  39
ATOM     39  C   LIG d   1       3.534   0.455  -6.559  0.00  0.00     0.304 C 
ATOM     40  O   LIG d   1       3.193   1.131  -7.501  0.00  0.00    -0.251 OA
BRANCH  39  41
ATOM     41  C   LIG d   1       2.591   0.242  -5.402  0.00  0.00     0.033 C 
ATOM     42  H   LIG d   1       2.199  -0.774  -5.436  0.00  0.00     0.034 H 
ATOM     43  H   LIG d   1       3.126   0.394  -4.464  0.00  0.00     0.034 H 
ATOM     44  H   LIG d   1       1.767   0.952  -5.470  0.00  0.00     0.034 H 
ENDBRANCH  39  41
ENDBRANCH  38  39
ENDBRANCH   3  38
BRANCH   1  45
ATOM     45  C   LIG d   1       6.130   0.365  -4.015  0.00  0.00     0.122 C 
ATOM     46  H   LIG d   1       7.022   0.974  -4.159  0.00  0.00     0.072 H 
ATOM     47  H   LIG d   1       5.254   0.916  -4.358  0.00  0.00     0.072 H 
BRANCH  45  48
ATOM     48  O   LIG d   1       5.981   0.049  -2.605  0.00  0.00    -0.462 OA
BRANCH  48  49
ATOM     49  C   LIG d   1       4.735   0.062  -2.106  0.00  0.00     0.304 C 
ATOM     50  O   LIG d   1       4.281  -0.930  -1.587  0.00  0.00    -0.251 OA
BRANCH  49  51
ATOM     51  C   LIG d   1       3.903   1.316  -2.192  0.00  0.00     0.033 C 
ATOM     52  H   LIG d   1       3.182   1.218  -3.004  0.00  0.00     0.034 H 
ATOM     53  H   LIG d   1       3.373   1.465  -1.252  0.00  0.00     0.034 H 
ATOM     54  H   LIG d   1       4.552   2.171  -2.383  0.00  0.00     0.034 H 
ENDBRANCH  49  51
ENDBRANCH  48  49
ENDBRANCH  45  48
ENDBRANCH   1  45
TORSDOF 15
ENDMDL
MODEL 9
REMARK VINA RESULT:      -4.8      2.840      5.893
REMARK  15 active torsions:
REMARK  status: ('A' for Active; 'I' for Inactive)
REMARK    1  A    between atoms: C_1  and  C_2 
REMARK    2  A    between atoms: C_2  and  O_4 
REMARK    3  A    between atoms: O_4  and  C_5 
REMARK    4  A    between atoms: C_5  and  C_6 
REMARK    5  A    between atoms: C_8  and  O_33 
REMARK    6  A    between atoms: C_10  and  O_29 
REMARK    7  A    between atoms: C_12  and  N_21 
REMARK    8  A    between atoms: C_14  and  O_17 
REMARK    9  A    between atoms: O_17  and  C_18 
REMARK   10  A    between atoms: C_18  and  C_20 
REMARK       I    between atoms: N_21  and  C_22 
REMARK   11  A    between atoms: C_22  and  C_24 
REMARK   12  A    between atoms: O_29  and  C_30 
REMARK   13  A    between atoms: C_30  and  C_32 
REMARK   14  A    between atoms: O_33  and  C_34 
REMARK   15  A    between atoms: C_34  and  C_36 
ROOT
ATOM      1  C   LIG d   1       4.137   0.035  -6.863  0.00  0.00     0.137 C 
ATOM      2  H   LIG d   1       4.114   0.686  -5.989  0.00  0.00     0.067 H 
ATOM      3  C   LIG d   1       5.551   0.017  -7.448  0.00  0.00     0.171 C 
ATOM      4  H   LIG d   1       5.567  -0.602  -8.345  0.00  0.00     0.080 H 
ATOM      5  C   LIG d   1       6.518  -0.564  -6.410  0.00  0.00     0.166 C 
ATOM      6  H   LIG d   1       6.541   0.083  -5.533  0.00  0.00     0.079 H 
ATOM      7  C   LIG d   1       6.036  -1.961  -6.006  0.00  0.00     0.127 C 
ATOM      8  H   LIG d   1       6.061  -2.620  -6.875  0.00  0.00     0.060 H 
ATOM      9  C   LIG d   1       4.603  -1.865  -5.477  0.00  0.00     0.227 C 
ATOM     10  H   LIG d   1       4.240  -2.863  -5.228  0.00  0.00     0.108 H 
ATOM     11  O   LIG d   1       3.764  -1.290  -6.480  0.00  0.00    -0.329 OA
ENDROOT
BRANCH   7  12
ATOM     12  N   LIG d   1       6.911  -2.497  -4.960  0.00  0.00    -0.297 N 
ATOM     13  C   LIG d   1       7.579  -3.648  -5.164  0.00  0.00     0.280 C 
ATOM     14  O   LIG d   1       7.457  -4.244  -6.219  0.00  0.00    -0.267 OA
ATOM     15  H   LIG d   1       7.007  -2.022  -4.119  0.00  0.00     0.150 HD
BRANCH  13  16
ATOM     16  C   LIG d   1       8.453  -4.185  -4.116  0.00  0.00     0.189 A 
ATOM     17  O   LIG d   1       8.896  -3.514  -3.032  0.00  0.00    -0.458 OA
ATOM     18  C   LIG d   1       9.672  -4.320  -2.297  0.00  0.00     0.093 A 
ATOM     19  C   LIG d   1       9.740  -5.528  -2.899  0.00  0.00    -0.023 A 
ATOM     20  H   LIG d   1      10.162  -4.050  -1.374  0.00  0.00     0.103 H 
ATOM     21  C   LIG d   1       8.957  -5.453  -4.063  0.00  0.00    -0.011 A 
ATOM     22  H   LIG d   1      10.288  -6.390  -2.550  0.00  0.00     0.065 H 
ATOM     23  H   LIG d   1       8.789  -6.244  -4.779  0.00  0.00     0.066 H 
ENDBRANCH  13  16
ENDBRANCH   7  12
BRANCH   5  24
ATOM     24  O   LIG d   1       7.848  -0.655  -6.983  0.00  0.00    -0.456 OA
BRANCH  24  25
ATOM     25  C   LIG d   1       8.842  -0.046  -6.316  0.00  0.00     0.304 C 
ATOM     26  O   LIG d   1       9.307  -0.559  -5.326  0.00  0.00    -0.251 OA
BRANCH  25  27
ATOM     27  C   LIG d   1       9.377   1.276  -6.803  0.00  0.00     0.033 C 
ATOM     28  H   LIG d   1       8.710   2.077  -6.486  0.00  0.00     0.034 H 
ATOM     29  H   LIG d   1      10.369   1.443  -6.383  0.00  0.00     0.034 H 
ATOM     30  H   LIG d   1       9.440   1.264  -7.890  0.00  0.00     0.034 H 
ENDBRANCH  25  27
ENDBRANCH  24  25
ENDBRANCH   5  24
BRANCH   9  31
ATOM     31  O   LIG d   1       4.580  -1.032  -4.289  0.00  0.00    -0.433 OA
BRANCH  31  32
ATOM     32  C   LIG d   1       3.603  -1.266  -3.399  0.00  0.00     0.306 C 
ATOM     33  O   LIG d   1       2.541  -0.700  -3.503  0.00  0.00    -0.251 OA
BRANCH  32  34
ATOM     34  C   LIG d   1       3.834  -2.231  -2.264  0.00  0.00     0.033 C 
ATOM     35  H   LIG d   1       3.028  -2.964  -2.242  0.00  0.00     0.034 H 
ATOM     36  H   LIG d   1       4.786  -2.742  -2.410  0.00  0.00     0.034 H 
ATOM     37  H   LIG d   1       3.855  -1.685  -1.322  0.00  0.00     0.034 H 
ENDBRANCH  32  34
ENDBRANCH  31  32
ENDBRANCH   9  31
BRANCH   3  38
ATOM     38  O   LIG d   1       5.955   1.370  -7.785  0.00  0.00    -0.455 OA
BRANCH  38  39
ATOM     39  C   LIG d   1       6.412   1.577  -9.030  0.00  0.00     0.304 C 
ATOM     40  O   LIG d   1       6.935   2.629  -9.314  0.00  0.00    -0.251 OA
BRANCH  39  41
ATOM     41  C   LIG d   1       6.274   0.497 -10.072  0.00  0.00     0.033 C 
ATOM     42  H   LIG d   1       6.314   0.944 -11.065  0.00  0.00     0.034 H 
ATOM     43  H   LIG d   1       7.090  -0.219  -9.964  0.00  0.00     0.034 H 
ATOM     44  H   LIG d   1       5.322  -0.016  -9.941  0.00  0.00     0.034 H 
ENDBRANCH  39  41
ENDBRANCH  38  39
ENDBRANCH   3  38
BRANCH   1  45
ATOM     45  C   LIG d   1       3.157   0.558  -7.915  0.00  0.00     0.122 C 
ATOM     46  H   LIG d   1       2.564   1.367  -7.489  0.00  0.00     0.072 H 
ATOM     47  H   LIG d   1       3.712   0.927  -8.777  0.00  0.00     0.072 H 
BRANCH  45  48
ATOM     48  O   LIG d   1       2.275  -0.519  -8.333  0.00  0.00    -0.462 OA
BRANCH  48  49
ATOM     49  C   LIG d   1       2.209  -0.775  -9.649  0.00  0.00     0.304 C 
ATOM     50  O   LIG d   1       2.712  -0.013 -10.440  0.00  0.00    -0.251 OA
BRANCH  49  51
ATOM     51  C   LIG d   1       1.507  -2.015 -10.139  0.00  0.00     0.033 C 
ATOM     52  H   LIG d   1       0.594  -1.733 -10.664  0.00  0.00     0.034 H 
ATOM     53  H   LIG d   1       2.163  -2.559 -10.819  0.00  0.00     0.034 H 
ATOM     54  H   LIG d   1       1.256  -2.651  -9.290  0.00  0.00     0.034 H 
ENDBRANCH  49  51
ENDBRANCH  48  49
ENDBRANCH  45  48
ENDBRANCH   1  45
TORSDOF 15
ENDMDL
