MODEL 1
REMARK VINA RESULT:      -6.0      0.000      0.000
REMARK  9 active torsions:
REMARK  status: ('A' for Active; 'I' for Inactive)
REMARK    1  A    between atoms: C_3  and  N_29 
REMARK    2  A    between atoms: N_7  and  C_10 
REMARK    3  A    between atoms: C_12  and  O_28 
REMARK    4  A    between atoms: C_14  and  O_27 
REMARK    5  A    between atoms: C_16  and  C_19 
REMARK    6  A    between atoms: C_19  and  O_20 
REMARK    7  A    between atoms: O_20  and  P_21 
REMARK    8  A    between atoms: P_21  and  O_23 
REMARK    9  A    between atoms: O_23  and  S_24 
ROOT
ATOM      1  C   LIG d   1       6.275   0.165  -3.804  0.00  0.00     0.167 C 
ATOM      2  H   LIG d   1       6.501   0.434  -2.772  0.00  0.00     0.087 H 
ATOM      3  C   LIG d   1       5.985  -1.352  -3.922  0.00  0.00     0.129 C 
ATOM      4  H   LIG d   1       6.102  -1.692  -4.951  0.00  0.00     0.067 H 
ATOM      5  C   LIG d   1       4.501  -1.432  -3.481  0.00  0.00     0.114 C 
ATOM      6  H   LIG d   1       4.430  -1.723  -2.434  0.00  0.00     0.065 H 
ATOM      7  C   LIG d   1       3.968  -0.000  -3.682  0.00  0.00     0.113 C 
ATOM      8  H   LIG d   1       3.659   0.419  -2.724  0.00  0.00     0.065 H 
ATOM      9  O   LIG d   1       5.042   0.782  -4.232  0.00  0.00    -0.346 OA
ENDROOT
BRANCH   1  10
ATOM     10  N   LIG d   1       7.378   0.550  -4.689  0.00  0.00    -0.285 N 
ATOM     11  C   LIG d   1       8.327   1.507  -4.434  0.00  0.00     0.167 A 
ATOM     12  C   LIG d   1       9.167   1.529  -5.560  0.00  0.00     0.147 A 
ATOM     13  N   LIG d   1       8.576   2.337  -3.426  0.00  0.00    -0.216 NA
ATOM     14  C   LIG d   1      10.240   2.437  -5.570  0.00  0.00     0.147 A 
ATOM     15  N   LIG d   1       8.698   0.598  -6.426  0.00  0.00    -0.231 NA
ATOM     16  N   LIG d   1      10.409   3.228  -4.516  0.00  0.00    -0.219 NA
ATOM     17  C   LIG d   1       9.592   3.171  -3.479  0.00  0.00     0.120 A 
ATOM     18  H   LIG d   1       9.766   3.833  -2.643  0.00  0.00     0.105 H 
ATOM     19  C   LIG d   1       7.650   0.020  -5.915  0.00  0.00     0.100 A 
ATOM     20  H   LIG d   1       7.078  -0.761  -6.394  0.00  0.00     0.103 H 
BRANCH  14  21
ATOM     21  N   LIG d   1      11.100   2.505  -6.651  0.00  0.00    -0.341 NA
ATOM     22  H   LIG d   1      10.946   1.719  -7.250  0.00  0.00     0.144 HD
ATOM     23  H   LIG d   1      12.060   2.507  -6.508  0.00  0.00     0.144 HD
ENDBRANCH  14  21
ENDBRANCH   1  10
BRANCH   3  24
ATOM     24  O   LIG d   1       6.823  -2.103  -3.040  0.00  0.00    -0.385 OA
ATOM     25  H   LIG d   1       7.528  -2.590  -3.487  0.00  0.00     0.210 HD
ENDBRANCH   3  24
BRANCH   7  26
ATOM     26  C   LIG d   1       2.785  -0.015  -4.650  0.00  0.00     0.084 C 
ATOM     27  H   LIG d   1       2.524  -1.047  -4.889  0.00  0.00     0.059 H 
ATOM     28  H   LIG d   1       1.930   0.477  -4.188  0.00  0.00     0.059 H 
BRANCH  26  29
ATOM     29  O   LIG d   1       3.141   0.676  -5.849  0.00  0.00    -0.324 OA
BRANCH  29  30
ATOM     30  P   LIG d   1       3.516  -0.081  -7.220  0.00  0.00     0.238 P 
ATOM     31  O   LIG d   1       4.083  -1.412  -6.910  0.00  0.00    -0.516 OA
ATOM     32  O   LIG d   1       2.189  -0.258  -8.114  0.00  0.00    -0.436 OA
BRANCH  30  33
ATOM     33  O   LIG d   1       4.599   0.788  -8.034  0.00  0.00    -0.195 OA
BRANCH  33  34
ATOM     34  S   LIG d   1       3.987   1.822  -8.968  0.00  0.00     0.005 S 
ATOM     35  O   LIG d   1       3.653   1.138 -10.169  0.00  0.00    -0.345 OA
ATOM     36  O   LIG d   1       3.023   2.538  -8.207  0.00  0.00    -0.345 OA
ATOM     37  O   LIG d   1       5.085   2.815  -9.323  0.00  0.00    -0.268 OA
ENDBRANCH  33  34
ENDBRANCH  30  33
ENDBRANCH  29  30
ENDBRANCH  26  29
ENDBRANCH   7  26
BRANCH   5  38
ATOM     38  O   LIG d   1       3.782  -2.352  -4.305  0.00  0.00    -0.386 OA
ATOM     39  H   LIG d   1       4.203  -3.219  -4.389  0.00  0.00     0.210 HD
ENDBRANCH   5  38
TORSDOF 9
ENDMDL
MODEL 2
REMARK VINA RESULT:      -5.9      3.568      5.800
REMARK  9 active torsions:
REMARK  status: ('A' for Active; 'I' for Inactive)
REMARK    1  A    between atoms: C_3  and  N_29 
REMARK    2  A    between atoms: N_7  and  C_10 
REMARK    3  A    between atoms: C_12  and  O_28 
REMARK    4  A    between atoms: C_14  and  O_27 
REMARK    5  A    between atoms: C_16  and  C_19 
REMARK    6  A    between atoms: C_19  and  O_20 
REMARK    7  A    between atoms: O_20  and  P_21 
REMARK    8  A    between atoms: P_21  and  O_23 
REMARK    9  A    between atoms: O_23  and  S_24 
ROOT
ATOM      1  C   LIG d   1       9.847   3.300  -3.996  0.00  0.00     0.167 C 
ATOM      2  H   LIG d   1      10.775   2.958  -3.538  0.00  0.00     0.087 H 
ATOM      3  C   LIG d   1       9.802   2.912  -5.495  0.00  0.00     0.129 C 
ATOM      4  H   LIG d   1       9.081   3.526  -6.035  0.00  0.00     0.067 H 
ATOM      5  C   LIG d   1       9.332   1.436  -5.433  0.00  0.00     0.114 C 
ATOM      6  H   LIG d   1      10.184   0.762  -5.509  0.00  0.00     0.065 H 
ATOM      7  C   LIG d   1       8.665   1.310  -4.049  0.00  0.00     0.113 C 
ATOM      8  H   LIG d   1       9.208   0.588  -3.439  0.00  0.00     0.065 H 
ATOM      9  O   LIG d   1       8.714   2.606  -3.431  0.00  0.00    -0.346 OA
ENDROOT
BRANCH   1  10
ATOM     10  N   LIG d   1       9.697   4.749  -3.834  0.00  0.00    -0.285 N 
ATOM     11  C   LIG d   1       9.969   5.471  -2.699  0.00  0.00     0.167 A 
ATOM     12  C   LIG d   1       9.673   6.809  -3.011  0.00  0.00     0.147 A 
ATOM     13  N   LIG d   1      10.410   5.174  -1.480  0.00  0.00    -0.216 NA
ATOM     14  C   LIG d   1       9.857   7.779  -2.011  0.00  0.00     0.147 A 
ATOM     15  N   LIG d   1       9.249   6.834  -4.298  0.00  0.00    -0.231 NA
ATOM     16  N   LIG d   1      10.303   7.387  -0.823  0.00  0.00    -0.219 NA
ATOM     17  C   LIG d   1      10.567   6.117  -0.576  0.00  0.00     0.120 A 
ATOM     18  H   LIG d   1      10.927   5.842   0.405  0.00  0.00     0.105 H 
ATOM     19  C   LIG d   1       9.266   5.626  -4.783  0.00  0.00     0.100 A 
ATOM     20  H   LIG d   1       8.976   5.359  -5.788  0.00  0.00     0.103 H 
BRANCH  14  21
ATOM     21  N   LIG d   1       9.583   9.113  -2.260  0.00  0.00    -0.341 NA
ATOM     22  H   LIG d   1       9.525   9.609  -1.395  0.00  0.00     0.144 HD
ATOM     23  H   LIG d   1       8.772   9.362  -2.730  0.00  0.00     0.144 HD
ENDBRANCH  14  21
ENDBRANCH   1  10
BRANCH   3  24
ATOM     24  O   LIG d   1      11.099   3.013  -6.087  0.00  0.00    -0.385 OA
ATOM     25  H   LIG d   1      11.247   3.835  -6.574  0.00  0.00     0.210 HD
ENDBRANCH   3  24
BRANCH   7  26
ATOM     26  C   LIG d   1       7.211   0.865  -4.211  0.00  0.00     0.084 C 
ATOM     27  H   LIG d   1       6.852   1.150  -5.201  0.00  0.00     0.059 H 
ATOM     28  H   LIG d   1       7.147  -0.217  -4.100  0.00  0.00     0.059 H 
BRANCH  26  29
ATOM     29  O   LIG d   1       6.405   1.493  -3.213  0.00  0.00    -0.324 OA
BRANCH  29  30
ATOM     30  P   LIG d   1       5.010   0.878  -2.694  0.00  0.00     0.238 P 
ATOM     31  O   LIG d   1       4.769   1.310  -1.299  0.00  0.00    -0.516 OA
ATOM     32  O   LIG d   1       3.812   1.402  -3.633  0.00  0.00    -0.436 OA
BRANCH  30  33
ATOM     33  O   LIG d   1       5.077  -0.729  -2.755  0.00  0.00    -0.195 OA
BRANCH  33  34
ATOM     34  S   LIG d   1       3.917  -1.368  -3.504  0.00  0.00     0.005 S 
ATOM     35  O   LIG d   1       2.730  -0.978  -2.825  0.00  0.00    -0.345 OA
ATOM     36  O   LIG d   1       4.126  -1.100  -4.884  0.00  0.00    -0.345 OA
ATOM     37  O   LIG d   1       4.043  -2.875  -3.329  0.00  0.00    -0.268 OA
ENDBRANCH  33  34
ENDBRANCH  30  33
ENDBRANCH  29  30
ENDBRANCH  26  29
ENDBRANCH   7  26
BRANCH   5  38
ATOM     38  O   LIG d   1       8.387   1.166  -6.470  0.00  0.00    -0.386 OA
ATOM     39  H   LIG d   1       8.785   1.037  -7.342  0.00  0.00     0.210 HD
ENDBRANCH   5  38
TORSDOF 9
ENDMDL
MODEL 3
REMARK VINA RESULT:      -5.8      6.080      8.464
REMARK  9 active torsions:
REMARK  status: ('A' for Active; 'I' for Inactive)
REMARK    1  A    between atoms: C_3  and  N_29 
REMARK    2  A    between atoms: N_7  and  C_10 
REMARK    3  A    between atoms: C_12  and  O_28 
REMARK    4  A    between atoms: C_14  and  O_27 
REMARK    5  A    between atoms: C_16  and  C_19 
REMARK    6  A    between atoms: C_19  and  O_20 
REMARK    7  A    between atoms: O_20  and  P_21 
REMARK    8  A    between atoms: P_21  and  O_23 
REMARK    9  A    between atoms: O_23  and  S_24 
ROOT
ATOM      1  C   LIG d   1       7.924   1.401  -4.528  0.00  0.00     0.167 C 
ATOM      2  H   LIG d   1       7.380   2.058  -5.205  0.00  0.00     0.087 H 
ATOM      3  C   LIG d   1       9.203   0.853  -5.208  0.00  0.00     0.129 C 
ATOM      4  H   LIG d   1       9.559  -0.046  -4.703  0.00  0.00     0.067 H 
ATOM      5  C   LIG d   1      10.199   2.025  -5.014  0.00  0.00     0.114 C 
ATOM      6  H   LIG d   1      10.247   2.637  -5.914  0.00  0.00     0.065 H 
ATOM      7  C   LIG d   1       9.609   2.833  -3.842  0.00  0.00     0.113 C 
ATOM      8  H   LIG d   1       9.346   3.836  -4.177  0.00  0.00     0.065 H 
ATOM      9  O   LIG d   1       8.431   2.141  -3.396  0.00  0.00    -0.346 OA
ENDROOT
BRANCH   1  10
ATOM     10  N   LIG d   1       7.066   0.299  -4.081  0.00  0.00    -0.285 N 
ATOM     11  C   LIG d   1       5.816   0.418  -3.529  0.00  0.00     0.167 A 
ATOM     12  C   LIG d   1       5.387  -0.893  -3.255  0.00  0.00     0.147 A 
ATOM     13  N   LIG d   1       5.013   1.435  -3.230  0.00  0.00    -0.216 NA
ATOM     14  C   LIG d   1       4.121  -1.068  -2.672  0.00  0.00     0.147 A 
ATOM     15  N   LIG d   1       6.379  -1.727  -3.651  0.00  0.00    -0.231 NA
ATOM     16  N   LIG d   1       3.390   0.010  -2.410  0.00  0.00    -0.219 NA
ATOM     17  C   LIG d   1       3.835   1.222  -2.684  0.00  0.00     0.120 A 
ATOM     18  H   LIG d   1       3.208   2.071  -2.454  0.00  0.00     0.105 H 
ATOM     19  C   LIG d   1       7.363  -1.029  -4.139  0.00  0.00     0.100 A 
ATOM     20  H   LIG d   1       8.282  -1.442  -4.528  0.00  0.00     0.103 H 
BRANCH  14  21
ATOM     21  N   LIG d   1       3.646  -2.335  -2.380  0.00  0.00    -0.341 NA
ATOM     22  H   LIG d   1       3.174  -2.707  -3.179  0.00  0.00     0.144 HD
ATOM     23  H   LIG d   1       3.015  -2.460  -1.655  0.00  0.00     0.144 HD
ENDBRANCH  14  21
ENDBRANCH   1  10
BRANCH   3  24
ATOM     24  O   LIG d   1       8.974   0.599  -6.596  0.00  0.00    -0.385 OA
ATOM     25  H   LIG d   1       8.345  -0.114  -6.767  0.00  0.00     0.210 HD
ENDBRANCH   3  24
BRANCH   7  26
ATOM     26  C   LIG d   1      10.626   2.915  -2.703  0.00  0.00     0.084 C 
ATOM     27  H   LIG d   1      10.101   2.942  -1.747  0.00  0.00     0.059 H 
ATOM     28  H   LIG d   1      11.279   2.043  -2.733  0.00  0.00     0.059 H 
BRANCH  26  29
ATOM     29  O   LIG d   1      11.410   4.101  -2.848  0.00  0.00    -0.324 OA
BRANCH  29  30
ATOM     30  P   LIG d   1      11.159   5.432  -1.977  0.00  0.00     0.238 P 
ATOM     31  O   LIG d   1      12.165   6.455  -2.339  0.00  0.00    -0.516 OA
ATOM     32  O   LIG d   1       9.683   5.999  -2.278  0.00  0.00    -0.436 OA
BRANCH  30  33
ATOM     33  O   LIG d   1      11.291   5.081  -0.412  0.00  0.00    -0.195 OA
BRANCH  33  34
ATOM     34  S   LIG d   1      11.387   6.303   0.490  0.00  0.00     0.005 S 
ATOM     35  O   LIG d   1      12.733   6.754   0.423  0.00  0.00    -0.345 OA
ATOM     36  O   LIG d   1      10.287   7.139   0.160  0.00  0.00    -0.345 OA
ATOM     37  O   LIG d   1      11.159   5.828   1.918  0.00  0.00    -0.268 OA
ENDBRANCH  33  34
ENDBRANCH  30  33
ENDBRANCH  29  30
ENDBRANCH  26  29
ENDBRANCH   7  26
BRANCH   5  38
ATOM     38  O   LIG d   1      11.497   1.530  -4.677  0.00  0.00    -0.386 OA
ATOM     39  H   LIG d   1      11.513   0.972  -3.888  0.00  0.00     0.210 HD
ENDBRANCH   5  38
TORSDOF 9
ENDMDL
MODEL 4
REMARK VINA RESULT:      -5.7      5.630      8.062
REMARK  9 active torsions:
REMARK  status: ('A' for Active; 'I' for Inactive)
REMARK    1  A    between atoms: C_3  and  N_29 
REMARK    2  A    between atoms: N_7  and  C_10 
REMARK    3  A    between atoms: C_12  and  O_28 
REMARK    4  A    between atoms: C_14  and  O_27 
REMARK    5  A    between atoms: C_16  and  C_19 
REMARK    6  A    between atoms: C_19  and  O_20 
REMARK    7  A    between atoms: O_20  and  P_21 
REMARK    8  A    between atoms: P_21  and  O_23 
REMARK    9  A    between atoms: O_23  and  S_24 
ROOT
ATOM      1  C   LIG d   1       5.801  -2.834  -6.317  0.00  0.00     0.167 C 
ATOM      2  H   LIG d   1       6.581  -2.724  -7.070  0.00  0.00     0.087 H 
ATOM      3  C   LIG d   1       4.416  -3.018  -6.988  0.00  0.00     0.129 C 
ATOM      4  H   LIG d   1       3.612  -2.782  -6.291  0.00  0.00     0.067 H 
ATOM      5  C   LIG d   1       4.423  -4.529  -7.332  0.00  0.00     0.114 C 
ATOM      6  H   LIG d   1       4.703  -4.682  -8.373  0.00  0.00     0.065 H 
ATOM      7  C   LIG d   1       5.488  -5.127  -6.392  0.00  0.00     0.113 C 
ATOM      8  H   LIG d   1       6.304  -5.552  -6.977  0.00  0.00     0.065 H 
ATOM      9  O   LIG d   1       5.983  -4.056  -5.570  0.00  0.00    -0.346 OA
ENDROOT
BRANCH   1  10
ATOM     10  N   LIG d   1       5.788  -1.677  -5.417  0.00  0.00    -0.285 N 
ATOM     11  C   LIG d   1       5.143  -1.595  -4.210  0.00  0.00     0.167 A 
ATOM     12  C   LIG d   1       5.408  -0.307  -3.715  0.00  0.00     0.147 A 
ATOM     13  N   LIG d   1       4.387  -2.420  -3.491  0.00  0.00    -0.216 NA
ATOM     14  C   LIG d   1       4.855   0.054  -2.475  0.00  0.00     0.147 A 
ATOM     15  N   LIG d   1       6.190   0.317  -4.628  0.00  0.00    -0.231 NA
ATOM     16  N   LIG d   1       4.112  -0.838  -1.829  0.00  0.00    -0.219 NA
ATOM     17  C   LIG d   1       3.890  -2.038  -2.334  0.00  0.00     0.120 A 
ATOM     18  H   LIG d   1       3.279  -2.733  -1.776  0.00  0.00     0.105 H 
ATOM     19  C   LIG d   1       6.417  -0.486  -5.626  0.00  0.00     0.100 A 
ATOM     20  H   LIG d   1       7.012  -0.243  -6.494  0.00  0.00     0.103 H 
BRANCH  14  21
ATOM     21  N   LIG d   1       5.081   1.309  -1.937  0.00  0.00    -0.341 NA
ATOM     22  H   LIG d   1       5.876   1.275  -1.332  0.00  0.00     0.144 HD
ATOM     23  H   LIG d   1       4.396   1.738  -1.402  0.00  0.00     0.144 HD
ENDBRANCH  14  21
ENDBRANCH   1  10
BRANCH   3  24
ATOM     24  O   LIG d   1       4.313  -2.223  -8.171  0.00  0.00    -0.385 OA
ATOM     25  H   LIG d   1       4.880  -2.519  -8.896  0.00  0.00     0.210 HD
ENDBRANCH   3  24
BRANCH   7  26
ATOM     26  C   LIG d   1       4.860  -6.210  -5.514  0.00  0.00     0.084 C 
ATOM     27  H   LIG d   1       4.825  -5.865  -4.480  0.00  0.00     0.059 H 
ATOM     28  H   LIG d   1       3.848  -6.417  -5.861  0.00  0.00     0.059 H 
BRANCH  26  29
ATOM     29  O   LIG d   1       5.643  -7.402  -5.592  0.00  0.00    -0.324 OA
BRANCH  29  30
ATOM     30  P   LIG d   1       5.021  -8.876  -5.410  0.00  0.00     0.238 P 
ATOM     31  O   LIG d   1       4.273  -9.250  -6.631  0.00  0.00    -0.516 OA
ATOM     32  O   LIG d   1       6.210  -9.933  -5.164  0.00  0.00    -0.436 OA
BRANCH  30  33
ATOM     33  O   LIG d   1       4.024  -8.884  -4.146  0.00  0.00    -0.195 OA
BRANCH  33  34
ATOM     34  S   LIG d   1       3.614 -10.278  -3.692  0.00  0.00     0.005 S 
ATOM     35  O   LIG d   1       4.695 -10.792  -2.926  0.00  0.00    -0.345 OA
ATOM     36  O   LIG d   1       2.297 -10.163  -3.168  0.00  0.00    -0.345 OA
ATOM     37  O   LIG d   1       3.512 -11.146  -4.938  0.00  0.00    -0.268 OA
ENDBRANCH  33  34
ENDBRANCH  30  33
ENDBRANCH  29  30
ENDBRANCH  26  29
ENDBRANCH   7  26
BRANCH   5  38
ATOM     38  O   LIG d   1       3.143  -5.109  -7.069  0.00  0.00    -0.386 OA
ATOM     39  H   LIG d   1       2.526  -4.515  -6.621  0.00  0.00     0.210 HD
ENDBRANCH   5  38
TORSDOF 9
ENDMDL
MODEL 5
REMARK VINA RESULT:      -5.7      7.931     10.260
REMARK  9 active torsions:
REMARK  status: ('A' for Active; 'I' for Inactive)
REMARK    1  A    between atoms: C_3  and  N_29 
REMARK    2  A    between atoms: N_7  and  C_10 
REMARK    3  A    between atoms: C_12  and  O_28 
REMARK    4  A    between atoms: C_14  and  O_27 
REMARK    5  A    between atoms: C_16  and  C_19 
REMARK    6  A    between atoms: C_19  and  O_20 
REMARK    7  A    between atoms: O_20  and  P_21 
REMARK    8  A    between atoms: P_21  and  O_23 
REMARK    9  A    between atoms: O_23  and  S_24 
ROOT
ATOM      1  C   LIG d   1      10.448   6.598  -5.567  0.00  0.00     0.167 C 
ATOM      2  H   LIG d   1      11.252   5.863  -5.551  0.00  0.00     0.087 H 
ATOM      3  C   LIG d   1       9.293   6.164  -4.630  0.00  0.00     0.129 C 
ATOM      4  H   LIG d   1       8.367   6.678  -4.890  0.00  0.00     0.067 H 
ATOM      5  C   LIG d   1       9.810   6.628  -3.244  0.00  0.00     0.114 C 
ATOM      6  H   LIG d   1      10.264   5.795  -2.709  0.00  0.00     0.065 H 
ATOM      7  C   LIG d   1      10.868   7.699  -3.574  0.00  0.00     0.113 C 
ATOM      8  H   LIG d   1      11.847   7.376  -3.220  0.00  0.00     0.065 H 
ATOM      9  O   LIG d   1      10.892   7.851  -5.003  0.00  0.00    -0.346 OA
ENDROOT
BRANCH   1  10
ATOM     10  N   LIG d   1       9.957   6.793  -6.935  0.00  0.00    -0.285 N 
ATOM     11  C   LIG d   1       9.668   5.806  -7.842  0.00  0.00     0.167 A 
ATOM     12  C   LIG d   1       9.240   6.464  -9.007  0.00  0.00     0.147 A 
ATOM     13  N   LIG d   1       9.716   4.477  -7.830  0.00  0.00    -0.216 NA
ATOM     14  C   LIG d   1       8.880   5.680 -10.117  0.00  0.00     0.147 A 
ATOM     15  N   LIG d   1       9.285   7.794  -8.753  0.00  0.00    -0.231 NA
ATOM     16  N   LIG d   1       8.960   4.358 -10.011  0.00  0.00    -0.219 NA
ATOM     17  C   LIG d   1       9.369   3.785  -8.894  0.00  0.00     0.120 A 
ATOM     18  H   LIG d   1       9.419   2.706  -8.851  0.00  0.00     0.105 H 
ATOM     19  C   LIG d   1       9.702   7.989  -7.536  0.00  0.00     0.100 A 
ATOM     20  H   LIG d   1       9.832   8.956  -7.074  0.00  0.00     0.103 H 
BRANCH  14  21
ATOM     21  N   LIG d   1       8.450   6.272 -11.292  0.00  0.00    -0.341 NA
ATOM     22  H   LIG d   1       9.241   6.507 -11.856  0.00  0.00     0.144 HD
ATOM     23  H   LIG d   1       7.931   7.091 -11.261  0.00  0.00     0.144 HD
ENDBRANCH  14  21
ENDBRANCH   1  10
BRANCH   3  24
ATOM     24  O   LIG d   1       9.113   4.747  -4.663  0.00  0.00    -0.385 OA
ATOM     25  H   LIG d   1       9.929   4.244  -4.535  0.00  0.00     0.210 HD
ENDBRANCH   3  24
BRANCH   7  26
ATOM     26  C   LIG d   1      10.488   9.026  -2.916  0.00  0.00     0.084 C 
ATOM     27  H   LIG d   1      10.852   9.853  -3.527  0.00  0.00     0.059 H 
ATOM     28  H   LIG d   1       9.404   9.090  -2.827  0.00  0.00     0.059 H 
BRANCH  26  29
ATOM     29  O   LIG d   1      11.077   9.100  -1.616  0.00  0.00    -0.324 OA
BRANCH  29  30
ATOM     30  P   LIG d   1      10.286   9.641  -0.322  0.00  0.00     0.238 P 
ATOM     31  O   LIG d   1      10.451  11.108  -0.221  0.00  0.00    -0.516 OA
ATOM     32  O   LIG d   1       8.723   9.284  -0.463  0.00  0.00    -0.436 OA
BRANCH  30  33
ATOM     33  O   LIG d   1      10.880   8.942   1.000  0.00  0.00    -0.195 OA
BRANCH  33  34
ATOM     34  S   LIG d   1      11.246   7.476   0.813  0.00  0.00     0.005 S 
ATOM     35  O   LIG d   1      10.158   6.868   0.130  0.00  0.00    -0.345 OA
ATOM     36  O   LIG d   1      12.573   7.451   0.306  0.00  0.00    -0.345 OA
ATOM     37  O   LIG d   1      11.298   6.845   2.198  0.00  0.00    -0.268 OA
ENDBRANCH  33  34
ENDBRANCH  30  33
ENDBRANCH  29  30
ENDBRANCH  26  29
ENDBRANCH   7  26
BRANCH   5  38
ATOM     38  O   LIG d   1       8.747   7.195  -2.476  0.00  0.00    -0.386 OA
ATOM     39  H   LIG d   1       8.191   6.541  -2.030  0.00  0.00     0.210 HD
ENDBRANCH   5  38
TORSDOF 9
ENDMDL
MODEL 6
REMARK VINA RESULT:      -5.6      9.245     11.090
REMARK  9 active torsions:
REMARK  status: ('A' for Active; 'I' for Inactive)
REMARK    1  A    between atoms: C_3  and  N_29 
REMARK    2  A    between atoms: N_7  and  C_10 
REMARK    3  A    between atoms: C_12  and  O_28 
REMARK    4  A    between atoms: C_14  and  O_27 
REMARK    5  A    between atoms: C_16  and  C_19 
REMARK    6  A    between atoms: C_19  and  O_20 
REMARK    7  A    between atoms: O_20  and  P_21 
REMARK    8  A    between atoms: P_21  and  O_23 
REMARK    9  A    between atoms: O_23  and  S_24 
ROOT
ATOM      1  C   LIG d   1      10.666   9.904  -1.957  0.00  0.00     0.167 C 
ATOM      2  H   LIG d   1      11.384  10.540  -1.439  0.00  0.00     0.087 H 
ATOM      3  C   LIG d   1       9.215  10.311  -1.594  0.00  0.00     0.129 C 
ATOM      4  H   LIG d   1       8.519   9.501  -1.809  0.00  0.00     0.067 H 
ATOM      5  C   LIG d   1       8.971  11.513  -2.543  0.00  0.00     0.114 C 
ATOM      6  H   LIG d   1       9.133  12.453  -2.016  0.00  0.00     0.065 H 
ATOM      7  C   LIG d   1      10.017  11.333  -3.660  0.00  0.00     0.113 C 
ATOM      8  H   LIG d   1      10.707  12.176  -3.663  0.00  0.00     0.065 H 
ATOM      9  O   LIG d   1      10.733  10.117  -3.383  0.00  0.00    -0.346 OA
ENDROOT
BRANCH   1  10
ATOM     10  N   LIG d   1      10.902   8.494  -1.634  0.00  0.00    -0.285 N 
ATOM     11  C   LIG d   1      10.470   7.413  -2.359  0.00  0.00     0.167 A 
ATOM     12  C   LIG d   1      10.924   6.277  -1.668  0.00  0.00     0.147 A 
ATOM     13  N   LIG d   1       9.768   7.251  -3.477  0.00  0.00    -0.216 NA
ATOM     14  C   LIG d   1      10.613   5.011  -2.195  0.00  0.00     0.147 A 
ATOM     15  N   LIG d   1      11.602   6.716  -0.581  0.00  0.00    -0.231 NA
ATOM     16  N   LIG d   1       9.907   4.950  -3.319  0.00  0.00    -0.219 NA
ATOM     17  C   LIG d   1       9.500   6.046  -3.933  0.00  0.00     0.120 A 
ATOM     18  H   LIG d   1       8.928   5.951  -4.844  0.00  0.00     0.105 H 
ATOM     19  C   LIG d   1      11.592   8.017  -0.561  0.00  0.00     0.100 A 
ATOM     20  H   LIG d   1      12.059   8.629   0.198  0.00  0.00     0.103 H 
BRANCH  14  21
ATOM     21  N   LIG d   1      11.034   3.857  -1.559  0.00  0.00    -0.341 NA
ATOM     22  H   LIG d   1      10.367   3.597  -0.862  0.00  0.00     0.144 HD
ATOM     23  H   LIG d   1      11.883   3.844  -1.089  0.00  0.00     0.144 HD
ENDBRANCH  14  21
ENDBRANCH   1  10
BRANCH   3  24
ATOM     24  O   LIG d   1       9.124  10.711  -0.225  0.00  0.00    -0.385 OA
ATOM     25  H   LIG d   1       9.694  11.456   0.006  0.00  0.00     0.210 HD
ENDBRANCH   3  24
BRANCH   7  26
ATOM     26  C   LIG d   1       9.318  11.228  -5.016  0.00  0.00     0.084 C 
ATOM     27  H   LIG d   1       9.819  10.476  -5.626  0.00  0.00     0.059 H 
ATOM     28  H   LIG d   1       8.278  10.940  -4.867  0.00  0.00     0.059 H 
BRANCH  26  29
ATOM     29  O   LIG d   1       9.371  12.492  -5.679  0.00  0.00    -0.324 OA
BRANCH  29  30
ATOM     30  P   LIG d   1       9.919  12.673  -7.183  0.00  0.00     0.238 P 
ATOM     31  O   LIG d   1       9.049  13.620  -7.914  0.00  0.00    -0.516 OA
ATOM     32  O   LIG d   1      11.422  13.249  -7.139  0.00  0.00    -0.436 OA
BRANCH  30  33
ATOM     33  O   LIG d   1       9.911  11.248  -7.931  0.00  0.00    -0.195 OA
BRANCH  33  34
ATOM     34  S   LIG d   1      11.252  10.861  -8.538  0.00  0.00     0.005 S 
ATOM     35  O   LIG d   1      11.577  11.871  -9.484  0.00  0.00    -0.345 OA
ATOM     36  O   LIG d   1      12.109  10.529  -7.454  0.00  0.00    -0.345 OA
ATOM     37  O   LIG d   1      11.034   9.578  -9.329  0.00  0.00    -0.268 OA
ENDBRANCH  33  34
ENDBRANCH  30  33
ENDBRANCH  29  30
ENDBRANCH  26  29
ENDBRANCH   7  26
BRANCH   5  38
ATOM     38  O   LIG d   1       7.649  11.465  -3.083  0.00  0.00    -0.386 OA
ATOM     39  H   LIG d   1       7.620  11.377  -4.046  0.00  0.00     0.210 HD
ENDBRANCH   5  38
TORSDOF 9
ENDMDL
MODEL 7
REMARK VINA RESULT:      -5.5      7.368      9.669
REMARK  9 active torsions:
REMARK  status: ('A' for Active; 'I' for Inactive)
REMARK    1  A    between atoms: C_3  and  N_29 
REMARK    2  A    between atoms: N_7  and  C_10 
REMARK    3  A    between atoms: C_12  and  O_28 
REMARK    4  A    between atoms: C_14  and  O_27 
REMARK    5  A    between atoms: C_16  and  C_19 
REMARK    6  A    between atoms: C_19  and  O_20 
REMARK    7  A    between atoms: O_20  and  P_21 
REMARK    8  A    between atoms: P_21  and  O_23 
REMARK    9  A    between atoms: O_23  and  S_24 
ROOT
ATOM      1  C   LIG d   1      11.241   5.215  -4.748  0.00  0.00     0.167 C 
ATOM      2  H   LIG d   1      11.652   4.510  -5.471  0.00  0.00     0.087 H 
ATOM      3  C   LIG d   1      10.382   4.476  -3.692  0.00  0.00     0.129 C 
ATOM      4  H   LIG d   1       9.700   5.165  -3.193  0.00  0.00     0.067 H 
ATOM      5  C   LIG d   1      11.459   3.957  -2.706  0.00  0.00     0.114 C 
ATOM      6  H   LIG d   1      11.699   2.915  -2.918  0.00  0.00     0.065 H 
ATOM      7  C   LIG d   1      12.681   4.858  -2.970  0.00  0.00     0.113 C 
ATOM      8  H   LIG d   1      13.513   4.258  -3.336  0.00  0.00     0.065 H 
ATOM      9  O   LIG d   1      12.295   5.818  -3.968  0.00  0.00    -0.346 OA
ENDROOT
BRANCH   1  10
ATOM     10  N   LIG d   1      10.449   6.244  -5.429  0.00  0.00    -0.285 N 
ATOM     11  C   LIG d   1      10.417   6.482  -6.779  0.00  0.00     0.167 A 
ATOM     12  C   LIG d   1       9.531   7.557  -6.962  0.00  0.00     0.147 A 
ATOM     13  N   LIG d   1      11.010   5.946  -7.842  0.00  0.00    -0.216 NA
ATOM     14  C   LIG d   1       9.312   8.021  -8.270  0.00  0.00     0.147 A 
ATOM     15  N   LIG d   1       9.073   7.909  -5.736  0.00  0.00    -0.231 NA
ATOM     16  N   LIG d   1       9.949   7.421  -9.270  0.00  0.00    -0.219 NA
ATOM     17  C   LIG d   1      10.774   6.414  -9.049  0.00  0.00     0.120 A 
ATOM     18  H   LIG d   1      11.272   5.955  -9.890  0.00  0.00     0.105 H 
ATOM     19  C   LIG d   1       9.608   7.137  -4.836  0.00  0.00     0.100 A 
ATOM     20  H   LIG d   1       9.418   7.199  -3.774  0.00  0.00     0.103 H 
BRANCH  14  21
ATOM     21  N   LIG d   1       8.450   9.076  -8.512  0.00  0.00    -0.341 NA
ATOM     22  H   LIG d   1       8.978   9.908  -8.677  0.00  0.00     0.144 HD
ATOM     23  H   LIG d   1       7.802   9.337  -7.839  0.00  0.00     0.144 HD
ENDBRANCH  14  21
ENDBRANCH   1  10
BRANCH   3  24
ATOM     24  O   LIG d   1       9.664   3.392  -4.285  0.00  0.00    -0.385 OA
ATOM     25  H   LIG d   1       9.137   2.879  -3.658  0.00  0.00     0.210 HD
ENDBRANCH   3  24
BRANCH   7  26
ATOM     26  C   LIG d   1      13.085   5.578  -1.683  0.00  0.00     0.084 C 
ATOM     27  H   LIG d   1      13.145   4.857  -0.867  0.00  0.00     0.059 H 
ATOM     28  H   LIG d   1      14.056   6.052  -1.821  0.00  0.00     0.059 H 
BRANCH  26  29
ATOM     29  O   LIG d   1      12.110   6.574  -1.368  0.00  0.00    -0.324 OA
BRANCH  29  30
ATOM     30  P   LIG d   1      11.902   7.160   0.118  0.00  0.00     0.238 P 
ATOM     31  O   LIG d   1      11.699   6.041   1.065  0.00  0.00    -0.516 OA
ATOM     32  O   LIG d   1      13.206   8.000   0.550  0.00  0.00    -0.436 OA
BRANCH  30  33
ATOM     33  O   LIG d   1      10.612   8.122   0.139  0.00  0.00    -0.195 OA
BRANCH  33  34
ATOM     34  S   LIG d   1       9.704   7.966  -1.073  0.00  0.00     0.005 S 
ATOM     35  O   LIG d   1      10.264   8.765  -2.106  0.00  0.00    -0.345 OA
ATOM     36  O   LIG d   1       9.471   6.573  -1.229  0.00  0.00    -0.345 OA
ATOM     37  O   LIG d   1       8.364   8.594  -0.715  0.00  0.00    -0.268 OA
ENDBRANCH  33  34
ENDBRANCH  30  33
ENDBRANCH  29  30
ENDBRANCH  26  29
ENDBRANCH   7  26
BRANCH   5  38
ATOM     38  O   LIG d   1      11.015   4.101  -1.355  0.00  0.00    -0.386 OA
ATOM     39  H   LIG d   1      11.522   4.744  -0.840  0.00  0.00     0.210 HD
ENDBRANCH   5  38
TORSDOF 9
ENDMDL
MODEL 8
REMARK VINA RESULT:      -5.5      4.049      5.819
REMARK  9 active torsions:
REMARK  status: ('A' for Active; 'I' for Inactive)
REMARK    1  A    between atoms: C_3  and  N_29 
REMARK    2  A    between atoms: N_7  and  C_10 
REMARK    3  A    between atoms: C_12  and  O_28 
REMARK    4  A    between atoms: C_14  and  O_27 
REMARK    5  A    between atoms: C_16  and  C_19 
REMARK    6  A    between atoms: C_19  and  O_20 
REMARK    7  A    between atoms: O_20  and  P_21 
REMARK    8  A    between atoms: P_21  and  O_23 
REMARK    9  A    between atoms: O_23  and  S_24 
ROOT
ATOM      1  C   LIG d   1       2.958   0.120  -7.277  0.00  0.00     0.167 C 
ATOM      2  H   LIG d   1       1.902   0.039  -7.538  0.00  0.00     0.087 H 
ATOM      3  C   LIG d   1       3.795  -0.925  -8.056  0.00  0.00     0.129 C 
ATOM      4  H   LIG d   1       4.755  -1.095  -7.569  0.00  0.00     0.067 H 
ATOM      5  C   LIG d   1       3.988  -0.227  -9.426  0.00  0.00     0.114 C 
ATOM      6  H   LIG d   1       3.260  -0.596 -10.148  0.00  0.00     0.065 H 
ATOM      7  C   LIG d   1       3.745   1.266  -9.129  0.00  0.00     0.113 C 
ATOM      8  H   LIG d   1       2.879   1.620  -9.689  0.00  0.00     0.065 H 
ATOM      9  O   LIG d   1       3.495   1.385  -7.718  0.00  0.00    -0.346 OA
ENDROOT
BRANCH   1  10
ATOM     10  N   LIG d   1       3.144  -0.043  -5.832  0.00  0.00    -0.285 N 
ATOM     11  C   LIG d   1       4.034  -0.887  -5.219  0.00  0.00     0.167 A 
ATOM     12  C   LIG d   1       3.851  -0.707  -3.837  0.00  0.00     0.147 A 
ATOM     13  N   LIG d   1       4.944  -1.760  -5.641  0.00  0.00    -0.216 NA
ATOM     14  C   LIG d   1       4.644  -1.465  -2.959  0.00  0.00     0.147 A 
ATOM     15  N   LIG d   1       2.879   0.224  -3.682  0.00  0.00    -0.231 NA
ATOM     16  N   LIG d   1       5.527  -2.312  -3.474  0.00  0.00    -0.219 NA
ATOM     17  C   LIG d   1       5.663  -2.448  -4.781  0.00  0.00     0.120 A 
ATOM     18  H   LIG d   1       6.394  -3.149  -5.158  0.00  0.00     0.105 H 
ATOM     19  C   LIG d   1       2.465   0.617  -4.852  0.00  0.00     0.100 A 
ATOM     20  H   LIG d   1       1.694   1.355  -5.021  0.00  0.00     0.103 H 
BRANCH  14  21
ATOM     21  N   LIG d   1       4.508  -1.330  -1.588  0.00  0.00    -0.341 NA
ATOM     22  H   LIG d   1       5.263  -0.781  -1.230  0.00  0.00     0.144 HD
ATOM     23  H   LIG d   1       4.500  -2.117  -1.022  0.00  0.00     0.144 HD
ENDBRANCH  14  21
ENDBRANCH   1  10
BRANCH   3  24
ATOM     24  O   LIG d   1       3.074  -2.151  -8.201  0.00  0.00    -0.385 OA
ATOM     25  H   LIG d   1       3.242  -2.609  -9.036  0.00  0.00     0.210 HD
ENDBRANCH   3  24
BRANCH   7  26
ATOM     26  C   LIG d   1       4.981   2.081  -9.510  0.00  0.00     0.084 C 
ATOM     27  H   LIG d   1       5.374   1.721 -10.462  0.00  0.00     0.059 H 
ATOM     28  H   LIG d   1       4.709   3.131  -9.605  0.00  0.00     0.059 H 
BRANCH  26  29
ATOM     29  O   LIG d   1       5.979   1.937  -8.498  0.00  0.00    -0.324 OA
BRANCH  29  30
ATOM     30  P   LIG d   1       7.558   2.009  -8.804  0.00  0.00     0.238 P 
ATOM     31  O   LIG d   1       7.892   1.065  -9.893  0.00  0.00    -0.516 OA
ATOM     32  O   LIG d   1       7.948   3.505  -9.252  0.00  0.00    -0.436 OA
BRANCH  30  33
ATOM     33  O   LIG d   1       8.380   1.613  -7.479  0.00  0.00    -0.195 OA
BRANCH  33  34
ATOM     34  S   LIG d   1       7.763   0.469  -6.687  0.00  0.00     0.005 S 
ATOM     35  O   LIG d   1       6.885   1.057  -5.737  0.00  0.00    -0.345 OA
ATOM     36  O   LIG d   1       7.323  -0.492  -7.638  0.00  0.00    -0.345 OA
ATOM     37  O   LIG d   1       8.885  -0.187  -5.895  0.00  0.00    -0.268 OA
ENDBRANCH  33  34
ENDBRANCH  30  33
ENDBRANCH  29  30
ENDBRANCH  26  29
ENDBRANCH   7  26
BRANCH   5  38
ATOM     38  O   LIG d   1       5.317  -0.429  -9.910  0.00  0.00    -0.386 OA
ATOM     39  H   LIG d   1       5.993   0.067  -9.427  0.00  0.00     0.210 HD
ENDBRANCH   5  38
TORSDOF 9
ENDMDL
MODEL 9
REMARK VINA RESULT:      -5.5      4.794      7.044
REMARK  9 active torsions:
REMARK  status: ('A' for Active; 'I' for Inactive)
REMARK    1  A    between atoms: C_3  and  N_29 
REMARK    2  A    between atoms: N_7  and  C_10 
REMARK    3  A    between atoms: C_12  and  O_28 
REMARK    4  A    between atoms: C_14  and  O_27 
REMARK    5  A    between atoms: C_16  and  C_19 
REMARK    6  A    between atoms: C_19  and  O_20 
REMARK    7  A    between atoms: O_20  and  P_21 
REMARK    8  A    between atoms: P_21  and  O_23 
REMARK    9  A    between atoms: O_23  and  S_24 
ROOT
ATOM      1  C   LIG d   1       9.873   5.049  -2.654  0.00  0.00     0.167 C 
ATOM      2  H   LIG d   1       9.095   4.989  -1.893  0.00  0.00     0.087 H 
ATOM      3  C   LIG d   1      11.130   4.258  -2.213  0.00  0.00     0.129 C 
ATOM      4  H   LIG d   1      12.010   4.583  -2.769  0.00  0.00     0.067 H 
ATOM      5  C   LIG d   1      10.746   2.804  -2.593  0.00  0.00     0.114 C 
ATOM      6  H   LIG d   1      10.373   2.269  -1.720  0.00  0.00     0.065 H 
ATOM      7  C   LIG d   1       9.631   2.969  -3.643  0.00  0.00     0.113 C 
ATOM      8  H   LIG d   1       8.703   2.534  -3.272  0.00  0.00     0.065 H 
ATOM      9  O   LIG d   1       9.456   4.379  -3.863  0.00  0.00    -0.346 OA
ENDROOT
BRANCH   1  10
ATOM     10  N   LIG d   1      10.214   6.447  -2.931  0.00  0.00    -0.285 N 
ATOM     11  C   LIG d   1       9.792   7.541  -2.220  0.00  0.00     0.167 A 
ATOM     12  C   LIG d   1      10.363   8.658  -2.853  0.00  0.00     0.147 A 
ATOM     13  N   LIG d   1       9.019   7.728  -1.154  0.00  0.00    -0.216 NA
ATOM     14  C   LIG d   1      10.087   9.932  -2.326  0.00  0.00     0.147 A 
ATOM     15  N   LIG d   1      11.094   8.196  -3.895  0.00  0.00    -0.231 NA
ATOM     16  N   LIG d   1       9.303  10.019  -1.257  0.00  0.00    -0.219 NA
ATOM     17  C   LIG d   1       8.789   8.940  -0.697  0.00  0.00     0.120 A 
ATOM     18  H   LIG d   1       8.156   9.056   0.171  0.00  0.00     0.105 H 
ATOM     19  C   LIG d   1      11.010   6.897  -3.941  0.00  0.00     0.100 A 
ATOM     20  H   LIG d   1      11.497   6.271  -4.674  0.00  0.00     0.103 H 
BRANCH  14  21
ATOM     21  N   LIG d   1      10.622  11.069  -2.907  0.00  0.00    -0.341 NA
ATOM     22  H   LIG d   1      10.143  11.263  -3.763  0.00  0.00     0.144 HD
ATOM     23  H   LIG d   1      11.560  11.093  -3.151  0.00  0.00     0.144 HD
ENDBRANCH  14  21
ENDBRANCH   1  10
BRANCH   3  24
ATOM     24  O   LIG d   1      11.344   4.381  -0.805  0.00  0.00    -0.385 OA
ATOM     25  H   LIG d   1      10.707   4.955  -0.360  0.00  0.00     0.210 HD
ENDBRANCH   3  24
BRANCH   7  26
ATOM     26  C   LIG d   1      10.041   2.286  -4.948  0.00  0.00     0.084 C 
ATOM     27  H   LIG d   1       9.536   2.769  -5.786  0.00  0.00     0.059 H 
ATOM     28  H   LIG d   1      11.119   2.368  -5.079  0.00  0.00     0.059 H 
BRANCH  26  29
ATOM     29  O   LIG d   1       9.671   0.906  -4.902  0.00  0.00    -0.324 OA
BRANCH  29  30
ATOM     30  P   LIG d   1       8.174   0.388  -5.193  0.00  0.00     0.238 P 
ATOM     31  O   LIG d   1       7.380   1.484  -5.791  0.00  0.00    -0.516 OA
ATOM     32  O   LIG d   1       8.228  -0.855  -6.214  0.00  0.00    -0.436 OA
BRANCH  30  33
ATOM     33  O   LIG d   1       7.490  -0.079  -3.813  0.00  0.00    -0.195 OA
BRANCH  33  34
ATOM     34  S   LIG d   1       6.058   0.404  -3.638  0.00  0.00     0.005 S 
ATOM     35  O   LIG d   1       6.134   1.737  -3.152  0.00  0.00    -0.345 OA
ATOM     36  O   LIG d   1       5.367   0.068  -4.834  0.00  0.00    -0.345 OA
ATOM     37  O   LIG d   1       5.434  -0.429  -2.528  0.00  0.00    -0.268 OA
ENDBRANCH  33  34
ENDBRANCH  30  33
ENDBRANCH  29  30
ENDBRANCH  26  29
ENDBRANCH   7  26
BRANCH   5  38
ATOM     38  O   LIG d   1      11.867   2.120  -3.156  0.00  0.00    -0.386 OA
ATOM     39  H   LIG d   1      11.967   1.208  -2.849  0.00  0.00     0.210 HD
ENDBRANCH   5  38
TORSDOF 9
ENDMDL
MODEL 10
REMARK VINA RESULT:      -5.5      8.715     11.044
REMARK  9 active torsions:
REMARK  status: ('A' for Active; 'I' for Inactive)
REMARK    1  A    between atoms: C_3  and  N_29 
REMARK    2  A    between atoms: N_7  and  C_10 
REMARK    3  A    between atoms: C_12  and  O_28 
REMARK    4  A    between atoms: C_14  and  O_27 
REMARK    5  A    between atoms: C_16  and  C_19 
REMARK    6  A    between atoms: C_19  and  O_20 
REMARK    7  A    between atoms: O_20  and  P_21 
REMARK    8  A    between atoms: P_21  and  O_23 
REMARK    9  A    between atoms: O_23  and  S_24 
ROOT
ATOM      1  C   LIG d   1      10.176  10.732  -2.417  0.00  0.00     0.167 C 
ATOM      2  H   LIG d   1      10.166  11.463  -1.608  0.00  0.00     0.087 H 
ATOM      3  C   LIG d   1       8.948  10.923  -3.341  0.00  0.00     0.129 C 
ATOM      4  H   LIG d   1       8.753  10.021  -3.921  0.00  0.00     0.067 H 
ATOM      5  C   LIG d   1       9.414  12.080  -4.262  0.00  0.00     0.114 C 
ATOM      6  H   LIG d   1       9.019  13.032  -3.907  0.00  0.00     0.065 H 
ATOM      7  C   LIG d   1      10.951  12.058  -4.150  0.00  0.00     0.113 C 
ATOM      8  H   LIG d   1      11.306  12.993  -3.717  0.00  0.00     0.065 H 
ATOM      9  O   LIG d   1      11.301  10.958  -3.293  0.00  0.00    -0.346 OA
ENDROOT
BRANCH   1  10
ATOM     10  N   LIG d   1      10.209   9.370  -1.877  0.00  0.00    -0.285 N 
ATOM     11  C   LIG d   1      10.669   8.998  -0.639  0.00  0.00     0.167 A 
ATOM     12  C   LIG d   1      10.509   7.604  -0.569  0.00  0.00     0.147 A 
ATOM     13  N   LIG d   1      11.189   9.642   0.401  0.00  0.00    -0.216 NA
ATOM     14  C   LIG d   1      10.911   6.948   0.607  0.00  0.00     0.147 A 
ATOM     15  N   LIG d   1       9.965   7.205  -1.744  0.00  0.00    -0.231 NA
ATOM     16  N   LIG d   1      11.421   7.676   1.595  0.00  0.00    -0.219 NA
ATOM     17  C   LIG d   1      11.552   8.985   1.483  0.00  0.00     0.120 A 
ATOM     18  H   LIG d   1      11.972   9.539   2.310  0.00  0.00     0.105 H 
ATOM     19  C   LIG d   1       9.785   8.241  -2.512  0.00  0.00     0.100 A 
ATOM     20  H   LIG d   1       9.367   8.209  -3.507  0.00  0.00     0.103 H 
BRANCH  14  21
ATOM     21  N   LIG d   1      10.778   5.577   0.734  0.00  0.00    -0.341 NA
ATOM     22  H   LIG d   1      10.397   5.360   1.632  0.00  0.00     0.144 HD
ATOM     23  H   LIG d   1      11.558   5.005   0.665  0.00  0.00     0.144 HD
ENDBRANCH  14  21
ENDBRANCH   1  10
BRANCH   3  24
ATOM     24  O   LIG d   1       7.794  11.301  -2.586  0.00  0.00    -0.385 OA
ATOM     25  H   LIG d   1       7.718  10.853  -1.733  0.00  0.00     0.210 HD
ENDBRANCH   3  24
BRANCH   7  26
ATOM     26  C   LIG d   1      11.570  11.858  -5.534  0.00  0.00     0.084 C 
ATOM     27  H   LIG d   1      11.059  12.495  -6.257  0.00  0.00     0.059 H 
ATOM     28  H   LIG d   1      12.626  12.121  -5.501  0.00  0.00     0.059 H 
BRANCH  26  29
ATOM     29  O   LIG d   1      11.433  10.490  -5.925  0.00  0.00    -0.324 OA
BRANCH  29  30
ATOM     30  P   LIG d   1      11.313  10.024  -7.462  0.00  0.00     0.238 P 
ATOM     31  O   LIG d   1      10.222  10.774  -8.122  0.00  0.00    -0.516 OA
ATOM     32  O   LIG d   1      12.702  10.319  -8.220  0.00  0.00    -0.436 OA
BRANCH  30  33
ATOM     33  O   LIG d   1      10.993   8.448  -7.520  0.00  0.00    -0.195 OA
BRANCH  33  34
ATOM     34  S   LIG d   1       9.561   8.093  -7.147  0.00  0.00     0.005 S 
ATOM     35  O   LIG d   1       9.249   8.839  -5.978  0.00  0.00    -0.345 OA
ATOM     36  O   LIG d   1       8.794   8.191  -8.339  0.00  0.00    -0.345 OA
ATOM     37  O   LIG d   1       9.552   6.626  -6.742  0.00  0.00    -0.268 OA
ENDBRANCH  33  34
ENDBRANCH  30  33
ENDBRANCH  29  30
ENDBRANCH  26  29
ENDBRANCH   7  26
BRANCH   5  38
ATOM     38  O   LIG d   1       9.007  11.843  -5.611  0.00  0.00    -0.386 OA
ATOM     39  H   LIG d   1       9.634  12.164  -6.274  0.00  0.00     0.210 HD
ENDBRANCH   5  38
TORSDOF 9
ENDMDL
