MODEL 1
REMARK VINA RESULT:      -4.6      0.000      0.000
REMARK  4 active torsions:
REMARK  status: ('A' for Active; 'I' for Inactive)
REMARK    1  A    between atoms: C_1  and  C_2 
REMARK    2  A    between atoms: C_2  and  C_4 
REMARK    3  A    between atoms: C_2  and  O_11 
REMARK    4  A    between atoms: C_7  and  O_10 
ROOT
ATOM      1  C   LIG d   1       6.216  -1.265  -3.130  0.00  0.00    -0.019 A 
ATOM      2  C   LIG d   1       6.464   0.088  -3.281  0.00  0.00    -0.053 A 
ATOM      3  C   LIG d   1       5.517   1.013  -2.885  0.00  0.00    -0.020 A 
ATOM      4  C   LIG d   1       4.322   0.585  -2.326  0.00  0.00     0.117 A 
ATOM      5  C   LIG d   1       4.077  -0.772  -2.172  0.00  0.00    -0.020 A 
ATOM      6  C   LIG d   1       5.025  -1.694  -2.575  0.00  0.00    -0.053 A 
ATOM      7  H   LIG d   1       7.397   0.421  -3.711  0.00  0.00     0.062 H 
ATOM      8  H   LIG d   1       5.710   2.068  -3.005  0.00  0.00     0.065 H 
ATOM      9  H   LIG d   1       3.147  -1.108  -1.737  0.00  0.00     0.065 H 
ATOM     10  H   LIG d   1       4.835  -2.750  -2.454  0.00  0.00     0.062 H 
ENDROOT
BRANCH   1  11
ATOM     11  C   LIG d   1       7.248  -2.272  -3.568  0.00  0.00     0.077 C 
ATOM     12  H   LIG d   1       7.584  -2.845  -2.705  0.00  0.00     0.064 H 
BRANCH  11  13
ATOM     13  C   LIG d   1       6.631  -3.218  -4.601  0.00  0.00    -0.035 C 
ATOM     14  H   LIG d   1       6.889  -4.247  -4.351  0.00  0.00     0.026 H 
ATOM     15  H   LIG d   1       5.547  -3.104  -4.596  0.00  0.00     0.026 H 
ATOM     16  H   LIG d   1       7.017  -2.976  -5.591  0.00  0.00     0.026 H 
ENDBRANCH  11  13
BRANCH  11  17
ATOM     17  O   LIG d   1       8.361  -1.591  -4.151  0.00  0.00    -0.388 OA
ATOM     18  H   LIG d   1       8.311  -0.627  -4.085  0.00  0.00     0.210 HD
ENDBRANCH  11  17
ENDBRANCH   1  11
BRANCH   4  19
ATOM     19  O   LIG d   1       3.391   1.493  -1.931  0.00  0.00    -0.507 OA
ATOM     20  H   LIG d   1       2.965   1.277  -1.090  0.00  0.00     0.292 HD
ENDBRANCH   4  19
TORSDOF 4
ENDMDL
MODEL 2
REMARK VINA RESULT:      -4.4      1.914      2.497
REMARK  4 active torsions:
REMARK  status: ('A' for Active; 'I' for Inactive)
REMARK    1  A    between atoms: C_1  and  C_2 
REMARK    2  A    between atoms: C_2  and  C_4 
REMARK    3  A    between atoms: C_2  and  O_11 
REMARK    4  A    between atoms: C_7  and  O_10 
ROOT
ATOM      1  C   LIG d   1       5.071  -1.769  -4.102  0.00  0.00    -0.019 A 
ATOM      2  C   LIG d   1       4.407  -2.038  -2.918  0.00  0.00    -0.053 A 
ATOM      3  C   LIG d   1       4.302  -1.062  -1.947  0.00  0.00    -0.020 A 
ATOM      4  C   LIG d   1       4.852   0.193  -2.164  0.00  0.00     0.117 A 
ATOM      5  C   LIG d   1       5.513   0.462  -3.354  0.00  0.00    -0.020 A 
ATOM      6  C   LIG d   1       5.621  -0.520  -4.320  0.00  0.00    -0.053 A 
ATOM      7  H   LIG d   1       3.975  -3.014  -2.752  0.00  0.00     0.062 H 
ATOM      8  H   LIG d   1       3.787  -1.273  -1.022  0.00  0.00     0.065 H 
ATOM      9  H   LIG d   1       5.943   1.438  -3.525  0.00  0.00     0.065 H 
ATOM     10  H   LIG d   1       6.135  -0.311  -5.246  0.00  0.00     0.062 H 
ENDROOT
BRANCH   1  11
ATOM     11  C   LIG d   1       5.190  -2.839  -5.157  0.00  0.00     0.077 C 
ATOM     12  H   LIG d   1       5.315  -2.372  -6.134  0.00  0.00     0.064 H 
BRANCH  11  13
ATOM     13  C   LIG d   1       6.402  -3.722  -4.854  0.00  0.00    -0.035 C 
ATOM     14  H   LIG d   1       6.083  -4.761  -4.770  0.00  0.00     0.026 H 
ATOM     15  H   LIG d   1       7.130  -3.630  -5.660  0.00  0.00     0.026 H 
ATOM     16  H   LIG d   1       6.857  -3.405  -3.916  0.00  0.00     0.026 H 
ENDBRANCH  11  13
BRANCH  11  17
ATOM     17  O   LIG d   1       4.006  -3.639  -5.160  0.00  0.00    -0.388 OA
ATOM     18  H   LIG d   1       4.048  -4.401  -5.754  0.00  0.00     0.210 HD
ENDBRANCH  11  17
ENDBRANCH   1  11
BRANCH   4  19
ATOM     19  O   LIG d   1       4.745   1.157  -1.213  0.00  0.00    -0.507 OA
ATOM     20  H   LIG d   1       4.401   1.999  -1.544  0.00  0.00     0.292 HD
ENDBRANCH   4  19
TORSDOF 4
ENDMDL
MODEL 3
REMARK VINA RESULT:      -4.4      2.280      4.326
REMARK  4 active torsions:
REMARK  status: ('A' for Active; 'I' for Inactive)
REMARK    1  A    between atoms: C_1  and  C_2 
REMARK    2  A    between atoms: C_2  and  C_4 
REMARK    3  A    between atoms: C_2  and  O_11 
REMARK    4  A    between atoms: C_7  and  O_10 
ROOT
ATOM      1  C   LIG d   1       3.908  -0.482  -3.361  0.00  0.00    -0.019 A 
ATOM      2  C   LIG d   1       4.236  -0.472  -4.705  0.00  0.00    -0.053 A 
ATOM      3  C   LIG d   1       4.603  -1.645  -5.335  0.00  0.00    -0.020 A 
ATOM      4  C   LIG d   1       4.631  -2.835  -4.623  0.00  0.00     0.117 A 
ATOM      5  C   LIG d   1       4.297  -2.843  -3.277  0.00  0.00    -0.020 A 
ATOM      6  C   LIG d   1       3.936  -1.666  -2.649  0.00  0.00    -0.053 A 
ATOM      7  H   LIG d   1       4.209   0.454  -5.260  0.00  0.00     0.062 H 
ATOM      8  H   LIG d   1       4.862  -1.637  -6.384  0.00  0.00     0.065 H 
ATOM      9  H   LIG d   1       4.318  -3.768  -2.720  0.00  0.00     0.065 H 
ATOM     10  H   LIG d   1       3.676  -1.673  -1.601  0.00  0.00     0.062 H 
ENDROOT
BRANCH   1  11
ATOM     11  C   LIG d   1       3.514   0.800  -2.674  0.00  0.00     0.077 C 
ATOM     12  H   LIG d   1       2.526   0.684  -2.228  0.00  0.00     0.064 H 
BRANCH  11  13
ATOM     13  C   LIG d   1       4.533   1.127  -1.580  0.00  0.00    -0.035 C 
ATOM     14  H   LIG d   1       4.172   1.966  -0.986  0.00  0.00     0.026 H 
ATOM     15  H   LIG d   1       4.667   0.257  -0.937  0.00  0.00     0.026 H 
ATOM     16  H   LIG d   1       5.487   1.389  -2.039  0.00  0.00     0.026 H 
ENDBRANCH  11  13
BRANCH  11  17
ATOM     17  O   LIG d   1       3.484   1.863  -3.629  0.00  0.00    -0.388 OA
ATOM     18  H   LIG d   1       3.964   2.655  -3.351  0.00  0.00     0.210 HD
ENDBRANCH  11  17
ENDBRANCH   1  11
BRANCH   4  19
ATOM     19  O   LIG d   1       4.986  -3.991  -5.243  0.00  0.00    -0.507 OA
ATOM     20  H   LIG d   1       4.906  -3.961  -6.206  0.00  0.00     0.292 HD
ENDBRANCH   4  19
TORSDOF 4
ENDMDL
MODEL 4
REMARK VINA RESULT:      -4.3      1.858      3.712
REMARK  4 active torsions:
REMARK  status: ('A' for Active; 'I' for Inactive)
REMARK    1  A    between atoms: C_1  and  C_2 
REMARK    2  A    between atoms: C_2  and  C_4 
REMARK    3  A    between atoms: C_2  and  O_11 
REMARK    4  A    between atoms: C_7  and  O_10 
ROOT
ATOM      1  C   LIG d   1       5.053  -0.819  -2.846  0.00  0.00    -0.019 A 
ATOM      2  C   LIG d   1       6.064  -1.659  -3.277  0.00  0.00    -0.053 A 
ATOM      3  C   LIG d   1       7.261  -1.130  -3.718  0.00  0.00    -0.020 A 
ATOM      4  C   LIG d   1       7.453   0.244  -3.719  0.00  0.00     0.117 A 
ATOM      5  C   LIG d   1       6.439   1.084  -3.281  0.00  0.00    -0.020 A 
ATOM      6  C   LIG d   1       5.241   0.550  -2.846  0.00  0.00    -0.053 A 
ATOM      7  H   LIG d   1       5.916  -2.729  -3.271  0.00  0.00     0.062 H 
ATOM      8  H   LIG d   1       8.049  -1.786  -4.057  0.00  0.00     0.065 H 
ATOM      9  H   LIG d   1       6.586   2.154  -3.281  0.00  0.00     0.065 H 
ATOM     10  H   LIG d   1       4.452   1.204  -2.505  0.00  0.00     0.062 H 
ENDROOT
BRANCH   1  11
ATOM     11  C   LIG d   1       3.745  -1.399  -2.370  0.00  0.00     0.077 C 
ATOM     12  H   LIG d   1       3.638  -1.222  -1.300  0.00  0.00     0.064 H 
BRANCH  11  13
ATOM     13  C   LIG d   1       2.589  -0.731  -3.117  0.00  0.00    -0.035 C 
ATOM     14  H   LIG d   1       2.753   0.346  -3.152  0.00  0.00     0.026 H 
ATOM     15  H   LIG d   1       2.538  -1.124  -4.133  0.00  0.00     0.026 H 
ATOM     16  H   LIG d   1       1.653  -0.940  -2.599  0.00  0.00     0.026 H 
ENDBRANCH  11  13
BRANCH  11  17
ATOM     17  O   LIG d   1       3.727  -2.806  -2.625  0.00  0.00    -0.388 OA
ATOM     18  H   LIG d   1       2.949  -3.107  -3.114  0.00  0.00     0.210 HD
ENDBRANCH  11  17
ENDBRANCH   1  11
BRANCH   4  19
ATOM     19  O   LIG d   1       8.632   0.767  -4.147  0.00  0.00    -0.507 OA
ATOM     20  H   LIG d   1       9.282   0.102  -4.415  0.00  0.00     0.292 HD
ENDBRANCH   4  19
TORSDOF 4
ENDMDL
MODEL 5
REMARK VINA RESULT:      -4.3      3.164      4.054
REMARK  4 active torsions:
REMARK  status: ('A' for Active; 'I' for Inactive)
REMARK    1  A    between atoms: C_1  and  C_2 
REMARK    2  A    between atoms: C_2  and  C_4 
REMARK    3  A    between atoms: C_2  and  O_11 
REMARK    4  A    between atoms: C_7  and  O_10 
ROOT
ATOM      1  C   LIG d   1       4.262  -0.193  -3.797  0.00  0.00    -0.019 A 
ATOM      2  C   LIG d   1       4.946  -0.673  -4.900  0.00  0.00    -0.053 A 
ATOM      3  C   LIG d   1       4.381  -0.580  -6.157  0.00  0.00    -0.020 A 
ATOM      4  C   LIG d   1       3.133   0.003  -6.315  0.00  0.00     0.117 A 
ATOM      5  C   LIG d   1       2.451   0.488  -5.208  0.00  0.00    -0.020 A 
ATOM      6  C   LIG d   1       3.017   0.388  -3.951  0.00  0.00    -0.053 A 
ATOM      7  H   LIG d   1       5.920  -1.122  -4.777  0.00  0.00     0.062 H 
ATOM      8  H   LIG d   1       4.914  -0.958  -7.017  0.00  0.00     0.065 H 
ATOM      9  H   LIG d   1       1.479   0.942  -5.328  0.00  0.00     0.065 H 
ATOM     10  H   LIG d   1       2.487   0.765  -3.090  0.00  0.00     0.062 H 
ENDROOT
BRANCH   1  11
ATOM     11  C   LIG d   1       4.877  -0.301  -2.425  0.00  0.00     0.077 C 
ATOM     12  H   LIG d   1       5.959  -0.399  -2.520  0.00  0.00     0.064 H 
BRANCH  11  13
ATOM     13  C   LIG d   1       4.548   0.957  -1.618  0.00  0.00    -0.035 C 
ATOM     14  H   LIG d   1       4.222   0.672  -0.618  0.00  0.00     0.026 H 
ATOM     15  H   LIG d   1       5.435   1.585  -1.546  0.00  0.00     0.026 H 
ATOM     16  H   LIG d   1       3.751   1.510  -2.116  0.00  0.00     0.026 H 
ENDBRANCH  11  13
BRANCH  11  17
ATOM     17  O   LIG d   1       4.351  -1.448  -1.755  0.00  0.00    -0.388 OA
ATOM     18  H   LIG d   1       4.999  -1.916  -1.210  0.00  0.00     0.210 HD
ENDBRANCH  11  17
ENDBRANCH   1  11
BRANCH   4  19
ATOM     19  O   LIG d   1       2.578   0.100  -7.552  0.00  0.00    -0.507 OA
ATOM     20  H   LIG d   1       2.026  -0.656  -7.795  0.00  0.00     0.292 HD
ENDBRANCH   4  19
TORSDOF 4
ENDMDL
MODEL 6
REMARK VINA RESULT:      -4.2      1.303      4.300
REMARK  4 active torsions:
REMARK  status: ('A' for Active; 'I' for Inactive)
REMARK    1  A    between atoms: C_1  and  C_2 
REMARK    2  A    between atoms: C_2  and  C_4 
REMARK    3  A    between atoms: C_2  and  O_11 
REMARK    4  A    between atoms: C_7  and  O_10 
ROOT
ATOM      1  C   LIG d   1       4.880  -1.392  -2.908  0.00  0.00    -0.019 A 
ATOM      2  C   LIG d   1       6.237  -1.137  -3.003  0.00  0.00    -0.053 A 
ATOM      3  C   LIG d   1       7.041  -1.954  -3.773  0.00  0.00    -0.020 A 
ATOM      4  C   LIG d   1       6.486  -3.024  -4.460  0.00  0.00     0.117 A 
ATOM      5  C   LIG d   1       5.125  -3.274  -4.367  0.00  0.00    -0.020 A 
ATOM      6  C   LIG d   1       4.325  -2.457  -3.590  0.00  0.00    -0.053 A 
ATOM      7  H   LIG d   1       6.667  -0.301  -2.472  0.00  0.00     0.062 H 
ATOM      8  H   LIG d   1       8.101  -1.757  -3.844  0.00  0.00     0.065 H 
ATOM      9  H   LIG d   1       4.691  -4.107  -4.900  0.00  0.00     0.065 H 
ATOM     10  H   LIG d   1       3.265  -2.652  -3.518  0.00  0.00     0.062 H 
ENDROOT
BRANCH   1  11
ATOM     11  C   LIG d   1       4.006  -0.502  -2.062  0.00  0.00     0.077 C 
ATOM     12  H   LIG d   1       3.815  -0.986  -1.104  0.00  0.00     0.064 H 
BRANCH  11  13
ATOM     13  C   LIG d   1       4.713   0.834  -1.827  0.00  0.00    -0.035 C 
ATOM     14  H   LIG d   1       4.188   1.392  -1.052  0.00  0.00     0.026 H 
ATOM     15  H   LIG d   1       5.740   0.651  -1.511  0.00  0.00     0.026 H 
ATOM     16  H   LIG d   1       4.716   1.411  -2.752  0.00  0.00     0.026 H 
ENDBRANCH  11  13
BRANCH  11  17
ATOM     17  O   LIG d   1       2.766  -0.273  -2.735  0.00  0.00    -0.388 OA
ATOM     18  H   LIG d   1       2.864   0.059  -3.638  0.00  0.00     0.210 HD
ENDBRANCH  11  17
ENDBRANCH   1  11
BRANCH   4  19
ATOM     19  O   LIG d   1       7.275  -3.826  -5.222  0.00  0.00    -0.507 OA
ATOM     20  H   LIG d   1       6.825  -4.203  -5.991  0.00  0.00     0.292 HD
ENDBRANCH   4  19
TORSDOF 4
ENDMDL
MODEL 7
REMARK VINA RESULT:      -4.2      1.872      1.958
REMARK  4 active torsions:
REMARK  status: ('A' for Active; 'I' for Inactive)
REMARK    1  A    between atoms: C_1  and  C_2 
REMARK    2  A    between atoms: C_2  and  C_4 
REMARK    3  A    between atoms: C_2  and  O_11 
REMARK    4  A    between atoms: C_7  and  O_10 
ROOT
ATOM      1  C   LIG d   1       5.469  -1.353  -3.492  0.00  0.00    -0.019 A 
ATOM      2  C   LIG d   1       5.163  -0.703  -4.674  0.00  0.00    -0.053 A 
ATOM      3  C   LIG d   1       3.854  -0.366  -4.959  0.00  0.00    -0.020 A 
ATOM      4  C   LIG d   1       2.848  -0.671  -4.054  0.00  0.00     0.117 A 
ATOM      5  C   LIG d   1       3.158  -1.318  -2.867  0.00  0.00    -0.020 A 
ATOM      6  C   LIG d   1       4.468  -1.658  -2.589  0.00  0.00    -0.053 A 
ATOM      7  H   LIG d   1       5.948  -0.462  -5.376  0.00  0.00     0.062 H 
ATOM      8  H   LIG d   1       3.615   0.138  -5.883  0.00  0.00     0.065 H 
ATOM      9  H   LIG d   1       2.376  -1.557  -2.161  0.00  0.00     0.065 H 
ATOM     10  H   LIG d   1       4.710  -2.162  -1.665  0.00  0.00     0.062 H 
ENDROOT
BRANCH   1  11
ATOM     11  C   LIG d   1       6.897  -1.725  -3.186  0.00  0.00     0.077 C 
ATOM     12  H   LIG d   1       6.979  -2.021  -2.140  0.00  0.00     0.064 H 
BRANCH  11  13
ATOM     13  C   LIG d   1       7.324  -2.890  -4.081  0.00  0.00    -0.035 C 
ATOM     14  H   LIG d   1       8.262  -2.642  -4.578  0.00  0.00     0.026 H 
ATOM     15  H   LIG d   1       7.461  -3.784  -3.473  0.00  0.00     0.026 H 
ATOM     16  H   LIG d   1       6.553  -3.074  -4.830  0.00  0.00     0.026 H 
ENDBRANCH  11  13
BRANCH  11  17
ATOM     17  O   LIG d   1       7.745  -0.601  -3.431  0.00  0.00    -0.388 OA
ATOM     18  H   LIG d   1       8.242  -0.306  -2.655  0.00  0.00     0.210 HD
ENDBRANCH  11  17
ENDBRANCH   1  11
BRANCH   4  19
ATOM     19  O   LIG d   1       1.560  -0.335  -4.329  0.00  0.00    -0.507 OA
ATOM     20  H   LIG d   1       0.914  -1.002  -4.057  0.00  0.00     0.292 HD
ENDBRANCH   4  19
TORSDOF 4
ENDMDL
MODEL 8
REMARK VINA RESULT:      -4.2      3.260      4.550
REMARK  4 active torsions:
REMARK  status: ('A' for Active; 'I' for Inactive)
REMARK    1  A    between atoms: C_1  and  C_2 
REMARK    2  A    between atoms: C_2  and  C_4 
REMARK    3  A    between atoms: C_2  and  O_11 
REMARK    4  A    between atoms: C_7  and  O_10 
ROOT
ATOM      1  C   LIG d   1       3.465  -0.126  -4.067  0.00  0.00    -0.019 A 
ATOM      2  C   LIG d   1       2.515   0.441  -4.897  0.00  0.00    -0.053 A 
ATOM      3  C   LIG d   1       2.685   0.403  -6.268  0.00  0.00    -0.020 A 
ATOM      4  C   LIG d   1       3.804  -0.212  -6.811  0.00  0.00     0.117 A 
ATOM      5  C   LIG d   1       4.752  -0.783  -5.976  0.00  0.00    -0.020 A 
ATOM      6  C   LIG d   1       4.581  -0.738  -4.605  0.00  0.00    -0.053 A 
ATOM      7  H   LIG d   1       1.642   0.915  -4.474  0.00  0.00     0.062 H 
ATOM      8  H   LIG d   1       1.945   0.848  -6.916  0.00  0.00     0.065 H 
ATOM      9  H   LIG d   1       5.624  -1.263  -6.396  0.00  0.00     0.065 H 
ATOM     10  H   LIG d   1       5.319  -1.183  -3.955  0.00  0.00     0.062 H 
ENDROOT
BRANCH   1  11
ATOM     11  C   LIG d   1       3.281  -0.078  -2.571  0.00  0.00     0.077 C 
ATOM     12  H   LIG d   1       2.282  -0.432  -2.318  0.00  0.00     0.064 H 
BRANCH  11  13
ATOM     13  C   LIG d   1       4.325  -0.972  -1.900  0.00  0.00    -0.035 C 
ATOM     14  H   LIG d   1       4.945  -0.371  -1.235  0.00  0.00     0.026 H 
ATOM     15  H   LIG d   1       3.822  -1.748  -1.323  0.00  0.00     0.026 H 
ATOM     16  H   LIG d   1       4.951  -1.435  -2.662  0.00  0.00     0.026 H 
ENDBRANCH  11  13
BRANCH  11  17
ATOM     17  O   LIG d   1       3.440   1.267  -2.114  0.00  0.00    -0.388 OA
ATOM     18  H   LIG d   1       3.486   1.352  -1.152  0.00  0.00     0.210 HD
ENDBRANCH  11  17
ENDBRANCH   1  11
BRANCH   4  19
ATOM     19  O   LIG d   1       3.970  -0.255  -8.159  0.00  0.00    -0.507 OA
ATOM     20  H   LIG d   1       3.539   0.471  -8.631  0.00  0.00     0.292 HD
ENDBRANCH   4  19
TORSDOF 4
ENDMDL
MODEL 9
REMARK VINA RESULT:      -4.1      1.203      4.066
REMARK  4 active torsions:
REMARK  status: ('A' for Active; 'I' for Inactive)
REMARK    1  A    between atoms: C_1  and  C_2 
REMARK    2  A    between atoms: C_2  and  C_4 
REMARK    3  A    between atoms: C_2  and  O_11 
REMARK    4  A    between atoms: C_7  and  O_10 
ROOT
ATOM      1  C   LIG d   1       5.187  -0.442  -2.834  0.00  0.00    -0.019 A 
ATOM      2  C   LIG d   1       6.036   0.581  -3.216  0.00  0.00    -0.053 A 
ATOM      3  C   LIG d   1       7.258   0.287  -3.789  0.00  0.00    -0.020 A 
ATOM      4  C   LIG d   1       7.628  -1.034  -3.991  0.00  0.00     0.117 A 
ATOM      5  C   LIG d   1       6.773  -2.058  -3.612  0.00  0.00    -0.020 A 
ATOM      6  C   LIG d   1       5.553  -1.759  -3.034  0.00  0.00    -0.053 A 
ATOM      7  H   LIG d   1       5.745   1.610  -3.063  0.00  0.00     0.062 H 
ATOM      8  H   LIG d   1       7.923   1.085  -4.084  0.00  0.00     0.065 H 
ATOM      9  H   LIG d   1       7.058  -3.088  -3.768  0.00  0.00     0.065 H 
ATOM     10  H   LIG d   1       4.887  -2.556  -2.739  0.00  0.00     0.062 H 
ENDROOT
BRANCH   1  11
ATOM     11  C   LIG d   1       3.856  -0.118  -2.204  0.00  0.00     0.077 C 
ATOM     12  H   LIG d   1       3.879  -0.391  -1.149  0.00  0.00     0.064 H 
BRANCH  11  13
ATOM     13  C   LIG d   1       3.579   1.380  -2.338  0.00  0.00    -0.035 C 
ATOM     14  H   LIG d   1       4.490   1.939  -2.126  0.00  0.00     0.026 H 
ATOM     15  H   LIG d   1       3.247   1.599  -3.353  0.00  0.00     0.026 H 
ATOM     16  H   LIG d   1       2.801   1.671  -1.632  0.00  0.00     0.026 H 
ENDBRANCH  11  13
BRANCH  11  17
ATOM     17  O   LIG d   1       2.824  -0.855  -2.864  0.00  0.00    -0.388 OA
ATOM     18  H   LIG d   1       2.467  -0.416  -3.648  0.00  0.00     0.210 HD
ENDBRANCH  11  17
ENDBRANCH   1  11
BRANCH   4  19
ATOM     19  O   LIG d   1       8.828  -1.326  -4.560  0.00  0.00    -0.507 OA
ATOM     20  H   LIG d   1       9.521  -1.548  -3.923  0.00  0.00     0.292 HD
ENDBRANCH   4  19
TORSDOF 4
ENDMDL
MODEL 10
REMARK VINA RESULT:      -4.0      8.896     10.755
REMARK  4 active torsions:
REMARK  status: ('A' for Active; 'I' for Inactive)
REMARK    1  A    between atoms: C_1  and  C_2 
REMARK    2  A    between atoms: C_2  and  C_4 
REMARK    3  A    between atoms: C_2  and  O_11 
REMARK    4  A    between atoms: C_7  and  O_10 
ROOT
ATOM      1  C   LIG d   1       9.985   8.481  -0.621  0.00  0.00    -0.019 A 
ATOM      2  C   LIG d   1       9.585   7.505  -1.516  0.00  0.00    -0.053 A 
ATOM      3  C   LIG d   1      10.055   6.213  -1.385  0.00  0.00    -0.020 A 
ATOM      4  C   LIG d   1      10.920   5.892  -0.349  0.00  0.00     0.117 A 
ATOM      5  C   LIG d   1      11.316   6.872   0.550  0.00  0.00    -0.020 A 
ATOM      6  C   LIG d   1      10.848   8.165   0.411  0.00  0.00    -0.053 A 
ATOM      7  H   LIG d   1       8.907   7.754  -2.319  0.00  0.00     0.062 H 
ATOM      8  H   LIG d   1       9.745   5.452  -2.085  0.00  0.00     0.065 H 
ATOM      9  H   LIG d   1      11.990   6.625   1.357  0.00  0.00     0.065 H 
ATOM     10  H   LIG d   1      11.155   8.927   1.111  0.00  0.00     0.062 H 
ENDROOT
BRANCH   1  11
ATOM     11  C   LIG d   1       9.475   9.892  -0.770  0.00  0.00     0.077 C 
ATOM     12  H   LIG d   1       9.603  10.425   0.172  0.00  0.00     0.064 H 
BRANCH  11  13
ATOM     13  C   LIG d   1      10.261  10.605  -1.871  0.00  0.00    -0.035 C 
ATOM     14  H   LIG d   1       9.691  11.463  -2.228  0.00  0.00     0.026 H 
ATOM     15  H   LIG d   1      11.218  10.944  -1.474  0.00  0.00     0.026 H 
ATOM     16  H   LIG d   1      10.436   9.916  -2.698  0.00  0.00     0.026 H 
ENDBRANCH  11  13
BRANCH  11  17
ATOM     17  O   LIG d   1       8.089   9.864  -1.116  0.00  0.00    -0.388 OA
ATOM     18  H   LIG d   1       7.507   9.596  -0.391  0.00  0.00     0.210 HD
ENDBRANCH  11  17
ENDBRANCH   1  11
BRANCH   4  19
ATOM     19  O   LIG d   1      11.380   4.620  -0.215  0.00  0.00    -0.507 OA
ATOM     20  H   LIG d   1      11.907   4.312  -0.965  0.00  0.00     0.292 HD
ENDBRANCH   4  19
TORSDOF 4
ENDMDL
