MODEL 1
REMARK VINA RESULT:      -5.9      0.000      0.000
REMARK  4 active torsions:
REMARK  status: ('A' for Active; 'I' for Inactive)
REMARK    1  A    between atoms: C_1  and  C_2 
REMARK    2  A    between atoms: C_20  and  C_30 
REMARK    3  A    between atoms: C_22  and  O_29 
REMARK    4  A    between atoms: C_24  and  C_27 
ROOT
ATOM      1  C   LIG d   1       9.244   3.151  -6.276  0.00  0.00    -0.100 C 
ATOM      2  C   LIG d   1       9.292   2.540  -7.277  0.00  0.00    -0.119 C 
ATOM      3  H   LIG d   1       9.335   1.994  -8.172  0.00  0.00     0.123 H 
ENDROOT
BRANCH   1   4
ATOM      4  C   LIG d   1       9.183   3.918  -5.021  0.00  0.00     0.047 C 
ATOM      5  C   LIG d   1      10.099   3.268  -3.980  0.00  0.00     0.069 C 
ATOM      6  C   LIG d   1      10.023   4.062  -2.676  0.00  0.00    -0.020 C 
ATOM      7  H   LIG d   1       9.775   2.243  -3.801  0.00  0.00     0.060 H 
ATOM      8  C   LIG d   1      10.479   5.503  -2.920  0.00  0.00    -0.023 C 
ATOM      9  H   LIG d   1      10.670   3.598  -1.931  0.00  0.00     0.030 H 
ATOM     10  H   LIG d   1       8.996   4.064  -2.313  0.00  0.00     0.030 H 
ATOM     11  C   LIG d   1      10.380   6.284  -1.611  0.00  0.00    -0.025 C 
ATOM     12  C   LIG d   1       9.582   6.155  -3.973  0.00  0.00    -0.027 C 
ATOM     13  C   LIG d   1      11.112   5.568  -0.484  0.00  0.00    -0.048 C 
ATOM     14  H   LIG d   1       9.328   6.359  -1.335  0.00  0.00     0.031 H 
ATOM     15  C   LIG d   1      10.931   7.703  -1.821  0.00  0.00     0.025 C 
ATOM     16  C   LIG d   1      11.041   6.383   0.820  0.00  0.00    -0.040 C 
ATOM     17  H   LIG d   1      12.157   5.431  -0.765  0.00  0.00     0.027 H 
ATOM     18  H   LIG d   1      10.655   4.592  -0.322  0.00  0.00     0.027 H 
ATOM     19  C   LIG d   1      11.628   7.750   0.538  0.00  0.00     0.030 C 
ATOM     20  H   LIG d   1      11.619   5.887   1.599  0.00  0.00     0.028 H 
ATOM     21  H   LIG d   1      10.003   6.485   1.137  0.00  0.00     0.028 H 
ATOM     22  C   LIG d   1      10.729   8.451  -0.518  0.00  0.00    -0.019 C 
ATOM     23  C   LIG d   1      11.664   8.727   1.675  0.00  0.00     0.140 C 
ATOM     24  H   LIG d   1       9.683   8.432  -0.212  0.00  0.00     0.032 H 
ATOM     25  C   LIG d   1      11.282   9.881  -0.473  0.00  0.00    -0.042 C 
ATOM     26  C   LIG d   1      11.510  10.108   1.046  0.00  0.00     0.007 C 
ATOM     27  H   LIG d   1      12.222   9.948  -1.020  0.00  0.00     0.027 H 
ATOM     28  H   LIG d   1      10.555  10.589  -0.869  0.00  0.00     0.027 H 
ATOM     29  H   LIG d   1      12.332  10.660   1.181  0.00  0.00     0.034 H 
ATOM     30  H   LIG d   1      10.652  10.622   1.479  0.00  0.00     0.034 H 
ATOM     31  O   LIG d   1      11.790   8.472   2.849  0.00  0.00    -0.297 OA
ATOM     32  H   LIG d   1      11.902   7.653  -2.056  0.00  0.00     0.038 H 
ATOM     33  C   LIG d   1      10.148   8.341  -2.943  0.00  0.00     0.137 C 
ATOM     34  O   LIG d   1       9.614   9.415  -2.803  0.00  0.00    -0.297 OA
ATOM     35  C   LIG d   1      10.056   7.586  -4.252  0.00  0.00     0.009 C 
ATOM     36  H   LIG d   1       9.404   8.044  -4.855  0.00  0.00     0.035 H 
ATOM     37  H   LIG d   1      11.035   7.560  -4.727  0.00  0.00     0.035 H 
ATOM     38  H   LIG d   1       8.554   6.177  -3.611  0.00  0.00     0.031 H 
ATOM     39  C   LIG d   1       9.648   5.353  -5.275  0.00  0.00    -0.033 C 
ATOM     40  H   LIG d   1       9.002   5.816  -6.020  0.00  0.00     0.028 H 
ATOM     41  H   LIG d   1      10.674   5.341  -5.642  0.00  0.00     0.028 H 
ATOM     42  H   LIG d   1       8.159   3.928  -4.648  0.00  0.00     0.046 H 
BRANCH   5  43
ATOM     43  O   LIG d   1      11.444   3.268  -4.462  0.00  0.00    -0.391 OA
ATOM     44  H   LIG d   1      11.523   3.453  -5.408  0.00  0.00     0.210 HD
ENDBRANCH   5  43
BRANCH   8  45
ATOM     45  C   LIG d   1      11.930   5.508  -3.409  0.00  0.00    -0.059 C 
ATOM     46  H   LIG d   1      12.547   6.072  -2.709  0.00  0.00     0.024 H 
ATOM     47  H   LIG d   1      12.295   4.484  -3.473  0.00  0.00     0.024 H 
ATOM     48  H   LIG d   1      11.979   5.974  -4.394  0.00  0.00     0.024 H 
ENDBRANCH   8  45
BRANCH  19  49
ATOM     49  C   LIG d   1      13.043   7.593  -0.021  0.00  0.00    -0.053 C 
ATOM     50  H   LIG d   1      13.509   6.708   0.412  0.00  0.00     0.024 H 
ATOM     51  H   LIG d   1      12.996   7.486  -1.105  0.00  0.00     0.024 H 
ATOM     52  H   LIG d   1      13.633   8.474   0.231  0.00  0.00     0.024 H 
ENDBRANCH  19  49
ENDBRANCH   1   4
TORSDOF 4
ENDMDL
MODEL 2
REMARK VINA RESULT:      -5.8      8.550     11.116
REMARK  4 active torsions:
REMARK  status: ('A' for Active; 'I' for Inactive)
REMARK    1  A    between atoms: C_1  and  C_2 
REMARK    2  A    between atoms: C_20  and  C_30 
REMARK    3  A    between atoms: C_22  and  O_29 
REMARK    4  A    between atoms: C_24  and  C_27 
ROOT
ATOM      1  C   LIG d   1       3.242  -1.067 -12.604  0.00  0.00    -0.100 C 
ATOM      2  C   LIG d   1       3.121  -1.579 -13.653  0.00  0.00    -0.119 C 
ATOM      3  H   LIG d   1       3.013  -2.036 -14.592  0.00  0.00     0.123 H 
ENDROOT
BRANCH   1   4
ATOM      4  C   LIG d   1       3.394  -0.426 -11.288  0.00  0.00     0.047 C 
ATOM      5  C   LIG d   1       2.177  -0.748 -10.418  0.00  0.00     0.069 C 
ATOM      6  C   LIG d   1       2.336  -0.070  -9.057  0.00  0.00    -0.020 C 
ATOM      7  H   LIG d   1       1.274  -0.379 -10.905  0.00  0.00     0.060 H 
ATOM      8  C   LIG d   1       3.600  -0.587  -8.366  0.00  0.00    -0.023 C 
ATOM      9  H   LIG d   1       1.467  -0.293  -8.437  0.00  0.00     0.030 H 
ATOM     10  H   LIG d   1       2.414   1.008  -9.196  0.00  0.00     0.030 H 
ATOM     11  C   LIG d   1       3.751   0.115  -7.017  0.00  0.00    -0.025 C 
ATOM     12  C   LIG d   1       4.822  -0.286  -9.237  0.00  0.00    -0.027 C 
ATOM     13  C   LIG d   1       2.480  -0.006  -6.188  0.00  0.00    -0.048 C 
ATOM     14  H   LIG d   1       3.936   1.173  -7.199  0.00  0.00     0.031 H 
ATOM     15  C   LIG d   1       4.961  -0.470  -6.271  0.00  0.00     0.025 C 
ATOM     16  C   LIG d   1       2.656   0.668  -4.815  0.00  0.00    -0.040 C 
ATOM     17  H   LIG d   1       2.245  -1.061  -6.042  0.00  0.00     0.027 H 
ATOM     18  H   LIG d   1       1.658   0.474  -6.719  0.00  0.00     0.027 H 
ATOM     19  C   LIG d   1       3.843   0.018  -4.135  0.00  0.00     0.030 C 
ATOM     20  H   LIG d   1       1.760   0.521  -4.212  0.00  0.00     0.028 H 
ATOM     21  H   LIG d   1       2.844   1.734  -4.947  0.00  0.00     0.028 H 
ATOM     22  C   LIG d   1       5.108   0.319  -4.985  0.00  0.00    -0.019 C 
ATOM     23  C   LIG d   1       4.209   0.519  -2.769  0.00  0.00     0.140 C 
ATOM     24  H   LIG d   1       5.197   1.387  -5.187  0.00  0.00     0.032 H 
ATOM     25  C   LIG d   1       6.220  -0.148  -4.036  0.00  0.00    -0.042 C 
ATOM     26  C   LIG d   1       5.722   0.362  -2.656  0.00  0.00     0.007 C 
ATOM     27  H   LIG d   1       6.300  -1.235  -4.041  0.00  0.00     0.027 H 
ATOM     28  H   LIG d   1       7.172   0.309  -4.301  0.00  0.00     0.027 H 
ATOM     29  H   LIG d   1       5.963  -0.301  -1.948  0.00  0.00     0.034 H 
ATOM     30  H   LIG d   1       6.181   1.323  -2.426  0.00  0.00     0.034 H 
ATOM     31  O   LIG d   1       3.458   0.957  -1.931  0.00  0.00    -0.297 OA
ATOM     32  H   LIG d   1       4.799  -1.438  -6.079  0.00  0.00     0.038 H 
ATOM     33  C   LIG d   1       6.173  -0.303  -7.156  0.00  0.00     0.137 C 
ATOM     34  O   LIG d   1       7.176   0.235  -6.750  0.00  0.00    -0.297 OA
ATOM     35  C   LIG d   1       6.088  -0.834  -8.571  0.00  0.00     0.009 C 
ATOM     36  H   LIG d   1       6.893  -0.541  -9.086  0.00  0.00     0.035 H 
ATOM     37  H   LIG d   1       6.048  -1.923  -8.549  0.00  0.00     0.035 H 
ATOM     38  H   LIG d   1       4.918   0.792  -9.369  0.00  0.00     0.031 H 
ATOM     39  C   LIG d   1       4.657  -0.954 -10.605  0.00  0.00    -0.033 C 
ATOM     40  H   LIG d   1       5.525  -0.732 -11.224  0.00  0.00     0.028 H 
ATOM     41  H   LIG d   1       4.572  -2.033 -10.473  0.00  0.00     0.028 H 
ATOM     42  H   LIG d   1       3.475   0.654 -11.415  0.00  0.00     0.046 H 
BRANCH   5  43
ATOM     43  O   LIG d   1       2.079  -2.162 -10.238  0.00  0.00    -0.391 OA
ATOM     44  H   LIG d   1       2.553  -2.493  -9.463  0.00  0.00     0.210 HD
ENDBRANCH   5  43
BRANCH   8  45
ATOM     45  C   LIG d   1       3.488  -2.097  -8.147  0.00  0.00    -0.059 C 
ATOM     46  H   LIG d   1       2.916  -2.541  -8.963  0.00  0.00     0.024 H 
ATOM     47  H   LIG d   1       4.485  -2.536  -8.121  0.00  0.00     0.024 H 
ATOM     48  H   LIG d   1       2.981  -2.290  -7.201  0.00  0.00     0.024 H 
ENDBRANCH   8  45
BRANCH  19  49
ATOM     49  C   LIG d   1       3.626  -1.494  -4.062  0.00  0.00    -0.053 C 
ATOM     50  H   LIG d   1       2.723  -1.705  -3.488  0.00  0.00     0.024 H 
ATOM     51  H   LIG d   1       3.516  -1.895  -5.071  0.00  0.00     0.024 H 
ATOM     52  H   LIG d   1       4.482  -1.961  -3.577  0.00  0.00     0.024 H 
ENDBRANCH  19  49
ENDBRANCH   1   4
TORSDOF 4
ENDMDL
MODEL 3
REMARK VINA RESULT:      -5.8      9.120     13.418
REMARK  4 active torsions:
REMARK  status: ('A' for Active; 'I' for Inactive)
REMARK    1  A    between atoms: C_1  and  C_2 
REMARK    2  A    between atoms: C_20  and  C_30 
REMARK    3  A    between atoms: C_22  and  O_29 
REMARK    4  A    between atoms: C_24  and  C_27 
ROOT
ATOM      1  C   LIG d   1       4.589   0.233  -2.089  0.00  0.00    -0.100 C 
ATOM      2  C   LIG d   1       4.265   1.308  -1.748  0.00  0.00    -0.119 C 
ATOM      3  H   LIG d   1       3.975   2.270  -1.443  0.00  0.00     0.123 H 
ENDROOT
BRANCH   1   4
ATOM      4  C   LIG d   1       4.996  -1.115  -2.517  0.00  0.00     0.047 C 
ATOM      5  C   LIG d   1       3.837  -1.788  -3.257  0.00  0.00     0.069 C 
ATOM      6  C   LIG d   1       4.263  -3.192  -3.689  0.00  0.00    -0.020 C 
ATOM      7  H   LIG d   1       2.975  -1.858  -2.595  0.00  0.00     0.060 H 
ATOM      8  C   LIG d   1       5.473  -3.102  -4.623  0.00  0.00    -0.023 C 
ATOM      9  H   LIG d   1       3.437  -3.676  -4.211  0.00  0.00     0.030 H 
ATOM     10  H   LIG d   1       4.528  -3.777  -2.809  0.00  0.00     0.030 H 
ATOM     11  C   LIG d   1       5.893  -4.513  -5.028  0.00  0.00    -0.025 C 
ATOM     12  C   LIG d   1       6.631  -2.413  -3.898  0.00  0.00    -0.027 C 
ATOM     13  C   LIG d   1       4.716  -5.300  -5.589  0.00  0.00    -0.048 C 
ATOM     14  H   LIG d   1       6.254  -5.033  -4.141  0.00  0.00     0.031 H 
ATOM     15  C   LIG d   1       7.043  -4.430  -6.045  0.00  0.00     0.025 C 
ATOM     16  C   LIG d   1       5.159  -6.706  -6.033  0.00  0.00    -0.040 C 
ATOM     17  H   LIG d   1       4.303  -4.766  -6.446  0.00  0.00     0.027 H 
ATOM     18  H   LIG d   1       3.948  -5.392  -4.821  0.00  0.00     0.027 H 
ATOM     19  C   LIG d   1       6.266  -6.537  -7.052  0.00  0.00     0.030 C 
ATOM     20  H   LIG d   1       4.319  -7.233  -6.486  0.00  0.00     0.028 H 
ATOM     21  H   LIG d   1       5.529  -7.266  -5.175  0.00  0.00     0.028 H 
ATOM     22  C   LIG d   1       7.470  -5.854  -6.344  0.00  0.00    -0.019 C 
ATOM     23  C   LIG d   1       6.861  -7.786  -7.631  0.00  0.00     0.140 C 
ATOM     24  H   LIG d   1       7.736  -6.384  -5.430  0.00  0.00     0.032 H 
ATOM     25  C   LIG d   1       8.566  -6.015  -7.405  0.00  0.00    -0.042 C 
ATOM     26  C   LIG d   1       8.320  -7.457  -7.927  0.00  0.00     0.007 C 
ATOM     27  H   LIG d   1       8.439  -5.287  -8.205  0.00  0.00     0.027 H 
ATOM     28  H   LIG d   1       9.555  -5.926  -6.956  0.00  0.00     0.027 H 
ATOM     29  H   LIG d   1       8.506  -7.492  -8.909  0.00  0.00     0.034 H 
ATOM     30  H   LIG d   1       8.974  -8.158  -7.409  0.00  0.00     0.034 H 
ATOM     31  O   LIG d   1       6.298  -8.837  -7.824  0.00  0.00    -0.297 OA
ATOM     32  H   LIG d   1       6.723  -3.973  -6.875  0.00  0.00     0.038 H 
ATOM     33  C   LIG d   1       8.165  -3.646  -5.410  0.00  0.00     0.137 C 
ATOM     34  O   LIG d   1       9.288  -4.089  -5.358  0.00  0.00    -0.297 OA
ATOM     35  C   LIG d   1       7.834  -2.284  -4.838  0.00  0.00     0.009 C 
ATOM     36  H   LIG d   1       8.621  -1.935  -4.331  0.00  0.00     0.035 H 
ATOM     37  H   LIG d   1       7.592  -1.598  -5.650  0.00  0.00     0.035 H 
ATOM     38  H   LIG d   1       6.914  -3.000  -3.024  0.00  0.00     0.031 H 
ATOM     39  C   LIG d   1       6.201  -1.012  -3.454  0.00  0.00    -0.033 C 
ATOM     40  H   LIG d   1       7.026  -0.528  -2.933  0.00  0.00     0.028 H 
ATOM     41  H   LIG d   1       5.929  -0.422  -4.330  0.00  0.00     0.028 H 
ATOM     42  H   LIG d   1       5.265  -1.710  -1.644  0.00  0.00     0.046 H 
BRANCH   5  43
ATOM     43  O   LIG d   1       3.495  -1.017  -4.410  0.00  0.00    -0.391 OA
ATOM     44  H   LIG d   1       4.252  -0.779  -4.963  0.00  0.00     0.210 HD
ENDBRANCH   5  43
BRANCH   8  45
ATOM     45  C   LIG d   1       5.101  -2.300  -5.872  0.00  0.00    -0.059 C 
ATOM     46  H   LIG d   1       5.040  -2.971  -6.730  0.00  0.00     0.024 H 
ATOM     47  H   LIG d   1       4.137  -1.816  -5.719  0.00  0.00     0.024 H 
ATOM     48  H   LIG d   1       5.863  -1.543  -6.057  0.00  0.00     0.024 H 
ENDBRANCH   8  45
BRANCH  19  49
ATOM     49  C   LIG d   1       5.777  -5.648  -8.196  0.00  0.00    -0.053 C 
ATOM     50  H   LIG d   1       6.429  -5.777  -9.061  0.00  0.00     0.024 H 
ATOM     51  H   LIG d   1       4.758  -5.928  -8.465  0.00  0.00     0.024 H 
ATOM     52  H   LIG d   1       5.795  -4.605  -7.881  0.00  0.00     0.024 H 
ENDBRANCH  19  49
ENDBRANCH   1   4
TORSDOF 4
ENDMDL
MODEL 4
REMARK VINA RESULT:      -5.8      6.079      9.230
REMARK  4 active torsions:
REMARK  status: ('A' for Active; 'I' for Inactive)
REMARK    1  A    between atoms: C_1  and  C_2 
REMARK    2  A    between atoms: C_20  and  C_30 
REMARK    3  A    between atoms: C_22  and  O_29 
REMARK    4  A    between atoms: C_24  and  C_27 
ROOT
ATOM      1  C   LIG d   1      11.242   4.026  -7.261  0.00  0.00    -0.100 C 
ATOM      2  C   LIG d   1      12.212   4.668  -7.417  0.00  0.00    -0.119 C 
ATOM      3  H   LIG d   1      13.080   5.242  -7.556  0.00  0.00     0.123 H 
ENDROOT
BRANCH   1   4
ATOM      4  C   LIG d   1      10.025   3.221  -7.067  0.00  0.00     0.047 C 
ATOM      5  C   LIG d   1      10.259   1.804  -7.598  0.00  0.00     0.069 C 
ATOM      6  C   LIG d   1       8.989   0.977  -7.402  0.00  0.00    -0.020 C 
ATOM      7  H   LIG d   1      10.504   1.849  -8.658  0.00  0.00     0.060 H 
ATOM      8  C   LIG d   1       8.641   0.906  -5.913  0.00  0.00    -0.023 C 
ATOM      9  H   LIG d   1       9.151  -0.032  -7.785  0.00  0.00     0.030 H 
ATOM     10  H   LIG d   1       8.166   1.442  -7.944  0.00  0.00     0.030 H 
ATOM     11  C   LIG d   1       7.360   0.091  -5.740  0.00  0.00    -0.025 C 
ATOM     12  C   LIG d   1       8.424   2.319  -5.368  0.00  0.00    -0.027 C 
ATOM     13  C   LIG d   1       7.470  -1.262  -6.431  0.00  0.00    -0.048 C 
ATOM     14  H   LIG d   1       6.539   0.639  -6.200  0.00  0.00     0.031 H 
ATOM     15  C   LIG d   1       7.058  -0.072  -4.241  0.00  0.00     0.025 C 
ATOM     16  C   LIG d   1       6.191  -2.091  -6.216  0.00  0.00    -0.040 C 
ATOM     17  H   LIG d   1       8.323  -1.805  -6.023  0.00  0.00     0.027 H 
ATOM     18  H   LIG d   1       7.621  -1.107  -7.500  0.00  0.00     0.027 H 
ATOM     19  C   LIG d   1       5.981  -2.231  -4.723  0.00  0.00     0.030 C 
ATOM     20  H   LIG d   1       6.309  -3.077  -6.666  0.00  0.00     0.028 H 
ATOM     21  H   LIG d   1       5.338  -1.580  -6.662  0.00  0.00     0.028 H 
ATOM     22  C   LIG d   1       5.739  -0.812  -4.137  0.00  0.00    -0.019 C 
ATOM     23  C   LIG d   1       4.782  -3.009  -4.269  0.00  0.00     0.140 C 
ATOM     24  H   LIG d   1       4.953  -0.293  -4.685  0.00  0.00     0.032 H 
ATOM     25  C   LIG d   1       5.275  -1.155  -2.715  0.00  0.00    -0.042 C 
ATOM     26  C   LIG d   1       4.349  -2.380  -2.949  0.00  0.00     0.007 C 
ATOM     27  H   LIG d   1       6.123  -1.426  -2.087  0.00  0.00     0.027 H 
ATOM     28  H   LIG d   1       4.722  -0.325  -2.278  0.00  0.00     0.027 H 
ATOM     29  H   LIG d   1       4.450  -3.025  -2.192  0.00  0.00     0.034 H 
ATOM     30  H   LIG d   1       3.311  -2.055  -3.013  0.00  0.00     0.034 H 
ATOM     31  O   LIG d   1       4.265  -3.943  -4.835  0.00  0.00    -0.297 OA
ATOM     32  H   LIG d   1       7.793  -0.591  -3.807  0.00  0.00     0.038 H 
ATOM     33  C   LIG d   1       6.958   1.309  -3.639  0.00  0.00     0.137 C 
ATOM     34  O   LIG d   1       5.991   1.643  -2.996  0.00  0.00    -0.297 OA
ATOM     35  C   LIG d   1       8.113   2.260  -3.869  0.00  0.00     0.009 C 
ATOM     36  H   LIG d   1       7.864   3.171  -3.541  0.00  0.00     0.035 H 
ATOM     37  H   LIG d   1       8.989   1.906  -3.327  0.00  0.00     0.035 H 
ATOM     38  H   LIG d   1       7.592   2.787  -5.894  0.00  0.00     0.031 H 
ATOM     39  C   LIG d   1       9.691   3.152  -5.575  0.00  0.00    -0.033 C 
ATOM     40  H   LIG d   1       9.531   4.159  -5.193  0.00  0.00     0.028 H 
ATOM     41  H   LIG d   1      10.521   2.689  -5.040  0.00  0.00     0.028 H 
ATOM     42  H   LIG d   1       9.195   3.678  -7.604  0.00  0.00     0.046 H 
BRANCH   5  43
ATOM     43  O   LIG d   1      11.338   1.198  -6.883  0.00  0.00    -0.391 OA
ATOM     44  H   LIG d   1      11.065   0.735  -6.078  0.00  0.00     0.210 HD
ENDBRANCH   5  43
BRANCH   8  45
ATOM     45  C   LIG d   1       9.782   0.232  -5.148  0.00  0.00    -0.059 C 
ATOM     46  H   LIG d   1      10.481  -0.213  -5.856  0.00  0.00     0.024 H 
ATOM     47  H   LIG d   1      10.302   0.975  -4.543  0.00  0.00     0.024 H 
ATOM     48  H   LIG d   1       9.377  -0.544  -4.500  0.00  0.00     0.024 H 
ENDBRANCH   8  45
BRANCH  19  49
ATOM     49  C   LIG d   1       7.232  -2.839  -4.086  0.00  0.00    -0.053 C 
ATOM     50  H   LIG d   1       7.932  -2.044  -3.829  0.00  0.00     0.024 H 
ATOM     51  H   LIG d   1       6.953  -3.382  -3.182  0.00  0.00     0.024 H 
ATOM     52  H   LIG d   1       7.702  -3.524  -4.790  0.00  0.00     0.024 H 
ENDBRANCH  19  49
ENDBRANCH   1   4
TORSDOF 4
ENDMDL
MODEL 5
REMARK VINA RESULT:      -5.6      2.085      2.887
REMARK  4 active torsions:
REMARK  status: ('A' for Active; 'I' for Inactive)
REMARK    1  A    between atoms: C_1  and  C_2 
REMARK    2  A    between atoms: C_20  and  C_30 
REMARK    3  A    between atoms: C_22  and  O_29 
REMARK    4  A    between atoms: C_24  and  C_27 
ROOT
ATOM      1  C   LIG d   1       9.411   8.061  -8.331  0.00  0.00    -0.100 C 
ATOM      2  C   LIG d   1       9.543   8.165  -9.493  0.00  0.00    -0.119 C 
ATOM      3  H   LIG d   1       9.661   8.259 -10.531  0.00  0.00     0.123 H 
ENDROOT
BRANCH   1   4
ATOM      4  C   LIG d   1       9.246   7.929  -6.874  0.00  0.00     0.047 C 
ATOM      5  C   LIG d   1       9.809   6.582  -6.415  0.00  0.00     0.069 C 
ATOM      6  C   LIG d   1       9.624   6.447  -4.904  0.00  0.00    -0.020 C 
ATOM      7  H   LIG d   1       9.278   5.775  -6.919  0.00  0.00     0.060 H 
ATOM      8  C   LIG d   1      10.371   7.576  -4.188  0.00  0.00    -0.023 C 
ATOM      9  H   LIG d   1      10.019   5.486  -4.574  0.00  0.00     0.030 H 
ATOM     10  H   LIG d   1       8.563   6.505  -4.662  0.00  0.00     0.030 H 
ATOM     11  C   LIG d   1      10.160   7.435  -2.682  0.00  0.00    -0.025 C 
ATOM     12  C   LIG d   1       9.828   8.929  -4.655  0.00  0.00    -0.027 C 
ATOM     13  C   LIG d   1      10.518   6.034  -2.203  0.00  0.00    -0.048 C 
ATOM     14  H   LIG d   1       9.106   7.606  -2.464  0.00  0.00     0.031 H 
ATOM     15  C   LIG d   1      10.987   8.503  -1.948  0.00  0.00     0.025 C 
ATOM     16  C   LIG d   1      10.341   5.915  -0.679  0.00  0.00    -0.040 C 
ATOM     17  H   LIG d   1      11.555   5.821  -2.462  0.00  0.00     0.027 H 
ATOM     18  H   LIG d   1       9.870   5.310  -2.697  0.00  0.00     0.027 H 
ATOM     19  C   LIG d   1      11.208   6.975  -0.033  0.00  0.00     0.030 C 
ATOM     20  H   LIG d   1      10.658   4.926  -0.346  0.00  0.00     0.028 H 
ATOM     21  H   LIG d   1       9.297   6.079  -0.413  0.00  0.00     0.028 H 
ATOM     22  C   LIG d   1      10.673   8.366  -0.472  0.00  0.00    -0.019 C 
ATOM     23  C   LIG d   1      11.197   7.050   1.465  0.00  0.00     0.140 C 
ATOM     24  H   LIG d   1       9.601   8.446  -0.289  0.00  0.00     0.032 H 
ATOM     25  C   LIG d   1      11.454   9.293   0.468  0.00  0.00    -0.042 C 
ATOM     26  C   LIG d   1      11.418   8.518   1.813  0.00  0.00     0.007 C 
ATOM     27  H   LIG d   1      12.479   9.419   0.121  0.00  0.00     0.027 H 
ATOM     28  H   LIG d   1      10.957  10.259   0.560  0.00  0.00     0.027 H 
ATOM     29  H   LIG d   1      12.284   8.647   2.296  0.00  0.00     0.034 H 
ATOM     30  H   LIG d   1      10.599   8.883   2.432  0.00  0.00     0.034 H 
ATOM     31  O   LIG d   1      11.043   6.134   2.238  0.00  0.00    -0.297 OA
ATOM     32  H   LIG d   1      11.960   8.349  -2.121  0.00  0.00     0.038 H 
ATOM     33  C   LIG d   1      10.566   9.854  -2.474  0.00  0.00     0.137 C 
ATOM     34  O   LIG d   1      10.216  10.736  -1.725  0.00  0.00    -0.297 OA
ATOM     35  C   LIG d   1      10.596  10.065  -3.972  0.00  0.00     0.009 C 
ATOM     36  H   LIG d   1      10.168  10.941  -4.194  0.00  0.00     0.035 H 
ATOM     37  H   LIG d   1      11.629  10.068  -4.319  0.00  0.00     0.035 H 
ATOM     38  H   LIG d   1       8.770   9.002  -4.402  0.00  0.00     0.031 H 
ATOM     39  C   LIG d   1      10.001   9.058  -6.170  0.00  0.00    -0.033 C 
ATOM     40  H   LIG d   1       9.606  10.019  -6.500  0.00  0.00     0.028 H 
ATOM     41  H   LIG d   1      11.060   8.996  -6.421  0.00  0.00     0.028 H 
ATOM     42  H   LIG d   1       8.187   7.986  -6.620  0.00  0.00     0.046 H 
BRANCH   5  43
ATOM     43  O   LIG d   1      11.200   6.512  -6.734  0.00  0.00    -0.391 OA
ATOM     44  H   LIG d   1      11.411   5.882  -7.437  0.00  0.00     0.210 HD
ENDBRANCH   5  43
BRANCH   8  45
ATOM     45  C   LIG d   1      11.865   7.488  -4.505  0.00  0.00    -0.059 C 
ATOM     46  H   LIG d   1      12.402   7.123  -3.628  0.00  0.00     0.024 H 
ATOM     47  H   LIG d   1      12.020   6.803  -5.338  0.00  0.00     0.024 H 
ATOM     48  H   LIG d   1      12.238   8.476  -4.774  0.00  0.00     0.024 H 
ENDBRANCH   8  45
BRANCH  19  49
ATOM     49  C   LIG d   1      12.653   6.813  -0.506  0.00  0.00    -0.053 C 
ATOM     50  H   LIG d   1      12.827   7.455  -1.370  0.00  0.00     0.024 H 
ATOM     51  H   LIG d   1      13.334   7.094   0.298  0.00  0.00     0.024 H 
ATOM     52  H   LIG d   1      12.830   5.774  -0.785  0.00  0.00     0.024 H 
ENDBRANCH  19  49
ENDBRANCH   1   4
TORSDOF 4
ENDMDL
MODEL 6
REMARK VINA RESULT:      -5.5      2.815      3.689
REMARK  4 active torsions:
REMARK  status: ('A' for Active; 'I' for Inactive)
REMARK    1  A    between atoms: C_1  and  C_2 
REMARK    2  A    between atoms: C_20  and  C_30 
REMARK    3  A    between atoms: C_22  and  O_29 
REMARK    4  A    between atoms: C_24  and  C_27 
ROOT
ATOM      1  C   LIG d   1       9.422   6.665 -10.518  0.00  0.00    -0.100 C 
ATOM      2  C   LIG d   1       9.648   6.612 -11.669  0.00  0.00    -0.119 C 
ATOM      3  H   LIG d   1       9.851   6.564 -12.697  0.00  0.00     0.123 H 
ENDROOT
BRANCH   1   4
ATOM      4  C   LIG d   1       9.138   6.731  -9.075  0.00  0.00     0.047 C 
ATOM      5  C   LIG d   1       9.851   5.581  -8.360  0.00  0.00     0.069 C 
ATOM      6  C   LIG d   1       9.543   5.649  -6.864  0.00  0.00    -0.020 C 
ATOM      7  H   LIG d   1       9.500   4.631  -8.760  0.00  0.00     0.060 H 
ATOM      8  C   LIG d   1      10.037   6.982  -6.294  0.00  0.00    -0.023 C 
ATOM      9  H   LIG d   1      10.045   4.828  -6.353  0.00  0.00     0.030 H 
ATOM     10  H   LIG d   1       8.467   5.567  -6.712  0.00  0.00     0.030 H 
ATOM     11  C   LIG d   1       9.704   7.039  -4.804  0.00  0.00    -0.025 C 
ATOM     12  C   LIG d   1       9.343   8.139  -7.016  0.00  0.00    -0.027 C 
ATOM     13  C   LIG d   1      10.222   5.805  -4.076  0.00  0.00    -0.048 C 
ATOM     14  H   LIG d   1       8.621   7.064  -4.694  0.00  0.00     0.031 H 
ATOM     15  C   LIG d   1      10.286   8.327  -4.201  0.00  0.00     0.025 C 
ATOM     16  C   LIG d   1       9.919   5.892  -2.569  0.00  0.00    -0.040 C 
ATOM     17  H   LIG d   1      11.300   5.729  -4.221  0.00  0.00     0.027 H 
ATOM     18  H   LIG d   1       9.742   4.917  -4.488  0.00  0.00     0.027 H 
ATOM     19  C   LIG d   1      10.548   7.166  -2.048  0.00  0.00     0.030 C 
ATOM     20  H   LIG d   1      10.347   5.031  -2.055  0.00  0.00     0.028 H 
ATOM     21  H   LIG d   1       8.841   5.920  -2.410  0.00  0.00     0.028 H 
ATOM     22  C   LIG d   1       9.854   8.367  -2.748  0.00  0.00    -0.019 C 
ATOM     23  C   LIG d   1      10.380   7.465  -0.588  0.00  0.00     0.140 C 
ATOM     24  H   LIG d   1       8.769   8.296  -2.659  0.00  0.00     0.032 H 
ATOM     25  C   LIG d   1      10.391   9.542  -1.922  0.00  0.00    -0.042 C 
ATOM     26  C   LIG d   1      10.342   8.986  -0.472  0.00  0.00     0.007 C 
ATOM     27  H   LIG d   1      11.414   9.781  -2.210  0.00  0.00     0.027 H 
ATOM     28  H   LIG d   1       9.747  10.415  -2.027  0.00  0.00     0.027 H 
ATOM     29  H   LIG d   1      11.128   9.328   0.043  0.00  0.00     0.034 H 
ATOM     30  H   LIG d   1       9.421   9.301   0.017  0.00  0.00     0.034 H 
ATOM     31  O   LIG d   1      10.293   6.665   0.313  0.00  0.00    -0.297 OA
ATOM     32  H   LIG d   1      11.283   8.311  -4.275  0.00  0.00     0.038 H 
ATOM     33  C   LIG d   1       9.718   9.495  -4.971  0.00  0.00     0.137 C 
ATOM     34  O   LIG d   1       9.168  10.410  -4.407  0.00  0.00    -0.297 OA
ATOM     35  C   LIG d   1       9.861   9.477  -6.478  0.00  0.00     0.009 C 
ATOM     36  H   LIG d   1       9.329  10.226  -6.872  0.00  0.00     0.035 H 
ATOM     37  H   LIG d   1      10.910   9.597  -6.746  0.00  0.00     0.035 H 
ATOM     38  H   LIG d   1       8.267   8.074  -6.856  0.00  0.00     0.031 H 
ATOM     39  C   LIG d   1       9.641   8.063  -8.516  0.00  0.00    -0.033 C 
ATOM     40  H   LIG d   1       9.140   8.884  -9.027  0.00  0.00     0.028 H 
ATOM     41  H   LIG d   1      10.717   8.139  -8.676  0.00  0.00     0.028 H 
ATOM     42  H   LIG d   1       8.063   6.651  -8.911  0.00  0.00     0.046 H 
BRANCH   5  43
ATOM     43  O   LIG d   1      11.261   5.694  -8.563  0.00  0.00    -0.391 OA
ATOM     44  H   LIG d   1      11.576   6.606  -8.630  0.00  0.00     0.210 HD
ENDBRANCH   5  43
BRANCH   8  45
ATOM     45  C   LIG d   1      11.551   7.094  -6.484  0.00  0.00    -0.059 C 
ATOM     46  H   LIG d   1      12.044   7.048  -5.513  0.00  0.00     0.024 H 
ATOM     47  H   LIG d   1      11.901   6.272  -7.109  0.00  0.00     0.024 H 
ATOM     48  H   LIG d   1      11.787   8.043  -6.967  0.00  0.00     0.024 H 
ENDBRANCH   8  45
BRANCH  19  49
ATOM     49  C   LIG d   1      12.040   7.174  -2.383  0.00  0.00    -0.053 C 
ATOM     50  H   LIG d   1      12.617   6.986  -1.477  0.00  0.00     0.024 H 
ATOM     51  H   LIG d   1      12.253   6.396  -3.117  0.00  0.00     0.024 H 
ATOM     52  H   LIG d   1      12.315   8.145  -2.794  0.00  0.00     0.024 H 
ENDBRANCH  19  49
ENDBRANCH   1   4
TORSDOF 4
ENDMDL
MODEL 7
REMARK VINA RESULT:      -5.5      5.141      9.150
REMARK  4 active torsions:
REMARK  status: ('A' for Active; 'I' for Inactive)
REMARK    1  A    between atoms: C_1  and  C_2 
REMARK    2  A    between atoms: C_20  and  C_30 
REMARK    3  A    between atoms: C_22  and  O_29 
REMARK    4  A    between atoms: C_24  and  C_27 
ROOT
ATOM      1  C   LIG d   1      12.264   3.769  -5.257  0.00  0.00    -0.100 C 
ATOM      2  C   LIG d   1      13.029   4.490  -5.779  0.00  0.00    -0.119 C 
ATOM      3  H   LIG d   1      13.712   5.135  -6.245  0.00  0.00     0.123 H 
ENDROOT
BRANCH   1   4
ATOM      4  C   LIG d   1      11.305   2.864  -4.602  0.00  0.00     0.047 C 
ATOM      5  C   LIG d   1       9.979   3.596  -4.383  0.00  0.00     0.069 C 
ATOM      6  C   LIG d   1       8.991   2.655  -3.694  0.00  0.00    -0.020 C 
ATOM      7  H   LIG d   1      10.145   4.471  -3.756  0.00  0.00     0.060 H 
ATOM      8  C   LIG d   1       8.749   1.424  -4.571  0.00  0.00    -0.023 C 
ATOM      9  H   LIG d   1       8.047   3.175  -3.531  0.00  0.00     0.030 H 
ATOM     10  H   LIG d   1       9.400   2.340  -2.734  0.00  0.00     0.030 H 
ATOM     11  C   LIG d   1       7.775   0.488  -3.858  0.00  0.00    -0.025 C 
ATOM     12  C   LIG d   1      10.073   0.695  -4.811  0.00  0.00    -0.027 C 
ATOM     13  C   LIG d   1       6.511   1.225  -3.436  0.00  0.00    -0.048 C 
ATOM     14  H   LIG d   1       8.259   0.108  -2.958  0.00  0.00     0.031 H 
ATOM     15  C   LIG d   1       7.447  -0.702  -4.774  0.00  0.00     0.025 C 
ATOM     16  C   LIG d   1       5.519   0.265  -2.755  0.00  0.00    -0.040 C 
ATOM     17  H   LIG d   1       6.040   1.663  -4.317  0.00  0.00     0.027 H 
ATOM     18  H   LIG d   1       6.775   2.021  -2.739  0.00  0.00     0.027 H 
ATOM     19  C   LIG d   1       5.225  -0.856  -3.729  0.00  0.00     0.030 C 
ATOM     20  H   LIG d   1       4.597   0.795  -2.513  0.00  0.00     0.028 H 
ATOM     21  H   LIG d   1       5.962  -0.142  -1.846  0.00  0.00     0.028 H 
ATOM     22  C   LIG d   1       6.548  -1.631  -3.983  0.00  0.00    -0.019 C 
ATOM     23  C   LIG d   1       4.273  -1.924  -3.278  0.00  0.00     0.140 C 
ATOM     24  H   LIG d   1       7.015  -1.923  -3.042  0.00  0.00     0.032 H 
ATOM     25  C   LIG d   1       6.029  -2.862  -4.737  0.00  0.00    -0.042 C 
ATOM     26  C   LIG d   1       4.728  -3.208  -3.962  0.00  0.00     0.007 C 
ATOM     27  H   LIG d   1       5.807  -2.615  -5.774  0.00  0.00     0.027 H 
ATOM     28  H   LIG d   1       6.746  -3.681  -4.680  0.00  0.00     0.027 H 
ATOM     29  H   LIG d   1       4.036  -3.540  -4.604  0.00  0.00     0.034 H 
ATOM     30  H   LIG d   1       4.930  -3.977  -3.217  0.00  0.00     0.034 H 
ATOM     31  O   LIG d   1       3.337  -1.792  -2.526  0.00  0.00    -0.297 OA
ATOM     32  H   LIG d   1       6.984  -0.372  -5.596  0.00  0.00     0.038 H 
ATOM     33  C   LIG d   1       8.748  -1.377  -5.136  0.00  0.00     0.137 C 
ATOM     34  O   LIG d   1       8.907  -2.563  -4.964  0.00  0.00    -0.297 OA
ATOM     35  C   LIG d   1       9.847  -0.517  -5.721  0.00  0.00     0.009 C 
ATOM     36  H   LIG d   1      10.690  -1.051  -5.785  0.00  0.00     0.035 H 
ATOM     37  H   LIG d   1       9.554  -0.178  -6.714  0.00  0.00     0.035 H 
ATOM     38  H   LIG d   1      10.483   0.363  -3.857  0.00  0.00     0.031 H 
ATOM     39  C   LIG d   1      11.067   1.642  -5.490  0.00  0.00    -0.033 C 
ATOM     40  H   LIG d   1      12.010   1.122  -5.653  0.00  0.00     0.028 H 
ATOM     41  H   LIG d   1      10.661   1.965  -6.449  0.00  0.00     0.028 H 
ATOM     42  H   LIG d   1      11.705   2.542  -3.640  0.00  0.00     0.046 H 
BRANCH   5  43
ATOM     43  O   LIG d   1       9.446   4.006  -5.645  0.00  0.00    -0.391 OA
ATOM     44  H   LIG d   1       9.043   4.885  -5.634  0.00  0.00     0.210 HD
ENDBRANCH   5  43
BRANCH   8  45
ATOM     45  C   LIG d   1       8.153   1.856  -5.913  0.00  0.00    -0.059 C 
ATOM     46  H   LIG d   1       8.868   2.488  -6.441  0.00  0.00     0.024 H 
ATOM     47  H   LIG d   1       7.934   0.974  -6.514  0.00  0.00     0.024 H 
ATOM     48  H   LIG d   1       7.233   2.415  -5.738  0.00  0.00     0.024 H 
ENDBRANCH   8  45
BRANCH  19  49
ATOM     49  C   LIG d   1       4.718  -0.269  -5.047  0.00  0.00    -0.053 C 
ATOM     50  H   LIG d   1       5.185  -0.792  -5.881  0.00  0.00     0.024 H 
ATOM     51  H   LIG d   1       3.635  -0.388  -5.105  0.00  0.00     0.024 H 
ATOM     52  H   LIG d   1       4.970   0.789  -5.094  0.00  0.00     0.024 H 
ENDBRANCH  19  49
ENDBRANCH   1   4
TORSDOF 4
ENDMDL
MODEL 8
REMARK VINA RESULT:      -5.5      8.843     11.600
REMARK  4 active torsions:
REMARK  status: ('A' for Active; 'I' for Inactive)
REMARK    1  A    between atoms: C_1  and  C_2 
REMARK    2  A    between atoms: C_20  and  C_30 
REMARK    3  A    between atoms: C_22  and  O_29 
REMARK    4  A    between atoms: C_24  and  C_27 
ROOT
ATOM      1  C   LIG d   1       1.078  -1.762 -11.728  0.00  0.00    -0.100 C 
ATOM      2  C   LIG d   1       0.647  -1.585 -12.806  0.00  0.00    -0.119 C 
ATOM      3  H   LIG d   1       0.262  -1.428 -13.769  0.00  0.00     0.123 H 
ENDROOT
BRANCH   1   4
ATOM      4  C   LIG d   1       1.618  -1.982 -10.377  0.00  0.00     0.047 C 
ATOM      5  C   LIG d   1       2.904  -2.807 -10.469  0.00  0.00     0.069 C 
ATOM      6  C   LIG d   1       3.454  -3.042  -9.062  0.00  0.00    -0.020 C 
ATOM      7  H   LIG d   1       2.689  -3.765 -10.940  0.00  0.00     0.060 H 
ATOM      8  C   LIG d   1       3.763  -1.698  -8.395  0.00  0.00    -0.023 C 
ATOM      9  H   LIG d   1       4.368  -3.634  -9.124  0.00  0.00     0.030 H 
ATOM     10  H   LIG d   1       2.714  -3.579  -8.469  0.00  0.00     0.030 H 
ATOM     11  C   LIG d   1       4.293  -1.953  -6.986  0.00  0.00    -0.025 C 
ATOM     12  C   LIG d   1       2.486  -0.859  -8.316  0.00  0.00    -0.027 C 
ATOM     13  C   LIG d   1       5.457  -2.935  -7.003  0.00  0.00    -0.048 C 
ATOM     14  H   LIG d   1       3.492  -2.391  -6.391  0.00  0.00     0.031 H 
ATOM     15  C   LIG d   1       4.701  -0.616  -6.345  0.00  0.00     0.025 C 
ATOM     16  C   LIG d   1       6.011  -3.153  -5.584  0.00  0.00    -0.040 C 
ATOM     17  H   LIG d   1       6.249  -2.541  -7.641  0.00  0.00     0.027 H 
ATOM     18  H   LIG d   1       5.116  -3.889  -7.405  0.00  0.00     0.027 H 
ATOM     19  C   LIG d   1       6.416  -1.800  -5.038  0.00  0.00     0.030 C 
ATOM     20  H   LIG d   1       6.879  -3.810  -5.622  0.00  0.00     0.028 H 
ATOM     21  H   LIG d   1       5.241  -3.592  -4.949  0.00  0.00     0.028 H 
ATOM     22  C   LIG d   1       5.138  -0.924  -4.926  0.00  0.00    -0.019 C 
ATOM     23  C   LIG d   1       6.989  -1.764  -3.652  0.00  0.00     0.140 C 
ATOM     24  H   LIG d   1       4.354  -1.447  -4.378  0.00  0.00     0.032 H 
ATOM     25  C   LIG d   1       5.665   0.267  -4.116  0.00  0.00    -0.042 C 
ATOM     26  C   LIG d   1       6.577  -0.420  -3.062  0.00  0.00     0.007 C 
ATOM     27  H   LIG d   1       6.244   0.939  -4.749  0.00  0.00     0.027 H 
ATOM     28  H   LIG d   1       4.846   0.800  -3.635  0.00  0.00     0.027 H 
ATOM     29  H   LIG d   1       7.375   0.156  -2.885  0.00  0.00     0.034 H 
ATOM     30  H   LIG d   1       6.026  -0.572  -2.135  0.00  0.00     0.034 H 
ATOM     31  O   LIG d   1       7.644  -2.625  -3.114  0.00  0.00    -0.297 OA
ATOM     32  H   LIG d   1       5.450  -0.210  -6.868  0.00  0.00     0.038 H 
ATOM     33  C   LIG d   1       3.493   0.290  -6.360  0.00  0.00     0.137 C 
ATOM     34  O   LIG d   1       3.099   0.825  -5.352  0.00  0.00    -0.297 OA
ATOM     35  C   LIG d   1       2.793   0.504  -7.685  0.00  0.00     0.009 C 
ATOM     36  H   LIG d   1       1.941   1.004  -7.534  0.00  0.00     0.035 H 
ATOM     37  H   LIG d   1       3.439   1.077  -8.350  0.00  0.00     0.035 H 
ATOM     38  H   LIG d   1       1.745  -1.381  -7.711  0.00  0.00     0.031 H 
ATOM     39  C   LIG d   1       1.928  -0.634  -9.724  0.00  0.00    -0.033 C 
ATOM     40  H   LIG d   1       1.015  -0.043  -9.663  0.00  0.00     0.028 H 
ATOM     41  H   LIG d   1       2.666  -0.102 -10.325  0.00  0.00     0.028 H 
ATOM     42  H   LIG d   1       0.885  -2.519  -9.774  0.00  0.00     0.046 H 
BRANCH   5  43
ATOM     43  O   LIG d   1       3.871  -2.098 -11.247  0.00  0.00    -0.391 OA
ATOM     44  H   LIG d   1       3.928  -1.155 -11.038  0.00  0.00     0.210 HD
ENDBRANCH   5  43
BRANCH   8  45
ATOM     45  C   LIG d   1       4.818  -0.948  -9.211  0.00  0.00    -0.059 C 
ATOM     46  H   LIG d   1       4.688  -1.176 -10.270  0.00  0.00     0.024 H 
ATOM     47  H   LIG d   1       4.704   0.124  -9.053  0.00  0.00     0.024 H 
ATOM     48  H   LIG d   1       5.813  -1.259  -8.892  0.00  0.00     0.024 H 
ENDBRANCH   8  45
BRANCH  19  49
ATOM     49  C   LIG d   1       7.406  -1.137  -5.997  0.00  0.00    -0.053 C 
ATOM     50  H   LIG d   1       6.867  -0.736  -6.855  0.00  0.00     0.024 H 
ATOM     51  H   LIG d   1       7.925  -0.327  -5.482  0.00  0.00     0.024 H 
ATOM     52  H   LIG d   1       8.133  -1.874  -6.337  0.00  0.00     0.024 H 
ENDBRANCH  19  49
ENDBRANCH   1   4
TORSDOF 4
ENDMDL
MODEL 9
REMARK VINA RESULT:      -5.4      1.932      6.984
REMARK  4 active torsions:
REMARK  status: ('A' for Active; 'I' for Inactive)
REMARK    1  A    between atoms: C_1  and  C_2 
REMARK    2  A    between atoms: C_20  and  C_30 
REMARK    3  A    between atoms: C_22  and  O_29 
REMARK    4  A    between atoms: C_24  and  C_27 
ROOT
ATOM      1  C   LIG d   1      10.701  13.075   0.342  0.00  0.00    -0.100 C 
ATOM      2  C   LIG d   1      11.119  14.080   0.781  0.00  0.00    -0.119 C 
ATOM      3  H   LIG d   1      11.493  14.979   1.173  0.00  0.00     0.123 H 
ENDROOT
BRANCH   1   4
ATOM      4  C   LIG d   1      10.176  11.814  -0.208  0.00  0.00     0.047 C 
ATOM      5  C   LIG d   1      10.354  11.807  -1.729  0.00  0.00     0.069 C 
ATOM      6  C   LIG d   1       9.798  10.501  -2.295  0.00  0.00    -0.020 C 
ATOM      7  H   LIG d   1       9.815  12.649  -2.162  0.00  0.00     0.060 H 
ATOM      8  C   LIG d   1      10.552   9.312  -1.693  0.00  0.00    -0.023 C 
ATOM      9  H   LIG d   1       9.917  10.495  -3.379  0.00  0.00     0.030 H 
ATOM     10  H   LIG d   1       8.739  10.420  -2.047  0.00  0.00     0.030 H 
ATOM     11  C   LIG d   1       9.971   8.017  -2.257  0.00  0.00    -0.025 C 
ATOM     12  C   LIG d   1      10.397   9.322  -0.171  0.00  0.00    -0.027 C 
ATOM     13  C   LIG d   1       9.938   8.043  -3.779  0.00  0.00    -0.048 C 
ATOM     14  H   LIG d   1       8.946   7.916  -1.900  0.00  0.00     0.031 H 
ATOM     15  C   LIG d   1      10.788   6.823  -1.737  0.00  0.00     0.025 C 
ATOM     16  C   LIG d   1       9.390   6.718  -4.338  0.00  0.00    -0.040 C 
ATOM     17  H   LIG d   1      10.949   8.201  -4.157  0.00  0.00     0.027 H 
ATOM     18  H   LIG d   1       9.301   8.864  -4.110  0.00  0.00     0.027 H 
ATOM     19  C   LIG d   1      10.263   5.601  -3.807  0.00  0.00     0.030 C 
ATOM     20  H   LIG d   1       9.429   6.731  -5.427  0.00  0.00     0.028 H 
ATOM     21  H   LIG d   1       8.362   6.574  -4.006  0.00  0.00     0.028 H 
ATOM     22  C   LIG d   1      10.115   5.569  -2.260  0.00  0.00    -0.019 C 
ATOM     23  C   LIG d   1       9.914   4.203  -4.223  0.00  0.00     0.140 C 
ATOM     24  H   LIG d   1       9.065   5.536  -1.970  0.00  0.00     0.032 H 
ATOM     25  C   LIG d   1      10.813   4.245  -1.924  0.00  0.00    -0.042 C 
ATOM     26  C   LIG d   1      10.318   3.305  -3.058  0.00  0.00     0.007 C 
ATOM     27  H   LIG d   1      11.896   4.359  -1.962  0.00  0.00     0.027 H 
ATOM     28  H   LIG d   1      10.498   3.879  -0.948  0.00  0.00     0.027 H 
ATOM     29  H   LIG d   1      11.055   2.683  -3.321  0.00  0.00     0.034 H 
ATOM     30  H   LIG d   1       9.460   2.728  -2.715  0.00  0.00     0.034 H 
ATOM     31  O   LIG d   1       9.415   3.858  -5.268  0.00  0.00    -0.297 OA
ATOM     32  H   LIG d   1      11.727   6.889  -2.073  0.00  0.00     0.038 H 
ATOM     33  C   LIG d   1      10.762   6.868  -0.229  0.00  0.00     0.137 C 
ATOM     34  O   LIG d   1      10.417   5.909   0.421  0.00  0.00    -0.297 OA
ATOM     35  C   LIG d   1      11.182   8.158   0.443  0.00  0.00     0.009 C 
ATOM     36  H   LIG d   1      10.989   8.101   1.422  0.00  0.00     0.035 H 
ATOM     37  H   LIG d   1      12.249   8.316   0.291  0.00  0.00     0.035 H 
ATOM     38  H   LIG d   1       9.342   9.225   0.087  0.00  0.00     0.031 H 
ATOM     39  C   LIG d   1      10.942  10.636   0.395  0.00  0.00    -0.033 C 
ATOM     40  H   LIG d   1      10.823  10.642   1.478  0.00  0.00     0.028 H 
ATOM     41  H   LIG d   1      12.000  10.726   0.146  0.00  0.00     0.028 H 
ATOM     42  H   LIG d   1       9.117  11.723   0.034  0.00  0.00     0.046 H 
BRANCH   5  43
ATOM     43  O   LIG d   1      11.743  11.912  -2.048  0.00  0.00    -0.391 OA
ATOM     44  H   LIG d   1      12.282  12.288  -1.337  0.00  0.00     0.210 HD
ENDBRANCH   5  43
BRANCH   8  45
ATOM     45  C   LIG d   1      12.036   9.407  -2.056  0.00  0.00    -0.059 C 
ATOM     46  H   LIG d   1      12.602   9.744  -1.187  0.00  0.00     0.024 H 
ATOM     47  H   LIG d   1      12.397   8.427  -2.368  0.00  0.00     0.024 H 
ATOM     48  H   LIG d   1      12.166  10.118  -2.872  0.00  0.00     0.024 H 
ENDBRANCH   8  45
BRANCH  19  49
ATOM     49  C   LIG d   1      11.722   5.874  -4.174  0.00  0.00    -0.053 C 
ATOM     50  H   LIG d   1      12.178   4.959  -4.554  0.00  0.00     0.024 H 
ATOM     51  H   LIG d   1      11.766   6.647  -4.942  0.00  0.00     0.024 H 
ATOM     52  H   LIG d   1      12.263   6.209  -3.290  0.00  0.00     0.024 H 
ENDBRANCH  19  49
ENDBRANCH   1   4
TORSDOF 4
ENDMDL
MODEL 10
REMARK VINA RESULT:      -5.4     15.084     17.072
REMARK  4 active torsions:
REMARK  status: ('A' for Active; 'I' for Inactive)
REMARK    1  A    between atoms: C_1  and  C_2 
REMARK    2  A    between atoms: C_20  and  C_30 
REMARK    3  A    between atoms: C_22  and  O_29 
REMARK    4  A    between atoms: C_24  and  C_27 
ROOT
ATOM      1  C   LIG d   1       4.707 -10.720  -3.077  0.00  0.00    -0.100 C 
ATOM      2  C   LIG d   1       3.878 -10.921  -3.883  0.00  0.00    -0.119 C 
ATOM      3  H   LIG d   1       3.137 -11.101  -4.605  0.00  0.00     0.123 H 
ENDROOT
BRANCH   1   4
ATOM      4  C   LIG d   1       5.746 -10.468  -2.066  0.00  0.00     0.047 C 
ATOM      5  C   LIG d   1       6.343 -11.799  -1.603  0.00  0.00     0.069 C 
ATOM      6  C   LIG d   1       7.413 -11.531  -0.545  0.00  0.00    -0.020 C 
ATOM      7  H   LIG d   1       5.557 -12.421  -1.175  0.00  0.00     0.060 H 
ATOM      8  C   LIG d   1       8.524 -10.661  -1.141  0.00  0.00    -0.023 C 
ATOM      9  H   LIG d   1       7.836 -12.478  -0.209  0.00  0.00     0.030 H 
ATOM     10  H   LIG d   1       6.964 -11.014   0.303  0.00  0.00     0.030 H 
ATOM     11  C   LIG d   1       9.574 -10.390  -0.065  0.00  0.00    -0.025 C 
ATOM     12  C   LIG d   1       7.934  -9.335  -1.624  0.00  0.00    -0.027 C 
ATOM     13  C   LIG d   1      10.056 -11.685   0.574  0.00  0.00    -0.048 C 
ATOM     14  H   LIG d   1       9.118  -9.779   0.714  0.00  0.00     0.031 H 
ATOM     15  C   LIG d   1      10.742  -9.602  -0.680  0.00  0.00     0.025 C 
ATOM     16  C   LIG d   1      11.143 -11.404   1.627  0.00  0.00    -0.040 C 
ATOM     17  H   LIG d   1      10.465 -12.336  -0.199  0.00  0.00     0.027 H 
ATOM     18  H   LIG d   1       9.214 -12.184   1.053  0.00  0.00     0.027 H 
ATOM     19  C   LIG d   1      12.266 -10.657   0.938  0.00  0.00     0.030 C 
ATOM     20  H   LIG d   1      11.519 -12.344   2.032  0.00  0.00     0.028 H 
ATOM     21  H   LIG d   1      10.732 -10.793   2.431  0.00  0.00     0.028 H 
ATOM     22  C   LIG d   1      11.706  -9.293   0.448  0.00  0.00    -0.019 C 
ATOM     23  C   LIG d   1      13.448 -10.272   1.777  0.00  0.00     0.140 C 
ATOM     24  H   LIG d   1      11.205  -8.764   1.259  0.00  0.00     0.032 H 
ATOM     25  C   LIG d   1      12.998  -8.571   0.046  0.00  0.00    -0.042 C 
ATOM     26  C   LIG d   1      13.976  -8.969   1.184  0.00  0.00     0.007 C 
ATOM     27  H   LIG d   1      13.358  -8.931  -0.917  0.00  0.00     0.027 H 
ATOM     28  H   LIG d   1      12.846  -7.492   0.021  0.00  0.00     0.027 H 
ATOM     29  H   LIG d   1      14.895  -9.091   0.808  0.00  0.00     0.034 H 
ATOM     30  H   LIG d   1      13.997  -8.192   1.948  0.00  0.00     0.034 H 
ATOM     31  O   LIG d   1      13.891 -10.871   2.728  0.00  0.00    -0.297 OA
ATOM     32  H   LIG d   1      11.184 -10.157  -1.384  0.00  0.00     0.038 H 
ATOM     33  C   LIG d   1      10.180  -8.337  -1.281  0.00  0.00     0.137 C 
ATOM     34  O   LIG d   1      10.629  -7.253  -0.992  0.00  0.00    -0.297 OA
ATOM     35  C   LIG d   1       9.031  -8.473  -2.258  0.00  0.00     0.009 C 
ATOM     36  H   LIG d   1       8.666  -7.567  -2.471  0.00  0.00     0.035 H 
ATOM     37  H   LIG d   1       9.386  -8.947  -3.172  0.00  0.00     0.035 H 
ATOM     38  H   LIG d   1       7.495  -8.803  -0.780  0.00  0.00     0.031 H 
ATOM     39  C   LIG d   1       6.852  -9.604  -2.674  0.00  0.00    -0.033 C 
ATOM     40  H   LIG d   1       6.430  -8.658  -3.010  0.00  0.00     0.028 H 
ATOM     41  H   LIG d   1       7.294 -10.126  -3.523  0.00  0.00     0.028 H 
ATOM     42  H   LIG d   1       5.308  -9.950  -1.213  0.00  0.00     0.046 H 
BRANCH   5  43
ATOM     43  O   LIG d   1       6.931 -12.473  -2.717  0.00  0.00    -0.391 OA
ATOM     44  H   LIG d   1       7.855 -12.724  -2.581  0.00  0.00     0.210 HD
ENDBRANCH   5  43
BRANCH   8  45
ATOM     45  C   LIG d   1       9.175 -11.391  -2.318  0.00  0.00    -0.059 C 
ATOM     46  H   LIG d   1       9.888 -10.726  -2.808  0.00  0.00     0.024 H 
ATOM     47  H   LIG d   1       9.694 -12.277  -1.954  0.00  0.00     0.024 H 
ATOM     48  H   LIG d   1       8.406 -11.688  -3.031  0.00  0.00     0.024 H 
ENDBRANCH   8  45
BRANCH  19  49
ATOM     49  C   LIG d   1      12.757 -11.467  -0.262  0.00  0.00    -0.053 C 
ATOM     50  H   LIG d   1      13.188 -10.793  -1.004  0.00  0.00     0.024 H 
ATOM     51  H   LIG d   1      13.517 -12.179   0.064  0.00  0.00     0.024 H 
ATOM     52  H   LIG d   1      11.920 -12.006  -0.705  0.00  0.00     0.024 H 
ENDBRANCH  19  49
ENDBRANCH   1   4
TORSDOF 4
ENDMDL
