MODEL 1
REMARK VINA RESULT:      -6.4      0.000      0.000
REMARK  5 active torsions:
REMARK  status: ('A' for Active; 'I' for Inactive)
REMARK    1  A    between atoms: C_1  and  C_2 
REMARK    2  A    between atoms: C_3  and  C_17 
REMARK    3  A    between atoms: C_9  and  O_13 
REMARK    4  A    between atoms: O_13  and  C_14 
REMARK    5  A    between atoms: C_14  and  C_15 
ROOT
ATOM      1  C   LIG d   1       4.364  -2.080  -6.290  0.00  0.00     0.114 A 
ATOM      2  C   LIG d   1       3.981  -0.819  -5.967  0.00  0.00     0.067 A 
ATOM      3  C   LIG d   1       3.333   0.010  -6.998  0.00  0.00     0.200 A 
ATOM      4  O   LIG d   1       2.967   1.150  -6.766  0.00  0.00    -0.286 OA
ATOM      5  C   LIG d   1       3.147  -0.607  -8.324  0.00  0.00     0.065 A 
ATOM      6  C   LIG d   1       2.541   0.094  -9.369  0.00  0.00    -0.044 A 
ATOM      7  C   LIG d   1       2.385  -0.506 -10.586  0.00  0.00    -0.019 A 
ATOM      8  C   LIG d   1       2.824  -1.814 -10.787  0.00  0.00     0.125 A 
ATOM      9  C   LIG d   1       3.426  -2.521  -9.760  0.00  0.00     0.023 A 
ATOM     10  C   LIG d   1       3.593  -1.925  -8.517  0.00  0.00     0.142 A 
ATOM     11  O   LIG d   1       4.175  -2.600  -7.506  0.00  0.00    -0.459 OA
ATOM     12  H   LIG d   1       2.200   1.107  -9.217  0.00  0.00     0.063 H 
ATOM     13  H   LIG d   1       1.918   0.035 -11.396  0.00  0.00     0.065 H 
ATOM     14  H   LIG d   1       3.763  -3.533  -9.925  0.00  0.00     0.069 H 
ENDROOT
BRANCH   2  15
ATOM     15  C   LIG d   1       4.211  -0.284  -4.603  0.00  0.00    -0.011 A 
ATOM     16  C   LIG d   1       5.468   0.199  -4.242  0.00  0.00    -0.051 A 
ATOM     17  C   LIG d   1       5.676   0.695  -2.972  0.00  0.00    -0.026 A 
ATOM     18  H   LIG d   1       6.278   0.184  -4.957  0.00  0.00     0.062 H 
ATOM     19  C   LIG d   1       4.638   0.716  -2.056  0.00  0.00     0.123 A 
ATOM     20  H   LIG d   1       6.650   1.069  -2.693  0.00  0.00     0.065 H 
ATOM     21  C   LIG d   1       3.386   0.238  -2.409  0.00  0.00    -0.026 A 
ATOM     22  F   LIG d   1       4.846   1.203  -0.813  0.00  0.00    -0.205 F 
ATOM     23  C   LIG d   1       3.168  -0.257  -3.679  0.00  0.00    -0.051 A 
ATOM     24  H   LIG d   1       2.580   0.256  -1.691  0.00  0.00     0.065 H 
ATOM     25  H   LIG d   1       2.191  -0.624  -3.955  0.00  0.00     0.062 H 
ENDBRANCH   2  15
BRANCH   1  26
ATOM     26  C   LIG d   1       5.029  -2.927  -5.236  0.00  0.00    -0.006 C 
ATOM     27  H   LIG d   1       4.562  -2.736  -4.269  0.00  0.00     0.031 H 
ATOM     28  H   LIG d   1       4.915  -3.981  -5.491  0.00  0.00     0.031 H 
ATOM     29  H   LIG d   1       6.088  -2.679  -5.183  0.00  0.00     0.031 H 
ENDBRANCH   1  26
BRANCH   8  30
ATOM     30  O   LIG d   1       2.667  -2.396 -12.003  0.00  0.00    -0.486 OA
BRANCH  30  31
ATOM     31  C   LIG d   1       2.052  -3.686 -12.030  0.00  0.00     0.129 C 
ATOM     32  H   LIG d   1       2.183  -4.129 -13.018  0.00  0.00     0.076 H 
ATOM     33  H   LIG d   1       2.517  -4.325 -11.281  0.00  0.00     0.076 H 
BRANCH  31  34
ATOM     34  C   LIG d   1       0.582  -3.547 -11.733  0.00  0.00     0.079 C 
ATOM     35  O   LIG d   1      -0.138  -2.959 -12.505  0.00  0.00    -0.546 OA
ATOM     36  O   LIG d   1       0.072  -4.077 -10.610  0.00  0.00    -0.546 OA
ENDBRANCH  31  34
ENDBRANCH  30  31
ENDBRANCH   8  30
TORSDOF 5
ENDMDL
MODEL 2
REMARK VINA RESULT:      -6.3      1.222      2.055
REMARK  5 active torsions:
REMARK  status: ('A' for Active; 'I' for Inactive)
REMARK    1  A    between atoms: C_1  and  C_2 
REMARK    2  A    between atoms: C_3  and  C_17 
REMARK    3  A    between atoms: C_9  and  O_13 
REMARK    4  A    between atoms: O_13  and  C_14 
REMARK    5  A    between atoms: C_14  and  C_15 
ROOT
ATOM      1  C   LIG d   1       4.351  -2.061  -6.358  0.00  0.00     0.114 A 
ATOM      2  C   LIG d   1       3.968  -0.804  -6.017  0.00  0.00     0.067 A 
ATOM      3  C   LIG d   1       3.322   0.040  -7.037  0.00  0.00     0.200 A 
ATOM      4  O   LIG d   1       2.958   1.177  -6.787  0.00  0.00    -0.286 OA
ATOM      5  C   LIG d   1       3.139  -0.555  -8.372  0.00  0.00     0.065 A 
ATOM      6  C   LIG d   1       2.536   0.162  -9.408  0.00  0.00    -0.044 A 
ATOM      7  C   LIG d   1       2.382  -0.420 -10.633  0.00  0.00    -0.019 A 
ATOM      8  C   LIG d   1       2.820  -1.724 -10.854  0.00  0.00     0.125 A 
ATOM      9  C   LIG d   1       3.419  -2.448  -9.837  0.00  0.00     0.023 A 
ATOM     10  C   LIG d   1       3.584  -1.871  -8.584  0.00  0.00     0.142 A 
ATOM     11  O   LIG d   1       4.164  -2.562  -7.583  0.00  0.00    -0.459 OA
ATOM     12  H   LIG d   1       2.195   1.172  -9.240  0.00  0.00     0.063 H 
ATOM     13  H   LIG d   1       1.917   0.134 -11.436  0.00  0.00     0.065 H 
ATOM     14  H   LIG d   1       3.756  -3.458 -10.017  0.00  0.00     0.069 H 
ENDROOT
BRANCH   2  15
ATOM     15  C   LIG d   1       4.196  -0.291  -4.644  0.00  0.00    -0.011 A 
ATOM     16  C   LIG d   1       5.450   0.192  -4.276  0.00  0.00    -0.051 A 
ATOM     17  C   LIG d   1       5.656   0.668  -2.998  0.00  0.00    -0.026 A 
ATOM     18  H   LIG d   1       6.260   0.193  -4.991  0.00  0.00     0.062 H 
ATOM     19  C   LIG d   1       4.618   0.669  -2.081  0.00  0.00     0.123 A 
ATOM     20  H   LIG d   1       6.628   1.043  -2.712  0.00  0.00     0.065 H 
ATOM     21  C   LIG d   1       3.369   0.191  -2.442  0.00  0.00    -0.026 A 
ATOM     22  F   LIG d   1       4.824   1.137  -0.831  0.00  0.00    -0.205 F 
ATOM     23  C   LIG d   1       3.152  -0.284  -3.720  0.00  0.00    -0.051 A 
ATOM     24  H   LIG d   1       2.562   0.193  -1.724  0.00  0.00     0.065 H 
ATOM     25  H   LIG d   1       2.177  -0.652  -4.001  0.00  0.00     0.062 H 
ENDBRANCH   2  15
BRANCH   1  26
ATOM     26  C   LIG d   1       5.012  -2.925  -5.316  0.00  0.00    -0.006 C 
ATOM     27  H   LIG d   1       6.095  -2.830  -5.400  0.00  0.00     0.031 H 
ATOM     28  H   LIG d   1       4.696  -2.604  -4.323  0.00  0.00     0.031 H 
ATOM     29  H   LIG d   1       4.726  -3.965  -5.469  0.00  0.00     0.031 H 
ENDBRANCH   1  26
BRANCH   8  30
ATOM     30  O   LIG d   1       2.665  -2.288 -12.079  0.00  0.00    -0.486 OA
BRANCH  30  31
ATOM     31  C   LIG d   1       3.163  -1.554 -13.199  0.00  0.00     0.129 C 
ATOM     32  H   LIG d   1       2.733  -1.956 -14.117  0.00  0.00     0.076 H 
ATOM     33  H   LIG d   1       2.887  -0.505 -13.097  0.00  0.00     0.076 H 
BRANCH  31  34
ATOM     34  C   LIG d   1       4.664  -1.677 -13.252  0.00  0.00     0.079 C 
ATOM     35  O   LIG d   1       5.355  -0.691 -13.149  0.00  0.00    -0.546 OA
ATOM     36  O   LIG d   1       5.233  -2.882 -13.414  0.00  0.00    -0.546 OA
ENDBRANCH  31  34
ENDBRANCH  30  31
ENDBRANCH   8  30
TORSDOF 5
ENDMDL
MODEL 3
REMARK VINA RESULT:      -5.9     10.654     13.762
REMARK  5 active torsions:
REMARK  status: ('A' for Active; 'I' for Inactive)
REMARK    1  A    between atoms: C_1  and  C_2 
REMARK    2  A    between atoms: C_3  and  C_17 
REMARK    3  A    between atoms: C_9  and  O_13 
REMARK    4  A    between atoms: O_13  and  C_14 
REMARK    5  A    between atoms: C_14  and  C_15 
ROOT
ATOM      1  C   LIG d   1       7.465 -10.975  -1.264  0.00  0.00     0.114 A 
ATOM      2  C   LIG d   1       7.067 -10.292  -2.368  0.00  0.00     0.067 A 
ATOM      3  C   LIG d   1       7.850  -9.120  -2.795  0.00  0.00     0.200 A 
ATOM      4  O   LIG d   1       7.541  -8.468  -3.778  0.00  0.00    -0.286 OA
ATOM      5  C   LIG d   1       9.026  -8.773  -1.976  0.00  0.00     0.065 A 
ATOM      6  C   LIG d   1       9.835  -7.681  -2.297  0.00  0.00    -0.044 A 
ATOM      7  C   LIG d   1      10.916  -7.387  -1.516  0.00  0.00    -0.019 A 
ATOM      8  C   LIG d   1      11.216  -8.173  -0.405  0.00  0.00     0.125 A 
ATOM      9  C   LIG d   1      10.423  -9.259  -0.075  0.00  0.00     0.023 A 
ATOM     10  C   LIG d   1       9.320  -9.571  -0.857  0.00  0.00     0.142 A 
ATOM     11  O   LIG d   1       8.539 -10.625  -0.550  0.00  0.00    -0.459 OA
ATOM     12  H   LIG d   1       9.605  -7.071  -3.157  0.00  0.00     0.063 H 
ATOM     13  H   LIG d   1      11.542  -6.542  -1.763  0.00  0.00     0.065 H 
ATOM     14  H   LIG d   1      10.663  -9.861   0.789  0.00  0.00     0.069 H 
ENDROOT
BRANCH   2  15
ATOM     15  C   LIG d   1       5.867 -10.717  -3.130  0.00  0.00    -0.011 A 
ATOM     16  C   LIG d   1       6.003 -11.533  -4.251  0.00  0.00    -0.051 A 
ATOM     17  C   LIG d   1       4.884 -11.926  -4.956  0.00  0.00    -0.026 A 
ATOM     18  H   LIG d   1       6.984 -11.858  -4.567  0.00  0.00     0.062 H 
ATOM     19  C   LIG d   1       3.627 -11.511  -4.550  0.00  0.00     0.123 A 
ATOM     20  H   LIG d   1       4.989 -12.558  -5.825  0.00  0.00     0.065 H 
ATOM     21  C   LIG d   1       3.486 -10.700  -3.435  0.00  0.00    -0.026 A 
ATOM     22  F   LIG d   1       2.534 -11.899  -5.243  0.00  0.00    -0.205 F 
ATOM     23  C   LIG d   1       4.599 -10.306  -2.721  0.00  0.00    -0.051 A 
ATOM     24  H   LIG d   1       2.503 -10.379  -3.123  0.00  0.00     0.065 H 
ATOM     25  H   LIG d   1       4.488  -9.678  -1.851  0.00  0.00     0.062 H 
ENDBRANCH   2  15
BRANCH   1  26
ATOM     26  C   LIG d   1       6.663 -12.173  -0.827  0.00  0.00    -0.006 C 
ATOM     27  H   LIG d   1       6.159 -11.949   0.114  0.00  0.00     0.031 H 
ATOM     28  H   LIG d   1       5.920 -12.411  -1.587  0.00  0.00     0.031 H 
ATOM     29  H   LIG d   1       7.327 -13.026  -0.688  0.00  0.00     0.031 H 
ENDBRANCH   1  26
BRANCH   8  30
ATOM     30  O   LIG d   1      12.291  -7.865   0.365  0.00  0.00    -0.486 OA
BRANCH  30  31
ATOM     31  C   LIG d   1      12.550  -8.712   1.486  0.00  0.00     0.129 C 
ATOM     32  H   LIG d   1      11.678  -9.338   1.677  0.00  0.00     0.076 H 
ATOM     33  H   LIG d   1      13.411  -9.345   1.272  0.00  0.00     0.076 H 
BRANCH  31  34
ATOM     34  C   LIG d   1      12.836  -7.866   2.699  0.00  0.00     0.079 C 
ATOM     35  O   LIG d   1      13.867  -7.239   2.769  0.00  0.00    -0.546 OA
ATOM     36  O   LIG d   1      11.947  -7.809   3.702  0.00  0.00    -0.546 OA
ENDBRANCH  31  34
ENDBRANCH  30  31
ENDBRANCH   8  30
TORSDOF 5
ENDMDL
MODEL 4
REMARK VINA RESULT:      -5.8      3.889      5.439
REMARK  5 active torsions:
REMARK  status: ('A' for Active; 'I' for Inactive)
REMARK    1  A    between atoms: C_1  and  C_2 
REMARK    2  A    between atoms: C_3  and  C_17 
REMARK    3  A    between atoms: C_9  and  O_13 
REMARK    4  A    between atoms: O_13  and  C_14 
REMARK    5  A    between atoms: C_14  and  C_15 
ROOT
ATOM      1  C   LIG d   1       3.030  -2.663  -9.280  0.00  0.00     0.114 A 
ATOM      2  C   LIG d   1       2.464  -1.622  -9.942  0.00  0.00     0.067 A 
ATOM      3  C   LIG d   1       1.356  -1.895 -10.874  0.00  0.00     0.200 A 
ATOM      4  O   LIG d   1       0.809  -0.999 -11.495  0.00  0.00    -0.286 OA
ATOM      5  C   LIG d   1       0.941  -3.301 -11.017  0.00  0.00     0.065 A 
ATOM      6  C   LIG d   1      -0.100  -3.665 -11.874  0.00  0.00    -0.044 A 
ATOM      7  C   LIG d   1      -0.459  -4.978 -11.984  0.00  0.00    -0.019 A 
ATOM      8  C   LIG d   1       0.207  -5.954 -11.245  0.00  0.00     0.125 A 
ATOM      9  C   LIG d   1       1.240  -5.608 -10.391  0.00  0.00     0.023 A 
ATOM     10  C   LIG d   1       1.618  -4.278 -10.268  0.00  0.00     0.142 A 
ATOM     11  O   LIG d   1       2.622  -3.925  -9.440  0.00  0.00    -0.459 OA
ATOM     12  H   LIG d   1      -0.618  -2.911 -12.448  0.00  0.00     0.063 H 
ATOM     13  H   LIG d   1      -1.264  -5.261 -12.647  0.00  0.00     0.065 H 
ATOM     14  H   LIG d   1       1.750  -6.372  -9.822  0.00  0.00     0.069 H 
ENDROOT
BRANCH   2  15
ATOM     15  C   LIG d   1       2.951  -0.237  -9.732  0.00  0.00    -0.011 A 
ATOM     16  C   LIG d   1       2.463   0.524  -8.671  0.00  0.00    -0.051 A 
ATOM     17  C   LIG d   1       2.919   1.812  -8.480  0.00  0.00    -0.026 A 
ATOM     18  H   LIG d   1       1.727   0.105  -8.000  0.00  0.00     0.062 H 
ATOM     19  C   LIG d   1       3.862   2.349  -9.340  0.00  0.00     0.123 A 
ATOM     20  H   LIG d   1       2.540   2.401  -7.659  0.00  0.00     0.065 H 
ATOM     21  C   LIG d   1       4.352   1.597 -10.396  0.00  0.00    -0.026 A 
ATOM     22  F   LIG d   1       4.306   3.610  -9.149  0.00  0.00    -0.205 F 
ATOM     23  C   LIG d   1       3.904   0.306 -10.592  0.00  0.00    -0.051 A 
ATOM     24  H   LIG d   1       5.087   2.020 -11.064  0.00  0.00     0.065 H 
ATOM     25  H   LIG d   1       4.290  -0.280 -11.412  0.00  0.00     0.062 H 
ENDBRANCH   2  15
BRANCH   1  26
ATOM     26  C   LIG d   1       4.164  -2.384  -8.328  0.00  0.00    -0.006 C 
ATOM     27  H   LIG d   1       4.898  -1.742  -8.815  0.00  0.00     0.031 H 
ATOM     28  H   LIG d   1       3.779  -1.885  -7.439  0.00  0.00     0.031 H 
ATOM     29  H   LIG d   1       4.638  -3.323  -8.040  0.00  0.00     0.031 H 
ENDBRANCH   1  26
BRANCH   8  30
ATOM     30  O   LIG d   1      -0.158  -7.256 -11.368  0.00  0.00    -0.486 OA
BRANCH  30  31
ATOM     31  C   LIG d   1      -0.435  -7.969 -10.162  0.00  0.00     0.129 C 
ATOM     32  H   LIG d   1      -0.539  -9.032 -10.384  0.00  0.00     0.076 H 
ATOM     33  H   LIG d   1       0.384  -7.824  -9.458  0.00  0.00     0.076 H 
BRANCH  31  34
ATOM     34  C   LIG d   1      -1.716  -7.455  -9.558  0.00  0.00     0.079 C 
ATOM     35  O   LIG d   1      -2.779  -7.880  -9.943  0.00  0.00    -0.546 OA
ATOM     36  O   LIG d   1      -1.676  -6.525  -8.591  0.00  0.00    -0.546 OA
ENDBRANCH  31  34
ENDBRANCH  30  31
ENDBRANCH   8  30
TORSDOF 5
ENDMDL
MODEL 5
REMARK VINA RESULT:      -5.7      8.826     11.884
REMARK  5 active torsions:
REMARK  status: ('A' for Active; 'I' for Inactive)
REMARK    1  A    between atoms: C_1  and  C_2 
REMARK    2  A    between atoms: C_3  and  C_17 
REMARK    3  A    between atoms: C_9  and  O_13 
REMARK    4  A    between atoms: O_13  and  C_14 
REMARK    5  A    between atoms: C_14  and  C_15 
ROOT
ATOM      1  C   LIG d   1      10.674   6.744  -0.508  0.00  0.00     0.114 A 
ATOM      2  C   LIG d   1      10.559   7.907  -1.198  0.00  0.00     0.067 A 
ATOM      3  C   LIG d   1      10.173   7.852  -2.618  0.00  0.00     0.200 A 
ATOM      4  O   LIG d   1      10.054   8.865  -3.287  0.00  0.00    -0.286 OA
ATOM      5  C   LIG d   1       9.939   6.515  -3.191  0.00  0.00     0.065 A 
ATOM      6  C   LIG d   1       9.569   6.355  -4.528  0.00  0.00    -0.044 A 
ATOM      7  C   LIG d   1       9.361   5.101  -5.027  0.00  0.00    -0.019 A 
ATOM      8  C   LIG d   1       9.513   3.983  -4.209  0.00  0.00     0.125 A 
ATOM      9  C   LIG d   1       9.879   4.126  -2.882  0.00  0.00     0.023 A 
ATOM     10  C   LIG d   1      10.096   5.394  -2.358  0.00  0.00     0.142 A 
ATOM     11  O   LIG d   1      10.452   5.551  -1.068  0.00  0.00    -0.459 OA
ATOM     12  H   LIG d   1       9.450   7.219  -5.164  0.00  0.00     0.063 H 
ATOM     13  H   LIG d   1       9.075   4.975  -6.062  0.00  0.00     0.065 H 
ATOM     14  H   LIG d   1       9.996   3.254  -2.255  0.00  0.00     0.069 H 
ENDROOT
BRANCH   2  15
ATOM     15  C   LIG d   1      10.815   9.209  -0.534  0.00  0.00    -0.011 A 
ATOM     16  C   LIG d   1      12.118   9.684  -0.405  0.00  0.00    -0.051 A 
ATOM     17  C   LIG d   1      12.351  10.895   0.214  0.00  0.00    -0.026 A 
ATOM     18  H   LIG d   1      12.946   9.104  -0.788  0.00  0.00     0.062 H 
ATOM     19  C   LIG d   1      11.291  11.639   0.704  0.00  0.00     0.123 A 
ATOM     20  H   LIG d   1      13.361  11.264   0.313  0.00  0.00     0.065 H 
ATOM     21  C   LIG d   1       9.994  11.172   0.578  0.00  0.00    -0.026 A 
ATOM     22  F   LIG d   1      11.524  12.825   1.308  0.00  0.00    -0.205 F 
ATOM     23  C   LIG d   1       9.751   9.963  -0.043  0.00  0.00    -0.051 A 
ATOM     24  H   LIG d   1       9.170  11.755   0.962  0.00  0.00     0.065 H 
ATOM     25  H   LIG d   1       8.739   9.602  -0.145  0.00  0.00     0.062 H 
ENDBRANCH   2  15
BRANCH   1  26
ATOM     26  C   LIG d   1      11.069   6.799   0.945  0.00  0.00    -0.006 C 
ATOM     27  H   LIG d   1      11.013   7.829   1.297  0.00  0.00     0.031 H 
ATOM     28  H   LIG d   1      10.391   6.179   1.530  0.00  0.00     0.031 H 
ATOM     29  H   LIG d   1      12.088   6.431   1.060  0.00  0.00     0.031 H 
ENDBRANCH   1  26
BRANCH   8  30
ATOM     30  O   LIG d   1       9.308   2.743  -4.721  0.00  0.00    -0.486 OA
BRANCH  30  31
ATOM     31  C   LIG d   1       8.851   1.735  -3.816  0.00  0.00     0.129 C 
ATOM     32  H   LIG d   1       9.423   0.820  -3.973  0.00  0.00     0.076 H 
ATOM     33  H   LIG d   1       8.988   2.078  -2.791  0.00  0.00     0.076 H 
BRANCH  31  34
ATOM     34  C   LIG d   1       7.390   1.463  -4.065  0.00  0.00     0.079 C 
ATOM     35  O   LIG d   1       7.010   1.175  -5.175  0.00  0.00    -0.546 OA
ATOM     36  O   LIG d   1       6.511   1.540  -3.054  0.00  0.00    -0.546 OA
ENDBRANCH  31  34
ENDBRANCH  30  31
ENDBRANCH   8  30
TORSDOF 5
ENDMDL
MODEL 6
REMARK VINA RESULT:      -5.7      4.739      6.352
REMARK  5 active torsions:
REMARK  status: ('A' for Active; 'I' for Inactive)
REMARK    1  A    between atoms: C_1  and  C_2 
REMARK    2  A    between atoms: C_3  and  C_17 
REMARK    3  A    between atoms: C_9  and  O_13 
REMARK    4  A    between atoms: O_13  and  C_14 
REMARK    5  A    between atoms: C_14  and  C_15 
ROOT
ATOM      1  C   LIG d   1       8.801   0.062  -4.963  0.00  0.00     0.114 A 
ATOM      2  C   LIG d   1       8.221   1.081  -4.280  0.00  0.00     0.067 A 
ATOM      3  C   LIG d   1       6.885   0.871  -3.696  0.00  0.00     0.200 A 
ATOM      4  O   LIG d   1       6.315   1.750  -3.072  0.00  0.00    -0.286 OA
ATOM      5  C   LIG d   1       6.271  -0.453  -3.903  0.00  0.00     0.065 A 
ATOM      6  C   LIG d   1       5.008  -0.753  -3.389  0.00  0.00    -0.044 A 
ATOM      7  C   LIG d   1       4.468  -1.989  -3.599  0.00  0.00    -0.019 A 
ATOM      8  C   LIG d   1       5.172  -2.952  -4.321  0.00  0.00     0.125 A 
ATOM      9  C   LIG d   1       6.425  -2.668  -4.837  0.00  0.00     0.023 A 
ATOM     10  C   LIG d   1       6.989  -1.416  -4.632  0.00  0.00     0.142 A 
ATOM     11  O   LIG d   1       8.209  -1.124  -5.126  0.00  0.00    -0.459 OA
ATOM     12  H   LIG d   1       4.460  -0.010  -2.829  0.00  0.00     0.063 H 
ATOM     13  H   LIG d   1       3.491  -2.223  -3.203  0.00  0.00     0.065 H 
ATOM     14  H   LIG d   1       6.963  -3.420  -5.395  0.00  0.00     0.069 H 
ENDROOT
BRANCH   2  15
ATOM     15  C   LIG d   1       8.918   2.381  -4.124  0.00  0.00    -0.011 A 
ATOM     16  C   LIG d   1       8.707   3.404  -5.047  0.00  0.00    -0.051 A 
ATOM     17  C   LIG d   1       9.357   4.611  -4.897  0.00  0.00    -0.026 A 
ATOM     18  H   LIG d   1       8.034   3.251  -5.878  0.00  0.00     0.062 H 
ATOM     19  C   LIG d   1      10.219   4.808  -3.830  0.00  0.00     0.123 A 
ATOM     20  H   LIG d   1       9.193   5.404  -5.612  0.00  0.00     0.065 H 
ATOM     21  C   LIG d   1      10.432   3.795  -2.910  0.00  0.00    -0.026 A 
ATOM     22  F   LIG d   1      10.853   5.992  -3.687  0.00  0.00    -0.205 F 
ATOM     23  C   LIG d   1       9.782   2.585  -3.050  0.00  0.00    -0.051 A 
ATOM     24  H   LIG d   1      11.105   3.953  -2.080  0.00  0.00     0.065 H 
ATOM     25  H   LIG d   1       9.945   1.798  -2.329  0.00  0.00     0.062 H 
ENDBRANCH   2  15
BRANCH   1  26
ATOM     26  C   LIG d   1      10.168   0.277  -5.561  0.00  0.00    -0.006 C 
ATOM     27  H   LIG d   1      10.916   0.267  -4.769  0.00  0.00     0.031 H 
ATOM     28  H   LIG d   1      10.383  -0.520  -6.273  0.00  0.00     0.031 H 
ATOM     29  H   LIG d   1      10.194   1.238  -6.074  0.00  0.00     0.031 H 
ENDBRANCH   1  26
BRANCH   8  30
ATOM     30  O   LIG d   1       4.621  -4.175  -4.527  0.00  0.00    -0.486 OA
BRANCH  30  31
ATOM     31  C   LIG d   1       5.354  -5.089  -5.345  0.00  0.00     0.129 C 
ATOM     32  H   LIG d   1       6.277  -4.614  -5.681  0.00  0.00     0.076 H 
ATOM     33  H   LIG d   1       5.594  -5.981  -4.767  0.00  0.00     0.076 H 
BRANCH  31  34
ATOM     34  C   LIG d   1       4.521  -5.471  -6.541  0.00  0.00     0.079 C 
ATOM     35  O   LIG d   1       5.057  -5.867  -7.549  0.00  0.00    -0.546 OA
ATOM     36  O   LIG d   1       3.184  -5.371  -6.486  0.00  0.00    -0.546 OA
ENDBRANCH  31  34
ENDBRANCH  30  31
ENDBRANCH   8  30
TORSDOF 5
ENDMDL
MODEL 7
REMARK VINA RESULT:      -5.6      3.824      7.992
REMARK  5 active torsions:
REMARK  status: ('A' for Active; 'I' for Inactive)
REMARK    1  A    between atoms: C_1  and  C_2 
REMARK    2  A    between atoms: C_3  and  C_17 
REMARK    3  A    between atoms: C_9  and  O_13 
REMARK    4  A    between atoms: O_13  and  C_14 
REMARK    5  A    between atoms: C_14  and  C_15 
ROOT
ATOM      1  C   LIG d   1       4.712  -2.259  -9.241  0.00  0.00     0.114 A 
ATOM      2  C   LIG d   1       3.876  -1.354  -9.809  0.00  0.00     0.067 A 
ATOM      3  C   LIG d   1       3.156  -0.411  -8.936  0.00  0.00     0.200 A 
ATOM      4  O   LIG d   1       2.392   0.424  -9.391  0.00  0.00    -0.286 OA
ATOM      5  C   LIG d   1       3.403  -0.526  -7.488  0.00  0.00     0.065 A 
ATOM      6  C   LIG d   1       2.770   0.321  -6.576  0.00  0.00    -0.044 A 
ATOM      7  C   LIG d   1       3.021   0.187  -5.241  0.00  0.00    -0.019 A 
ATOM      8  C   LIG d   1       3.906  -0.789  -4.785  0.00  0.00     0.125 A 
ATOM      9  C   LIG d   1       4.541  -1.636  -5.678  0.00  0.00     0.023 A 
ATOM     10  C   LIG d   1       4.297  -1.513  -7.039  0.00  0.00     0.142 A 
ATOM     11  O   LIG d   1       4.908  -2.329  -7.921  0.00  0.00    -0.459 OA
ATOM     12  H   LIG d   1       2.084   1.078  -6.925  0.00  0.00     0.063 H 
ATOM     13  H   LIG d   1       2.532   0.841  -4.534  0.00  0.00     0.065 H 
ATOM     14  H   LIG d   1       5.225  -2.389  -5.316  0.00  0.00     0.069 H 
ENDROOT
BRANCH   2  15
ATOM     15  C   LIG d   1       3.691  -1.314 -11.280  0.00  0.00    -0.011 A 
ATOM     16  C   LIG d   1       4.537  -0.539 -12.071  0.00  0.00    -0.051 A 
ATOM     17  C   LIG d   1       4.361  -0.505 -13.439  0.00  0.00    -0.026 A 
ATOM     18  H   LIG d   1       5.330   0.035 -11.613  0.00  0.00     0.062 H 
ATOM     19  C   LIG d   1       3.345  -1.241 -14.027  0.00  0.00     0.123 A 
ATOM     20  H   LIG d   1       5.016   0.096 -14.052  0.00  0.00     0.065 H 
ATOM     21  C   LIG d   1       2.502  -2.013 -13.245  0.00  0.00    -0.026 A 
ATOM     22  F   LIG d   1       3.177  -1.205 -15.367  0.00  0.00    -0.205 F 
ATOM     23  C   LIG d   1       2.674  -2.057 -11.876  0.00  0.00    -0.051 A 
ATOM     24  H   LIG d   1       1.711  -2.585 -13.708  0.00  0.00     0.065 H 
ATOM     25  H   LIG d   1       2.019  -2.663 -11.269  0.00  0.00     0.062 H 
ENDBRANCH   2  15
BRANCH   1  26
ATOM     26  C   LIG d   1       5.449  -3.225 -10.134  0.00  0.00    -0.006 C 
ATOM     27  H   LIG d   1       5.823  -2.695 -11.010  0.00  0.00     0.031 H 
ATOM     28  H   LIG d   1       6.286  -3.659  -9.587  0.00  0.00     0.031 H 
ATOM     29  H   LIG d   1       4.772  -4.017 -10.450  0.00  0.00     0.031 H 
ENDBRANCH   1  26
BRANCH   8  30
ATOM     30  O   LIG d   1       4.142  -0.914  -3.454  0.00  0.00    -0.486 OA
BRANCH  30  31
ATOM     31  C   LIG d   1       5.454  -0.585  -2.994  0.00  0.00     0.129 C 
ATOM     32  H   LIG d   1       5.715  -1.227  -2.152  0.00  0.00     0.076 H 
ATOM     33  H   LIG d   1       6.171  -0.737  -3.801  0.00  0.00     0.076 H 
BRANCH  31  34
ATOM     34  C   LIG d   1       5.486   0.856  -2.556  0.00  0.00     0.079 C 
ATOM     35  O   LIG d   1       6.139   1.661  -3.174  0.00  0.00    -0.546 OA
ATOM     36  O   LIG d   1       4.788   1.244  -1.477  0.00  0.00    -0.546 OA
ENDBRANCH  31  34
ENDBRANCH  30  31
ENDBRANCH   8  30
TORSDOF 5
ENDMDL
MODEL 8
REMARK VINA RESULT:      -5.6     10.566     14.315
REMARK  5 active torsions:
REMARK  status: ('A' for Active; 'I' for Inactive)
REMARK    1  A    between atoms: C_1  and  C_2 
REMARK    2  A    between atoms: C_3  and  C_17 
REMARK    3  A    between atoms: C_9  and  O_13 
REMARK    4  A    between atoms: O_13  and  C_14 
REMARK    5  A    between atoms: C_14  and  C_15 
ROOT
ATOM      1  C   LIG d   1       7.585  -9.386  -3.040  0.00  0.00     0.114 A 
ATOM      2  C   LIG d   1       6.938 -10.534  -2.718  0.00  0.00     0.067 A 
ATOM      3  C   LIG d   1       7.453 -11.347  -1.602  0.00  0.00     0.200 A 
ATOM      4  O   LIG d   1       6.913 -12.388  -1.268  0.00  0.00    -0.286 OA
ATOM      5  C   LIG d   1       8.652 -10.841  -0.911  0.00  0.00     0.065 A 
ATOM      6  C   LIG d   1       9.218 -11.536   0.160  0.00  0.00    -0.044 A 
ATOM      7  C   LIG d   1      10.330 -11.040   0.778  0.00  0.00    -0.019 A 
ATOM      8  C   LIG d   1      10.899  -9.843   0.347  0.00  0.00     0.125 A 
ATOM      9  C   LIG d   1      10.348  -9.142  -0.712  0.00  0.00     0.023 A 
ATOM     10  C   LIG d   1       9.219  -9.633  -1.353  0.00  0.00     0.142 A 
ATOM     11  O   LIG d   1       8.670  -8.963  -2.385  0.00  0.00    -0.459 OA
ATOM     12  H   LIG d   1       8.779 -12.464   0.496  0.00  0.00     0.063 H 
ATOM     13  H   LIG d   1      10.769 -11.577   1.606  0.00  0.00     0.065 H 
ATOM     14  H   LIG d   1      10.797  -8.215  -1.039  0.00  0.00     0.069 H 
ENDROOT
BRANCH   2  15
ATOM     15  C   LIG d   1       5.736 -10.964  -3.473  0.00  0.00    -0.011 A 
ATOM     16  C   LIG d   1       5.873 -11.721  -4.635  0.00  0.00    -0.051 A 
ATOM     17  C   LIG d   1       4.752 -12.118  -5.334  0.00  0.00    -0.026 A 
ATOM     18  H   LIG d   1       6.856 -11.997  -4.988  0.00  0.00     0.062 H 
ATOM     19  C   LIG d   1       3.491 -11.766  -4.882  0.00  0.00     0.123 A 
ATOM     20  H   LIG d   1       4.857 -12.705  -6.234  0.00  0.00     0.065 H 
ATOM     21  C   LIG d   1       3.349 -11.013  -3.727  0.00  0.00    -0.026 A 
ATOM     22  F   LIG d   1       2.395 -12.157  -5.569  0.00  0.00    -0.205 F 
ATOM     23  C   LIG d   1       4.465 -10.616  -3.019  0.00  0.00    -0.051 A 
ATOM     24  H   LIG d   1       2.364 -10.741  -3.378  0.00  0.00     0.065 H 
ATOM     25  H   LIG d   1       4.353 -10.034  -2.117  0.00  0.00     0.062 H 
ENDBRANCH   2  15
BRANCH   1  26
ATOM     26  C   LIG d   1       7.059  -8.554  -4.181  0.00  0.00    -0.006 C 
ATOM     27  H   LIG d   1       7.485  -8.914  -5.118  0.00  0.00     0.031 H 
ATOM     28  H   LIG d   1       5.973  -8.637  -4.222  0.00  0.00     0.031 H 
ATOM     29  H   LIG d   1       7.338  -7.511  -4.032  0.00  0.00     0.031 H 
ENDBRANCH   1  26
BRANCH   8  30
ATOM     30  O   LIG d   1      12.007  -9.363   0.968  0.00  0.00    -0.486 OA
BRANCH  30  31
ATOM     31  C   LIG d   1      11.829  -8.248   1.843  0.00  0.00     0.129 C 
ATOM     32  H   LIG d   1      12.565  -7.479   1.604  0.00  0.00     0.076 H 
ATOM     33  H   LIG d   1      10.826  -7.842   1.715  0.00  0.00     0.076 H 
BRANCH  31  34
ATOM     34  C   LIG d   1      12.015  -8.694   3.270  0.00  0.00     0.079 C 
ATOM     35  O   LIG d   1      11.612  -8.004   4.176  0.00  0.00    -0.546 OA
ATOM     36  O   LIG d   1      12.629  -9.858   3.534  0.00  0.00    -0.546 OA
ENDBRANCH  31  34
ENDBRANCH  30  31
ENDBRANCH   8  30
TORSDOF 5
ENDMDL
MODEL 9
REMARK VINA RESULT:      -5.6      9.854     13.278
REMARK  5 active torsions:
REMARK  status: ('A' for Active; 'I' for Inactive)
REMARK    1  A    between atoms: C_1  and  C_2 
REMARK    2  A    between atoms: C_3  and  C_17 
REMARK    3  A    between atoms: C_9  and  O_13 
REMARK    4  A    between atoms: O_13  and  C_14 
REMARK    5  A    between atoms: C_14  and  C_15 
ROOT
ATOM      1  C   LIG d   1       9.641   7.816  -6.435  0.00  0.00     0.114 A 
ATOM      2  C   LIG d   1       9.862   6.594  -6.983  0.00  0.00     0.067 A 
ATOM      3  C   LIG d   1      10.073   5.445  -6.086  0.00  0.00     0.200 A 
ATOM      4  O   LIG d   1      10.276   4.324  -6.521  0.00  0.00    -0.286 OA
ATOM      5  C   LIG d   1      10.028   5.716  -4.638  0.00  0.00     0.065 A 
ATOM      6  C   LIG d   1      10.216   4.695  -3.704  0.00  0.00    -0.044 A 
ATOM      7  C   LIG d   1      10.169   4.981  -2.370  0.00  0.00    -0.019 A 
ATOM      8  C   LIG d   1       9.932   6.285  -1.937  0.00  0.00     0.125 A 
ATOM      9  C   LIG d   1       9.744   7.307  -2.851  0.00  0.00     0.023 A 
ATOM     10  C   LIG d   1       9.789   7.034  -4.212  0.00  0.00     0.142 A 
ATOM     11  O   LIG d   1       9.607   8.018  -5.115  0.00  0.00    -0.459 OA
ATOM     12  H   LIG d   1      10.399   3.684  -4.036  0.00  0.00     0.063 H 
ATOM     13  H   LIG d   1      10.314   4.192  -1.646  0.00  0.00     0.065 H 
ATOM     14  H   LIG d   1       9.562   8.314  -2.507  0.00  0.00     0.069 H 
ENDROOT
BRANCH   2  15
ATOM     15  C   LIG d   1       9.889   6.418  -8.456  0.00  0.00    -0.011 A 
ATOM     16  C   LIG d   1      11.089   6.542  -9.153  0.00  0.00    -0.051 A 
ATOM     17  C   LIG d   1      11.109   6.378 -10.522  0.00  0.00    -0.026 A 
ATOM     18  H   LIG d   1      12.003   6.766  -8.621  0.00  0.00     0.062 H 
ATOM     19  C   LIG d   1       9.939   6.088 -11.205  0.00  0.00     0.123 A 
ATOM     20  H   LIG d   1      12.039   6.473 -11.063  0.00  0.00     0.065 H 
ATOM     21  C   LIG d   1       8.743   5.964 -10.516  0.00  0.00    -0.026 A 
ATOM     22  F   LIG d   1       9.963   5.928 -12.546  0.00  0.00    -0.205 F 
ATOM     23  C   LIG d   1       8.714   6.123  -9.145  0.00  0.00    -0.051 A 
ATOM     24  H   LIG d   1       7.833   5.739 -11.052  0.00  0.00     0.065 H 
ATOM     25  H   LIG d   1       7.783   6.021  -8.609  0.00  0.00     0.062 H 
ENDBRANCH   2  15
BRANCH   1  26
ATOM     26  C   LIG d   1       9.425   8.992  -7.353  0.00  0.00    -0.006 C 
ATOM     27  H   LIG d   1       9.287   9.896  -6.758  0.00  0.00     0.031 H 
ATOM     28  H   LIG d   1      10.294   9.113  -7.999  0.00  0.00     0.031 H 
ATOM     29  H   LIG d   1       8.539   8.820  -7.963  0.00  0.00     0.031 H 
ENDBRANCH   1  26
BRANCH   8  30
ATOM     30  O   LIG d   1       9.893   6.555  -0.607  0.00  0.00    -0.486 OA
BRANCH  30  31
ATOM     31  C   LIG d   1      11.125   6.921   0.017  0.00  0.00     0.129 C 
ATOM     32  H   LIG d   1      11.948   6.400  -0.472  0.00  0.00     0.076 H 
ATOM     33  H   LIG d   1      11.271   7.997  -0.072  0.00  0.00     0.076 H 
BRANCH  31  34
ATOM     34  C   LIG d   1      11.082   6.538   1.474  0.00  0.00     0.079 C 
ATOM     35  O   LIG d   1      10.690   5.442   1.799  0.00  0.00    -0.546 OA
ATOM     36  O   LIG d   1      11.478   7.414   2.410  0.00  0.00    -0.546 OA
ENDBRANCH  31  34
ENDBRANCH  30  31
ENDBRANCH   8  30
TORSDOF 5
ENDMDL
MODEL 10
REMARK VINA RESULT:      -5.3      8.930     13.571
REMARK  5 active torsions:
REMARK  status: ('A' for Active; 'I' for Inactive)
REMARK    1  A    between atoms: C_1  and  C_2 
REMARK    2  A    between atoms: C_3  and  C_17 
REMARK    3  A    between atoms: C_9  and  O_13 
REMARK    4  A    between atoms: O_13  and  C_14 
REMARK    5  A    between atoms: C_14  and  C_15 
ROOT
ATOM      1  C   LIG d   1      10.888   3.548  -2.997  0.00  0.00     0.114 A 
ATOM      2  C   LIG d   1      10.082   4.218  -3.858  0.00  0.00     0.067 A 
ATOM      3  C   LIG d   1       9.616   5.566  -3.489  0.00  0.00     0.200 A 
ATOM      4  O   LIG d   1       8.891   6.216  -4.223  0.00  0.00    -0.286 OA
ATOM      5  C   LIG d   1      10.070   6.091  -2.188  0.00  0.00     0.065 A 
ATOM      6  C   LIG d   1       9.686   7.359  -1.746  0.00  0.00    -0.044 A 
ATOM      7  C   LIG d   1      10.123   7.814  -0.536  0.00  0.00    -0.019 A 
ATOM      8  C   LIG d   1      10.952   7.022   0.257  0.00  0.00     0.125 A 
ATOM      9  C   LIG d   1      11.341   5.764  -0.169  0.00  0.00     0.023 A 
ATOM     10  C   LIG d   1      10.905   5.285  -1.397  0.00  0.00     0.142 A 
ATOM     11  O   LIG d   1      11.276   4.063  -1.827  0.00  0.00    -0.459 OA
ATOM     12  H   LIG d   1       9.044   7.975  -2.358  0.00  0.00     0.063 H 
ATOM     13  H   LIG d   1       9.826   8.794  -0.191  0.00  0.00     0.065 H 
ATOM     14  H   LIG d   1      11.983   5.157   0.452  0.00  0.00     0.069 H 
ENDROOT
BRANCH   2  15
ATOM     15  C   LIG d   1       9.677   3.607  -5.148  0.00  0.00    -0.011 A 
ATOM     16  C   LIG d   1       8.671   2.643  -5.181  0.00  0.00    -0.051 A 
ATOM     17  C   LIG d   1       8.299   2.078  -6.383  0.00  0.00    -0.026 A 
ATOM     18  H   LIG d   1       8.183   2.340  -4.266  0.00  0.00     0.062 H 
ATOM     19  C   LIG d   1       8.922   2.467  -7.557  0.00  0.00     0.123 A 
ATOM     20  H   LIG d   1       7.519   1.331  -6.408  0.00  0.00     0.065 H 
ATOM     21  C   LIG d   1       9.923   3.425  -7.530  0.00  0.00    -0.026 A 
ATOM     22  F   LIG d   1       8.554   1.911  -8.731  0.00  0.00    -0.205 F 
ATOM     23  C   LIG d   1      10.299   4.000  -6.332  0.00  0.00    -0.051 A 
ATOM     24  H   LIG d   1      10.406   3.726  -8.447  0.00  0.00     0.065 H 
ATOM     25  H   LIG d   1      11.075   4.749  -6.313  0.00  0.00     0.062 H 
ENDBRANCH   2  15
BRANCH   1  26
ATOM     26  C   LIG d   1      11.363   2.169  -3.375  0.00  0.00    -0.006 C 
ATOM     27  H   LIG d   1      10.539   1.609  -3.817  0.00  0.00     0.031 H 
ATOM     28  H   LIG d   1      12.175   2.249  -4.097  0.00  0.00     0.031 H 
ATOM     29  H   LIG d   1      11.719   1.649  -2.485  0.00  0.00     0.031 H 
ENDBRANCH   1  26
BRANCH   8  30
ATOM     30  O   LIG d   1      11.375   7.486   1.461  0.00  0.00    -0.486 OA
BRANCH  30  31
ATOM     31  C   LIG d   1      11.588   8.895   1.575  0.00  0.00     0.129 C 
ATOM     32  H   LIG d   1      12.373   9.200   0.881  0.00  0.00     0.076 H 
ATOM     33  H   LIG d   1      10.666   9.422   1.334  0.00  0.00     0.076 H 
BRANCH  31  34
ATOM     34  C   LIG d   1      12.006   9.226   2.984  0.00  0.00     0.079 C 
ATOM     35  O   LIG d   1      12.407  10.334   3.250  0.00  0.00    -0.546 OA
ATOM     36  O   LIG d   1      11.933   8.290   3.943  0.00  0.00    -0.546 OA
ENDBRANCH  31  34
ENDBRANCH  30  31
ENDBRANCH   8  30
TORSDOF 5
ENDMDL
