MODEL 1
REMARK VINA RESULT:      -4.1      0.000      0.000
REMARK  6 active torsions:
REMARK  status: ('A' for Active; 'I' for Inactive)
REMARK    1  A    between atoms: C_1  and  C_2 
REMARK    2  A    between atoms: C_2  and  C_3 
REMARK    3  A    between atoms: C_2  and  C_4 
REMARK    4  A    between atoms: C_4  and  C_5 
REMARK    5  A    between atoms: C_5  and  O_7 
REMARK    6  A    between atoms: O_7  and  C_8 
ROOT
ATOM      1  C   LIG d   1       3.786  -0.882  -2.901  0.00  0.00    -0.037 C 
ATOM      2  H   LIG d   1       4.389  -0.846  -3.808  0.00  0.00     0.030 H 
ENDROOT
BRANCH   1   3
ATOM      3  C   LIG d   1       3.921  -2.262  -2.253  0.00  0.00    -0.062 C 
ATOM      4  H   LIG d   1       4.962  -2.581  -2.293  0.00  0.00     0.023 H 
ATOM      5  H   LIG d   1       3.596  -2.209  -1.214  0.00  0.00     0.023 H 
ATOM      6  H   LIG d   1       3.301  -2.979  -2.792  0.00  0.00     0.023 H 
ENDBRANCH   1   3
BRANCH   1   7
ATOM      7  C   LIG d   1       2.320  -0.626  -3.255  0.00  0.00    -0.062 C 
ATOM      8  H   LIG d   1       2.241   0.298  -3.827  0.00  0.00     0.023 H 
ATOM      9  H   LIG d   1       1.938  -1.456  -3.850  0.00  0.00     0.023 H 
ATOM     10  H   LIG d   1       1.736  -0.538  -2.338  0.00  0.00     0.023 H 
ENDBRANCH   1   7
BRANCH   1  11
ATOM     11  C   LIG d   1       4.270   0.190  -1.923  0.00  0.00     0.047 C 
ATOM     12  H   LIG d   1       5.025  -0.236  -1.261  0.00  0.00     0.038 H 
ATOM     13  H   LIG d   1       3.428   0.548  -1.331  0.00  0.00     0.038 H 
BRANCH  11  14
ATOM     14  C   LIG d   1       4.869   1.339  -2.693  0.00  0.00     0.307 C 
ATOM     15  O   LIG d   1       4.150   2.123  -3.264  0.00  0.00    -0.251 OA
BRANCH  14  16
ATOM     16  O   LIG d   1       6.202   1.493  -2.738  0.00  0.00    -0.468 OA
BRANCH  16  17
ATOM     17  C   LIG d   1       6.913   0.774  -3.779  0.00  0.00     0.082 C 
ATOM     18  H   LIG d   1       7.864   1.269  -3.979  0.00  0.00     0.066 H 
ATOM     19  H   LIG d   1       7.100  -0.249  -3.451  0.00  0.00     0.066 H 
ATOM     20  H   LIG d   1       6.312   0.760  -4.687  0.00  0.00     0.066 H 
ENDBRANCH  16  17
ENDBRANCH  14  16
ENDBRANCH  11  14
ENDBRANCH   1  11
TORSDOF 6
ENDMDL
MODEL 2
REMARK VINA RESULT:      -4.1      2.189      3.195
REMARK  6 active torsions:
REMARK  status: ('A' for Active; 'I' for Inactive)
REMARK    1  A    between atoms: C_1  and  C_2 
REMARK    2  A    between atoms: C_2  and  C_3 
REMARK    3  A    between atoms: C_2  and  C_4 
REMARK    4  A    between atoms: C_4  and  C_5 
REMARK    5  A    between atoms: C_5  and  O_7 
REMARK    6  A    between atoms: O_7  and  C_8 
ROOT
ATOM      1  C   LIG d   1       4.221  -0.297  -2.691  0.00  0.00    -0.037 C 
ATOM      2  H   LIG d   1       4.967  -0.274  -3.485  0.00  0.00     0.030 H 
ENDROOT
BRANCH   1   3
ATOM      3  C   LIG d   1       4.465   0.867  -1.728  0.00  0.00    -0.062 C 
ATOM      4  H   LIG d   1       4.722   1.761  -2.297  0.00  0.00     0.023 H 
ATOM      5  H   LIG d   1       3.562   1.054  -1.147  0.00  0.00     0.023 H 
ATOM      6  H   LIG d   1       5.286   0.617  -1.056  0.00  0.00     0.023 H 
ENDBRANCH   1   3
BRANCH   1   7
ATOM      7  C   LIG d   1       4.329  -1.620  -1.930  0.00  0.00    -0.062 C 
ATOM      8  H   LIG d   1       4.499  -2.432  -2.636  0.00  0.00     0.023 H 
ATOM      9  H   LIG d   1       5.162  -1.569  -1.228  0.00  0.00     0.023 H 
ATOM     10  H   LIG d   1       3.403  -1.800  -1.383  0.00  0.00     0.023 H 
ENDBRANCH   1   7
BRANCH   1  11
ATOM     11  C   LIG d   1       2.823  -0.171  -3.300  0.00  0.00     0.047 C 
ATOM     12  H   LIG d   1       2.204   0.460  -2.661  0.00  0.00     0.038 H 
ATOM     13  H   LIG d   1       2.372  -1.160  -3.381  0.00  0.00     0.038 H 
BRANCH  11  14
ATOM     14  C   LIG d   1       2.926   0.449  -4.670  0.00  0.00     0.307 C 
ATOM     15  O   LIG d   1       2.559   1.586  -4.847  0.00  0.00    -0.251 OA
BRANCH  14  16
ATOM     16  O   LIG d   1       3.431  -0.261  -5.691  0.00  0.00    -0.468 OA
BRANCH  16  17
ATOM     17  C   LIG d   1       2.973   0.086  -7.024  0.00  0.00     0.082 C 
ATOM     18  H   LIG d   1       3.615   0.863  -7.439  0.00  0.00     0.066 H 
ATOM     19  H   LIG d   1       3.013  -0.797  -7.663  0.00  0.00     0.066 H 
ATOM     20  H   LIG d   1       1.948   0.451  -6.973  0.00  0.00     0.066 H 
ENDBRANCH  16  17
ENDBRANCH  14  16
ENDBRANCH  11  14
ENDBRANCH   1  11
TORSDOF 6
ENDMDL
MODEL 3
REMARK VINA RESULT:      -3.7      1.990      2.848
REMARK  6 active torsions:
REMARK  status: ('A' for Active; 'I' for Inactive)
REMARK    1  A    between atoms: C_1  and  C_2 
REMARK    2  A    between atoms: C_2  and  C_3 
REMARK    3  A    between atoms: C_2  and  C_4 
REMARK    4  A    between atoms: C_4  and  C_5 
REMARK    5  A    between atoms: C_5  and  O_7 
REMARK    6  A    between atoms: O_7  and  C_8 
ROOT
ATOM      1  C   LIG d   1       4.651   0.380  -1.916  0.00  0.00    -0.037 C 
ATOM      2  H   LIG d   1       4.810   0.755  -0.906  0.00  0.00     0.030 H 
ENDROOT
BRANCH   1   3
ATOM      3  C   LIG d   1       4.433  -1.134  -1.870  0.00  0.00    -0.062 C 
ATOM      4  H   LIG d   1       3.634  -1.364  -1.166  0.00  0.00     0.023 H 
ATOM      5  H   LIG d   1       4.158  -1.492  -2.862  0.00  0.00     0.023 H 
ATOM      6  H   LIG d   1       5.353  -1.623  -1.548  0.00  0.00     0.023 H 
ENDBRANCH   1   3
BRANCH   1   7
ATOM      7  C   LIG d   1       5.877   0.694  -2.775  0.00  0.00    -0.062 C 
ATOM      8  H   LIG d   1       6.048   1.771  -2.785  0.00  0.00     0.023 H 
ATOM      9  H   LIG d   1       6.751   0.192  -2.359  0.00  0.00     0.023 H 
ATOM     10  H   LIG d   1       5.707   0.343  -3.793  0.00  0.00     0.023 H 
ENDBRANCH   1   7
BRANCH   1  11
ATOM     11  C   LIG d   1       3.417   1.054  -2.523  0.00  0.00     0.047 C 
ATOM     12  H   LIG d   1       3.654   2.089  -2.771  0.00  0.00     0.038 H 
ATOM     13  H   LIG d   1       2.601   1.031  -1.802  0.00  0.00     0.038 H 
BRANCH  11  14
ATOM     14  C   LIG d   1       3.006   0.319  -3.772  0.00  0.00     0.307 C 
ATOM     15  O   LIG d   1       2.141  -0.523  -3.720  0.00  0.00    -0.251 OA
BRANCH  14  16
ATOM     16  O   LIG d   1       3.596   0.604  -4.943  0.00  0.00    -0.468 OA
BRANCH  16  17
ATOM     17  C   LIG d   1       4.007  -0.520  -5.765  0.00  0.00     0.082 C 
ATOM     18  H   LIG d   1       5.091  -0.511  -5.879  0.00  0.00     0.066 H 
ATOM     19  H   LIG d   1       3.700  -1.451  -5.287  0.00  0.00     0.066 H 
ATOM     20  H   LIG d   1       3.538  -0.443  -6.746  0.00  0.00     0.066 H 
ENDBRANCH  16  17
ENDBRANCH  14  16
ENDBRANCH  11  14
ENDBRANCH   1  11
TORSDOF 6
ENDMDL
MODEL 4
REMARK VINA RESULT:      -3.7      2.756      3.402
REMARK  6 active torsions:
REMARK  status: ('A' for Active; 'I' for Inactive)
REMARK    1  A    between atoms: C_1  and  C_2 
REMARK    2  A    between atoms: C_2  and  C_3 
REMARK    3  A    between atoms: C_2  and  C_4 
REMARK    4  A    between atoms: C_4  and  C_5 
REMARK    5  A    between atoms: C_5  and  O_7 
REMARK    6  A    between atoms: O_7  and  C_8 
ROOT
ATOM      1  C   LIG d   1       4.182  -0.212  -2.727  0.00  0.00    -0.037 C 
ATOM      2  H   LIG d   1       4.748   0.018  -3.630  0.00  0.00     0.030 H 
ENDROOT
BRANCH   1   3
ATOM      3  C   LIG d   1       2.685  -0.187  -3.042  0.00  0.00    -0.062 C 
ATOM      4  H   LIG d   1       2.485  -0.824  -3.904  0.00  0.00     0.023 H 
ATOM      5  H   LIG d   1       2.126  -0.553  -2.182  0.00  0.00     0.023 H 
ATOM      6  H   LIG d   1       2.379   0.834  -3.268  0.00  0.00     0.023 H 
ENDBRANCH   1   3
BRANCH   1   7
ATOM      7  C   LIG d   1       4.495   0.830  -1.651  0.00  0.00    -0.062 C 
ATOM      8  H   LIG d   1       5.368   0.512  -1.081  0.00  0.00     0.023 H 
ATOM      9  H   LIG d   1       4.700   1.790  -2.123  0.00  0.00     0.023 H 
ATOM     10  H   LIG d   1       3.639   0.929  -0.983  0.00  0.00     0.023 H 
ENDBRANCH   1   7
BRANCH   1  11
ATOM     11  C   LIG d   1       4.574  -1.602  -2.221  0.00  0.00     0.047 C 
ATOM     12  H   LIG d   1       3.732  -2.045  -1.687  0.00  0.00     0.038 H 
ATOM     13  H   LIG d   1       5.426  -1.516  -1.548  0.00  0.00     0.038 H 
BRANCH  11  14
ATOM     14  C   LIG d   1       4.942  -2.477  -3.391  0.00  0.00     0.307 C 
ATOM     15  O   LIG d   1       4.188  -3.348  -3.756  0.00  0.00    -0.251 OA
BRANCH  14  16
ATOM     16  O   LIG d   1       6.106  -2.285  -4.033  0.00  0.00    -0.468 OA
BRANCH  16  17
ATOM     17  C   LIG d   1       6.037  -2.038  -5.462  0.00  0.00     0.082 C 
ATOM     18  H   LIG d   1       5.502  -1.106  -5.645  0.00  0.00     0.066 H 
ATOM     19  H   LIG d   1       7.047  -1.961  -5.866  0.00  0.00     0.066 H 
ATOM     20  H   LIG d   1       5.512  -2.860  -5.948  0.00  0.00     0.066 H 
ENDBRANCH  16  17
ENDBRANCH  14  16
ENDBRANCH  11  14
ENDBRANCH   1  11
TORSDOF 6
ENDMDL
MODEL 5
REMARK VINA RESULT:      -3.5      1.831      2.618
REMARK  6 active torsions:
REMARK  status: ('A' for Active; 'I' for Inactive)
REMARK    1  A    between atoms: C_1  and  C_2 
REMARK    2  A    between atoms: C_2  and  C_3 
REMARK    3  A    between atoms: C_2  and  C_4 
REMARK    4  A    between atoms: C_4  and  C_5 
REMARK    5  A    between atoms: C_5  and  O_7 
REMARK    6  A    between atoms: O_7  and  C_8 
ROOT
ATOM      1  C   LIG d   1       5.198  -1.411  -3.448  0.00  0.00    -0.037 C 
ATOM      2  H   LIG d   1       5.105  -0.811  -4.353  0.00  0.00     0.030 H 
ENDROOT
BRANCH   1   3
ATOM      3  C   LIG d   1       6.679  -1.635  -3.134  0.00  0.00    -0.062 C 
ATOM      4  H   LIG d   1       6.864  -2.700  -2.997  0.00  0.00     0.023 H 
ATOM      5  H   LIG d   1       7.286  -1.264  -3.960  0.00  0.00     0.023 H 
ATOM      6  H   LIG d   1       6.941  -1.101  -2.220  0.00  0.00     0.023 H 
ENDBRANCH   1   3
BRANCH   1   7
ATOM      7  C   LIG d   1       4.511  -2.761  -3.659  0.00  0.00    -0.062 C 
ATOM      8  H   LIG d   1       4.049  -3.084  -2.726  0.00  0.00     0.023 H 
ATOM      9  H   LIG d   1       3.746  -2.664  -4.429  0.00  0.00     0.023 H 
ATOM     10  H   LIG d   1       5.250  -3.499  -3.973  0.00  0.00     0.023 H 
ENDBRANCH   1   7
BRANCH   1  11
ATOM     11  C   LIG d   1       4.534  -0.677  -2.280  0.00  0.00     0.047 C 
ATOM     12  H   LIG d   1       5.290  -0.416  -1.539  0.00  0.00     0.038 H 
ATOM     13  H   LIG d   1       3.786  -1.325  -1.823  0.00  0.00     0.038 H 
BRANCH  11  14
ATOM     14  C   LIG d   1       3.872   0.578  -2.786  0.00  0.00     0.307 C 
ATOM     15  O   LIG d   1       3.431   1.386  -2.004  0.00  0.00    -0.251 OA
BRANCH  14  16
ATOM     16  O   LIG d   1       3.777   0.801  -4.106  0.00  0.00    -0.468 OA
BRANCH  16  17
ATOM     17  C   LIG d   1       2.482   0.577  -4.721  0.00  0.00     0.082 C 
ATOM     18  H   LIG d   1       1.785   1.348  -4.394  0.00  0.00     0.066 H 
ATOM     19  H   LIG d   1       2.583   0.616  -5.806  0.00  0.00     0.066 H 
ATOM     20  H   LIG d   1       2.104  -0.402  -4.427  0.00  0.00     0.066 H 
ENDBRANCH  16  17
ENDBRANCH  14  16
ENDBRANCH  11  14
ENDBRANCH   1  11
TORSDOF 6
ENDMDL
MODEL 6
REMARK VINA RESULT:      -3.5      1.985      2.965
REMARK  6 active torsions:
REMARK  status: ('A' for Active; 'I' for Inactive)
REMARK    1  A    between atoms: C_1  and  C_2 
REMARK    2  A    between atoms: C_2  and  C_3 
REMARK    3  A    between atoms: C_2  and  C_4 
REMARK    4  A    between atoms: C_4  and  C_5 
REMARK    5  A    between atoms: C_5  and  O_7 
REMARK    6  A    between atoms: O_7  and  C_8 
ROOT
ATOM      1  C   LIG d   1       4.692   0.560  -1.918  0.00  0.00    -0.037 C 
ATOM      2  H   LIG d   1       4.961   0.876  -0.910  0.00  0.00     0.030 H 
ENDROOT
BRANCH   1   3
ATOM      3  C   LIG d   1       3.490   1.373  -2.403  0.00  0.00    -0.062 C 
ATOM      4  H   LIG d   1       2.720   1.378  -1.633  0.00  0.00     0.023 H 
ATOM      5  H   LIG d   1       3.803   2.397  -2.610  0.00  0.00     0.023 H 
ATOM      6  H   LIG d   1       3.091   0.924  -3.312  0.00  0.00     0.023 H 
ENDBRANCH   1   3
BRANCH   1   7
ATOM      7  C   LIG d   1       4.332  -0.927  -1.907  0.00  0.00    -0.062 C 
ATOM      8  H   LIG d   1       3.248  -1.038  -1.934  0.00  0.00     0.023 H 
ATOM      9  H   LIG d   1       4.769  -1.414  -2.778  0.00  0.00     0.023 H 
ATOM     10  H   LIG d   1       4.723  -1.387  -0.999  0.00  0.00     0.023 H 
ENDBRANCH   1   7
BRANCH   1  11
ATOM     11  C   LIG d   1       5.877   0.791  -2.859  0.00  0.00     0.047 C 
ATOM     12  H   LIG d   1       6.805   0.540  -2.343  0.00  0.00     0.038 H 
ATOM     13  H   LIG d   1       5.901   1.838  -3.161  0.00  0.00     0.038 H 
BRANCH  11  14
ATOM     14  C   LIG d   1       5.729  -0.081  -4.078  0.00  0.00     0.307 C 
ATOM     15  O   LIG d   1       6.393  -1.085  -4.187  0.00  0.00    -0.251 OA
BRANCH  14  16
ATOM     16  O   LIG d   1       4.854   0.253  -5.039  0.00  0.00    -0.468 OA
BRANCH  16  17
ATOM     17  C   LIG d   1       4.236  -0.836  -5.775  0.00  0.00     0.082 C 
ATOM     18  H   LIG d   1       4.903  -1.158  -6.576  0.00  0.00     0.066 H 
ATOM     19  H   LIG d   1       4.051  -1.672  -5.100  0.00  0.00     0.066 H 
ATOM     20  H   LIG d   1       3.293  -0.497  -6.202  0.00  0.00     0.066 H 
ENDBRANCH  16  17
ENDBRANCH  14  16
ENDBRANCH  11  14
ENDBRANCH   1  11
TORSDOF 6
ENDMDL
MODEL 7
REMARK VINA RESULT:      -3.4      2.122      2.895
REMARK  6 active torsions:
REMARK  status: ('A' for Active; 'I' for Inactive)
REMARK    1  A    between atoms: C_1  and  C_2 
REMARK    2  A    between atoms: C_2  and  C_3 
REMARK    3  A    between atoms: C_2  and  C_4 
REMARK    4  A    between atoms: C_4  and  C_5 
REMARK    5  A    between atoms: C_5  and  O_7 
REMARK    6  A    between atoms: O_7  and  C_8 
ROOT
ATOM      1  C   LIG d   1       4.885  -1.052  -2.304  0.00  0.00    -0.037 C 
ATOM      2  H   LIG d   1       5.668  -1.434  -1.649  0.00  0.00     0.030 H 
ENDROOT
BRANCH   1   3
ATOM      3  C   LIG d   1       4.389   0.295  -1.773  0.00  0.00    -0.062 C 
ATOM      4  H   LIG d   1       3.630   0.128  -1.009  0.00  0.00     0.023 H 
ATOM      5  H   LIG d   1       5.225   0.846  -1.341  0.00  0.00     0.023 H 
ATOM      6  H   LIG d   1       3.957   0.871  -2.592  0.00  0.00     0.023 H 
ENDBRANCH   1   3
BRANCH   1   7
ATOM      7  C   LIG d   1       3.722  -2.045  -2.341  0.00  0.00    -0.062 C 
ATOM      8  H   LIG d   1       3.555  -2.371  -3.367  0.00  0.00     0.023 H 
ATOM      9  H   LIG d   1       3.962  -2.909  -1.720  0.00  0.00     0.023 H 
ATOM     10  H   LIG d   1       2.821  -1.563  -1.960  0.00  0.00     0.023 H 
ENDBRANCH   1   7
BRANCH   1  11
ATOM     11  C   LIG d   1       5.445  -0.869  -3.716  0.00  0.00     0.047 C 
ATOM     12  H   LIG d   1       5.252   0.150  -4.054  0.00  0.00     0.038 H 
ATOM     13  H   LIG d   1       4.963  -1.574  -4.392  0.00  0.00     0.038 H 
BRANCH  11  14
ATOM     14  C   LIG d   1       6.931  -1.119  -3.703  0.00  0.00     0.307 C 
ATOM     15  O   LIG d   1       7.365  -2.155  -3.257  0.00  0.00    -0.251 OA
BRANCH  14  16
ATOM     16  O   LIG d   1       7.772  -0.195  -4.193  0.00  0.00    -0.468 OA
BRANCH  16  17
ATOM     17  C   LIG d   1       7.496   1.190  -3.857  0.00  0.00     0.082 C 
ATOM     18  H   LIG d   1       8.201   1.838  -4.379  0.00  0.00     0.066 H 
ATOM     19  H   LIG d   1       6.480   1.442  -4.160  0.00  0.00     0.066 H 
ATOM     20  H   LIG d   1       7.601   1.331  -2.782  0.00  0.00     0.066 H 
ENDBRANCH  16  17
ENDBRANCH  14  16
ENDBRANCH  11  14
ENDBRANCH   1  11
TORSDOF 6
ENDMDL
MODEL 8
REMARK VINA RESULT:      -3.4      1.996      2.414
REMARK  6 active torsions:
REMARK  status: ('A' for Active; 'I' for Inactive)
REMARK    1  A    between atoms: C_1  and  C_2 
REMARK    2  A    between atoms: C_2  and  C_3 
REMARK    3  A    between atoms: C_2  and  C_4 
REMARK    4  A    between atoms: C_4  and  C_5 
REMARK    5  A    between atoms: C_5  and  O_7 
REMARK    6  A    between atoms: O_7  and  C_8 
ROOT
ATOM      1  C   LIG d   1       3.436  -0.335  -2.457  0.00  0.00    -0.037 C 
ATOM      2  H   LIG d   1       2.492  -0.288  -1.914  0.00  0.00     0.030 H 
ENDROOT
BRANCH   1   3
ATOM      3  C   LIG d   1       3.983  -1.763  -2.407  0.00  0.00    -0.062 C 
ATOM      4  H   LIG d   1       5.059  -1.746  -2.576  0.00  0.00     0.023 H 
ATOM      5  H   LIG d   1       3.776  -2.198  -1.429  0.00  0.00     0.023 H 
ATOM      6  H   LIG d   1       3.504  -2.363  -3.181  0.00  0.00     0.023 H 
ENDBRANCH   1   3
BRANCH   1   7
ATOM      7  C   LIG d   1       4.441   0.620  -1.812  0.00  0.00    -0.062 C 
ATOM      8  H   LIG d   1       4.917   0.129  -0.964  0.00  0.00     0.023 H 
ATOM      9  H   LIG d   1       5.200   0.898  -2.543  0.00  0.00     0.023 H 
ATOM     10  H   LIG d   1       3.922   1.516  -1.469  0.00  0.00     0.023 H 
ENDBRANCH   1   7
BRANCH   1  11
ATOM     11  C   LIG d   1       3.206   0.072  -3.914  0.00  0.00     0.047 C 
ATOM     12  H   LIG d   1       3.112   1.157  -3.978  0.00  0.00     0.038 H 
ATOM     13  H   LIG d   1       2.293  -0.394  -4.281  0.00  0.00     0.038 H 
BRANCH  11  14
ATOM     14  C   LIG d   1       4.374  -0.380  -4.752  0.00  0.00     0.307 C 
ATOM     15  O   LIG d   1       4.279  -1.373  -5.435  0.00  0.00    -0.251 OA
BRANCH  14  16
ATOM     16  O   LIG d   1       5.518   0.323  -4.744  0.00  0.00    -0.468 OA
BRANCH  16  17
ATOM     17  C   LIG d   1       6.754  -0.431  -4.638  0.00  0.00     0.082 C 
ATOM     18  H   LIG d   1       7.529   0.056  -5.230  0.00  0.00     0.066 H 
ATOM     19  H   LIG d   1       7.066  -0.470  -3.594  0.00  0.00     0.066 H 
ATOM     20  H   LIG d   1       6.596  -1.443  -5.008  0.00  0.00     0.066 H 
ENDBRANCH  16  17
ENDBRANCH  14  16
ENDBRANCH  11  14
ENDBRANCH   1  11
TORSDOF 6
ENDMDL
MODEL 9
REMARK VINA RESULT:      -3.4      2.245      2.990
REMARK  6 active torsions:
REMARK  status: ('A' for Active; 'I' for Inactive)
REMARK    1  A    between atoms: C_1  and  C_2 
REMARK    2  A    between atoms: C_2  and  C_3 
REMARK    3  A    between atoms: C_2  and  C_4 
REMARK    4  A    between atoms: C_4  and  C_5 
REMARK    5  A    between atoms: C_5  and  O_7 
REMARK    6  A    between atoms: O_7  and  C_8 
ROOT
ATOM      1  C   LIG d   1       5.040  -2.303  -3.981  0.00  0.00    -0.037 C 
ATOM      2  H   LIG d   1       4.717  -1.500  -4.643  0.00  0.00     0.030 H 
ENDROOT
BRANCH   1   3
ATOM      3  C   LIG d   1       6.473  -2.036  -3.517  0.00  0.00    -0.062 C 
ATOM      4  H   LIG d   1       7.086  -2.917  -3.706  0.00  0.00     0.023 H 
ATOM      5  H   LIG d   1       6.880  -1.186  -4.064  0.00  0.00     0.023 H 
ATOM      6  H   LIG d   1       6.474  -1.817  -2.449  0.00  0.00     0.023 H 
ENDBRANCH   1   3
BRANCH   1   7
ATOM      7  C   LIG d   1       4.986  -3.635  -4.732  0.00  0.00    -0.062 C 
ATOM      8  H   LIG d   1       5.998  -3.950  -4.987  0.00  0.00     0.023 H 
ATOM      9  H   LIG d   1       4.519  -4.390  -4.101  0.00  0.00     0.023 H 
ATOM     10  H   LIG d   1       4.402  -3.513  -5.645  0.00  0.00     0.023 H 
ENDBRANCH   1   7
BRANCH   1  11
ATOM     11  C   LIG d   1       4.113  -2.366  -2.764  0.00  0.00     0.047 C 
ATOM     12  H   LIG d   1       4.664  -2.756  -1.908  0.00  0.00     0.038 H 
ATOM     13  H   LIG d   1       3.270  -3.020  -2.984  0.00  0.00     0.038 H 
BRANCH  11  14
ATOM     14  C   LIG d   1       3.607  -0.982  -2.447  0.00  0.00     0.307 C 
ATOM     15  O   LIG d   1       2.589  -0.580  -2.958  0.00  0.00    -0.251 OA
BRANCH  14  16
ATOM     16  O   LIG d   1       4.284  -0.200  -1.591  0.00  0.00    -0.468 OA
BRANCH  16  17
ATOM     17  C   LIG d   1       4.642   1.128  -2.055  0.00  0.00     0.082 C 
ATOM     18  H   LIG d   1       3.783   1.792  -1.956  0.00  0.00     0.066 H 
ATOM     19  H   LIG d   1       5.468   1.512  -1.455  0.00  0.00     0.066 H 
ATOM     20  H   LIG d   1       4.945   1.079  -3.100  0.00  0.00     0.066 H 
ENDBRANCH  16  17
ENDBRANCH  14  16
ENDBRANCH  11  14
ENDBRANCH   1  11
TORSDOF 6
ENDMDL
MODEL 10
REMARK VINA RESULT:      -3.2      2.588      3.178
REMARK  6 active torsions:
REMARK  status: ('A' for Active; 'I' for Inactive)
REMARK    1  A    between atoms: C_1  and  C_2 
REMARK    2  A    between atoms: C_2  and  C_3 
REMARK    3  A    between atoms: C_2  and  C_4 
REMARK    4  A    between atoms: C_4  and  C_5 
REMARK    5  A    between atoms: C_5  and  O_7 
REMARK    6  A    between atoms: O_7  and  C_8 
ROOT
ATOM      1  C   LIG d   1       4.698  -0.230  -2.656  0.00  0.00    -0.037 C 
ATOM      2  H   LIG d   1       4.060  -0.064  -3.525  0.00  0.00     0.030 H 
ENDROOT
BRANCH   1   3
ATOM      3  C   LIG d   1       4.321  -1.556  -1.993  0.00  0.00    -0.062 C 
ATOM      4  H   LIG d   1       3.245  -1.583  -1.821  0.00  0.00     0.023 H 
ATOM      5  H   LIG d   1       4.606  -2.382  -2.644  0.00  0.00     0.023 H 
ATOM      6  H   LIG d   1       4.843  -1.646  -1.040  0.00  0.00     0.023 H 
ENDBRANCH   1   3
BRANCH   1   7
ATOM      7  C   LIG d   1       4.506   0.914  -1.658  0.00  0.00    -0.062 C 
ATOM      8  H   LIG d   1       5.222   1.707  -1.873  0.00  0.00     0.023 H 
ATOM      9  H   LIG d   1       3.493   1.306  -1.744  0.00  0.00     0.023 H 
ATOM     10  H   LIG d   1       4.667   0.542  -0.646  0.00  0.00     0.023 H 
ENDBRANCH   1   7
BRANCH   1  11
ATOM     11  C   LIG d   1       6.161  -0.280  -3.101  0.00  0.00     0.047 C 
ATOM     12  H   LIG d   1       6.776  -0.660  -2.284  0.00  0.00     0.038 H 
ATOM     13  H   LIG d   1       6.493   0.723  -3.370  0.00  0.00     0.038 H 
BRANCH  11  14
ATOM     14  C   LIG d   1       6.293  -1.190  -4.294  0.00  0.00     0.307 C 
ATOM     15  O   LIG d   1       5.740  -0.911  -5.331  0.00  0.00    -0.251 OA
BRANCH  14  16
ATOM     16  O   LIG d   1       7.031  -2.308  -4.207  0.00  0.00    -0.468 OA
BRANCH  16  17
ATOM     17  C   LIG d   1       6.481  -3.509  -4.809  0.00  0.00     0.082 C 
ATOM     18  H   LIG d   1       5.609  -3.249  -5.409  0.00  0.00     0.066 H 
ATOM     19  H   LIG d   1       7.235  -3.974  -5.446  0.00  0.00     0.066 H 
ATOM     20  H   LIG d   1       6.188  -4.207  -4.025  0.00  0.00     0.066 H 
ENDBRANCH  16  17
ENDBRANCH  14  16
ENDBRANCH  11  14
ENDBRANCH   1  11
TORSDOF 6
ENDMDL
