MODEL 1
REMARK VINA RESULT:      -5.0      0.000      0.000
REMARK  2 active torsions:
REMARK  status: ('A' for Active; 'I' for Inactive)
REMARK    1  A    between atoms: C_2  and  C_11 
REMARK    2  A    between atoms: C_4  and  C_9 
ROOT
ATOM      1  C   LIG d   1       5.747  -1.915  -3.986  0.00  0.00     0.057 C 
ATOM      2  C   LIG d   1       5.582  -0.808  -2.922  0.00  0.00     0.051 C 
ATOM      3  H   LIG d   1       6.135  -1.054  -2.016  0.00  0.00     0.041 H 
ATOM      4  C   LIG d   1       4.063  -0.808  -2.650  0.00  0.00     0.150 C 
ATOM      5  H   LIG d   1       3.870  -1.063  -1.608  0.00  0.00     0.080 H 
ATOM      6  O   LIG d   1       3.490  -1.818  -3.527  0.00  0.00    -0.455 OA
ATOM      7  C   LIG d   1       4.445  -2.690  -3.897  0.00  0.00     0.308 C 
ATOM      8  O   LIG d   1       4.294  -3.869  -4.118  0.00  0.00    -0.251 OA
ATOM      9  H   LIG d   1       5.868  -1.480  -4.978  0.00  0.00     0.038 H 
ATOM     10  H   LIG d   1       6.593  -2.559  -3.742  0.00  0.00     0.038 H 
ENDROOT
BRANCH   2  11
ATOM     11  C   LIG d   1       6.025   0.526  -3.468  0.00  0.00     0.049 C 
ATOM     12  O   LIG d   1       6.247   1.443  -2.714  0.00  0.00    -0.549 OA
ATOM     13  O   LIG d   1       6.174   0.693  -4.792  0.00  0.00    -0.549 OA
ENDBRANCH   2  11
BRANCH   4  14
ATOM     14  C   LIG d   1       3.481   0.545  -2.969  0.00  0.00     0.083 C 
ATOM     15  O   LIG d   1       3.328   1.359  -2.088  0.00  0.00    -0.546 OA
ATOM     16  O   LIG d   1       3.132   0.847  -4.229  0.00  0.00    -0.546 OA
ENDBRANCH   4  14
TORSDOF 2
ENDMDL
MODEL 2
REMARK VINA RESULT:      -4.7      1.658      2.732
REMARK  2 active torsions:
REMARK  status: ('A' for Active; 'I' for Inactive)
REMARK    1  A    between atoms: C_2  and  C_11 
REMARK    2  A    between atoms: C_4  and  C_9 
ROOT
ATOM      1  C   LIG d   1       5.137  -2.149  -3.835  0.00  0.00     0.057 C 
ATOM      2  C   LIG d   1       4.519  -0.813  -4.305  0.00  0.00     0.051 C 
ATOM      3  H   LIG d   1       4.537  -0.737  -5.391  0.00  0.00     0.041 H 
ATOM      4  C   LIG d   1       5.446   0.244  -3.669  0.00  0.00     0.150 C 
ATOM      5  H   LIG d   1       5.927   0.836  -4.448  0.00  0.00     0.080 H 
ATOM      6  O   LIG d   1       6.446  -0.491  -2.909  0.00  0.00    -0.455 OA
ATOM      7  C   LIG d   1       6.527  -1.752  -3.371  0.00  0.00     0.308 C 
ATOM      8  O   LIG d   1       7.519  -2.441  -3.407  0.00  0.00    -0.251 OA
ATOM      9  H   LIG d   1       4.562  -2.569  -3.009  0.00  0.00     0.038 H 
ATOM     10  H   LIG d   1       5.196  -2.856  -4.662  0.00  0.00     0.038 H 
ENDROOT
BRANCH   2  11
ATOM     11  C   LIG d   1       3.111  -0.666  -3.786  0.00  0.00     0.049 C 
ATOM     12  O   LIG d   1       2.779  -1.231  -2.771  0.00  0.00    -0.549 OA
ATOM     13  O   LIG d   1       2.226   0.092  -4.453  0.00  0.00    -0.549 OA
ENDBRANCH   2  11
BRANCH   4  14
ATOM     14  C   LIG d   1       4.655   1.141  -2.752  0.00  0.00     0.083 C 
ATOM     15  O   LIG d   1       4.617   0.909  -1.566  0.00  0.00    -0.546 OA
ATOM     16  O   LIG d   1       3.994   2.197  -3.251  0.00  0.00    -0.546 OA
ENDBRANCH   4  14
TORSDOF 2
ENDMDL
MODEL 3
REMARK VINA RESULT:      -4.6      1.440      2.094
REMARK  2 active torsions:
REMARK  status: ('A' for Active; 'I' for Inactive)
REMARK    1  A    between atoms: C_2  and  C_11 
REMARK    2  A    between atoms: C_4  and  C_9 
ROOT
ATOM      1  C   LIG d   1       6.230  -1.075  -2.984  0.00  0.00     0.057 C 
ATOM      2  C   LIG d   1       4.756  -0.704  -2.710  0.00  0.00     0.051 C 
ATOM      3  H   LIG d   1       4.406  -1.160  -1.784  0.00  0.00     0.041 H 
ATOM      4  C   LIG d   1       4.014  -1.299  -3.925  0.00  0.00     0.150 C 
ATOM      5  H   LIG d   1       3.302  -2.056  -3.594  0.00  0.00     0.080 H 
ATOM      6  O   LIG d   1       5.031  -1.904  -4.771  0.00  0.00    -0.455 OA
ATOM      7  C   LIG d   1       6.132  -2.160  -4.041  0.00  0.00     0.308 C 
ATOM      8  O   LIG d   1       6.899  -3.080  -4.198  0.00  0.00    -0.251 OA
ATOM      9  H   LIG d   1       6.778  -0.214  -3.368  0.00  0.00     0.038 H 
ATOM     10  H   LIG d   1       6.703  -1.461  -2.081  0.00  0.00     0.038 H 
ENDROOT
BRANCH   2  11
ATOM     11  C   LIG d   1       4.584   0.793  -2.662  0.00  0.00     0.049 C 
ATOM     12  O   LIG d   1       5.360   1.510  -3.248  0.00  0.00    -0.549 OA
ATOM     13  O   LIG d   1       3.568   1.330  -1.968  0.00  0.00    -0.549 OA
ENDBRANCH   2  11
BRANCH   4  14
ATOM     14  C   LIG d   1       3.296  -0.208  -4.678  0.00  0.00     0.083 C 
ATOM     15  O   LIG d   1       2.172   0.104  -4.363  0.00  0.00    -0.546 OA
ATOM     16  O   LIG d   1       3.905   0.418  -5.697  0.00  0.00    -0.546 OA
ENDBRANCH   4  14
TORSDOF 2
ENDMDL
MODEL 4
REMARK VINA RESULT:      -4.6      1.492      3.790
REMARK  2 active torsions:
REMARK  status: ('A' for Active; 'I' for Inactive)
REMARK    1  A    between atoms: C_2  and  C_11 
REMARK    2  A    between atoms: C_4  and  C_9 
ROOT
ATOM      1  C   LIG d   1       4.696  -0.888  -2.060  0.00  0.00     0.057 C 
ATOM      2  C   LIG d   1       5.698  -1.435  -3.101  0.00  0.00     0.051 C 
ATOM      3  H   LIG d   1       6.596  -1.815  -2.614  0.00  0.00     0.041 H 
ATOM      4  C   LIG d   1       6.025  -0.194  -3.957  0.00  0.00     0.150 C 
ATOM      5  H   LIG d   1       7.087   0.041  -3.884  0.00  0.00     0.080 H 
ATOM      6  O   LIG d   1       5.232   0.899  -3.415  0.00  0.00    -0.455 OA
ATOM      7  C   LIG d   1       4.880   0.616  -2.147  0.00  0.00     0.308 C 
ATOM      8  O   LIG d   1       4.735   1.411  -1.249  0.00  0.00    -0.251 OA
ATOM      9  H   LIG d   1       3.676  -1.166  -2.324  0.00  0.00     0.038 H 
ATOM     10  H   LIG d   1       4.947  -1.247  -1.061  0.00  0.00     0.038 H 
ENDROOT
BRANCH   2  11
ATOM     11  C   LIG d   1       5.057  -2.509  -3.943  0.00  0.00     0.049 C 
ATOM     12  O   LIG d   1       3.855  -2.545  -4.064  0.00  0.00    -0.549 OA
ATOM     13  O   LIG d   1       5.821  -3.426  -4.558  0.00  0.00    -0.549 OA
ENDBRANCH   2  11
BRANCH   4  14
ATOM     14  C   LIG d   1       5.647  -0.444  -5.395  0.00  0.00     0.083 C 
ATOM     15  O   LIG d   1       6.436  -0.972  -6.143  0.00  0.00    -0.546 OA
ATOM     16  O   LIG d   1       4.436  -0.081  -5.845  0.00  0.00    -0.546 OA
ENDBRANCH   4  14
TORSDOF 2
ENDMDL
MODEL 5
REMARK VINA RESULT:      -4.6      1.281      3.384
REMARK  2 active torsions:
REMARK  status: ('A' for Active; 'I' for Inactive)
REMARK    1  A    between atoms: C_2  and  C_11 
REMARK    2  A    between atoms: C_4  and  C_9 
ROOT
ATOM      1  C   LIG d   1       6.660  -0.463  -3.099  0.00  0.00     0.057 C 
ATOM      2  C   LIG d   1       5.378  -0.981  -3.788  0.00  0.00     0.051 C 
ATOM      3  H   LIG d   1       5.616  -1.481  -4.726  0.00  0.00     0.041 H 
ATOM      4  C   LIG d   1       4.574   0.311  -4.048  0.00  0.00     0.150 C 
ATOM      5  H   LIG d   1       4.424   0.448  -5.119  0.00  0.00     0.080 H 
ATOM      6  O   LIG d   1       5.369   1.404  -3.510  0.00  0.00    -0.455 OA
ATOM      7  C   LIG d   1       6.656   1.023  -3.414  0.00  0.00     0.308 C 
ATOM      8  O   LIG d   1       7.626   1.730  -3.551  0.00  0.00    -0.251 OA
ATOM      9  H   LIG d   1       6.611  -0.626  -2.023  0.00  0.00     0.038 H 
ATOM     10  H   LIG d   1       7.543  -0.941  -3.522  0.00  0.00     0.038 H 
ENDROOT
BRANCH   2  11
ATOM     11  C   LIG d   1       4.618  -1.905  -2.872  0.00  0.00     0.049 C 
ATOM     12  O   LIG d   1       4.569  -1.675  -1.687  0.00  0.00    -0.549 OA
ATOM     13  O   LIG d   1       3.994  -2.984  -3.372  0.00  0.00    -0.549 OA
ENDBRANCH   2  11
BRANCH   4  14
ATOM     14  C   LIG d   1       3.243   0.242  -3.344  0.00  0.00     0.083 C 
ATOM     15  O   LIG d   1       2.321  -0.350  -3.852  0.00  0.00    -0.546 OA
ATOM     16  O   LIG d   1       3.082   0.839  -2.152  0.00  0.00    -0.546 OA
ENDBRANCH   4  14
TORSDOF 2
ENDMDL
MODEL 6
REMARK VINA RESULT:      -4.6      1.332      4.008
REMARK  2 active torsions:
REMARK  status: ('A' for Active; 'I' for Inactive)
REMARK    1  A    between atoms: C_2  and  C_11 
REMARK    2  A    between atoms: C_4  and  C_9 
ROOT
ATOM      1  C   LIG d   1       5.038   0.484  -2.404  0.00  0.00     0.057 C 
ATOM      2  C   LIG d   1       5.080  -1.060  -2.451  0.00  0.00     0.051 C 
ATOM      3  H   LIG d   1       5.598  -1.461  -1.580  0.00  0.00     0.041 H 
ATOM      4  C   LIG d   1       5.878  -1.348  -3.740  0.00  0.00     0.150 C 
ATOM      5  H   LIG d   1       6.795  -1.887  -3.500  0.00  0.00     0.080 H 
ATOM      6  O   LIG d   1       6.196  -0.054  -4.324  0.00  0.00    -0.455 OA
ATOM      7  C   LIG d   1       6.127   0.899  -3.377  0.00  0.00     0.308 C 
ATOM      8  O   LIG d   1       6.805   1.897  -3.312  0.00  0.00    -0.251 OA
ATOM      9  H   LIG d   1       4.067   0.852  -2.736  0.00  0.00     0.038 H 
ATOM     10  H   LIG d   1       5.263   0.844  -1.400  0.00  0.00     0.038 H 
ENDROOT
BRANCH   2  11
ATOM     11  C   LIG d   1       3.687  -1.628  -2.548  0.00  0.00     0.049 C 
ATOM     12  O   LIG d   1       3.477  -2.771  -2.218  0.00  0.00    -0.549 OA
ATOM     13  O   LIG d   1       2.681  -0.864  -3.000  0.00  0.00    -0.549 OA
ENDBRANCH   2  11
BRANCH   4  14
ATOM     14  C   LIG d   1       5.039  -2.156  -4.697  0.00  0.00     0.083 C 
ATOM     15  O   LIG d   1       4.340  -1.595  -5.508  0.00  0.00    -0.546 OA
ATOM     16  O   LIG d   1       5.068  -3.497  -4.650  0.00  0.00    -0.546 OA
ENDBRANCH   4  14
TORSDOF 2
ENDMDL
MODEL 7
REMARK VINA RESULT:      -4.6      2.023      2.632
REMARK  2 active torsions:
REMARK  status: ('A' for Active; 'I' for Inactive)
REMARK    1  A    between atoms: C_2  and  C_11 
REMARK    2  A    between atoms: C_4  and  C_9 
ROOT
ATOM      1  C   LIG d   1       4.457  -0.426  -6.089  0.00  0.00     0.057 C 
ATOM      2  C   LIG d   1       4.359  -0.731  -4.577  0.00  0.00     0.051 C 
ATOM      3  H   LIG d   1       4.216  -1.797  -4.405  0.00  0.00     0.041 H 
ATOM      4  C   LIG d   1       3.112   0.064  -4.140  0.00  0.00     0.150 C 
ATOM      5  H   LIG d   1       2.350  -0.616  -3.757  0.00  0.00     0.080 H 
ATOM      6  O   LIG d   1       2.622   0.747  -5.328  0.00  0.00    -0.455 OA
ATOM      7  C   LIG d   1       3.083   0.125  -6.428  0.00  0.00     0.308 C 
ATOM      8  O   LIG d   1       2.511   0.025  -7.488  0.00  0.00    -0.251 OA
ATOM      9  H   LIG d   1       5.227   0.321  -6.281  0.00  0.00     0.038 H 
ATOM     10  H   LIG d   1       4.654  -1.337  -6.653  0.00  0.00     0.038 H 
ENDROOT
BRANCH   2  11
ATOM     11  C   LIG d   1       5.587  -0.237  -3.855  0.00  0.00     0.049 C 
ATOM     12  O   LIG d   1       5.959  -0.793  -2.848  0.00  0.00    -0.549 OA
ATOM     13  O   LIG d   1       6.266   0.819  -4.330  0.00  0.00    -0.549 OA
ENDBRANCH   2  11
BRANCH   4  14
ATOM     14  C   LIG d   1       3.485   1.070  -3.081  0.00  0.00     0.083 C 
ATOM     15  O   LIG d   1       3.518   0.740  -1.919  0.00  0.00    -0.546 OA
ATOM     16  O   LIG d   1       3.781   2.333  -3.428  0.00  0.00    -0.546 OA
ENDBRANCH   4  14
TORSDOF 2
ENDMDL
MODEL 8
REMARK VINA RESULT:      -4.4      8.615     10.018
REMARK  2 active torsions:
REMARK  status: ('A' for Active; 'I' for Inactive)
REMARK    1  A    between atoms: C_2  and  C_11 
REMARK    2  A    between atoms: C_4  and  C_9 
ROOT
ATOM      1  C   LIG d   1       5.337 -10.569  -2.118  0.00  0.00     0.057 C 
ATOM      2  C   LIG d   1       4.815 -10.999  -3.507  0.00  0.00     0.051 C 
ATOM      3  H   LIG d   1       4.984 -12.062  -3.673  0.00  0.00     0.041 H 
ATOM      4  C   LIG d   1       5.667 -10.154  -4.477  0.00  0.00     0.150 C 
ATOM      5  H   LIG d   1       6.262 -10.806  -5.117  0.00  0.00     0.080 H 
ATOM      6  O   LIG d   1       6.539  -9.334  -3.649  0.00  0.00    -0.455 OA
ATOM      7  C   LIG d   1       6.658  -9.889  -2.430  0.00  0.00     0.308 C 
ATOM      8  O   LIG d   1       7.632  -9.852  -1.716  0.00  0.00    -0.251 OA
ATOM      9  H   LIG d   1       4.647  -9.869  -1.647  0.00  0.00     0.038 H 
ATOM     10  H   LIG d   1       5.496 -11.440  -1.481  0.00  0.00     0.038 H 
ENDROOT
BRANCH   2  11
ATOM     11  C   LIG d   1       3.353 -10.664  -3.653  0.00  0.00     0.049 C 
ATOM     12  O   LIG d   1       2.888  -9.717  -3.063  0.00  0.00    -0.549 OA
ATOM     13  O   LIG d   1       2.567 -11.418  -4.438  0.00  0.00    -0.549 OA
ENDBRANCH   2  11
BRANCH   4  14
ATOM     14  C   LIG d   1       4.775  -9.276  -5.318  0.00  0.00     0.083 C 
ATOM     15  O   LIG d   1       4.550  -8.140  -4.974  0.00  0.00    -0.546 OA
ATOM     16  O   LIG d   1       4.233  -9.756  -6.447  0.00  0.00    -0.546 OA
ENDBRANCH   4  14
TORSDOF 2
ENDMDL
MODEL 9
REMARK VINA RESULT:      -4.1      8.287     10.043
REMARK  2 active torsions:
REMARK  status: ('A' for Active; 'I' for Inactive)
REMARK    1  A    between atoms: C_2  and  C_11 
REMARK    2  A    between atoms: C_4  and  C_9 
ROOT
ATOM      1  C   LIG d   1       6.574 -10.646  -4.730  0.00  0.00     0.057 C 
ATOM      2  C   LIG d   1       5.641  -9.597  -4.085  0.00  0.00     0.051 C 
ATOM      3  H   LIG d   1       6.217  -8.837  -3.557  0.00  0.00     0.041 H 
ATOM      4  C   LIG d   1       4.804 -10.433  -3.095  0.00  0.00     0.150 C 
ATOM      5  H   LIG d   1       4.976 -10.088  -2.076  0.00  0.00     0.080 H 
ATOM      6  O   LIG d   1       5.253 -11.810  -3.240  0.00  0.00    -0.455 OA
ATOM      7  C   LIG d   1       6.484 -11.829  -3.783  0.00  0.00     0.308 C 
ATOM      8  O   LIG d   1       7.354 -12.637  -3.559  0.00  0.00    -0.251 OA
ATOM      9  H   LIG d   1       6.215 -10.921  -5.722  0.00  0.00     0.038 H 
ATOM     10  H   LIG d   1       7.596 -10.272  -4.779  0.00  0.00     0.038 H 
ENDROOT
BRANCH   2  11
ATOM     11  C   LIG d   1       4.755  -8.961  -5.126  0.00  0.00     0.049 C 
ATOM     12  O   LIG d   1       4.440  -7.799  -5.023  0.00  0.00    -0.549 OA
ATOM     13  O   LIG d   1       4.318  -9.685  -6.169  0.00  0.00    -0.549 OA
ENDBRANCH   2  11
BRANCH   4  14
ATOM     14  C   LIG d   1       3.340 -10.327  -3.437  0.00  0.00     0.083 C 
ATOM     15  O   LIG d   1       2.687  -9.403  -3.014  0.00  0.00    -0.546 OA
ATOM     16  O   LIG d   1       2.762 -11.259  -4.212  0.00  0.00    -0.546 OA
ENDBRANCH   4  14
TORSDOF 2
ENDMDL
MODEL 10
REMARK VINA RESULT:      -3.9      1.843      3.080
REMARK  2 active torsions:
REMARK  status: ('A' for Active; 'I' for Inactive)
REMARK    1  A    between atoms: C_2  and  C_11 
REMARK    2  A    between atoms: C_4  and  C_9 
ROOT
ATOM      1  C   LIG d   1       6.290  -1.448  -5.170  0.00  0.00     0.057 C 
ATOM      2  C   LIG d   1       4.846  -1.819  -4.764  0.00  0.00     0.051 C 
ATOM      3  H   LIG d   1       4.553  -2.773  -5.200  0.00  0.00     0.041 H 
ATOM      4  C   LIG d   1       4.009  -0.668  -5.359  0.00  0.00     0.150 C 
ATOM      5  H   LIG d   1       3.307  -1.058  -6.096  0.00  0.00     0.080 H 
ATOM      6  O   LIG d   1       4.952   0.238  -5.998  0.00  0.00    -0.455 OA
ATOM      7  C   LIG d   1       6.096  -0.417  -6.268  0.00  0.00     0.308 C 
ATOM      8  O   LIG d   1       6.831  -0.221  -7.207  0.00  0.00    -0.251 OA
ATOM      9  H   LIG d   1       6.827  -1.014  -4.327  0.00  0.00     0.038 H 
ATOM     10  H   LIG d   1       6.817  -2.322  -5.555  0.00  0.00     0.038 H 
ENDROOT
BRANCH   2  11
ATOM     11  C   LIG d   1       4.709  -1.856  -3.263  0.00  0.00     0.049 C 
ATOM     12  O   LIG d   1       5.408  -1.151  -2.575  0.00  0.00    -0.549 OA
ATOM     13  O   LIG d   1       3.809  -2.672  -2.692  0.00  0.00    -0.549 OA
ENDBRANCH   2  11
BRANCH   4  14
ATOM     14  C   LIG d   1       3.263   0.050  -4.263  0.00  0.00     0.083 C 
ATOM     15  O   LIG d   1       3.703   1.080  -3.808  0.00  0.00    -0.546 OA
ATOM     16  O   LIG d   1       2.111  -0.454  -3.793  0.00  0.00    -0.546 OA
ENDBRANCH   4  14
TORSDOF 2
ENDMDL
